#------------------------------------------------------------------------------
#$Date: 2019-11-04 11:39:41 +0200 (Mon, 04 Nov 2019) $
#$Revision: 222627 $
#$URL: file:///home/coder/svn-repositories/cod/cif/4/03/40/4034067.cif $
#------------------------------------------------------------------------------
#
# This file is available in the Crystallography Open Database (COD),
# http://www.crystallography.net/
#
# All data on this site have been placed in the public domain by the
# contributors.
#
data_4034067
loop_
_publ_author_name
'Yuan, Yu-Chao'
'Bruneau, Christian'
'Roisnel, Thierry'
'Gramage-Doria, Rafael'
_publ_section_title
;
 Site-Selective Ruthenium-Catalyzed C-H Bond Arylations with Boronic
 Acids: Exploiting Isoindolinones as a Weak Directing Group.
;
_journal_issue                   20
_journal_name_full               'The Journal of organic chemistry'
_journal_page_first              12893
_journal_page_last               12903
_journal_paper_doi               10.1021/acs.joc.9b01563
_journal_volume                  84
_journal_year                    2019
_chemical_compound_source        'synthesis as described'
_chemical_formula_moiety         'C20 H14 Cl N O'
_chemical_formula_sum            'C20 H14 Cl N O'
_chemical_formula_weight         319.77
_space_group_crystal_system      triclinic
_space_group_IT_number           2
_space_group_name_Hall           '-P 1'
_space_group_name_H-M_alt        'P -1'
_atom_sites_solution_hydrogens   geom
_atom_sites_solution_primary     dual
_atom_sites_solution_secondary   difmap
_cell_angle_alpha                100.538(4)
_cell_angle_beta                 104.424(4)
_cell_angle_gamma                110.934(3)
_cell_formula_units_Z            2
_cell_length_a                   8.1744(8)
_cell_length_b                   10.4984(12)
_cell_length_c                   11.0518(13)
_cell_measurement_reflns_used    9284
_cell_measurement_temperature    150
_cell_measurement_theta_max      27.5380
_cell_measurement_theta_min      2.4721
_cell_measurement_wavelength     0.71073
_cell_volume                     818.25(16)
_computing_cell_refinement       'APEX3 (Bruker, 2015)'
_computing_data_collection       'SAINT (Bruker, 2014)'
_computing_data_reduction        'SAINT (Bruker, 2014)'
_computing_molecular_graphics
'SXGRAPH (L. Farrugia, 1999), Mercury (CSD, 2016)'
_computing_publication_material  'CRYSCALC (T. Roisnel, local program, 2019)'
_computing_structure_refinement  'SHELXL-2018_3 (Sheldrick, 2018)'
_computing_structure_solution    'SHELXT (G. Sheldrick, 2015)'
_diffrn_ambient_temperature      150
_diffrn_detector                 '(CMOS) PHOTON 100'
_diffrn_detector_area_resol_mean 10.4167
_diffrn_measured_fraction_theta_full 0.993
_diffrn_measured_fraction_theta_max 0.991
_diffrn_measurement_device_type  'D8 VENTURE Bruker AXS'
_diffrn_measurement_method       'rotation images'
_diffrn_radiation_monochromator  'multilayer monochromator'
_diffrn_radiation_probe          x-ray
_diffrn_radiation_source         'Incoatec microfocus sealed tube'
_diffrn_radiation_type           MoK\a
_diffrn_radiation_wavelength     0.71073
_diffrn_reflns_av_R_equivalents  0.0371
_diffrn_reflns_av_unetI/netI     0.0353
_diffrn_reflns_limit_h_max       10
_diffrn_reflns_limit_h_min       -9
_diffrn_reflns_limit_k_max       13
_diffrn_reflns_limit_k_min       -13
_diffrn_reflns_limit_l_max       14
_diffrn_reflns_limit_l_min       -14
_diffrn_reflns_number            15450
_diffrn_reflns_theta_full        25.242
_diffrn_reflns_theta_max         27.554
_diffrn_reflns_theta_min         2.178
_diffrn_source_current           1.0
_diffrn_source_voltage           50.0
_exptl_absorpt_coefficient_mu    0.237
_exptl_absorpt_correction_T_max  0.929
_exptl_absorpt_correction_T_min  0.856
_exptl_absorpt_correction_type   multi-scan
_exptl_absorpt_process_details
;
  [Sheldrick, G.M. (2014). SADABS Bruker AXS Inc., Madison, Wisconsin, USA]
;
_exptl_crystal_colour            colourless
_exptl_crystal_density_diffrn    1.298
_exptl_crystal_description       prism
_exptl_crystal_F_000             332
_exptl_crystal_size_max          0.580
_exptl_crystal_size_mid          0.440
_exptl_crystal_size_min          0.310
_refine_diff_density_max         0.359
_refine_diff_density_min         -0.432
_refine_diff_density_rms         0.046
_refine_ls_extinction_coef       0.079(7)
_refine_ls_extinction_method     'SHELXL-2018_3 (Sheldrick 2018)'
_refine_ls_goodness_of_fit_ref   1.012
_refine_ls_hydrogen_treatment    constr
_refine_ls_matrix_type           full
_refine_ls_number_parameters     209
_refine_ls_number_reflns         3750
_refine_ls_number_restraints     0
_refine_ls_restrained_S_all      1.012
_refine_ls_R_factor_all          0.0399
_refine_ls_R_factor_gt           0.0351
_refine_ls_shift/su_max          0.000
_refine_ls_shift/su_mean         0.000
_refine_ls_structure_factor_coef Fsqd
_refine_ls_weighting_details
'w=1/[\s^2^(Fo^2^)+(0.0411P)^2^+0.3969P] where P=(Fo^2^+2Fc^2^)/3'
_refine_ls_weighting_scheme      calc
_refine_ls_wR_factor_gt          0.0913
_refine_ls_wR_factor_ref         0.0959
_reflns_Friedel_coverage         0.000
_reflns_number_gt                3345
_reflns_number_total             3750
_reflns_threshold_expression     >2sigma(I)
_cod_data_source_file            jo9b01563_si_003.cif
_cod_data_source_block           YYC57
_cod_original_cell_volume        818.24(16)
_cod_database_code               4034067
_shelx_res_file
;
TITL import_a.res in P-1 (created by CRYSCALC)
    job.res
    created by SHELXL-2018/3 at 11:24:15 on 09-Apr-2019
CELL  0.71073   8.1744  10.4984  11.0518  100.538  104.424  110.934
ZERR     2.00   0.0008   0.0012   0.0013    0.004    0.004    0.003
LATT   1
SFAC  C    H    CL   N    O
UNIT  40   28   2    2    2
MERG   2
FMAP   2
PLAN   20
SIZE     0.31   0.44   0.58
ACTA
BOND   $H
CONF
LIST   4
WPDB  -2
L.S.   4
TEMP  -123.00
WGHT    0.041100    0.396900
EXTI    0.079354
FVAR       1.07392
C1    1    0.896616    0.420909    0.192418    11.00000    0.02413    0.01938 =
         0.02417    0.00625    0.01127    0.00985
C2    1    0.867165    0.402287    0.307412    11.00000    0.02427    0.02211 =
         0.02418    0.01071    0.00857    0.01104
AFIX  43
H2    2    0.899144    0.336267    0.345049    11.00000   -1.20000
AFIX   0
C3    1    0.789626    0.482899    0.365887    11.00000    0.02370    0.02663 =
         0.01783    0.00998    0.00806    0.01103
AFIX  43
H3    2    0.764909    0.469815    0.443376    11.00000   -1.20000
AFIX   0
C4    1    0.747258    0.582854    0.312999    11.00000    0.01717    0.02116 =
         0.01584    0.00450    0.00486    0.00803
C5    1    0.783777    0.604918    0.198931    11.00000    0.01705    0.01711 =
         0.01566    0.00415    0.00364    0.00521
C6    1    0.855530    0.519498    0.137812    11.00000    0.02543    0.01931 =
         0.01834    0.00587    0.01033    0.00822
AFIX  43
H6    2    0.876251    0.529053    0.058431    11.00000   -1.20000
AFIX   0
C7    1    0.751264    0.715290    0.141717    11.00000    0.01806    0.01883 =
         0.01625    0.00580    0.00637    0.00739
C8    1    0.654341    0.678457    0.007614    11.00000    0.02312    0.01860 =
         0.01658    0.00334    0.00407    0.00478
AFIX  43
H8    2    0.607300    0.582539   -0.045706    11.00000   -1.20000
AFIX   0
C9    1    0.626113    0.780139   -0.048389    11.00000    0.02852    0.02801 =
         0.01971    0.00903    0.00216    0.00834
AFIX  43
H9    2    0.558290    0.753473   -0.139221    11.00000   -1.20000
AFIX   0
C10   1    0.697222    0.921126    0.028607    11.00000    0.03514    0.02525 =
         0.03053    0.01381    0.00845    0.01467
AFIX  43
H10   2    0.678241    0.991027   -0.009559    11.00000   -1.20000
AFIX   0
C11   1    0.796206    0.959807    0.161595    11.00000    0.03361    0.01825 =
         0.02699    0.00466    0.00899    0.00984
AFIX  43
H11   2    0.846074    1.056444    0.213952    11.00000   -1.20000
AFIX   0
C12   1    0.822386    0.857731    0.218083    11.00000    0.02394    0.02064 =
         0.01723    0.00360    0.00498    0.00752
AFIX  43
H12   2    0.889006    0.884706    0.309167    11.00000   -1.20000
AFIX   0
N13   4    0.665352    0.660709    0.376829    11.00000    0.01704    0.02687 =
         0.01567    0.00559    0.00468    0.01148
C14   1    0.473271    0.643299    0.319261    11.00000    0.01743    0.03393 =
         0.02209    0.00661    0.00350    0.01268
AFIX  23
H14A  2    0.382437    0.542681    0.296638    11.00000   -1.20000
H14B  2    0.457075    0.675366    0.240002    11.00000   -1.20000
AFIX   0
C15   1    0.453429    0.738845    0.428778    11.00000    0.01959    0.02481 =
         0.02507    0.01259    0.01014    0.01007
C16   1    0.304233    0.770946    0.434600    11.00000    0.01933    0.03356 =
         0.03620    0.01673    0.01138    0.01376
AFIX  43
H16   2    0.190971    0.729501    0.362198    11.00000   -1.20000
AFIX   0
C17   1    0.325543    0.865655    0.549671    11.00000    0.02745    0.03378 =
         0.04531    0.02241    0.02402    0.02014
AFIX  43
H17   2    0.225253    0.889280    0.555293    11.00000   -1.20000
AFIX   0
C18   1    0.490784    0.926590    0.656824    11.00000    0.03635    0.03155 =
         0.03359    0.01349    0.02280    0.02012
AFIX  43
H18   2    0.501317    0.990615    0.734219    11.00000   -1.20000
AFIX   0
C19   1    0.640145    0.894524    0.651432    11.00000    0.02742    0.02924 =
         0.02479    0.00908    0.01247    0.01455
AFIX  43
H19   2    0.753220    0.935218    0.723929    11.00000   -1.20000
AFIX   0
C20   1    0.617639    0.800553    0.535785    11.00000    0.01892    0.02420 =
         0.02209    0.01137    0.01020    0.01146
C21   1    0.753332    0.750657    0.502874    11.00000    0.02001    0.02307 =
         0.01706    0.00739    0.00759    0.01059
O22   5    0.913519    0.782209    0.570589    11.00000    0.02107    0.04072 =
         0.02218   -0.00010    0.00133    0.01747
CL1   3    0.990434    0.319176    0.115057    11.00000    0.04887    0.02748 =
         0.04105    0.01595    0.02977    0.02444
HKLF    4




REM  import_a.res in P-1 (created by CRYSCALC)
REM wR2 = 0.0959, GooF = S = 1.012, Restrained GooF = 1.012 for all data
REM R1 = 0.0351 for 3345 Fo > 4sig(Fo) and 0.0399 for all 3750 data
REM 209 parameters refined using 0 restraints

END

WGHT      0.0298      0.4218

REM Highest difference peak  0.359,  deepest hole -0.432,  1-sigma level  0.046
Q1    1   0.6858  0.7753  0.5249  11.00000  0.05    0.36
Q2    1   0.8926  0.2834  0.0492  11.00000  0.05    0.33
Q3    1   0.5347  0.7738  0.4779  11.00000  0.05    0.27
Q4    1   0.7820  0.5396  0.3368  11.00000  0.05    0.27
Q5    1   0.7090  0.6218  0.3420  11.00000  0.05    0.26
Q6    1   0.7757  0.5985  0.2608  11.00000  0.05    0.26
Q7    1   0.7655  0.6630  0.1699  11.00000  0.05    0.26
Q8    1   0.4508  0.6898  0.3704  11.00000  0.05    0.25
Q9    1   0.7758  0.9028  0.1903  11.00000  0.05    0.24
Q10   1   0.8470  0.4592  0.3427  11.00000  0.05    0.23
Q11   1   0.7614  0.7800  0.1802  11.00000  0.05    0.23
Q12   1   0.5560  0.8928  0.6517  11.00000  0.05    0.22
Q13   1   0.8457  0.5756  0.1820  11.00000  0.05    0.21
Q14   1   0.3739  0.7447  0.4402  11.00000  0.05    0.21
Q15   1   0.7070  0.6990  0.0779  11.00000  0.05    0.21
Q16   1   0.7325  0.9356  0.0980  11.00000  0.05    0.21
Q17   1   0.8992  0.4837  0.1715  11.00000  0.05    0.20
Q18   1   0.6066  0.7194 -0.0128  11.00000  0.05    0.20
Q19   1   0.3289  0.8179  0.4944  11.00000  0.05    0.20
Q20   1   0.6286  0.8381  0.5894  11.00000  0.05    0.19
;
_shelx_res_checksum              71039
_shelx_hkl_file
;
  -1   0   0    2.46    0.30
  -2   0   0  822.08   42.88
   2   0   0  881.84   42.90
   3   0   0  159.30    8.23
   3   0   0  150.83    7.84
   4   0   0   60.27    3.80
   4   0   0   63.38    3.38
   4   0   0   66.19    3.30
   5   0   0    1.09    0.72
   5   0   0    0.70    0.36
   5   0   0    1.20    0.25
   6   0   0  153.36    8.66
   6   0   0  151.11    7.85
   6   0   0  153.04    8.02
   7   0   0   49.33    3.05
   7   0   0   48.97    3.98
   7   0   0   48.29    2.80
   8   0   0   88.23    5.19
   8   0   0   99.42    6.39
   8   0   0   86.88    4.94
   9   0   0  100.27    5.37
   9   0   0   89.48    6.89
   9   0   0   86.66    5.48
   9  -1   0   34.79    4.11
   9  -1   0   31.31    2.19
   9  -1   0   34.24    2.61
   8  -1   0  178.13    9.24
   8  -1   0  173.47    9.04
   8  -1   0  173.23   10.11
   7  -1   0  489.75   25.60
   7  -1   0  502.17   24.90
   7  -1   0  480.80   24.76
   6  -1   0  528.63   27.34
   6  -1   0  533.98   26.73
   6  -1   0  525.87   26.64
   5  -1   0  211.38   10.45
   5  -1   0  202.29   10.48
   5  -1   0  204.62   11.00
   4  -1   0    1.94    0.60
   4  -1   0    3.12    0.28
   3  -1   0    8.01    0.83
  -3   1   0    7.98    0.80
   2  -1   0  369.24   18.25
  -2   1   0  352.86   18.25
   1  -1   0  347.55   17.49
   1  -1   0  348.43   17.49
   0   1   0  552.19   33.94
   2   1   0  161.77    8.23
   2   1   0  161.99    8.46
   2   1   0  157.04    8.14
   3   1   0  360.82   18.25
   3   1   0  358.82   18.68
   3   1   0  366.25   18.37
   4   1   0   90.13    4.66
   4   1   0   84.81    5.21
   4   1   0   91.10    4.82
   5   1   0   10.70    1.60
   5   1   0   11.01    0.91
   5   1   0   11.44    1.18
   6   1   0  181.56    9.81
   6   1   0  182.44    9.62
   6   1   0  193.54   10.53
   7   1   0   93.67    6.27
   7   1   0   92.46    5.38
   7   1   0   94.02    5.18
   9  -2   0    1.07    0.82
   9  -2   0    2.13    1.80
   9  -2   0    1.59    0.55
   8  -2   0    1.35    1.28
   8  -2   0    0.37    0.41
   8  -2   0    1.04    0.58
   7  -2   0    7.93    0.97
   7  -2   0    5.32    1.27
   7  -2   0    6.37    0.82
   6  -2   0    1.04    0.74
   6  -2   0    1.90    0.37
   6  -2   0    1.24    0.37
   5  -2   0    4.38    0.54
   5  -2   0    5.28    0.54
   5  -2   0    4.05    0.77
   4  -2   0  212.06   10.89
   4  -2   0  209.29   10.66
   4  -2   0  211.71   10.64
  -4   2   0  206.32   10.91
   3  -2   0  114.41    5.83
   3  -2   0  110.97    5.83
   3  -2   0  113.85    5.90
  -3   2   0  113.05    5.92
   2  -2   0    1.86    0.32
   2  -2   0    1.82    0.31
   2  -2   0    1.71    0.26
  -2   2   0    1.75    0.27
  -2   2   0    1.38    0.24
  -2   2   0    1.17    0.25
   1  -2   0  268.32   13.49
   1  -2   0  261.30   13.48
  -1   2   0  274.17   13.49
  -1   2   0  254.81   13.47
   0   2   0 1629.03   81.69
  -1  -2   0   20.28    1.41
  -1  -2   0   23.34    1.35
   1   2   0   22.68    1.48
   1   2   0   21.77    1.41
   2   2   0 1697.99   85.40
   3   2   0 3415.83  171.39
   4   2   0    4.02    0.78
   4   2   0    4.81    1.08
   4   2   0    3.87    0.62
   5   2   0    0.00    0.97
   5   2   0    0.81    0.61
   5   2   0    0.51    0.46
   6   2   0    5.04    0.88
   6   2   0    4.76    1.00
   6   2   0    4.63    1.40
   7   2   0    1.65    1.65
   7   2   0    2.44    1.07
   7   2   0    2.15    0.86
   8   2   0   25.85    4.07
   8   2   0   27.99    3.01
   8   2   0   26.66    2.76
  10  -3   0    0.87    1.16
  10  -3   0    4.28    2.09
  10  -3   0   -0.82    0.70
   9  -3   0   34.71    2.24
   9  -3   0   36.00    2.60
   9  -3   0   34.17    3.41
   8  -3   0  135.21    7.58
   8  -3   0  127.24    6.90
   8  -3   0  130.07    7.01
   7  -3   0  432.22   22.22
   7  -3   0  437.28   22.64
   7  -3   0  443.78   22.26
   6  -3   0  268.75   13.34
   6  -3   0  259.77   13.59
   6  -3   0  251.35   13.32
   5  -3   0   52.56    2.94
   5  -3   0   53.96    2.95
   5  -3   0   48.96    3.05
  -5   3   0   51.97    3.10
   4  -3   0  951.84   47.94
   4  -3   0  962.47   47.90
   4  -3   0  965.54   47.94
  -4   3   0  931.99   47.93
   3  -3   0   32.21    1.92
   3  -3   0   31.26    1.73
   3  -3   0   31.86    1.94
  -3   3   0   29.18    1.74
  -3   3   0   30.57    1.77
  -3   3   0   31.46    1.76
   2  -3   0  275.20   14.27
   2  -3   0  273.06   14.26
  -2   3   0  269.30   14.01
  -2   3   0  273.54   14.23
  -2   3   0  299.21   14.26
   1  -3   0   80.21    4.26
   1  -3   0   79.68    4.27
  -1   3   0   78.45    4.26
  -1   3   0   69.27    4.22
   0  -3   0  372.63   17.54
   0  -3   0  338.00   17.44
   0   3   0  325.38   17.48
   0   3   0  330.10   17.50
  -1  -3   0   -0.42    0.29
  -1  -3   0    0.75    0.34
   1   3   0   -0.19    0.39
   1   3   0    0.37    0.35
  -2  -3   0 1022.63   48.80
  -2  -3   0  939.35   48.92
   2   3   0  953.29   49.07
   2   3   0  983.43   49.23
   2   3   0  956.85   49.00
  -3  -3   0  959.20   47.78
  -3  -3   0  915.41   47.86
   3   3   0  932.61   48.19
   3   3   0  978.25   48.12
   3   3   0  976.89   48.47
   4   3   0  693.61   36.87
   4   3   0  721.17   37.01
   4   3   0  766.61   37.41
   6   3   0   37.97    3.85
   6   3   0   44.15    3.33
   6   3   0   45.22    3.16
   7   3   0   78.43    6.01
   7   3   0   69.77    4.86
   7   3   0   70.19    4.71
   8   3   0    1.83    2.58
   8   3   0    0.01    1.67
   8   3   0    2.30    1.54
  10  -4   0   51.41    3.62
  10  -4   0   53.97    3.20
  10  -4   0   44.48    4.32
   9  -4   0   83.85    5.42
   9  -4   0   87.59    5.05
   9  -4   0   85.38    4.86
   8  -4   0   43.18    2.81
   8  -4   0   45.97    3.19
   8  -4   0   44.72    2.95
   7  -4   0   17.49    1.57
   7  -4   0   19.35    1.68
   7  -4   0   21.24    1.79
   6  -4   0  694.44   35.39
   6  -4   0  717.36   35.43
   6  -4   0  685.12   35.36
   5  -4   0  202.12   10.06
   5  -4   0  202.05   10.24
   5  -4   0  185.78   10.18
  -5   4   0  188.78   10.10
   4  -4   0  421.77   21.29
   4  -4   0  428.18   21.00
   4  -4   0  383.40   21.23
  -4   4   0  427.76   20.98
  -4   4   0  407.70   21.02
  -4   4   0  425.98   20.99
   3  -4   0 1165.06   57.53
   3  -4   0 1095.25   57.51
  -3   4   0 1145.40   57.43
  -3   4   0 1159.20   57.44
   2  -4   0  314.78   16.71
   2  -4   0  306.79   16.69
  -2   4   0  333.85   16.70
  -2   4   0  340.46   16.73
   1  -4   0  350.54   17.29
   1  -4   0  335.12   17.30
  -1   4   0  305.67   17.25
  -1   4   0  348.67   17.32
   0  -4   0    0.93    0.41
   0  -4   0    1.47    0.51
   0   4   0    0.54    0.42
   0   4   0    1.46    0.53
  -1  -4   0  127.90    6.75
  -1  -4   0  124.41    6.58
   1   4   0  118.20    6.78
   1   4   0  120.07    6.75
  -2  -4   0   18.30    1.31
  -2  -4   0   15.92    1.45
   2   4   0   17.77    1.77
   2   4   0   16.43    1.68
   2   4   0   17.25    1.59
  -3  -4   0   44.35    2.49
  -3  -4   0   42.16    2.64
   3   4   0   44.26    2.97
   3   4   0   41.28    3.05
   3   4   0   44.49    3.33
   4   4   0   23.59    2.26
   4   4   0   25.74    2.44
   4   4   0   30.90    2.88
   5   4   0  115.56    7.04
   5   4   0  104.19    6.44
   5   4   0  110.45    6.61
   6   4   0   37.72    3.40
   6   4   0   35.87    3.22
   7   4   0    1.95    2.22
   7   4   0    1.00    1.58
   7   4   0   -0.68    1.44
  10  -5   0    9.88    1.79
  10  -5   0    9.11    1.32
  10  -5   0    7.58    1.55
   9  -5   0    0.80    0.98
   9  -5   0    0.00    1.07
   8  -5   0    4.04    1.04
   8  -5   0    6.68    1.02
   8  -5   0    4.22    0.93
   7  -5   0  239.32   12.71
   7  -5   0  241.43   12.77
   7  -5   0  243.88   12.55
   6  -5   0  563.30   29.18
   6  -5   0  576.21   29.23
   6  -5   0  575.35   28.91
   5  -5   0   14.64    1.47
   5  -5   0   15.87    1.56
  -5   5   0   15.46    1.11
   4  -5   0  392.95   20.23
   4  -5   0  392.56   20.25
  -4   5   0  389.18   19.78
  -4   5   0  403.91   20.05
  -4   5   0  380.98   20.02
   3  -5   0  684.32   35.86
   3  -5   0  700.00   35.88
  -3   5   0  695.60   35.78
  -3   5   0  710.66   35.81
  -3   5   0  731.90   35.43
   2  -5   0    5.78    0.93
   2  -5   0    3.65    0.78
  -2   5   0    3.60    0.78
  -2   5   0    5.54    0.90
   1  -5   0   12.97    1.43
   1  -5   0   14.30    1.46
  -1   5   0   14.31    1.52
  -1   5   0   15.09    1.51
   0  -5   0  199.92   10.97
   0  -5   0  210.89   10.88
   0   5   0  205.89   11.02
   0   5   0  202.81   11.00
  -1  -5   0   52.86    3.31
  -1  -5   0   52.07    3.13
   1   5   0   43.45    3.26
   1   5   0   48.83    3.32
   1   5   0   55.65    3.47
  -2  -5   0  107.04    6.37
  -2  -5   0  121.59    6.20
   2   5   0  116.22    6.65
   2   5   0  109.39    6.67
   2   5   0  115.19    6.59
  -3  -5   0   38.92    2.62
  -3  -5   0   40.39    2.40
   3   5   0   37.81    3.12
   3   5   0   41.19    3.29
   3   5   0   36.50    2.96
  -4  -5   0  140.16    7.36
  -4  -5   0  149.77    7.30
   4   5   0  133.44    8.17
   4   5   0  151.68    8.54
   4   5   0  129.52    8.05
   5   5   0  126.37    7.71
   5   5   0  132.67    7.89
   5   5   0  132.15    8.29
   6   5   0  160.56    9.94
   6   5   0  151.17    9.16
   6   5   0  152.82    9.25
   7   5   0    8.14    2.34
   7   5   0    2.57    2.92
   7   5   0    7.02    2.10
  10  -6   0   20.22    2.51
  10  -6   0   22.23    2.61
  10  -6   0   18.82    3.01
   9  -6   0   14.70    1.80
   9  -6   0   13.03    1.75
   9  -6   0   10.69    1.53
   8  -6   0   79.03    4.88
   8  -6   0   79.17    4.54
   8  -6   0   81.22    5.01
   7  -6   0    2.72    1.00
   6  -6   0 1398.59   81.93
   6  -6   0 1736.43   82.14
  -6   6   0 1743.60   81.58
   5  -6   0  765.06   40.13
   5  -6   0  802.61   40.20
  -5   6   0  797.83   39.80
  -5   6   0  767.69   39.57
  -5   6   0  804.87   39.81
   4  -6   0   29.33    2.18
   4  -6   0   22.26    2.06
  -4   6   0   21.47    1.86
  -4   6   0   20.02    1.87
  -4   6   0   24.49    1.41
   3  -6   0  703.12   36.03
  -3   6   0  695.94   35.94
  -3   6   0  714.67   35.99
   2  -6   0  240.18   12.71
   2  -6   0  245.96   12.68
  -2   6   0  214.88   12.61
  -2   6   0  246.43   12.69
   1  -6   0  497.90   24.94
   1  -6   0  496.04   25.04
  -1   6   0  471.16   24.99
  -1   6   0  466.51   25.00
   0  -6   0   24.89    2.24
   0  -6   0   28.04    2.20
   0   6   0   26.78    2.37
   0   6   0   28.22    2.44
  -1  -6   0   27.44    2.07
  -1  -6   0   24.83    2.24
   1   6   0   24.65    2.49
   1   6   0   26.62    2.35
   1   6   0   25.06    2.31
  -2  -6   0  210.27   11.47
  -2  -6   0  217.91   11.21
   2   6   0  220.36   11.75
   2   6   0  202.92   11.75
   2   6   0  211.65   11.75
  -3  -6   0   44.97    2.76
  -3  -6   0   42.96    3.03
   3   6   0   42.43    3.51
   3   6   0   43.79    3.64
   3   6   0   48.39    3.77
  -4  -6   0    2.30    0.65
  -4  -6   0    3.81    0.61
   4   6   0    2.83    1.43
   4   6   0   -0.37    1.13
   4   6   0    2.91    1.62
   5   6   0   55.82    4.64
   5   6   0   54.06    4.86
   5   6   0   48.36    4.41
   6   6   0   19.40    2.91
   6   6   0   27.32    3.90
   6   6   0   22.42    3.38
  10  -7   0   58.01    4.60
  10  -7   0   49.92    4.13
   9  -7   0    1.65    1.32
   9  -7   0    0.53    1.08
   8  -7   0    0.59    1.02
   8  -7   0    0.56    1.11
   7  -7   0  195.33   10.79
   7  -7   0  196.65   10.88
   6  -7   0  435.37   22.27
   6  -7   0  412.08   22.27
  -6   7   0  431.46   21.63
  -6   7   0  446.33   21.65
  -6   7   0  404.38   21.46
   5  -7   0  118.84    6.90
   5  -7   0  114.18    6.82
  -5   7   0  114.93    6.53
  -5   7   0  115.85    6.03
  -5   7   0  118.55    6.54
   4  -7   0   28.88    2.60
   4  -7   0   30.44    2.61
  -4   7   0   35.43    2.53
  -4   7   0   24.25    2.36
  -4   7   0   29.05    1.79
   3  -7   0   38.80    3.07
   3  -7   0   37.90    3.00
  -3   7   0   44.79    3.08
  -3   7   0   41.81    3.04
   2  -7   0  103.26    6.37
   2  -7   0  102.70    6.32
  -2   7   0  117.46    6.50
  -2   7   0  107.48    6.42
   1  -7   0  190.18   10.67
   1  -7   0  200.19   10.86
  -1   7   0  207.01   10.91
  -1   7   0  184.25   10.82
   0  -7   0   80.01    5.11
   0  -7   0   88.59    5.39
   0   7   0   76.97    5.31
   0   7   0   85.77    5.23
   0   7   0   94.97    5.53
  -1  -7   0   63.12    3.77
  -1  -7   0   59.45    4.04
   1   7   0   56.82    4.17
   1   7   0   52.96    4.13
   1   7   0   53.28    4.00
  -2  -7   0    4.88    1.21
  -2  -7   0    3.97    0.99
   2   7   0    3.84    1.50
   2   7   0    3.63    1.26
   2   7   0    4.15    1.49
  -3  -7   0  106.92    6.62
  -3  -7   0  118.62    6.37
   3   7   0  121.42    7.40
   3   7   0  119.59    7.51
   3   7   0  110.97    7.23
  -4  -7   0   11.68    1.53
  -4  -7   0   10.49    1.27
   4   7   0   11.56    2.25
   4   7   0   10.65    2.16
   4   7   0   11.52    2.49
   5   7   0  101.21    7.94
   5   7   0  107.41    7.58
   5   7   0  129.17    7.90
  10  -8   0   52.84    4.48
  10  -8   0   54.49    4.83
   9  -8   0    0.07    1.56
   9  -8   0    1.24    1.37
   8  -8   0   73.25    5.04
   8  -8   0   63.63    4.72
   7  -8   0    3.39    1.34
   7  -8   0    1.48    1.11
   6  -8   0   -0.40    0.94
   6  -8   0   -2.12    1.01
  -6   8   0   -0.18    0.68
  -6   8   0   -0.02    0.63
   5  -8   0  206.66   11.60
   5  -8   0  207.98   11.59
  -5   8   0  213.11   10.64
  -5   8   0  207.82   11.31
  -5   8   0  203.90   11.28
   4  -8   0  584.30   32.42
   4  -8   0  659.58   32.53
  -4   8   0  613.01   32.35
  -4   8   0  650.92   32.38
   3  -8   0 2018.52  104.20
   3  -8   0 2155.07  104.20
  -3   8   0 2013.27  104.10
  -3   8   0 2062.24  104.18
   2  -8   0  136.07    7.91
   2  -8   0  138.05    7.83
  -2   8   0  126.23    7.84
  -2   8   0  133.14    7.89
   1  -8   0  179.25    9.80
   1  -8   0  169.77    9.91
  -1   8   0  183.15    9.67
  -1   8   0  181.96   10.02
  -1   8   0  154.70    9.85
   0  -8   0   42.30    3.57
   0  -8   0   44.46    3.40
   0   8   0   38.54    3.65
   0   8   0   47.76    3.51
   0   8   0   44.11    3.79
  -1  -8   0   44.66    3.66
  -1  -8   0   52.13    3.46
   1   8   0   42.66    3.94
   1   8   0   48.60    4.11
   1   8   0   43.62    3.77
  -2  -8   0  236.66   12.29
  -2  -8   0  226.09   12.63
   2   8   0  206.41   12.98
   2   8   0  239.48   13.17
   2   8   0  240.59   13.11
  -3  -8   0   21.65    2.07
  -3  -8   0   20.14    2.45
   3   8   0   22.42    3.55
   3   8   0   22.34    3.32
  -4  -8   0   56.00    3.45
  -4  -8   0   49.01    3.17
   4   8   0   55.13    5.35
   4   8   0   45.55    4.84
   4   8   0   46.92    5.30
   9  -9   0   35.89    3.94
   9  -9   0   38.42    4.26
   8  -9   0   99.73    6.67
   8  -9   0   98.28    6.51
   7  -9   0   -0.61    1.42
   7  -9   0   -1.82    1.17
  -7   9   0   -0.57    0.59
  -7   9   0    0.33    0.66
   6  -9   0  126.23    7.72
   6  -9   0  118.87    7.70
  -6   9   0  128.58    7.23
  -6   9   0  127.39    7.23
   5  -9   0   16.55    2.22
   5  -9   0   16.57    2.25
  -5   9   0   15.91    1.19
  -5   9   0   13.39    2.23
  -5   9   0   15.44    2.20
   4  -9   0  107.97    6.97
   4  -9   0  118.34    7.01
  -4   9   0  110.24    6.88
  -4   9   0  111.24    6.84
   3  -9   0 1087.01   55.65
   3  -9   0  976.48   55.41
  -3   9   0 1139.52   55.68
  -3   9   0 1143.84   55.63
   2  -9   0 1105.18   55.27
   2  -9   0 1150.69   55.52
  -2   9   0 1101.41   54.95
  -2   9   0  914.38   55.20
  -2   9   0 1138.09   55.54
   1  -9   0    4.01    1.47
   1  -9   0    2.69    1.27
  -1   9   0    2.59    1.39
  -1   9   0    1.28    1.29
  -1   9   0    3.63    1.23
   0  -9   0   62.58    4.87
   0  -9   0   74.17    4.73
   0   9   0   70.07    5.20
   0   9   0   65.34    5.07
   0   9   0   65.11    4.82
  -1  -9   0    7.86    1.69
  -1  -9   0   10.08    1.57
   1   9   0   11.64    2.27
   1   9   0   12.00    2.19
   1   9   0    9.11    2.06
  -2  -9   0   38.06    2.96
  -2  -9   0   32.49    3.43
   2   9   0   32.77    3.96
  -3  -9   0  164.33   10.09
  -3  -9   0  197.46    9.81
   3   9   0  189.86   11.16
   3   9   0  166.43   11.00
   3   9   0  178.56   11.19
   4   9   0   15.24    3.72
   9 -10   0    2.96    2.29
   9 -10   0   -1.00    1.91
   8 -10   0   -3.04    1.86
   8 -10   0   -1.90    1.56
   7 -10   0   -0.73    1.47
   7 -10   0    1.96    1.60
  -7  10   0   -0.99    0.90
   6 -10   0   12.77    2.19
   6 -10   0   10.54    2.07
  -6  10   0   13.11    1.88
  -6  10   0   13.99    2.27
   5 -10   0   28.13    3.42
   5 -10   0   32.57    3.52
  -5  10   0   30.38    3.22
  -5  10   0   29.35    3.16
  -5  10   0   32.45    2.05
  -5  10   0   30.99    2.19
   4 -10   0  188.40   10.89
   4 -10   0  183.98   10.79
  -4  10   0  184.64   10.68
  -4  10   0  187.40   10.75
  -4  10   0  180.00    9.91
   3 -10   0   70.35    5.04
   3 -10   0   68.03    5.16
  -3  10   0   64.13    5.12
  -3  10   0   65.80    5.02
  -3  10   0   70.55    4.39
   2 -10   0   11.25    2.06
  -2  10   0   11.44    2.14
  -2  10   0   19.95    3.06
  -2  10   0   16.56    2.27
   1 -10   0   73.87    5.47
   1 -10   0   72.96    5.21
  -1  10   0   78.55    5.74
  -1  10   0   75.34    5.17
  -1  10   0   66.44    5.56
   0 -10   0   33.19    3.28
   0 -10   0   31.29    3.57
   0  10   0   29.86    3.92
   0  10   0   31.72    3.65
  -1 -10   0   19.96    2.67
  -1 -10   0   13.18    2.39
   1  10   0   14.86    2.84
   1  10   0   17.32    2.76
  -2 -10   0   20.83    3.35
   2  10   0   13.98    2.91
   2  10   0   18.61    3.11
   2  10   0   15.48    2.94
   8 -11   0   27.90    4.54
   8 -11   0   27.75    4.30
  -8  11   0   35.18    2.34
  -8  11   0   32.55    2.44
   7 -11   0   59.88    5.49
  -7  11   0   69.97    4.71
  -7  11   0   65.40    4.55
   6 -11   0   94.12    6.73
  -6  11   0   83.13    6.10
  -6  11   0  100.08    4.89
  -6  11   0   86.30    6.13
  -6  11   0   97.65    4.93
   5 -11   0   71.74    6.04
  -5  11   0   96.46    6.16
  -5  11   0   82.82    5.97
  -5  11   0   85.95    4.91
  -5  11   0   87.75    4.83
   4 -11   0   47.09    4.47
  -4  11   0   44.38    4.25
  -4  11   0   46.63    3.37
  -4  11   0   50.63    4.37
   3 -11   0    1.16    1.74
  -3  11   0   -0.81    1.53
  -3  11   0   -1.60    1.54
  -3  11   0    0.31    1.11
   1 -11   0  171.27   10.96
   1 -11   0  204.06   10.87
  -1  11   0  187.86   11.20
  -1  11   0  168.30   11.17
  -1  11   0  182.53   10.69
   0 -11   0  368.65   18.95
   0  11   0  372.71   19.30
   0  11   0  320.22   19.61
   0  11   0  341.68   19.62
  -1 -11   0  171.28    9.30
  -1 -11   0  142.14    9.72
   1  11   0  154.67   10.51
   1  11   0  156.93   10.19
   1  11   0  162.44   10.52
   8 -12   0   80.02    7.03
   8 -12   0  102.94    7.28
  -8  12   0   83.31    5.28
  -8  12   0   80.42    5.30
   7 -12   0   50.73    5.29
   7 -12   0   45.02    5.21
  -7  12   0   48.24    4.42
  -7  12   0   52.38    4.35
   6 -12   0   77.72    6.28
   6 -12   0   74.88    6.37
  -6  12   0   78.52    4.16
  -6  12   0   76.62    4.23
  -6  12   0   69.43    5.77
  -6  12   0   82.01    5.93
   5 -12   0    6.46    2.43
   5 -12   0   10.26    2.45
  -5  12   0    9.02    1.39
  -5  12   0   10.06    2.30
  -5  12   0   12.16    1.67
   4 -12   0  191.11   10.90
   4 -12   0  175.10   11.02
  -4  12   0  176.52   10.97
  -4  12   0  175.87    9.91
  -4  12   0  172.74   10.87
   3 -12   0    9.39    2.28
   3 -12   0    6.28    2.10
  -3  12   0    7.08    2.33
  -3  12   0    5.48    2.30
  -3  12   0    7.43    1.76
   2 -12   0    0.70    1.78
   2 -12   0   -1.78    1.85
  -2  12   0   -2.90    2.11
  -2  12   0   -3.56    2.13
  -2  12   0   -0.67    1.64
   1 -12   0    4.28    2.05
   1 -12   0   -0.18    2.09
  -1  12   0    4.36    2.45
  -1  12   0    8.98    2.80
   0 -12   0   38.20    4.94
   0 -12   0   42.00    4.20
   0  12   0   35.56    5.49
   0  12   0   26.14    5.56
   0  12   0   35.27    4.94
   6 -13   0   15.43    3.21
   6 -13   0   21.65    3.17
  -6  13   0   15.35    1.54
  -6  13   0   24.78    3.30
  -6  13   0   27.26    4.36
   5 -13   0    8.51    2.58
   5 -13   0    2.80    2.48
  -5  13   0    5.09    1.24
  -5  13   0    9.48    2.68
  -5  13   0    5.42    1.34
  -5  13   0    9.10    2.67
   4 -13   0   61.30    6.52
   4 -13   0   72.74    6.13
  -4  13   0   70.47    6.46
  -4  13   0   76.16    6.56
  -4  13   0   69.47    5.04
   3 -13   0    0.04    2.41
   3 -13   0    0.48    2.17
  -3  13   0   -1.14    2.36
  -3  13   0   -2.37    2.37
  -3  13   0   -0.06    1.86
   2 -13   0   -0.54    2.50
   2 -13   0   -0.36    2.07
  -2  13   0   -0.99    2.84
  -2  13  -1   35.72    5.47
  -2  13  -1   42.22    5.63
   2 -13   1   41.77    4.71
   2 -13   1   32.92    5.13
  -3  13  -1  183.61   12.81
  -3  13  -1  227.88   13.13
  -3  13  -1  232.01   12.19
   3 -13   1  190.78   12.83
   3 -13   1  222.49   12.75
  -4  13  -1    1.23    2.24
  -4  13  -1    0.45    2.33
  -4  13  -1    0.83    1.56
   4 -13   1    1.78    2.35
   4 -13   1    3.52    2.27
  -5  13  -1   50.20    3.89
  -5  13  -1   51.15    3.55
  -5  13  -1   42.69    5.16
  -5  13  -1   44.43    5.39
   5 -13   1   48.24    5.43
   5 -13   1   55.25    5.58
  -6  13  -1   61.43    5.71
  -6  13  -1   64.75    5.91
  -6  13  -1   65.18    3.87
   6 -13   1   61.93    6.30
   6 -13   1   70.41    6.27
   0  12  -1    6.91    2.54
   0  12  -1    1.65    2.66
   0  12  -1    6.61    2.60
   0 -12   1    5.68    1.99
   0 -12   1    7.40    2.44
  -1  12  -1   22.31    3.39
  -1  12  -1   22.71    3.49
  -1  12  -1   19.56    2.95
   1 -12   1   22.59    3.62
   1 -12   1   16.06    2.89
  -2  12  -1    1.48    1.66
  -2  12  -1    3.97    2.31
  -2  12  -1    4.61    2.24
   2 -12   1    1.73    2.02
   2 -12   1    1.97    1.93
  -3  12  -1   85.03    6.98
  -3  12  -1   97.67    6.30
  -3  12  -1  108.71    7.25
   3 -12   1   99.46    7.05
   3 -12   1  104.14    7.23
  -4  12  -1   80.72    6.38
  -4  12  -1   82.00    5.31
   4 -12   1   92.38    6.56
   4 -12   1   75.28    6.28
  -5  12  -1   66.83    5.52
  -5  12  -1   74.09    4.20
  -5  12  -1   67.41    5.47
   5 -12   1   58.30    5.56
   5 -12   1   63.96    5.66
  -6  12  -1   -0.02    0.71
  -6  12  -1    1.42    0.86
  -6  12  -1   -0.49    1.68
  -6  12  -1   -1.67    1.68
   6 -12   1   -0.72    2.04
   6 -12   1   -1.44    2.07
  -7  12  -1    1.46    1.50
  -7  12  -1    1.46    1.66
   7 -12   1    2.84    2.27
   7 -12   1    3.61    2.32
  -8  12  -1   38.97    3.00
   8 -12   1   25.79    3.99
   2  11  -1   36.48    5.80
   2  11  -1   46.03    5.76
   2  11  -1   43.43    5.41
  -2 -11   1   38.74    4.29
   1  11  -1    1.93    2.17
   0  11  -1   42.70    4.72
   0  11  -1   40.93    4.87
   0  11  -1   43.08    4.40
   0 -11   1   37.96    4.28
  -1  11  -1  107.17    7.67
  -1  11  -1  116.67    7.77
  -1  11  -1  110.41    7.08
   1 -11   1  102.97    7.33
  -2  11  -1  164.86   10.92
  -2  11  -1  196.96   11.14
   2 -11   1  155.62   10.75
   2 -11   1  213.86   11.02
  -3  11  -1   66.80    5.35
  -3  11  -1   64.51    5.23
   3 -11   1   58.69    5.09
   3 -11   1   74.57    5.25
  -4  11  -1   13.68    2.27
  -4  11  -1   22.42    3.14
   4 -11   1   17.53    2.57
  -5  11  -1  175.01    9.46
  -5  11  -1  178.05   10.46
  -5  11  -1  163.82   10.34
   5 -11   1  174.40   10.66
   5 -11   1  199.04   10.88
  -6  11  -1   40.01    3.84
  -6  11  -1   46.84    2.72
  -6  11  -1   46.34    3.98
   6 -11   1   42.01    4.31
  -7  11  -1   79.77    5.19
  -7  11  -1   82.40    5.34
   7 -11   1   77.81    6.09
  -8  11  -1   92.72    5.09
  -8  11  -1   89.18    5.13
   8 -11   1  107.70    7.50
   8 -11   1   87.13    6.78
   3  10  -1   27.60    4.13
   3  10  -1   23.06    3.72
   3  10  -1   34.60    4.73
  -3 -10   1   40.23    3.01
  -3 -10   1   33.34    3.46
   2  10  -1   69.39    6.20
   2  10  -1   77.08    6.30
   2  10  -1   79.87    6.29
  -2 -10   1   67.18    5.35
  -2 -10   1   79.98    5.01
   1  10  -1   57.58    5.13
   1  10  -1   44.01    4.24
   1  10  -1   45.43    4.54
  -1 -10   1   45.90    3.86
  -1 -10   1   42.36    4.09
   0  10  -1  173.16   10.73
   0  10  -1  159.42   10.50
   0  10  -1  186.95   10.43
   0 -10   1  187.56   10.22
   0 -10   1  175.66   10.45
  -1  10  -1   50.38    4.59
  -1  10  -1   56.81    4.74
   1 -10   1   48.18    4.32
   1 -10   1   60.45    4.42
  -2  10  -1   44.36    4.12
  -2  10  -1   48.21    4.29
   2 -10   1   42.29    4.04
   2 -10   1   48.63    4.12
  -3  10  -1   83.26    5.81
  -3  10  -1   87.57    5.85
   3 -10   1   84.97    5.83
   3 -10   1   76.40    5.69
  -4  10  -1   43.48    3.87
  -4  10  -1   43.15    3.84
   4 -10   1   46.86    4.05
   4 -10   1   45.02    4.06
  -5  10  -1    1.46    1.30
  -5  10  -1    3.19    0.68
  -5  10  -1    0.64    1.17
   5 -10   1    1.38    1.52
   5 -10   1    0.27    1.39
  -6  10  -1    2.98    1.17
  -6  10  -1    6.21    1.41
  -6  10  -1    3.79    0.68
   6 -10   1    1.29    1.41
   6 -10   1    5.68    1.86
  -7  10  -1   73.79    4.00
  -7  10  -1   73.82    4.71
  -7  10  -1   85.84    4.76
   7 -10   1   74.75    5.79
   7 -10   1   71.42    5.55
   8 -10   1   37.04    4.53
   8 -10   1   34.85    3.98
   9 -10   1  146.63   10.15
   9 -10   1  199.07   10.91
   4   9  -1    7.89    2.77
   4   9  -1    9.60    2.75
   4   9  -1   15.74    3.16
  -4  -9   1   13.78    1.68
  -4  -9   1   14.74    2.11
   3   9  -1    3.61    2.25
   3   9  -1   -0.06    2.06
   3   9  -1    2.49    2.02
  -3  -9   1    3.23    1.31
  -3  -9   1    6.36    1.16
   2   9  -1   -1.56    1.55
   2   9  -1   -3.62    1.66
   2   9  -1   -0.09    1.62
  -2  -9   1   -0.06    0.98
  -2  -9   1   -0.36    1.17
   1   9  -1   10.48    1.99
   1   9  -1    6.66    1.71
   1   9  -1    3.29    1.68
  -1  -9   1    7.71    1.58
  -1  -9   1    6.46    1.38
   0   9  -1  249.85   13.79
   0   9  -1  243.55   13.71
   0  -9   1  251.18   13.55
   0  -9   1  229.16   13.26
  -1   9  -1  114.22    7.20
  -1   9  -1  113.35    7.13
   1  -9   1   96.32    6.71
   1  -9   1  124.49    7.14
  -2   9  -1    4.15    1.47
  -2   9  -1    1.19    1.19
   2  -9   1    3.25    1.39
   2  -9   1    1.42    1.25
  -3   9  -1  336.24   18.91
  -3   9  -1  339.78   18.90
   3  -9   1  384.44   19.07
  -4   9  -1  147.02    7.50
  -4   9  -1  144.48    8.20
  -4   9  -1  143.26    8.18
   4  -9   1  134.92    8.27
   4  -9   1  119.55    8.13
  -5   9  -1  115.68    7.05
  -5   9  -1  123.16    6.39
  -5   9  -1  120.90    7.10
   5  -9   1  111.98    7.30
   5  -9   1  122.34    7.45
  -6   9  -1   20.24    2.10
  -6   9  -1   19.53    2.28
  -6   9  -1   22.46    1.51
   6  -9   1   17.87    2.88
   6  -9   1   16.60    2.30
  -7   9  -1   99.63    5.24
  -7   9  -1   91.17    5.14
  -7   9  -1   90.46    4.98
   7  -9   1   97.04    6.20
   7  -9   1   89.21    6.34
   8  -9   1   31.17    3.86
   8  -9   1   34.01    3.53
   9  -9   1   -0.70    1.46
   9  -9   1   -2.16    1.90
   5   8  -1   48.63    5.20
   5   8  -1   44.88    5.41
   5   8  -1   38.66    4.80
   4   8  -1   96.75    7.30
   4   8  -1  107.39    7.77
   4   8  -1  119.39    7.58
  -4  -8   1  104.73    6.04
  -4  -8   1  110.57    5.88
   3   8  -1   64.36    5.01
   3   8  -1   45.76    4.36
   3   8  -1   43.73    4.45
  -3  -8   1   50.90    3.27
  -3  -8   1   47.09    3.54
   2   8  -1   -2.29    1.26
   2   8  -1    0.47    1.35
   2   8  -1   -1.93    1.26
  -2  -8   1   -0.63    0.77
  -2  -8   1   -0.29    0.94
   1   8  -1   36.37    3.57
   1   8  -1   37.81    3.46
   1   8  -1   41.29    3.38
  -1  -8   1   36.69    3.00
  -1  -8   1   40.04    3.26
   0   8  -1  895.57   45.32
   0   8  -1  881.09   45.35
   0  -8   1  880.28   45.17
   0  -8   1  866.20   45.00
  -1   8  -1   54.44    4.05
  -1   8  -1   55.82    4.09
   1  -8   1   53.08    3.87
   1  -8   1   50.56    3.86
  -2   8  -1  140.84    7.94
  -2   8  -1  130.31    7.88
   2  -8   1  132.04    7.89
   2  -8   1  133.85    7.87
  -3   8  -1  202.71   11.39
  -3   8  -1  204.44   11.37
   3  -8   1  210.47   11.47
   3  -8   1  203.95   11.44
  -4   8  -1 1142.31   56.89
  -4   8  -1 1128.02   56.86
  -4   8  -1 1101.85   56.30
   4  -8   1 1078.31   56.96
   4  -8   1 1139.99   57.05
  -5   8  -1  603.24   30.96
  -5   8  -1  581.77   30.93
  -5   8  -1  611.53   30.46
   5  -8   1  609.48   31.24
   5  -8   1  604.58   31.29
  -6   8  -1   20.07    1.96
  -6   8  -1   21.16    1.86
  -6   8  -1   23.42    1.59
   6  -8   1   25.34    2.56
   6  -8   1   16.62    2.60
  -7   8  -1    0.97    0.55
   7  -8   1    0.25    0.98
   7  -8   1    0.28    1.20
   8  -8   1   20.33    2.65
   8  -8   1   25.36    3.19
   9  -8   1  208.29   11.62
   9  -8   1  194.60   11.28
   5   7  -1    9.78    2.57
   5   7  -1   10.36    2.10
   5   7  -1   11.23    2.30
   4   7  -1  252.43   13.33
   4   7  -1  225.03   12.99
   4   7  -1  213.46   12.87
  -4  -7   1  218.45   11.91
  -4  -7   1  235.72   11.80
   3   7  -1   56.71    4.70
   3   7  -1   54.33    4.44
   3   7  -1   48.48    4.20
  -3  -7   1   57.77    3.71
  -3  -7   1   60.44    3.47
   2   7  -1   -1.18    1.04
   2   7  -1    0.29    1.12
  -2  -7   1   -0.17    0.72
  -2  -7   1   -0.73    0.75
   1   7  -1    4.90    1.27
   1   7  -1    4.26    1.22
  -1  -7   1    6.66    1.19
  -1  -7   1    8.40    1.37
   0   7  -1  142.41    8.12
   0   7  -1  134.38    8.10
   0  -7   1  143.83    8.04
   0  -7   1  138.99    7.92
  -1   7  -1  660.54   34.85
  -1   7  -1  687.79   34.86
   1  -7   1  641.02   34.76
   1  -7   1  716.84   34.81
  -2   7  -1  668.14   34.28
  -2   7  -1  631.86   34.26
   2  -7   1  685.64   34.32
   2  -7   1  680.61   34.30
  -3   7  -1    0.85    0.72
  -3   7  -1    0.39    0.66
   3  -7   1    0.29    0.74
   3  -7   1    1.09    0.73
  -4   7  -1  607.14   30.41
  -4   7  -1  587.60   29.92
  -4   7  -1  565.80   30.35
   4  -7   1  571.63   30.54
   4  -7   1  626.06   30.58
  -5   7  -1  160.01    8.27
  -5   7  -1  158.24    8.60
  -5   7  -1  158.84    8.58
   5  -7   1  159.35    8.89
   5  -7   1  153.18    8.94
  -6   7  -1   20.94    1.55
  -6   7  -1   22.08    1.46
  -6   7  -1   15.91    1.52
   6  -7   1   23.74    2.25
   6  -7   1   19.59    2.43
  -7   7  -1  273.42   14.33
   7  -7   1  270.06   14.92
   7  -7   1  286.80   14.85
   8  -7   1    3.57    1.33
   8  -7   1    4.85    1.18
   9  -7   1   35.58    3.60
   9  -7   1   39.46    3.26
  10  -7   1    9.95    2.29
  10  -7   1   11.39    1.71
  10  -7   1    8.98    1.70
   6   6  -1   22.07    3.55
   6   6  -1   24.04    3.80
   6   6  -1   18.67    3.32
   5   6  -1   10.48    2.20
   5   6  -1    7.87    1.74
   5   6  -1    9.38    1.84
   4   6  -1   -1.30    1.38
   4   6  -1    0.89    1.17
   4   6  -1   -0.64    1.05
  -4  -6   1   -0.19    0.46
  -4  -6   1    0.10    0.42
   3   6  -1   20.25    2.57
   3   6  -1   15.35    2.31
   3   6  -1   15.23    2.15
  -3  -6   1   18.08    1.48
  -3  -6   1   16.54    1.67
   2   6  -1  231.69   12.15
   2   6  -1  218.64   12.10
  -2  -6   1  233.79   11.67
  -2  -6   1  200.38   11.76
   1   6  -1  224.81   12.43
   1   6  -1  231.15   12.46
  -1  -6   1  234.66   12.32
  -1  -6   1  227.39   12.17
   0   6  -1  193.93   10.21
   0   6  -1  188.92   10.20
   0  -6   1  169.86   10.03
   0  -6   1  187.98   10.05
  -1   6  -1   25.81    2.23
  -1   6  -1   26.81    2.30
   1  -6   1   29.59    2.27
   1  -6   1   23.27    2.17
  -2   6  -1    5.08    0.98
  -2   6  -1    4.54    0.98
   2  -6   1    8.66    1.32
   2  -6   1    4.36    0.96
  -3   6  -1   90.62    5.31
  -3   6  -1   92.98    4.93
  -3   6  -1   86.78    5.29
   3  -6   1   93.62    5.43
  -4   6  -1   11.39    0.93
  -4   6  -1    8.94    1.24
  -4   6  -1    9.47    1.32
   4  -6   1   11.12    1.53
  -5   6  -1  112.09    5.99
  -5   6  -1  111.33    6.04
  -5   6  -1  117.28    6.11
   5  -6   1  106.43    6.45
  -6   6  -1   50.87    3.03
   6  -6   1   49.49    3.38
   6  -6   1   48.50    3.48
  -7   6  -1  689.80   35.15
   7  -6   1  703.29   35.46
   7  -6   1  694.96   35.06
   7  -6   1  676.78   35.33
   8  -6   1  296.82   14.95
   8  -6   1  266.47   15.02
   8  -6   1  281.28   14.72
   9  -6   1   35.85    3.33
   9  -6   1   33.94    2.88
   9  -6   1   29.91    2.78
  10  -6   1   31.62    3.04
  10  -6   1   33.42    3.34
  10  -6   1   32.02    3.62
   7   5  -1  106.91    7.08
   7   5  -1  106.48    7.16
   7   5  -1  100.94    7.94
   6   5  -1    5.69    2.21
   6   5  -1    4.34    1.49
   6   5  -1    3.46    1.62
   5   5  -1    3.90    1.69
   5   5  -1    1.78    1.21
   4   5  -1    8.00    1.69
   4   5  -1    9.72    1.53
   4   5  -1   11.13    1.65
  -4  -5   1    9.48    0.81
   3   5  -1  400.57   21.32
   3   5  -1  413.91   21.56
   3   5  -1  392.73   21.32
  -3  -5   1  427.98   20.79
  -3  -5   1  407.56   20.93
   2   5  -1    0.59    0.77
   2   5  -1    0.06    0.65
  -2  -5   1    1.09    0.60
  -2  -5   1    1.60    0.55
   1   5  -1  999.14   50.61
   1   5  -1 1007.36   50.61
  -1  -5   1  968.66   50.49
  -1  -5   1 1013.38   50.42
   0   5  -1  334.51   17.12
   0   5  -1  321.34   17.12
   0  -5   1  302.53   16.98
   0  -5   1  352.56   17.11
  -1   5  -1  575.83   28.84
  -1   5  -1  537.58   28.82
   1  -5   1  541.35   28.80
   1  -5   1  597.52   28.86
  -2   5  -1   93.63    5.49
  -2   5  -1   97.30    5.53
   2  -5   1   96.80    5.53
   2  -5   1  100.76    5.58
  -3   5  -1 1140.39   56.98
  -3   5  -1 1080.84   56.95
  -3   5  -1 1109.35   56.68
   3  -5   1 1166.79   57.07
   3  -5   1 1146.83   57.10
  -4   5  -1  563.04   28.48
  -4   5  -1  583.97   28.64
  -4   5  -1  571.72   28.60
   4  -5   1  553.05   28.83
   4  -5   1  544.82   28.78
  -5   5  -1  148.95    7.39
  -5   5  -1  144.50    7.70
  -5   5  -1  144.50    7.40
   5  -5   1  142.64    7.90
   5  -5   1  136.30    7.93
   5  -5   1  153.34    7.68
  -6   5  -1    0.24    0.55
   6  -5   1   -0.05    0.68
   6  -5   1    0.40    0.51
   6  -5   1   -0.09    0.61
  -7   5  -1  328.84   17.47
   7  -5   1  330.57   17.50
   7  -5   1  337.80   17.35
   7  -5   1  343.32   17.43
   8  -5   1   62.44    4.08
   8  -5   1   61.99    3.87
   8  -5   1   60.96    4.00
   9  -5   1    0.00    0.87
   9  -5   1    1.18    1.14
   9  -5   1    0.42    1.19
  10  -5   1    5.34    1.66
   7   4  -1   45.75    5.02
   7   4  -1   48.24    3.94
   7   4  -1   47.67    4.06
   6   4  -1  129.98    7.55
   6   4  -1  118.02    7.41
   6   4  -1  138.57    8.27
   5   4  -1    1.64    0.98
   5   4  -1    2.43    1.39
   5   4  -1    0.82    0.85
   4   4  -1   40.47    3.32
   4   4  -1   40.25    2.97
   4   4  -1   38.81    2.84
   3   4  -1  121.47    7.43
   3   4  -1  132.51    7.53
   3   4  -1  137.81    7.81
  -3  -4   1  136.60    7.15
  -3  -4   1  148.50    7.06
   2   4  -1  230.50   12.56
   2   4  -1  241.10   12.61
  -2  -4   1  233.93   12.40
  -2  -4   1  248.95   12.32
   1   4  -1   17.11    1.51
   1   4  -1   17.69    1.56
  -1  -4   1   17.06    1.40
  -1  -4   1   16.89    1.43
   0   4  -1   12.10    1.22
   0   4  -1   15.86    1.32
   0  -4   1   11.56    1.21
   0  -4   1   14.62    1.28
  -1   4  -1   43.25    2.76
  -1   4  -1   40.55    2.73
   1  -4   1   46.31    2.77
   1  -4   1   47.30    2.80
  -2   4  -1   33.09    2.10
  -2   4  -1   28.82    2.05
   2  -4   1   33.19    2.16
   2  -4   1   30.05    2.07
  -3   4  -1  134.95    6.86
  -3   4  -1  127.39    7.01
  -3   4  -1  129.71    6.99
   3  -4   1  137.35    7.15
   3  -4   1  129.66    7.09
  -4   4  -1   -0.14    0.28
  -4   4  -1    0.44    0.25
  -4   4  -1    0.23    0.33
   4  -4   1   -0.36    0.36
   4  -4   1    0.27    0.33
   4  -4   1    0.29    0.45
  -5   4  -1  418.74   21.57
   5  -4   1  439.01   21.51
   5  -4   1  420.11   21.60
   5  -4   1  408.03   21.55
  -6   4  -1  342.99   17.88
   6  -4   1  352.73   17.78
   6  -4   1  345.40   17.76
   6  -4   1  335.68   17.71
   7  -4   1    3.59    0.74
   7  -4   1    3.61    0.84
   8  -4   1   16.04    1.84
   8  -4   1   12.93    1.54
   8  -4   1   15.04    2.04
   9  -4   1    1.95    1.08
   9  -4   1   -0.72    1.28
   8   3  -1   20.25    2.93
   8   3  -1   14.81    2.10
   8   3  -1   17.52    3.15
   7   3  -1   14.62    2.08
   7   3  -1   11.26    1.67
   6   3  -1   19.99    2.91
   6   3  -1   18.68    1.93
   6   3  -1   16.59    2.03
   5   3  -1   20.52    2.59
   5   3  -1   20.15    1.80
   5   3  -1   17.72    1.88
   4   3  -1  147.23    8.46
   4   3  -1  143.45    7.97
   4   3  -1  154.00    8.09
   3   3  -1  429.88   23.71
   3   3  -1  477.88   23.81
   3   3  -1  471.03   24.08
  -3  -3   1  472.34   23.43
  -3  -3   1  473.99   23.38
   2   3  -1   -0.11    0.45
   2   3  -1    0.92    0.46
  -2  -3   1    0.42    0.30
   1   3  -1  130.75    7.33
   1   3  -1  140.20    7.36
  -1  -3   1  138.36    7.27
  -1  -3   1  143.02    7.31
   0  -3   1 1650.36   95.77
  -1   3  -1  760.41   41.24
  -1   3  -1  847.88   41.27
   1  -3   1  818.79   41.25
   1  -3   1  843.65   41.29
  -2   3  -1  293.94   15.26
  -2   3  -1  287.33   15.11
  -2   3  -1  295.59   15.25
   2  -3   1  307.39   15.30
   2  -3   1  307.73   15.32
  -3   3  -1  589.23   30.27
  -3   3  -1  602.58   30.33
  -3   3  -1  631.24   30.26
   3  -3   1  578.08   30.38
   3  -3   1  598.25   30.41
   3  -3   1  605.52   30.30
  -4   3  -1  502.54   25.75
   4  -3   1  494.07   25.67
   4  -3   1  522.98   25.70
   4  -3   1  506.02   25.68
  -5   3  -1    1.71    0.57
   5  -3   1    1.92    0.46
   5  -3   1    2.07    0.53
   5  -3   1    2.20    0.61
  -6   3  -1  179.11   10.21
   6  -3   1  194.97   10.16
   6  -3   1  189.53    9.86
   6  -3   1  192.60    9.91
   7  -3   1   29.51    1.96
   7  -3   1   27.69    2.07
   7  -3   1   26.76    2.55
   8  -3   1   16.16    2.39
   8  -3   1   13.34    1.69
   9  -3   1    9.77    1.94
   9  -3   1    8.40    1.36
   8   2  -1    9.63    1.44
   8   2  -1    9.19    1.48
   8   2  -1    5.80    2.47
   7   2  -1  179.70    9.66
   7   2  -1  173.28    9.73
   7   2  -1  189.03   10.66
   6   2  -1    9.56    1.44
   6   2  -1   11.32    1.30
   6   2  -1    9.76    1.67
   5   2  -1  456.59   22.48
   5   2  -1  433.13   22.95
   5   2  -1  427.22   22.35
   4   2  -1   22.33    1.63
   4   2  -1   23.78    1.54
   4   2  -1   19.22    2.03
   3   2  -1    1.88    0.49
   3   2  -1    0.91    0.67
   3   2  -1    1.43    0.42
   2   2  -1 1073.29   53.32
   2   2  -1 1048.43   53.30
   1   2  -1 6958.51  358.10
   0   2  -1 1531.30   76.81
  -1   2  -1  663.71   32.83
  -1   2  -1  665.85   32.92
  -1   2  -1  695.75   32.93
   1  -2   1  643.24   32.93
   1  -2   1  598.27   32.89
  -2   2  -1  255.47   13.03
  -2   2  -1  261.53   13.01
  -2   2  -1  257.28   13.05
   2  -2   1  255.88   13.08
   2  -2   1  260.64   13.04
   2  -2   1  247.72   13.06
  -3   2  -1  245.56   12.63
   3  -2   1  239.33   12.50
   3  -2   1  249.80   12.51
   3  -2   1  246.17   12.59
  -4   2  -1    3.96    0.65
   4  -2   1    5.80    0.87
   4  -2   1    4.81    0.60
   4  -2   1    4.92    0.62
  -5   2  -1  676.44   34.33
   5  -2   1  660.48   33.90
   5  -2   1  686.53   33.93
   5  -2   1  666.75   34.24
   6  -2   1  397.32   19.89
   6  -2   1  392.35   19.95
   6  -2   1  383.77   20.36
   7  -2   1   15.50    2.24
   7  -2   1   20.74    1.59
   7  -2   1   14.67    1.33
   8  -2   1   42.99    2.64
   8  -2   1   45.06    2.94
   8  -2   1   40.66    3.73
   9  -2   1   47.08    2.70
   9  -2   1   37.42    4.21
   9  -2   1   32.60    3.00
   9   1  -1   14.08    2.87
   9   1  -1   14.73    2.31
   8   1  -1    3.59    0.89
   8   1  -1    0.86    1.87
   8   1  -1    5.49    1.04
   7   1  -1  233.99   12.66
   7   1  -1  219.94   11.68
   7   1  -1  224.06   11.80
   6   1  -1   72.05    4.00
   6   1  -1   68.55    4.70
   6   1  -1   70.15    3.85
   5   1  -1   26.33    2.28
   5   1  -1   28.35    1.78
   5   1  -1   27.80    1.64
   4   1  -1  131.53    6.91
   4   1  -1  136.88    6.84
   4   1  -1  131.56    7.39
   3   1  -1  405.04   21.05
   3   1  -1  420.82   21.02
   3   1  -1  428.59   21.45
   2   1  -1 2704.38  136.66
  -2  -1   1 2504.21  136.12
   1   1  -1 1745.59   82.86
  -1  -1   1 1321.44   81.18
   0   1  -1  284.37   13.00
   0   1  -1  264.61   13.00
   0  -1   1  260.95   13.01
   0  -1   1  216.44   12.94
  -1   1  -1   53.14    2.80
  -1   1  -1   51.07    2.78
  -1   1  -1   53.76    2.78
   1  -1   1   51.45    2.79
   1  -1   1   53.07    2.80
   1  -1   1   52.99    2.79
  -2   1  -1  671.21   34.04
   2  -1   1  678.71   34.02
  -3   1  -1    0.15    0.32
   3  -1   1    0.30    0.38
   3  -1   1    0.09    0.17
   3  -1   1    0.34    0.22
  -4   1  -1  418.07   21.98
   4  -1   1  428.37   21.62
   4  -1   1  422.47   21.94
   4  -1   1  439.33   21.58
  -5   1  -1    1.01    0.69
   5  -1   1    0.61    0.67
   5  -1   1    1.09    0.41
   5  -1   1    0.24    0.26
   6  -1   1  120.78    7.06
   6  -1   1  117.42    6.36
   6  -1   1  126.24    6.54
   7  -1   1  417.25   21.27
   7  -1   1  404.14   22.05
   7  -1   1  434.40   21.48
   8  -1   1    1.84    1.65
   8  -1   1    2.27    0.64
   8  -1   1    2.99    0.93
   9  -1   1   11.65    2.54
   9  -1   1   12.68    1.68
   9  -1   1   14.28    1.67
   8   0  -1   22.70    1.63
   8   0  -1   23.94    3.26
   8   0  -1   23.43    1.87
   7   0  -1  107.41    5.81
   7   0  -1  110.34    6.77
   7   0  -1  109.15    5.67
   6   0  -1   30.65    1.82
   6   0  -1   27.13    2.65
   6   0  -1   30.98    1.67
   5   0  -1  463.97   23.30
   5   0  -1  439.35   22.62
   5   0  -1  449.86   22.59
   4   0  -1  148.45    8.01
   3   0  -1 1541.39   77.44
   1   0  -1  621.61   33.83
  -1   0   1  652.48   33.82
  -2   0  -1 3173.87  164.13
   2   0   1 3178.44  163.99
  -3   0  -1  119.79    6.95
   3   0   1  126.46    6.57
   3   0   1  133.46    6.98
   3   0   1  131.95    6.69
  -4   0  -1    2.09    0.76
   4   0   1    3.12    0.82
   4   0   1    2.83    0.39
   5   0   1  234.88   12.62
   5   0   1  235.18   12.15
   5   0   1  232.76   11.97
   6   0   1  163.83    8.78
   6   0   1  168.03    8.57
   6   0   1  161.78    9.35
   7   0   1   34.65    2.21
   7   0   1   30.61    3.38
   7   0   1   35.04    2.54
   8   0   1   15.26    2.54
   8   0   1   19.10    2.17
   8   0   1   20.05    1.76
   9   0   1    2.01    1.09
   9   0   1   -0.13    1.38
   9   0   1   -3.14    2.29
   9  -1  -1    4.01    0.60
   9  -1  -1    4.28    1.92
   8  -1  -1  253.01   13.84
   8  -1  -1  247.71   12.88
   8  -1  -1  254.42   12.76
   7  -1  -1   10.58    0.75
   7  -1  -1    9.60    1.56
   7  -1  -1   10.24    0.90
   6  -1  -1  243.37   12.98
   5  -1  -1  143.65    7.82
   4  -1  -1  294.04   15.15
   1  -1  -1  211.51   11.55
   1  -1  -1  234.99   11.58
  -1   1   1  239.63   11.57
  -1   1   1  228.42   11.57
   0  -1  -1  150.22    7.73
   0  -1  -1  169.49    7.67
   0  -1  -1  143.25    7.69
   0   1   1  148.41    7.67
   0   1   1  146.88    7.69
   0   1   1  142.70    7.72
  -2  -1  -1 1641.03   83.78
   2   1   1 1692.19   83.78
  -3  -1  -1  193.29   10.58
   3   1   1  197.52   10.11
   3   1   1  197.72   10.56
   3   1   1  201.11   10.29
   4   1   1  230.05   11.78
   4   1   1  229.22   12.36
   4   1   1  230.93   11.99
   5   1   1   18.58    2.23
   5   1   1   19.56    1.37
   5   1   1   17.27    1.65
   6   1   1    2.97    1.18
   6   1   1    2.63    0.83
   7   1   1   10.52    2.10
   7   1   1   11.36    1.85
   7   1   1   11.80    1.45
   8   1   1   30.83    3.12
   8   1   1   36.66    2.83
   8   1   1   35.80    4.37
  10  -2  -1  112.27    6.50
  10  -2  -1  125.63    7.88
   9  -2  -1    2.42    0.46
   9  -2  -1   -0.43    1.48
   9  -2  -1    2.39    0.66
   8  -2  -1    2.62    1.26
   8  -2  -1    3.06    0.52
   7  -2  -1  644.91   32.58
   7  -2  -1  625.17   31.88
   6  -2  -1    9.00    1.38
   5  -2  -1  153.44    8.18
   4  -2  -1   27.54    1.49
   4  -2  -1   28.16    1.50
   4  -2  -1   27.19    1.74
   3  -2  -1 1326.87   66.85
   3  -2  -1 1123.84   67.31
   2  -2  -1  825.66   40.30
   2  -2  -1  816.28   40.30
  -2   2   1  762.55   40.25
   1  -2  -1  728.64   35.90
   1  -2  -1  720.05   35.86
  -1   2   1  675.19   35.85
  -1   2   1  724.77   35.89
   0  -2  -1   79.43    4.59
   0  -2  -1   92.85    4.53
   0  -2  -1   85.26    4.57
   0   2   1   85.00    4.62
   0   2   1   86.11    4.56
   0   2   1   82.00    4.55
  -1  -2  -1 2984.49  158.86
  -2  -2  -1  398.25   21.00
  -2  -2  -1  424.77   20.87
   2   2   1  416.76   21.13
   2   2   1  411.47   21.26
   2   2   1  413.75   20.97
  -3  -2  -1   21.10    1.26
  -3  -2  -1   21.02    1.35
   3   2   1   21.10    1.50
   3   2   1   19.18    1.70
   3   2   1   20.62    1.96
   4   2   1  797.29   41.10
   4   2   1  819.99   41.31
   4   2   1  825.04   41.66
   5   2   1   45.28    2.91
   5   2   1   46.04    3.19
   5   2   1   50.72    3.80
   6   2   1    3.69    0.89
   6   2   1    3.93    1.12
   6   2   1    3.55    1.56
   7   2   1   25.31    2.42
   7   2   1   27.38    2.81
   8   2   1  135.47    8.07
   8   2   1  150.35    9.43
   8   2   1  135.58    8.28
  10  -3  -1   13.70    1.23
  10  -3  -1    9.64    2.18
  10  -3  -1   13.25    1.72
   9  -3  -1   -0.01    0.49
   9  -3  -1    0.26    1.28
   9  -3  -1    0.80    0.65
   8  -3  -1    0.40    0.43
   8  -3  -1   -0.24    0.91
   8  -3  -1    0.37    0.50
   7  -3  -1    0.27    0.40
   7  -3  -1    0.30    0.41
   7  -3  -1    0.38    0.70
   6  -3  -1   28.11    2.04
   6  -3  -1   29.55    1.80
   6  -3  -1   29.19    1.77
   5  -3  -1  908.13   46.62
   5  -3  -1  926.29   46.63
   5  -3  -1  947.60   46.68
   4  -3  -1   91.57    4.90
   4  -3  -1   89.74    4.90
   4  -3  -1   93.03    4.76
   3  -3  -1  885.43   46.89
   3  -3  -1  954.30   46.91
  -3   3   1  936.61   46.79
  -3   3   1  948.89   46.77
   2  -3  -1  593.54   29.81
   2  -3  -1  627.10   29.85
  -2   3   1  585.77   29.78
  -2   3   1  568.03   29.50
  -2   3   1  568.80   29.78
   1  -3  -1 1216.57   62.27
   1  -3  -1 1296.32   62.37
  -1   3   1 1320.29   62.37
  -1   3   1 1127.37   62.28
  -1   3   1 1233.73   62.15
   0  -3  -1 1360.68   66.75
   0  -3  -1 1348.04   66.60
   0   3   1 1322.11   66.74
   0   3   1 1243.88   66.66
   0   3   1 1353.57   66.66
  -1  -3  -1  343.72   17.55
  -1  -3  -1  340.90   17.35
   1   3   1  314.31   17.47
   1   3   1  366.05   17.65
   1   3   1  339.25   17.59
  -2  -3  -1  801.80   41.22
  -2  -3  -1  797.18   41.42
   2   3   1  856.01   41.71
   2   3   1  790.58   41.54
   2   3   1  850.84   41.46
  -3  -3  -1  444.29   23.86
  -3  -3  -1  475.62   23.74
   3   3   1  475.78   24.42
   3   3   1  480.51   24.05
   3   3   1  473.18   24.20
   4   3   1  535.85   26.65
   4   3   1  484.77   26.24
   5   3   1  217.50   12.27
   5   3   1  233.68   12.13
   5   3   1  230.99   12.74
   6   3   1    8.54    1.59
   6   3   1   11.94    1.92
   6   3   1    8.35    2.19
   7   3   1   34.04    3.15
   7   3   1   29.01    4.13
   7   3   1   36.49    3.53
  10  -4  -1   72.66    4.11
  10  -4  -1   75.78    5.09
  10  -4  -1   67.17    4.30
   9  -4  -1   25.62    2.00
   9  -4  -1   28.42    2.21
   9  -4  -1   26.55    2.64
   8  -4  -1   61.34    3.66
   8  -4  -1   64.35    3.74
   8  -4  -1   62.67    3.89
   7  -4  -1  274.33   14.26
   7  -4  -1  277.49   14.31
   7  -4  -1  277.29   14.29
   6  -4  -1   52.79    3.22
   6  -4  -1   56.13    3.27
   6  -4  -1   56.31    3.14
   5  -4  -1  131.71    7.04
   5  -4  -1  128.38    7.00
   5  -4  -1  132.53    6.74
   4  -4  -1  975.46   49.12
   4  -4  -1  978.80   49.13
  -4   4   1  952.73   48.87
  -4   4   1  985.66   48.86
   3  -4  -1   -0.05    0.37
   3  -4  -1    0.45    0.47
  -3   4   1   -0.40    0.36
  -3   4   1   -0.67    0.31
   2  -4  -1  134.65    7.04
   2  -4  -1  132.89    6.99
  -2   4   1  135.31    6.68
  -2   4   1  126.51    6.97
  -2   4   1  115.20    6.93
   1  -4  -1   25.20    1.72
   1  -4  -1   24.82    1.82
  -1   4   1   21.39    1.77
  -1   4   1   20.84    1.70
  -1   4   1   22.60    1.56
   0  -4  -1   56.10    3.65
   0  -4  -1   62.86    3.53
   0   4   1   59.26    3.64
   0   4   1   63.55    3.74
  -1  -4  -1  989.57   49.51
  -1  -4  -1  947.16   49.73
   1   4   1 1011.48   49.76
   1   4   1 1011.36   49.82
   1   4   1  952.10   49.79
  -2  -4  -1  120.92    6.94
  -2  -4  -1  126.28    6.70
   2   4   1  124.96    7.02
   2   4   1  135.31    7.27
   2   4   1  124.67    7.12
  -3  -4  -1   37.49    2.48
  -3  -4  -1   41.16    2.31
   3   4   1   33.92    2.96
   3   4   1   35.44    2.73
   3   4   1   38.87    2.92
  -4  -4  -1  457.93   22.49
  -4  -4  -1  468.31   22.42
   4   4   1  451.59   23.23
   4   4   1  453.11   23.09
   4   4   1  387.98   23.34
   5   4   1   85.63    5.61
   5   4   1   68.38    4.94
   5   4   1   69.95    4.77
   6   4   1    8.84    2.37
   6   4   1    7.93    1.88
   6   4   1    9.48    1.68
   7   4   1    2.44    1.72
   7   4   1    2.18    2.58
   7   4   1    0.09    1.72
  10  -5  -1   11.75    1.60
  10  -5  -1   11.74    1.43
  10  -5  -1   15.80    2.35
   9  -5  -1    2.66    0.85
   9  -5  -1    3.15    0.95
   9  -5  -1    3.43    0.95
   8  -5  -1   25.30    1.89
   8  -5  -1   25.74    2.10
   8  -5  -1   20.77    2.13
   7  -5  -1  184.02    9.09
   7  -5  -1  167.95    9.39
   7  -5  -1  171.60    9.36
   6  -5  -1    4.30    0.60
   6  -5  -1    4.03    0.79
   6  -5  -1    4.24    0.88
   5  -5  -1  195.40   10.67
   5  -5  -1  199.44   10.67
  -5   5   1  205.35   10.18
  -5   5   1  201.99   10.18
   4  -5  -1   29.92    2.13
   4  -5  -1   25.02    2.04
  -4   5   1   26.82    1.89
  -4   5   1   27.83    1.90
   3  -5  -1    7.08    1.04
   3  -5  -1    6.93    1.15
  -3   5   1    6.91    1.09
  -3   5   1    7.64    0.62
  -3   5   1    6.81    1.07
   2  -5  -1  570.32   28.01
   2  -5  -1  540.38   27.89
  -2   5   1  549.75   27.59
  -2   5   1  537.68   27.94
  -2   5   1  527.24   27.91
   1  -5  -1    6.74    1.06
   1  -5  -1    8.32    1.27
  -1   5   1    8.35    1.18
  -1   5   1    8.64    1.23
  -1   5   1    7.67    1.02
   0  -5  -1  473.81   24.86
   0  -5  -1  479.07   24.65
   0   5   1  489.55   24.91
   0   5   1  484.17   24.76
  -1  -5  -1  127.46    7.04
  -1  -5  -1  130.07    7.33
   1   5   1  128.19    7.41
   1   5   1  137.04    7.40
   1   5   1  128.25    7.36
  -2  -5  -1    0.75    0.50
  -2  -5  -1    1.00    0.71
   2   5   1    1.14    0.92
   2   5   1    0.25    0.77
   2   5   1    0.60    0.82
  -3  -5  -1   12.13    1.14
  -3  -5  -1    9.86    1.45
   3   5   1   10.05    1.61
   3   5   1    9.52    1.69
   3   5   1    9.23    1.51
  -4  -5  -1    5.44    0.84
  -4  -5  -1    4.15    0.70
   4   5   1    5.15    1.40
   4   5   1    2.46    1.60
   4   5   1    4.11    1.30
   5   5   1   34.67    3.38
   5   5   1   37.78    3.59
   6   5   1    5.37    2.06
   6   5   1    5.18    2.40
   6   5   1    5.27    1.76
  10  -6  -1   -1.08    1.25
  10  -6  -1   -0.29    1.07
  10  -6  -1   -0.31    0.93
   9  -6  -1  201.15   11.25
   9  -6  -1  218.31   10.84
   9  -6  -1  201.96   11.17
   8  -6  -1   66.35    4.25
   8  -6  -1   69.63    3.70
   8  -6  -1   63.65    4.29
   6  -6  -1   21.37    2.20
   6  -6  -1   31.59    2.32
   5  -6  -1  575.85   29.79
  -5   6   1  607.55   29.46
  -5   6   1  556.50   29.46
   4  -6  -1  382.67   22.40
   4  -6  -1  455.18   22.51
  -4   6   1  433.33   22.31
  -4   6   1  459.24   22.39
  -4   6   1  434.93   21.74
  -4   6   1  434.28   21.76
   3  -6  -1   43.46    3.06
   3  -6  -1   46.28    3.16
  -3   6   1   42.42    3.06
  -3   6   1   46.51    2.60
  -3   6   1   46.40    3.09
   2  -6  -1  403.67   21.47
   2  -6  -1  418.29   21.39
  -2   6   1  390.48   21.42
  -2   6   1  417.98   21.46
  -2   6   1  428.70   21.08
   1  -6  -1   -0.04    0.64
   1  -6  -1   -0.85    0.68
  -1   6   1   -0.06    0.66
  -1   6   1    0.51    0.57
  -1   6   1   -0.55    0.74
   0  -6  -1  351.57   18.71
   0  -6  -1  369.70   19.01
   0   6   1  366.85   18.86
   0   6   1  355.16   19.01
   0   6   1  359.68   19.01
  -1  -6  -1  189.83   10.14
  -1  -6  -1  190.14   10.48
   1   6   1  195.53   10.54
   1   6   1  185.23   10.57
   1   6   1  190.00   10.57
  -2  -6  -1   21.04    2.18
  -2  -6  -1   26.68    1.91
   2   6   1   21.97    2.42
   2   6   1   24.93    2.71
   2   6   1   18.90    2.54
  -3  -6  -1  100.80    5.94
  -3  -6  -1  105.31    5.61
   3   6   1   93.64    6.28
   3   6   1  100.93    6.46
   3   6   1  104.86    6.69
  -4  -6  -1  162.19    8.23
  -4  -6  -1  150.68    8.36
   4   6   1  162.71    9.39
   4   6   1  144.83    9.15
   4   6   1  162.16    9.56
   5   6   1    0.71    1.98
   5   6   1    3.75    1.65
   5   6   1    0.86    1.88
   6   6   1   25.75    4.06
   6   6   1   32.04    4.35
  10  -7  -1    3.54    1.49
  10  -7  -1    2.31    1.58
   9  -7  -1   22.04    2.67
   9  -7  -1   27.80    2.92
   8  -7  -1   15.55    2.23
   8  -7  -1   17.25    2.43
   7  -7  -1  212.02   11.60
   7  -7  -1  211.79   11.64
   6  -7  -1   -1.15    0.82
   6  -7  -1   -0.13    0.86
  -6   7   1    0.34    0.46
  -6   7   1   -0.16    0.48
   5  -7  -1  522.46   27.55
   5  -7  -1  517.18   27.52
  -5   7   1  530.04   27.29
  -5   7   1  556.12   27.28
   4  -7  -1  677.12   36.17
   4  -7  -1  765.64   36.36
  -4   7   1  668.23   36.09
  -4   7   1  706.04   35.49
  -4   7   1  710.12   36.09
   3  -7  -1  403.23   21.31
   3  -7  -1  407.82   21.42
  -3   7   1  398.27   21.34
  -3   7   1  395.20   21.29
  -3   7   1  432.00   20.83
   2  -7  -1    3.03    1.03
   2  -7  -1    1.32    0.76
  -2   7   1    1.77    0.65
  -2   7   1    1.63    1.01
  -2   7   1    2.25    0.86
   1  -7  -1  133.93    7.61
   1  -7  -1  130.55    7.37
  -1   7   1  124.70    7.24
  -1   7   1  120.34    7.54
  -1   7   1  133.99    7.62
   0  -7  -1   21.12    1.96
   0  -7  -1   18.05    2.24
   0   7   1   15.13    2.24
   0   7   1   14.89    2.21
   0   7   1   19.22    2.05
  -1  -7  -1    1.15    0.83
  -1  -7  -1    4.33    1.18
   1   7   1    0.95    1.14
   1   7   1    1.79    1.25
   1   7   1    2.51    1.24
  -2  -7  -1    3.62    1.21
  -2  -7  -1    6.13    1.03
   2   7   1    3.35    1.44
   2   7   1    5.31    1.65
   2   7   1    1.33    1.28
  -3  -7  -1    0.96    0.99
  -3  -7  -1    0.32    0.70
   3   7   1    2.49    1.62
   3   7   1    2.42    1.77
   3   7   1    1.37    1.33
  -4  -7  -1   47.42    3.37
  -4  -7  -1   54.03    3.18
   4   7   1   57.00    4.92
   4   7   1   50.73    4.61
   4   7   1   54.03    5.20
   5   7   1    1.76    2.48
   5   7   1    5.53    2.21
   5   7   1   -1.35    2.21
  10  -8  -1   -0.42    1.63
  10  -8  -1    0.44    1.85
   9  -8  -1   37.04    3.59
   9  -8  -1   34.80    3.81
   8  -8  -1   14.01    2.08
   8  -8  -1   20.04    2.89
   7  -8  -1  174.24    9.87
   7  -8  -1  171.39    9.88
   6  -8  -1  126.52    7.67
   6  -8  -1  128.29    7.67
  -6   8   1  128.02    7.19
  -6   8   1  133.77    7.18
   5  -8  -1  467.73   24.62
   5  -8  -1  464.97   24.56
  -5   8   1  460.39   24.35
  -5   8   1  481.91   24.34
   4  -8  -1   57.17    4.08
   4  -8  -1   49.66    3.98
  -4   8   1   54.62    3.93
  -4   8   1   56.43    3.18
  -4   8   1   53.75    3.93
   3  -8  -1   32.20    3.03
   3  -8  -1   37.68    3.14
  -3   8   1   36.72    3.11
  -3   8   1   37.28    2.50
  -3   8   1   34.30    3.15
   2  -8  -1   99.97    6.09
   2  -8  -1  101.39    6.29
  -2   8   1   97.79    5.78
  -2   8   1  100.75    6.32
  -2   8   1   99.66    6.31
   1  -8  -1    2.96    1.03
   1  -8  -1    2.26    1.09
  -1   8   1    3.58    1.19
  -1   8   1    2.81    1.10
  -1   8   1    3.52    1.21
   0  -8  -1   69.97    5.24
   0  -8  -1   86.17    5.08
   0   8   1   80.19    5.21
   0   8   1   85.49    5.56
   0   8   1   75.22    5.42
  -1  -8  -1   14.33    1.94
  -1  -8  -1   11.78    1.87
   1   8   1   12.93    2.21
   1   8   1   17.54    2.46
  -2  -8  -1   17.85    2.61
  -2  -8  -1   20.76    2.14
   2   8   1   23.89    3.10
   2   8   1   15.48    2.45
   2   8   1   17.61    2.68
  -3  -8  -1  111.63    7.12
  -3  -8  -1  129.19    6.78
   3   8   1  116.80    7.87
   3   8   1  120.43    8.04
  -4  -8  -1   -0.14    0.76
   4   8   1    0.89    2.30
   4   8   1   -0.42    1.95
   4   8   1    2.92    2.41
   9  -9  -1   13.87    2.35
   9  -9  -1    9.89    2.14
   8  -9  -1   51.44    4.24
   8  -9  -1   43.25    4.13
   7  -9  -1   91.11    6.31
   7  -9  -1   97.85    6.37
  -7   9   1  101.14    5.43
  -7   9   1   94.76    5.41
   6  -9  -1  526.93   30.86
   6  -9  -1  613.01   31.11
  -6   9   1  618.86   30.66
  -6   9   1  616.58   30.60
   5  -9  -1  120.99    7.73
   5  -9  -1  111.15    7.53
  -5   9   1  134.62    7.53
  -5   9   1  130.91    6.54
  -5   9   1  128.43    6.49
  -5   9   1  125.82    7.51
   4  -9  -1   39.45    3.69
   4  -9  -1   43.58    3.66
  -4   9   1   45.43    2.75
  -4   9   1   43.20    3.62
  -4   9   1   39.74    3.51
   3  -9  -1   11.17    1.94
   3  -9  -1    8.35    1.71
  -3   9   1    9.14    1.73
  -3   9   1   11.96    1.94
  -3   9   1    7.98    1.25
   2  -9  -1  911.90   47.87
   2  -9  -1  920.83   47.60
  -2   9   1  950.73   47.88
  -2   9   1  952.26   47.35
  -2   9   1  910.49   47.89
   1  -9  -1  458.66   22.92
   1  -9  -1  413.74   23.16
  -1   9   1  413.12   23.26
  -1   9   1  456.86   23.32
  -1   9   1  432.09   22.82
   0  -9  -1  170.21   10.48
   0  -9  -1  188.56   10.13
   0   9   1  187.10   10.74
   0   9   1  167.48   10.65
   0   9   1  186.25   10.40
  -1  -9  -1   28.54    2.74
  -1  -9  -1   26.97    3.27
   1   9   1   24.47    3.47
   1   9   1   32.05    3.82
   1   9   1   28.14    3.31
  -2  -9  -1   94.51    6.53
  -2  -9  -1  110.38    6.02
   2   9   1   83.91    6.89
   2   9   1  105.01    7.29
   2   9   1  100.48    7.13
  -3  -9  -1   12.49    1.96
  -3  -9  -1   10.08    1.52
   3   9   1   14.13    2.98
   3   9   1   15.20    3.04
   3   9   1   13.06    2.83
   9 -10  -1   62.47    5.74
   9 -10  -1   78.34    5.93
   8 -10  -1   38.20    4.34
   8 -10  -1   34.26    4.14
   7 -10  -1    0.36    1.45
   7 -10  -1   -1.15    1.41
  -7  10   1    1.29    0.91
  -7  10   1    0.89    0.99
   6 -10  -1   91.68    6.10
   6 -10  -1   77.66    5.95
  -6  10   1   91.73    5.65
  -6  10   1   82.50    5.58
   5 -10  -1  516.41   27.69
   5 -10  -1  556.43   27.64
  -5  10   1  514.64   26.40
  -5  10   1  521.77   26.45
  -5  10   1  506.56   27.34
  -5  10   1  517.32   27.45
   4 -10  -1  159.84    9.45
   4 -10  -1  157.11    9.26
  -4  10   1  160.33    9.28
  -4  10   1  145.31    8.33
  -4  10   1  149.52    9.23
   3 -10  -1    7.36    1.82
   3 -10  -1   11.17    1.97
  -3  10   1    7.54    1.96
  -3  10   1    8.35    1.89
  -3  10   1    6.39    1.24
   2 -10  -1  426.88   22.07
   2 -10  -1  398.89   22.30
  -2  10   1  407.84   22.40
  -2  10   1  415.01   22.35
  -2  10   1  422.39   21.78
   1 -10  -1  198.31   10.69
   1 -10  -1  167.58   10.90
  -1  10   1  177.95   11.14
  -1  10   1  200.30   11.25
   0 -10  -1    2.29    1.27
   0 -10  -1   -0.62    1.59
   0  10   1   -0.16    1.57
   0  10   1    0.53    1.91
   0  10   1   -1.46    1.74
  -1 -10  -1    6.79    1.51
  -1 -10  -1    8.52    1.99
   1  10   1   11.10    2.63
   1  10   1    8.58    2.47
   1  10   1    8.09    2.20
  -2 -10  -1    5.71    1.46
  -2 -10  -1    4.11    1.93
   2  10   1    6.81    2.95
   2  10   1    6.17    2.59
   2  10   1    9.42    2.83
   8 -11  -1   62.74    5.57
   8 -11  -1   62.56    5.54
  -8  11   1   58.70    3.74
  -8  11   1   59.77    3.76
   7 -11  -1    0.70    1.91
   7 -11  -1   -1.81    1.73
  -7  11   1   -0.67    1.30
  -7  11   1    0.36    1.37
   6 -11  -1   38.17    4.27
  -6  11   1   37.11    3.78
  -6  11   1   37.83    3.74
   5 -11  -1  191.24   12.29
   5 -11  -1  242.18   12.51
  -5  11   1  205.12   10.99
  -5  11   1  202.92   12.10
  -5  11   1  210.52   12.12
   4 -11  -1   45.68    4.55
  -4  11   1   54.29    4.64
  -4  11   1   48.60    3.41
  -4  11   1   46.40    4.41
   3 -11  -1  195.96   13.00
   3 -11  -1  234.88   12.98
  -3  11   1  224.64   12.33
  -3  11   1  263.61   13.38
  -3  11   1  213.32   13.18
   2 -11  -1    0.96    1.77
   2 -11  -1   -0.33    1.48
  -2  11   1   -0.32    1.35
  -2  11   1    0.50    1.82
  -2  11   1    0.66    1.95
   1 -11  -1  181.40   10.47
   1 -11  -1  165.44   10.88
  -1  11   1  195.32   11.34
  -1  11   1  170.75   11.17
  -1  11   1  187.19   10.62
   0 -11  -1   47.53    4.99
   0 -11  -1   50.40    4.33
   0  11   1   40.82    5.37
   0  11   1   49.37    5.59
   0  11   1   59.46    5.13
  -1 -11  -1   67.88    4.88
  -1 -11  -1   62.24    5.81
   1  11   1   53.82    6.36
   1  11   1   62.71    6.10
   1  11   1   73.80    6.60
   8 -12  -1   53.17    5.78
   7 -12  -1   87.94    7.05
   7 -12  -1   86.88    7.19
  -7  12   1   85.91    6.26
  -7  12   1  101.66    6.39
   6 -12  -1   93.17    7.66
   6 -12  -1  108.50    7.58
  -6  12   1  101.36    7.21
  -6  12   1  114.77    7.34
   5 -12  -1  130.09    8.93
   5 -12  -1  129.46    8.71
  -5  12   1  135.46    8.74
  -5  12   1  134.66    7.33
   4 -12  -1    1.79    1.96
   4 -12  -1   -0.76    1.95
  -4  12   1    1.79    1.26
  -4  12   1    3.21    2.00
  -4  12   1    1.75    2.04
   3 -12  -1   69.62    6.20
   3 -12  -1   78.08    5.75
  -3  12   1   75.54    6.31
  -3  12   1   73.71    6.30
  -3  12   1   68.67    5.11
   2 -12  -1  270.90   16.20
   2 -12  -1  287.93   15.69
  -2  12   1  297.99   16.45
  -2  12   1  280.83   15.46
  -2  12   1  262.87   16.39
   1 -12  -1   23.73    3.64
   1 -12  -1   30.51    3.82
  -1  12   1   26.32    3.80
  -1  12   1   20.49    3.78
   6 -13  -1    2.62    2.55
   6 -13  -1    1.56    3.94
  -6  13   1    3.63    2.32
  -6  13   1    7.41    2.49
   5 -13  -1    4.92    3.05
   5 -13  -1   12.66    2.81
  -5  13   1    8.87    1.46
  -5  13   1   11.29    2.69
  -5  13   1    6.37    2.54
   4 -13  -1    5.45    3.00
   4 -13  -1   11.61    2.67
  -4  13   1    8.94    1.96
  -4  13   1   10.12    3.04
  -4  13   1   13.92    3.02
   3 -13  -1   52.15    5.35
  -3  13   1   45.88    6.23
  -3  13   1   65.07    6.29
  -3  13   1   60.13    4.96
  -1  13  -2   59.99    9.33
  -1  13  -2   69.68    6.00
   1 -13   2   51.44    5.81
   1 -13   2   68.52    5.73
  -2  13  -2   18.29    3.30
  -2  13  -2   20.16    3.54
   2 -13   2   29.88    4.61
   2 -13   2   23.42    3.26
  -3  13  -2   58.51    5.99
  -3  13  -2   58.34    6.10
   3 -13   2   52.91    5.72
   3 -13   2   73.28    5.90
  -4  13  -2  334.02   17.83
  -4  13  -2  293.47   17.59
   4 -13   2  292.63   17.60
   4 -13   2  319.10   17.68
  -5  13  -2   15.97    2.82
  -5  13  -2   20.99    2.49
  -5  13  -2   24.78    3.32
   5 -13   2   21.05    3.29
   5 -13   2   19.92    3.35
  -6  13  -2    2.26    2.09
  -6  13  -2    2.16    2.16
   6 -13   2    1.33    2.53
   6 -13   2    1.05    2.34
   1  12  -2    2.31    2.91
   1  12  -2    1.81    2.76
  -1 -12   2   -1.06    1.86
  -1 -12   2   -1.43    2.07
   0  12  -2    3.20    2.51
   0  12  -2    3.62    2.43
   0  12  -2   -1.03    2.31
   0 -12   2    0.45    1.96
   0 -12   2    3.16    2.01
  -1  12  -2   86.19    6.46
  -1  12  -2  107.38    7.40
  -1  12  -2   87.74    7.15
   1 -12   2   80.37    6.57
   1 -12   2   90.20    6.57
  -2  12  -2   75.45    6.14
  -2  12  -2   67.10    5.93
   2 -12   2   66.90    5.76
   2 -12   2   69.59    5.65
  -3  12  -2  221.58   12.90
  -3  12  -2  215.90   12.86
   3 -12   2  224.70   12.84
   3 -12   2  206.67   12.77
  -4  12  -2   -3.05    1.60
   4 -12   2   -0.28    1.97
   4 -12   2    0.11    1.71
  -5  12  -2   45.49    4.65
  -5  12  -2   53.01    3.54
  -5  12  -2   56.97    4.94
   5 -12   2   46.19    4.82
   5 -12   2   60.46    5.40
  -6  12  -2    1.42    0.90
  -6  12  -2    0.92    1.60
  -6  12  -2   -1.75    1.74
   6 -12   2    1.81    1.91
   6 -12   2    8.29    2.32
  -7  12  -2    0.24    1.50
  -7  12  -2    1.94    0.81
  -7  12  -2   -0.56    1.59
   7 -12   2    2.00    2.55
   7 -12   2    4.22    2.20
   2  11  -2   62.34    6.39
   2  11  -2   64.26    6.02
   2  11  -2   56.72    6.54
  -2 -11   2   60.81    5.09
  -2 -11   2   69.24    4.79
   1  11  -2   11.60    2.67
   1  11  -2   14.89    2.89
   1  11  -2   12.68    2.91
  -1 -11   2   14.24    2.44
   0  11  -2  159.49    9.92
   0  11  -2  131.28    9.59
   0 -11   2  179.85    9.40
   0 -11   2  140.02    9.30
  -1  11  -2   -0.82    1.70
  -1  11  -2   -1.58    1.79
   1 -11   2   -0.39    1.41
   1 -11   2   -0.37    1.49
  -2  11  -2   42.26    4.44
  -2  11  -2   49.06    4.62
   2 -11   2   48.54    4.42
   2 -11   2   49.98    4.49
  -3  11  -2   30.92    3.76
  -3  11  -2   32.04    3.61
   3 -11   2   29.54    3.49
   3 -11   2   34.29    3.75
  -4  11  -2    1.09    1.46
  -4  11  -2    1.31    1.55
   4 -11   2    0.37    1.60
   4 -11   2    0.77    1.55
  -5  11  -2   14.23    2.23
  -5  11  -2   14.39    2.19
   5 -11   2   12.80    2.26
  -6  11  -2   44.50    3.02
  -6  11  -2   48.76    4.07
  -6  11  -2   51.59    3.95
   6 -11   2   44.86    4.39
  -7  11  -2    0.81    1.22
  -7  11  -2    0.58    0.75
  -7  11  -2   -0.76    1.32
   7 -11   2   -1.11    2.14
   7 -11   2    3.00    1.77
  -8  11  -2   -0.18    0.76
  -8  11  -2    0.94    0.66
  -8  11  -2    2.08    0.60
   8 -11   2    0.45    2.34
   8 -11   2   -0.22    1.80
   3  10  -2   -2.39    2.31
   3  10  -2    3.19    2.35
   3  10  -2    0.18    2.35
  -3 -10   2   -2.02    1.28
  -3 -10   2   -0.53    1.07
   2  10  -2   58.94    5.35
   2  10  -2   51.09    4.93
   2  10  -2   38.97    4.96
  -2 -10   2   61.26    4.10
  -2 -10   2   51.21    4.27
   1  10  -2   23.62    3.76
   1  10  -2   24.51    3.33
  -1 -10   2   31.45    3.29
  -1 -10   2   22.97    3.04
   0  10  -2  267.53   14.70
   0  10  -2  238.94   14.59
   0 -10   2  276.89   14.31
   0 -10   2  245.79   14.29
  -1  10  -2   66.07    5.14
  -1  10  -2   64.43    5.17
   1 -10   2   65.06    4.98
   1 -10   2   65.85    4.89
  -2  10  -2   32.11    3.63
  -2  10  -2   32.82    3.46
   2 -10   2   34.52    3.53
   2 -10   2   32.42    3.41
  -3  10  -2  475.81   25.67
  -3  10  -2  491.53   25.70
   3 -10   2  493.19   25.74
   3 -10   2  476.69   25.67
  -4  10  -2  246.04   15.30
  -4  10  -2  284.13   14.77
  -4  10  -2  278.64   15.44
   4 -10   2  293.18   15.61
   4 -10   2  304.50   15.76
  -5  10  -2   21.06    2.68
  -5  10  -2   20.28    2.80
  -5  10  -2   21.29    1.79
   5 -10   2   18.95    2.78
   5 -10   2   22.20    2.99
  -6  10  -2  419.89   21.38
  -6  10  -2  415.18   21.90
  -6  10  -2  426.04   21.97
   6 -10   2  416.21   22.51
   6 -10   2  408.33   22.33
  -7  10  -2    4.57    0.88
  -7  10  -2    4.96    1.19
   7 -10   2    4.86    1.94
   7 -10   2    9.09    1.82
  -8  10  -2    8.31    1.05
   8 -10   2    6.63    1.85
   8 -10   2   11.11    2.57
   9 -10   2    0.53    1.84
   4   9  -2   39.20    5.04
   4   9  -2   25.63    3.74
  -4  -9   2   33.61    2.63
  -4  -9   2   28.71    2.31
   3   9  -2    4.50    1.93
   3   9  -2   -1.65    2.07
  -3  -9   2    1.67    1.10
  -3  -9   2    1.87    0.97
   2   9  -2   42.10    4.44
   2   9  -2   37.97    4.20
   2   9  -2   49.16    4.16
  -2  -9   2   38.94    3.47
  -2  -9   2   44.77    3.38
   1   9  -2   12.56    2.11
   1   9  -2   15.09    2.50
  -1  -9   2   13.21    1.83
  -1  -9   2   10.02    1.72
   0   9  -2   19.12    2.87
   0   9  -2   23.53    3.00
   0  -9   2   13.06    2.00
   0  -9   2   19.51    2.46
  -1   9  -2  804.72   43.51
  -1   9  -2  843.59   43.52
   1  -9   2  880.38   43.43
  -2   9  -2   -2.64    1.17
  -2   9  -2    0.34    1.10
   2  -9   2   -1.44    1.21
   2  -9   2   -0.17    1.23
  -3   9  -2   20.74    2.71
  -3   9  -2   17.29    2.42
   3  -9   2   15.79    2.18
   3  -9   2   15.21    2.51
  -4   9  -2   28.76    2.14
  -4   9  -2   26.89    2.77
  -4   9  -2   31.66    2.92
   4  -9   2   23.46    2.91
   4  -9   2   29.37    2.94
  -5   9  -2    1.05    1.03
  -5   9  -2    1.14    0.64
  -5   9  -2    1.05    1.01
   5  -9   2    2.72    1.27
   5  -9   2    2.67    1.42
  -6   9  -2   -0.23    0.93
  -6   9  -2   -0.90    0.54
  -6   9  -2   -0.81    0.79
   6  -9   2   -2.01    1.27
   6  -9   2   -0.45    1.16
  -7   9  -2  211.69   10.97
  -7   9  -2  210.73   11.10
  -7   9  -2  213.82   11.03
   7  -9   2  209.46   12.13
   7  -9   2  206.56   11.87
  -8   9  -2    1.71    0.86
   8  -9   2    0.66    1.42
   8  -9   2    5.19    1.87
   9  -9   2    0.64    2.10
   9  -9   2    2.94    1.64
   5   8  -2   10.08    2.77
   5   8  -2   18.98    2.93
   4   8  -2   -2.47    2.05
   4   8  -2   -1.39    1.74
   4   8  -2    1.80    1.67
  -4  -8   2    0.56    0.62
  -4  -8   2   -0.59    0.76
   3   8  -2   83.07    6.03
   3   8  -2   94.01    6.22
   3   8  -2   75.66    5.88
  -3  -8   2   82.98    5.17
  -3  -8   2   89.21    5.02
   2   8  -2    2.21    1.29
   2   8  -2   -0.95    1.24
  -2  -8   2   -1.16    0.78
  -2  -8   2    0.01    0.86
   1   8  -2  106.80    6.87
  -1  -8   2  112.48    6.51
  -1  -8   2  105.80    6.52
   0   8  -2   43.28    3.63
   0   8  -2   42.51    3.62
   0  -8   2   40.18    3.36
   0  -8   2   39.94    3.33
  -1   8  -2  171.51   10.30
  -1   8  -2  184.39   10.37
   1  -8   2  189.45   10.29
   1  -8   2  183.49   10.28
  -2   8  -2    8.34    1.48
  -2   8  -2    7.46    1.39
   2  -8   2    9.93    1.55
   2  -8   2    7.17    1.44
  -3   8  -2  112.34    7.05
  -3   8  -2  119.94    7.10
   3  -8   2  121.20    7.13
   3  -8   2  121.38    7.22
  -4   8  -2   20.57    2.21
  -4   8  -2   19.00    1.57
  -4   8  -2   16.11    2.30
   4  -8   2   17.63    2.24
   4  -8   2   19.33    2.52
  -5   8  -2  342.14   17.01
  -5   8  -2  318.81   17.37
  -5   8  -2  331.57   17.37
   5  -8   2  320.43   17.62
   5  -8   2  337.58   17.79
  -6   8  -2  911.39   46.86
  -6   8  -2  941.81   46.93
  -6   8  -2  929.42   46.99
   6  -8   2  904.36   47.43
   6  -8   2  948.17   47.62
  -7   8  -2    5.39    0.97
   7  -8   2    5.75    1.58
   7  -8   2    6.97    1.42
   8  -8   2    4.52    1.74
   8  -8   2    3.50    1.35
   9  -8   2    0.78    1.80
   9  -8   2   -0.56    1.35
   6   7  -2    9.08    2.38
   6   7  -2    5.43    2.69
   5   7  -2    9.84    2.25
   5   7  -2   12.14    2.64
   5   7  -2   10.40    2.19
   4   7  -2  130.71    8.49
   4   7  -2  142.72    8.58
   4   7  -2  138.07    8.80
  -4  -7   2  144.39    7.35
  -4  -7   2  140.19    7.46
   3   7  -2  177.74   10.26
   3   7  -2  175.16   10.08
   3   7  -2  173.58   10.08
  -3  -7   2  178.37    9.28
  -3  -7   2  164.99    9.40
   2   7  -2  841.59   43.48
   2   7  -2  845.93   43.44
  -2  -7   2  853.22   43.10
  -2  -7   2  839.72   42.95
   1   7  -2    1.89    1.05
   1   7  -2    3.04    1.08
  -1  -7   2    2.78    0.99
  -1  -7   2    2.43    0.90
   0   7  -2   22.74    2.36
   0   7  -2   27.23    2.46
   0  -7   2   22.99    2.20
   0  -7   2   19.89    2.22
  -1   7  -2  103.06    6.15
  -1   7  -2  103.83    6.15
   1  -7   2  100.07    6.01
   1  -7   2   95.29    6.03
  -2   7  -2  114.08    6.83
  -2   7  -2  117.01    6.84
   2  -7   2  125.47    6.96
   2  -7   2  110.89    6.75
  -3   7  -2  434.90   22.26
  -3   7  -2  445.07   22.69
  -3   7  -2  422.47   22.63
   3  -7   2  415.92   22.66
   3  -7   2  457.16   22.83
  -4   7  -2  109.36    6.73
  -4   7  -2  116.10    6.79
  -4   7  -2  124.15    6.42
   4  -7   2  124.68    6.98
   4  -7   2  119.24    7.04
  -5   7  -2   45.49    3.05
  -5   7  -2   45.31    2.95
  -5   7  -2   44.36    2.76
   5  -7   2   41.86    3.42
   5  -7   2   42.84    3.25
  -6   7  -2  943.75   47.08
  -6   7  -2  943.48   47.12
  -6   7  -2  911.71   47.29
   6  -7   2  924.76   47.68
   6  -7   2  950.88   47.84
  -7   7  -2   67.36    4.12
   7  -7   2   67.38    4.67
   7  -7   2   65.33    4.41
  -8   7  -2    4.41    1.10
   8  -7   2    2.98    1.09
   8  -7   2    2.55    1.37
   9  -7   2   89.26    6.33
   9  -7   2   98.14    5.77
   9  -7   2   93.13    5.86
   6   6  -2    2.35    1.83
   6   6  -2    3.13    1.86
   6   6  -2    6.67    2.53
   5   6  -2    1.34    1.50
   5   6  -2    1.86    1.28
   4   6  -2   33.24    3.36
   4   6  -2   22.43    2.75
   4   6  -2   28.22    2.97
  -4  -6   2   29.15    1.75
   3   6  -2   79.43    5.36
   3   6  -2   87.55    5.47
  -3  -6   2   87.13    4.76
  -3  -6   2   85.00    4.87
   2   6  -2  314.93   16.81
   2   6  -2  309.28   16.77
  -2  -6   2  314.76   16.40
  -2  -6   2  323.08   16.51
   1   6  -2   62.39    4.02
   1   6  -2   58.18    3.99
  -1  -6   2   53.47    3.73
  -1  -6   2   63.71    3.80
   0   6  -2    1.38    0.80
   0   6  -2    2.23    0.85
   0  -6   2    2.07    0.79
  -1   6  -2  110.53    6.42
  -1   6  -2  109.32    6.36
   1  -6   2  105.55    6.30
   1  -6   2  116.43    6.43
  -2   6  -2  152.69    8.13
  -2   6  -2  147.43    8.12
   2  -6   2  137.48    8.10
   2  -6   2  144.44    8.08
  -3   6  -2  466.92   25.10
  -3   6  -2  499.71   25.14
  -3   6  -2  513.79   24.83
   3  -6   2  463.18   25.20
   3  -6   2  493.92   25.19
  -4   6  -2  432.12   21.42
  -4   6  -2  425.43   21.45
  -4   6  -2  420.89   21.19
   4  -6   2  397.20   21.61
   4  -6   2  400.31   21.54
  -5   6  -2   18.84    1.45
  -5   6  -2   17.22    1.49
  -5   6  -2   18.13    1.57
   5  -6   2   15.97    1.80
   5  -6   2   17.51    1.97
  -6   6  -2   10.39    1.42
   6  -6   2    9.10    1.36
   6  -6   2   10.51    1.52
   6  -6   2   12.24    1.63
  -7   6  -2   55.17    3.65
   7  -6   2   52.72    3.52
   7  -6   2   54.61    3.91
   7  -6   2   57.02    3.73
  -8   6  -2  284.03   14.83
   8  -6   2  279.15   14.67
   8  -6   2  281.27   14.97
   8  -6   2  264.42   14.68
   9  -6   2  154.24    9.27
   9  -6   2  164.73    9.09
   9  -6   2  160.08    8.95
   7   5  -2    4.22    2.34
   7   5  -2    2.13    1.66
   7   5  -2   -0.99    1.59
   6   5  -2  111.16    6.94
   6   5  -2  101.99    6.80
   6   5  -2  120.98    7.57
   5   5  -2    2.54    1.11
   5   5  -2    1.29    1.14
   5   5  -2   -0.12    1.38
   4   5  -2  253.62   14.18
   4   5  -2  260.36   14.19
   4   5  -2  269.37   14.57
  -4  -5   2  273.84   13.37
   3   5  -2   10.54    1.72
   3   5  -2   10.31    1.43
  -3  -5   2    8.73    1.08
  -3  -5   2   10.94    1.05
   2   5  -2   73.90    4.47
   2   5  -2   60.94    4.36
  -2  -5   2   76.07    4.19
  -2  -5   2   76.10    4.22
   1   5  -2  645.57   32.10
   1   5  -2  626.92   32.11
  -1  -5   2  605.51   31.93
  -1  -5   2  628.19   31.95
   0   5  -2  881.45   42.97
   0   5  -2  850.07   42.91
   0  -5   2  783.15   42.79
   0  -5   2  861.85   42.89
  -1   5  -2  159.41    8.61
  -1   5  -2  159.41    8.63
   1  -5   2  149.91    8.53
   1  -5   2  163.31    8.65
  -2   5  -2  204.85   10.85
  -2   5  -2  208.39   10.87
   2  -5   2  207.52   10.93
   2  -5   2  194.33   10.82
  -3   5  -2    6.96    1.05
  -3   5  -2    7.89    0.84
  -3   5  -2    8.04    1.15
   3  -5   2    7.96    1.13
   3  -5   2    7.87    1.14
  -4   5  -2  333.64   16.70
  -4   5  -2  334.06   16.76
  -4   5  -2  332.65   16.69
   4  -5   2  308.26   16.86
   4  -5   2  314.57   16.94
  -5   5  -2   11.03    0.86
  -5   5  -2    9.69    1.22
  -5   5  -2   11.19    0.95
   5  -5   2   12.99    1.54
   5  -5   2   10.29    1.30
   5  -5   2   11.48    1.24
  -6   5  -2   49.53    3.40
   6  -5   2   53.02    3.54
   6  -5   2   56.22    3.35
   6  -5   2   51.57    3.39
  -7   5  -2   15.17    1.95
   7  -5   2   13.36    1.94
   7  -5   2   14.80    1.68
   7  -5   2   13.77    1.77
   8  -5   2  150.09    8.11
   8  -5   2  139.99    8.31
   8  -5   2  148.96    8.28
   9  -5   2  599.56   31.76
   9  -5   2  630.33   31.79
   8   4  -2    1.85    1.68
   8   4  -2    4.44    2.79
   8   4  -2   -0.10    1.70
   7   4  -2    6.90    1.55
   7   4  -2    8.92    1.68
   7   4  -2   12.68    2.68
   6   4  -2  278.99   15.59
   6   4  -2  287.07   15.60
   6   4  -2  315.64   16.34
   5   4  -2   96.93    5.65
   5   4  -2   86.62    5.51
   5   4  -2   97.03    6.14
   4   4  -2   31.29    2.42
   4   4  -2   31.44    2.47
   4   4  -2   29.74    2.85
   3   4  -2  235.47   13.15
   3   4  -2  226.13   13.13
  -3  -4   2  262.37   12.76
  -3  -4   2  273.16   12.83
   2   4  -2  589.59   29.02
   2   4  -2  557.99   28.96
  -2  -4   2  547.99   28.73
  -2  -4   2  571.89   28.76
   1   4  -2  119.11    6.93
   1   4  -2  125.73    6.93
  -1  -4   2  130.27    6.87
  -1  -4   2  130.31    6.84
   0  -4   2 2570.10  128.94
  -1   4  -2 2551.52  128.07
  -2   4  -2  439.46   21.43
  -2   4  -2  407.04   21.39
  -2   4  -2  416.21   21.23
   2  -4   2  409.36   21.40
   2  -4   2  417.04   21.47
  -3   4  -2  275.90   15.46
  -3   4  -2  305.99   15.41
  -3   4  -2  305.02   15.47
   3  -4   2  305.25   15.42
   3  -4   2  295.73   15.55
   3  -4   2  316.06   15.64
  -4   4  -2  246.13   12.35
  -4   4  -2  240.68   12.29
  -4   4  -2  236.91   12.49
   4  -4   2  241.00   12.44
   4  -4   2  232.70   12.58
   4  -4   2  242.04   12.54
  -5   4  -2  125.82    7.16
   5  -4   2  135.42    7.11
   5  -4   2  133.87    7.18
   5  -4   2  127.24    7.08
  -6   4  -2  128.89    7.14
   6  -4   2  127.49    7.00
   6  -4   2  123.20    6.87
   6  -4   2  124.02    6.99
  -7   4  -2  196.83   10.94
   7  -4   2  199.25   10.53
   7  -4   2  205.63   10.81
   7  -4   2  192.16   10.66
   8  -4   2   33.84    3.11
   8  -4   2   34.45    2.86
   9  -4   2   28.63    3.40
   9  -4   2   27.87    3.03
   9  -4   2   27.28    2.41
   8   3  -2    1.33    1.29
   8   3  -2   -2.14    2.07
   8   3  -2    0.53    1.42
   7   3  -2   46.39    4.18
   7   3  -2   44.44    3.34
   7   3  -2   42.85    3.23
   6   3  -2    3.76    1.47
   6   3  -2    3.32    0.89
   6   3  -2    0.80    0.84
   5   3  -2  263.26   13.56
   5   3  -2  259.15   14.06
   5   3  -2  251.19   13.51
   4   3  -2    2.65    0.66
   4   3  -2    2.47    0.71
   3   3  -2   31.35    2.15
   3   3  -2   27.38    2.09
  -3  -3   2   30.69    1.71
  -3  -3   2   33.92    1.72
   2   3  -2   55.85    3.29
   2   3  -2   54.83    3.30
  -2  -3   2   58.11    3.13
  -2  -3   2   55.31    3.13
   1   3  -2 1519.82   72.19
   1   3  -2 1376.27   72.18
  -1  -3   2 1465.53   72.14
  -1  -3   2 1380.11   72.07
   0   3  -2 2331.37  122.75
   0  -3   2 1980.25  119.83
  -1   3  -2   66.75    3.82
  -1   3  -2   68.74    3.81
   1  -3   2   67.87    3.84
   1  -3   2   66.49    3.77
  -2   3  -2    0.55    0.29
  -2   3  -2    0.85    0.34
   2  -3   2    1.27    0.35
   2  -3   2    1.02    0.35
   2  -3   2    0.74    0.39
  -3   3  -2    1.82    0.47
  -3   3  -2    2.02    0.40
  -3   3  -2    3.49    0.54
   3  -3   2    1.83    0.45
   3  -3   2    2.32    0.55
   3  -3   2    2.85    0.53
  -4   3  -2  120.86    6.26
  -4   3  -2  126.95    6.27
  -4   3  -2  118.84    6.70
   4  -3   2  123.43    6.64
   4  -3   2  118.94    6.56
   4  -3   2  127.98    6.65
  -5   3  -2  147.83    8.11
   5  -3   2  142.77    7.99
   5  -3   2  148.29    7.90
   5  -3   2  150.61    7.84
  -6   3  -2  464.04   24.13
   6  -3   2  470.31   23.99
   6  -3   2  445.15   23.75
   6  -3   2  477.53   23.69
  -7   3  -2  148.67    8.51
   7  -3   2  145.91    8.34
   7  -3   2  145.72    8.02
   8  -3   2    3.94    1.48
   8  -3   2    3.70    1.09
   9  -3   2    2.01    0.93
   9  -3   2    1.72    1.33
   9  -3   2    2.87    1.85
   9   2  -2   14.73    3.24
   8   2  -2  106.49    6.61
   8   2  -2  126.65    6.71
   7   2  -2  144.74    7.99
   7   2  -2  155.93    8.95
   7   2  -2  141.60    8.00
   6   2  -2  179.34    9.61
   6   2  -2  181.40   10.32
   6   2  -2  185.27    9.67
   5   2  -2   31.16    2.11
   5   2  -2   29.83    2.04
   5   2  -2   33.76    2.78
   4   2  -2    9.55    0.95
   4   2  -2    8.17    0.89
   3   2  -2  371.60   18.66
   3   2  -2  361.87   18.67
   2   2  -2  136.55    7.01
   2   2  -2  129.73    7.03
  -2  -2   2  135.40    6.89
   1   2  -2 1036.39   50.87
   1   2  -2  966.05   50.90
  -1  -2   2 1034.66   50.82
  -1  -2   2 1011.59   50.89
   0  -2   2 9999.00  508.96
  -1   2  -2  108.29    6.10
  -1   2  -2  113.24    6.07
  -1   2  -2  123.91    6.16
   1  -2   2  119.82    6.10
   1  -2   2  104.88    6.08
   1  -2   2  127.49    6.20
  -2   2  -2  728.17   37.39
  -2   2  -2  752.50   37.36
  -2   2  -2  738.61   37.33
   2  -2   2  734.35   37.39
   2  -2   2  729.44   37.35
   2  -2   2  765.21   37.39
  -3   2  -2 1322.94   65.26
   3  -2   2 1292.86   65.12
   3  -2   2 1267.86   65.07
   3  -2   2 1300.52   65.19
  -4   2  -2   21.54    1.80
   4  -2   2   22.11    1.55
   4  -2   2   22.58    1.75
   4  -2   2   20.34    1.45
  -5   2  -2   45.76    3.24
   5  -2   2   45.45    3.16
   5  -2   2   51.15    2.93
  -6   2  -2    3.53    1.11
   6  -2   2    7.46    1.36
   6  -2   2    3.36    0.63
   6  -2   2    3.74    0.82
   7  -2   2    1.40    0.56
   7  -2   2    0.32    1.18
   7  -2   2    1.04    0.74
   8  -2   2    3.37    1.03
   8  -2   2    3.72    0.78
   8  -2   2    3.72    1.58
   9  -2   2   27.75    3.13
   9  -2   2   29.13    2.46
   9  -2   2   35.68    4.21
   9   1  -2   34.63    4.64
   9   1  -2   30.17    2.58
   9   1  -2   29.20    2.64
   8   1  -2   40.68    2.75
   8   1  -2   46.88    4.25
   8   1  -2   41.40    2.82
   7   1  -2  538.60   27.70
   7   1  -2  552.06   28.56
   7   1  -2  550.06   27.76
   6   1  -2    1.53    1.14
   6   1  -2    3.53    0.53
   6   1  -2    3.71    0.60
   5   1  -2   34.66    2.59
   5   1  -2   35.40    2.00
   5   1  -2   32.97    1.96
   4   1  -2   52.58    3.00
   4   1  -2   60.61    3.03
   3   1  -2  530.46   28.31
   3   1  -2  595.62   28.29
   2   1  -2 1387.87   76.79
  -2  -1   2 1402.87   75.81
   1   1  -2  856.73   43.32
  -1  -1   2  867.43   43.31
   0   1  -2 2045.40  101.35
   0  -1   2 1724.56  101.03
  -1   1  -2 1133.71   56.92
  -2   1  -2   21.10    1.37
  -2   1  -2   23.97    1.57
   2  -1   2   20.86    1.51
   2  -1   2   23.11    1.45
  -3   1  -2 1134.87   57.00
  -3   1  -2 1123.37   57.40
   3  -1   2 1173.29   57.19
   3  -1   2 1117.76   57.34
  -4   1  -2  417.43   21.20
   4  -1   2  420.19   20.86
   4  -1   2  396.24   20.72
   4  -1   2  402.25   21.11
  -5   1  -2   78.95    5.05
   5  -1   2   81.83    4.61
   5  -1   2   84.55    5.02
   5  -1   2   81.31    4.43
  -6   1  -2  245.57   14.20
   6  -1   2  264.31   13.49
   6  -1   2  269.95   14.19
   6  -1   2  267.52   13.71
   7  -1   2    1.81    0.84
   7  -1   2    0.43    1.26
   8  -1   2   10.73    1.53
   8  -1   2   11.63    2.18
   8  -1   2    9.82    1.47
   9  -1   2   61.11    4.45
   9  -1   2   59.24    5.72
   9  -1   2   60.10    3.90
   9   0  -2    1.76    0.70
   9   0  -2    0.57    0.76
   9   0  -2    0.26    1.87
   8   0  -2   12.01    1.11
   8   0  -2   12.86    2.10
   8   0  -2   10.15    1.19
   7   0  -2    1.43    0.43
   7   0  -2    1.03    0.33
   7   0  -2   -0.01    1.10
   6   0  -2   -0.88    0.76
   5   0  -2  280.80   14.75
   3   0  -2 1627.71   87.33
  -3   0   2 1719.91   86.43
   2   0  -2  676.61   33.96
   1   0  -2 2552.49  132.44
   0   0  -2  265.91   13.86
   0   0  -2  288.37   13.96
   0   0  -2  280.05   13.92
   0   0   2  280.92   13.92
   0   0   2  264.58   13.85
   0   0   2  265.14   13.94
  -1   0  -2    7.28    0.70
  -1   0  -2    8.30    0.62
  -1   0  -2    5.85    0.72
   1   0   2    7.24    0.70
   1   0   2    6.88    0.76
   1   0   2    6.91    0.57
  -2   0  -2  290.21   14.85
  -2   0  -2  305.39   14.80
  -2   0  -2  291.20   15.07
   2   0   2  304.76   14.92
   2   0   2  272.70   14.77
   2   0   2  283.20   15.02
  -3   0  -2 3057.18  152.19
   3   0   2 3007.66  152.14
  -4   0  -2  122.09    7.09
   4   0   2  126.64    6.74
   4   0   2  121.61    7.01
   4   0   2  126.88    6.54
  -5   0  -2   13.31    1.92
   5   0   2   14.14    1.95
   5   0   2   14.71    1.47
   5   0   2   12.72    1.12
   6   0   2    1.14    0.72
   6   0   2   -0.80    1.08
   6   0   2    1.54    0.55
   7   0   2    1.37    0.66
   7   0   2    2.11    0.93
   7   0   2    1.66    1.47
   8   0   2    6.58    2.21
   8   0   2   10.01    1.67
   8   0   2    7.43    1.17
   9  -1  -2   18.32    2.54
   9  -1  -2   21.34    1.49
   9  -1  -2   22.05    1.38
   8  -1  -2   -0.02    1.27
   7  -1  -2  394.88   20.67
   6  -1  -2  831.69   42.29
   5  -1  -2  357.13   18.42
   4  -1  -2  144.07    7.62
   3  -1  -2  310.04   15.97
   3  -1  -2  324.86   15.97
   2  -1  -2 2130.14  123.31
  -2   1   2 2635.75  124.79
   1  -1  -2  133.99    6.74
   1  -1  -2  131.50    6.76
   1  -1  -2  129.42    6.84
  -1   1   2  127.15    6.73
  -1   1   2  135.15    6.79
  -1   1   2  132.06    6.83
   0  -1  -2  139.71    6.57
   0  -1  -2  122.15    6.63
   0  -1  -2  122.37    6.68
   0   1   2  122.39    6.56
   0   1   2  126.23    6.67
   0   1   2  129.03    6.63
  -1  -1  -2  155.01    7.25
  -1  -1  -2  122.00    7.33
  -1  -1  -2  138.48    7.44
   1   1   2  145.19    7.25
   1   1   2  135.63    7.38
   1   1   2  143.11    7.43
  -2  -1  -2 1198.12   59.90
  -2  -1  -2 1234.62   60.16
   2   1   2 1135.83   59.78
   2   1   2 1216.89   60.12
   2   1   2 1171.98   59.96
  -3  -1  -2 1749.88   86.21
   3   1   2 1689.99   86.42
   3   1   2 1717.77   86.65
  -4  -1  -2  357.75   19.20
   4   1   2  357.39   18.81
   4   1   2  356.16   19.14
   4   1   2  385.37   18.60
   5   1   2   90.55    5.00
   5   1   2   94.24    5.82
   5   1   2   88.10    5.28
   6   1   2  106.80    6.73
   6   1   2  102.38    6.12
   6   1   2  106.47    5.83
   7   1   2    2.14    1.67
   7   1   2    1.71    0.81
   7   1   2    0.00    1.04
   8   1   2   12.04    2.68
   8   1   2   13.46    2.01
   8   1   2   13.66    2.24
  10  -2  -2    0.33    1.99
   9  -2  -2    6.61    1.65
   8  -2  -2    1.25    1.05
   7  -2  -2   15.27    1.84
   6  -2  -2  765.36   38.84
   5  -2  -2 1533.20   77.03
   4  -2  -2  469.01   22.95
   4  -2  -2  455.07   23.04
   4  -2  -2  442.61   22.96
   3  -2  -2   57.62    2.89
   3  -2  -2   54.45    2.88
  -3   2   2   49.22    2.68
  -3   2   2   47.97    2.75
   2  -2  -2  611.69   32.63
   2  -2  -2  647.05   32.60
  -2   2   2  652.48   32.61
  -2   2   2  676.01   32.60
   1  -2  -2    2.33    0.36
   1  -2  -2    2.63    0.49
  -1   2   2    2.68    0.41
  -1   2   2    3.50    0.53
   0  -2  -2    4.60    0.67
   0  -2  -2    4.35    0.59
   0  -2  -2    3.67    0.50
   0   2   2    4.21    0.60
   0   2   2    3.92    0.55
   0   2   2    4.92    0.74
  -1  -2  -2    2.60    0.61
  -1  -2  -2    2.32    0.53
  -1  -2  -2    3.97    0.55
   1   2   2    3.23    0.68
   1   2   2    2.72    0.61
   1   2   2    2.59    0.50
  -2  -2  -2  495.19   24.45
  -2  -2  -2  460.36   24.61
  -2  -2  -2  489.38   24.88
   2   2   2  487.36   24.85
   2   2   2  465.43   24.71
   2   2   2  500.93   24.55
  -3  -2  -2  525.03   25.88
  -3  -2  -2  518.24   26.54
  -3  -2  -2  489.23   25.99
   3   2   2  513.12   26.26
   3   2   2  506.63   26.03
   3   2   2  521.43   26.49
   4   2   2   58.13    4.29
   4   2   2   67.25    3.75
   4   2   2   63.40    4.00
   5   2   2  542.07   27.53
   5   2   2  498.33   27.04
   5   2   2  535.06   26.84
   6   2   2   89.25    6.01
   6   2   2   78.58    5.23
   6   2   2   83.18    4.96
   7   2   2   62.97    4.56
   7   2   2   63.59    5.47
   7   2   2   61.46    4.21
  10  -3  -2   -0.53    1.54
   9  -3  -2    3.83    1.31
   9  -3  -2    3.23    0.62
   9  -3  -2    2.58    0.55
   8  -3  -2   -0.36    0.83
   8  -3  -2    0.28    0.42
   8  -3  -2    0.29    0.42
   7  -3  -2  101.51    5.39
   7  -3  -2  101.73    5.75
   7  -3  -2  102.91    5.40
   6  -3  -2   10.69    1.10
   6  -3  -2    9.34    0.92
   6  -3  -2    8.89    0.88
   5  -3  -2  107.88    5.76
   5  -3  -2  107.70    5.75
   5  -3  -2  109.44    5.70
   4  -3  -2  429.58   21.26
   4  -3  -2  415.05   21.24
   4  -3  -2  408.78   20.97
   3  -3  -2 1042.08   56.53
   3  -3  -2 1162.94   56.55
  -3   3   2 1179.18   56.45
  -3   3   2 1110.25   56.48
   2  -3  -2    0.28    0.17
   2  -3  -2   -0.07    0.32
   2  -3  -2    0.16    0.30
  -2   3   2   -0.18    0.30
  -2   3   2    0.14    0.16
  -2   3   2    0.19    0.27
   1  -3  -2  509.73   26.22
   1  -3  -2  494.82   26.01
   1  -3  -2  534.11   26.09
  -1   3   2  487.93   26.17
  -1   3   2  518.67   26.01
  -1   3   2  538.23   26.18
   0  -3  -2  270.03   13.35
   0  -3  -2  260.66   13.56
   0  -3  -2  256.78   13.47
   0   3   2  261.07   13.45
   0   3   2  268.73   13.48
   0   3   2  239.04   13.51
  -1  -3  -2  117.58    6.61
  -1  -3  -2  116.75    6.65
  -1  -3  -2  132.24    6.39
   1   3   2  116.63    6.64
   1   3   2  119.12    6.65
   1   3   2  115.66    6.50
  -2  -3  -2    1.28    0.60
   2   3   2    1.02    0.54
   2   3   2    1.40    0.76
   2   3   2    1.34    0.66
  -3  -3  -2  247.27   12.75
  -3  -3  -2  252.04   12.55
   3   3   2  242.83   12.82
   3   3   2  230.39   12.98
   3   3   2  247.05   13.22
  -4  -3  -2   89.55    4.93
   4   3   2   93.03    5.66
   4   3   2   93.23    5.94
   4   3   2   95.32    5.42
   5   3   2  399.95   20.59
   5   3   2  403.39   21.24
   5   3   2  383.89   20.77
   6   3   2  953.46   46.46
   6   3   2  863.13   45.79
   6   3   2  869.33   45.61
   7   3   2    0.30    1.39
   7   3   2    2.74    1.67
   7   3   2    2.74    2.35
  10  -4  -2   21.67    1.84
  10  -4  -2   22.94    2.82
  10  -4  -2   24.10    2.06
   9  -4  -2   81.71    4.68
   9  -4  -2   86.19    5.06
   9  -4  -2   84.19    4.76
   8  -4  -2    0.82    0.66
   8  -4  -2    0.33    0.55
   8  -4  -2    1.90    0.77
   7  -4  -2    3.07    0.63
   7  -4  -2    0.70    0.57
   7  -4  -2    2.00    0.56
   6  -4  -2  249.80   13.22
   6  -4  -2  256.40   13.24
   6  -4  -2  258.83   12.98
   5  -4  -2  166.13    8.82
   5  -4  -2  166.38    8.82
   4  -4  -2   91.47    5.10
   4  -4  -2   89.12    5.06
  -4   4   2   89.23    4.89
  -4   4   2   93.18    4.86
   3  -4  -2 2965.04  148.75
   2  -4  -2 2055.70   99.48
   2  -4  -2 1902.50   99.55
  -2   4   2 2164.58   99.56
  -2   4   2 1797.17   99.46
   1  -4  -2 1382.54   67.15
   1  -4  -2 1327.07   67.31
  -1   4   2 1342.24   67.30
  -1   4   2 1282.98   67.23
  -1   4   2 1332.49   67.06
   0  -4  -2  232.19   13.06
   0  -4  -2  259.10   12.87
   0   4   2  249.30   13.11
   0   4   2  254.96   13.06
   0   4   2  241.41   12.96
  -1  -4  -2  159.63    9.06
  -1  -4  -2  177.94    8.80
   1   4   2  161.52    9.12
   1   4   2  166.37    9.12
  -2  -4  -2  100.64    5.09
  -2  -4  -2   85.17    5.32
   2   4   2   89.81    5.54
   2   4   2   93.56    5.59
   2   4   2   90.64    5.38
  -3  -4  -2    4.08    0.87
  -3  -4  -2    4.85    0.69
   3   4   2    5.57    1.34
   3   4   2    3.73    1.02
   3   4   2    5.28    1.34
  -4  -4  -2   14.31    1.15
  -4  -4  -2   12.65    1.27
   4   4   2   13.20    1.91
   4   4   2   11.18    1.59
   4   4   2   13.99    2.24
   5   4   2   27.87    3.35
   5   4   2   26.90    2.78
   5   4   2   26.62    3.05
   6   4   2  198.54   11.20
   6   4   2  187.19   10.98
   6   4   2  196.88   11.73
  10  -5  -2   52.04    3.60
  10  -5  -2   57.02    3.58
  10  -5  -2   50.01    3.50
   9  -5  -2   50.06    3.04
   9  -5  -2   46.03    3.23
   9  -5  -2   47.43    3.18
   8  -5  -2  398.19   21.45
   8  -5  -2  424.55   21.19
   8  -5  -2  428.48   21.51
   7  -5  -2  111.97    5.69
   7  -5  -2  110.34    6.19
   7  -5  -2  107.80    6.20
   6  -5  -2  113.76    6.30
   6  -5  -2  110.63    6.28
   5  -5  -2    7.96    1.12
   5  -5  -2    9.80    1.26
  -5   5   2    8.85    0.80
  -5   5   2    8.38    0.82
   4  -5  -2  125.91    7.10
   4  -5  -2  119.62    7.13
  -4   5   2  139.87    7.00
  -4   5   2  129.71    7.02
   3  -5  -2   35.52    2.50
   3  -5  -2   35.63    2.60
  -3   5   2   37.11    2.53
  -3   5   2   38.22    2.05
  -3   5   2   35.96    2.53
   2  -5  -2  455.17   23.99
   2  -5  -2  447.97   23.83
  -2   5   2  478.31   23.97
  -2   5   2  478.24   23.97
  -2   5   2  461.23   23.58
   1  -5  -2  343.72   17.40
  -1   5   2  325.39   17.31
  -1   5   2  337.23   17.60
   0  -5  -2  136.49    7.90
   0  -5  -2  145.18    7.64
   0   5   2  139.61    7.77
   0   5   2  142.57    7.96
   0   5   2  138.59    7.88
  -1  -5  -2   31.93    2.57
  -1  -5  -2   35.84    2.27
   1   5   2   29.61    2.57
   1   5   2   30.67    2.75
   1   5   2   34.42    2.73
  -2  -5  -2   52.80    3.57
  -2  -5  -2   56.19    3.21
   2   5   2   49.36    3.77
   2   5   2   56.49    3.88
   2   5   2   46.18    3.60
  -3  -5  -2    5.07    1.06
  -3  -5  -2    5.03    0.81
   3   5   2    3.74    1.39
   3   5   2    6.46    1.64
   3   5   2    4.19    1.21
  -4  -5  -2   -0.41    0.50
  -4  -5  -2   -0.28    0.63
   4   5   2   -0.26    1.10
   4   5   2   -1.51    1.39
   4   5   2    0.99    1.34
   5   5   2   41.29    3.92
   5   5   2   48.11    4.50
   5   5   2   46.55    4.25
   6   5   2    6.69    2.07
   6   5   2    6.95    2.16
   6   5   2    5.92    2.48
  10  -6  -2   20.94    1.72
  10  -6  -2   16.47    2.49
  10  -6  -2   22.85    2.61
   9  -6  -2    0.06    0.99
   9  -6  -2    0.40    0.93
   8  -6  -2   11.94    1.90
   8  -6  -2   18.22    2.07
   7  -6  -2    2.88    1.01
   6  -6  -2    0.50    0.76
   6  -6  -2   -0.25    0.62
   5  -6  -2   -0.04    0.66
   5  -6  -2   -0.63    0.64
  -5   6   2    0.07    0.50
  -5   6   2    0.92    0.58
   4  -6  -2   66.93    4.17
   4  -6  -2   66.88    4.24
  -4   6   2   63.87    4.07
  -4   6   2   65.12    4.03
   3  -6  -2  158.38    8.84
   3  -6  -2  156.93    8.70
  -3   6   2  154.13    8.71
  -3   6   2  161.93    8.23
   2  -6  -2   52.65    3.63
   2  -6  -2   55.66    3.49
  -2   6   2   51.90    3.16
  -2   6   2   50.85    3.54
  -2   6   2   50.68    3.56
   1  -6  -2 1267.91   64.59
   1  -6  -2 1223.14   64.84
  -1   6   2 1284.69   64.86
  -1   6   2 1324.93   64.57
  -1   6   2 1290.17   64.87
   0  -6  -2   13.23    1.52
   0  -6  -2   10.52    1.64
   0   6   2    9.20    1.47
   0   6   2   11.25    1.57
   0   6   2    8.38    1.50
  -1  -6  -2    8.51    1.49
  -1  -6  -2    7.94    1.12
   1   6   2    6.25    1.35
   1   6   2    7.45    1.52
   1   6   2    7.03    1.41
  -2  -6  -2  290.99   16.22
  -2  -6  -2  311.87   15.84
   2   6   2  304.17   16.43
   2   6   2  300.71   16.51
   2   6   2  314.79   16.54
  -3  -6  -2   11.77    1.87
  -3  -6  -2   11.11    1.45
   3   6   2   10.68    1.98
   3   6   2    8.93    2.05
   3   6   2    9.89    1.78
  -4  -6  -2   17.20    1.94
  -4  -6  -2   21.10    1.70
   4   6   2   18.86    3.01
   4   6   2   26.55    3.52
   4   6   2   17.45    2.88
   5   6   2   23.72    3.46
   5   6   2   27.01    3.81
  10  -7  -2   81.17    5.32
  10  -7  -2   75.72    5.32
   9  -7  -2   60.74    4.23
   9  -7  -2   55.84    4.14
   8  -7  -2  179.65   10.01
   8  -7  -2  178.77   10.03
   7  -7  -2    5.07    1.18
   7  -7  -2    2.94    1.10
   6  -7  -2  141.84    8.38
   6  -7  -2  140.51    8.33
  -6   7   2  155.80    7.81
  -6   7   2  145.84    7.83
   5  -7  -2  192.27   10.68
   5  -7  -2  193.61   10.62
  -5   7   2  191.90   10.34
  -5   7   2  190.99   10.41
   4  -7  -2   28.89    2.56
   4  -7  -2   26.88    2.64
  -4   7   2   29.35    1.70
  -4   7   2   27.96    2.48
  -4   7   2   28.97    2.52
   3  -7  -2  486.71   24.60
   3  -7  -2  492.24   24.81
  -3   7   2  452.94   24.61
  -3   7   2  464.93   24.68
  -3   7   2  469.57   24.10
   2  -7  -2  257.88   13.88
   2  -7  -2  263.82   14.15
  -2   7   2  238.89   14.01
  -2   7   2  257.25   13.62
  -2   7   2  280.67   14.15
   1  -7  -2  196.56   11.03
   1  -7  -2  195.02   10.69
  -1   7   2  183.91   10.97
  -1   7   2  185.10   10.97
  -1   7   2  221.47   10.76
   0  -7  -2  363.07   21.03
   0  -7  -2  418.89   20.75
   0   7   2  403.56   21.21
   0   7   2  409.79   20.97
   0   7   2  396.80   21.19
  -1  -7  -2  223.54   10.94
  -1  -7  -2  204.86   11.38
   1   7   2  213.29   11.42
   1   7   2  193.04   11.44
   1   7   2  175.07   11.36
  -2  -7  -2   14.04    2.29
  -2  -7  -2   16.06    1.84
   2   7   2   17.58    2.82
   2   7   2   20.04    2.78
   2   7   2   15.89    2.48
  -3  -7  -2  216.26   12.52
  -3  -7  -2  237.74   12.17
   3   7   2  241.97   13.27
   3   7   2  223.66   13.06
  -4  -7  -2    0.27    0.75
   4   7   2   -2.65    2.03
   4   7   2   -0.08    1.65
  10  -8  -2   68.43    5.33
  10  -8  -2   76.22    5.40
   9  -8  -2   30.73    3.27
   9  -8  -2   23.86    3.17
   8  -8  -2   78.85    5.52
   8  -8  -2   87.42    5.63
   7  -8  -2    8.79    1.63
   7  -8  -2    8.88    1.60
  -7   8   2    7.87    0.79
  -7   8   2    9.00    0.85
   6  -8  -2   23.61    2.62
   6  -8  -2   20.35    2.57
  -6   8   2   19.70    2.04
  -6   8   2   23.31    2.06
   5  -8  -2    0.79    1.08
   5  -8  -2   -0.24    1.02
  -5   8   2    0.77    0.88
  -5   8   2    1.40    0.97
   4  -8  -2  575.27   29.44
   4  -8  -2  570.08   29.25
  -4   8   2  522.24   29.20
  -4   8   2  570.34   28.50
  -4   8   2  576.95   29.23
   3  -8  -2   48.92    3.86
   3  -8  -2   47.52    3.62
  -3   8   2   47.14    3.08
  -3   8   2   52.34    3.78
  -3   8   2   44.67    3.68
   2  -8  -2   10.34    1.67
   2  -8  -2    8.78    1.64
  -2   8   2   14.90    2.34
  -2   8   2    8.22    1.72
  -2   8   2   10.45    1.62
   1  -8  -2   60.62    5.01
   1  -8  -2   82.63    4.89
  -1   8   2   78.70    5.29
  -1   8   2   74.68    5.27
  -1   8   2   80.95    4.90
   0  -8  -2    3.26    1.38
   0  -8  -2    2.85    1.02
   0   8   2    5.78    1.62
   0   8   2    2.96    1.55
   0   8   2    3.02    1.33
  -1  -8  -2   66.72    4.30
  -1  -8  -2   68.24    4.91
   1   8   2   60.21    5.07
   1   8   2   74.63    5.08
   1   8   2   65.94    5.21
  -2  -8  -2   67.99    4.71
   2   8   2   81.74    5.93
   2   8   2   84.18    6.09
   2   8   2   80.91    5.78
  -3  -8  -2    0.10    1.37
  -3  -8  -2    0.64    0.95
   3   8   2    5.44    2.13
   3   8   2    2.29    1.84
  -4  -8  -2    5.03    1.25
  -4  -8  -2    3.67    1.05
   4   8   2    6.15    2.47
   4   8   2    9.56    2.73
   4   8   2    0.52    2.69
   9  -9  -2  209.38   11.91
   9  -9  -2  203.74   11.83
   8  -9  -2    7.87    1.96
   8  -9  -2    9.89    1.95
   7  -9  -2    8.88    1.93
   7  -9  -2    6.86    1.79
  -7   9   2    7.01    1.08
  -7   9   2    6.88    1.07
   6  -9  -2   99.86    6.11
   6  -9  -2   95.35    6.22
  -6   9   2   87.76    5.61
  -6   9   2   84.14    5.61
   5  -9  -2  612.27   34.31
   5  -9  -2  689.21   34.28
  -5   9   2  674.02   34.10
  -5   9   2  661.73   33.07
  -5   9   2  660.05   34.17
   4  -9  -2   24.85    3.06
   4  -9  -2   26.29    2.96
  -4   9   2   29.07    2.02
  -4   9   2   26.93    2.96
  -4   9   2   24.43    2.97
   3  -9  -2   71.00    5.20
   3  -9  -2   75.44    4.97
  -3   9   2   65.46    5.12
  -3   9   2   72.54    5.11
  -3   9   2   71.06    4.36
   2  -9  -2   42.78    3.47
   2  -9  -2   38.57    3.60
  -2   9   2   34.67    3.09
  -2   9   2   39.36    3.80
  -2   9   2   37.80    3.64
   1  -9  -2  224.48   12.61
   1  -9  -2  228.56   12.15
  -1   9   2  232.46   12.73
  -1   9   2  203.12   12.56
  -1   9   2  211.15   12.15
   0  -9  -2  233.13   14.63
   0  -9  -2  267.12   14.22
   0   9   2  283.98   15.03
   0   9   2  275.94   14.62
   0   9   2  257.66   14.92
  -1  -9  -2  225.35   13.19
  -1  -9  -2  252.92   12.67
   1   9   2  243.53   13.70
   1   9   2  199.09   13.35
   1   9   2  239.19   13.28
  -2  -9  -2    9.82    2.02
  -2  -9  -2   13.20    1.71
   2   9   2   13.18    2.67
   2   9   2   14.78    2.67
   2   9   2    8.28    2.67
  -3  -9  -2  110.67    6.18
  -3  -9  -2  100.46    6.75
   3   9   2   93.00    7.79
   3   9   2   92.08    7.90
   3   9   2  112.61    8.28
   9 -10  -2  138.65    8.26
   9 -10  -2  107.36    8.11
   8 -10  -2  376.05   21.20
   8 -10  -2  406.62   21.20
   7 -10  -2  225.86   12.79
   7 -10  -2  218.14   12.88
  -7  10   2  219.67   12.13
  -7  10   2  230.24   12.08
   6 -10  -2   57.44    4.83
   6 -10  -2   63.37    4.81
  -6  10   2   57.29    4.34
  -6  10   2   54.50    4.33
   5 -10  -2    3.30    1.65
   5 -10  -2    5.42    1.79
  -5  10   2    4.59    1.59
  -5  10   2    3.87    0.63
  -5  10   2    3.17    1.38
   4 -10  -2  646.81   34.28
   4 -10  -2  673.77   34.04
  -4  10   2  632.24   33.21
  -4  10   2  619.60   34.12
  -4  10   2  691.07   34.14
   3 -10  -2    0.91    1.23
   3 -10  -2    1.22    1.54
  -3  10   2    3.14    1.60
  -3  10   2    2.22    1.04
  -3  10   2    1.15    1.58
   2 -10  -2   48.37    4.31
   2 -10  -2   46.19    3.88
  -2  10   2   38.78    4.36
  -2  10   2   44.90    3.63
  -2  10   2   46.63    4.46
   1 -10  -2  143.89    7.99
   1 -10  -2  120.36    8.38
  -1  10   2  125.50    8.59
  -1  10   2  146.21    8.79
  -1  10   2  125.39    8.03
   0 -10  -2  233.55   13.52
   0  10   2  244.74   13.40
   0  10   2  218.03   13.70
   0  10   2  239.04   13.78
  -1 -10  -2   13.66    2.50
   1  10   2   16.38    3.23
   1  10   2   15.90    3.09
   1  10   2   21.48    3.07
  -2 -10  -2   -2.90    1.94
   2  10   2   -3.06    2.55
   2  10   2    3.69    2.79
   2  10   2    2.63    2.86
   8 -11  -2   97.97    6.88
   8 -11  -2   79.38    6.82
  -8  11   2   87.04    5.26
  -8  11   2   95.15    5.31
   7 -11  -2   18.39    2.86
   7 -11  -2   18.40    2.80
  -7  11   2   18.91    2.91
  -7  11   2   22.23    2.95
   6 -11  -2    2.51    1.85
   6 -11  -2   -1.83    1.68
  -6  11   2   -1.00    1.46
  -6  11   2    0.25    1.49
   5 -11  -2   13.50    2.51
   5 -11  -2   20.14    2.81
  -5  11   2   20.42    1.67
  -5  11   2   14.21    2.43
  -5  11   2   18.72    2.70
   4 -11  -2    2.34    1.63
   4 -11  -2   -1.47    1.67
  -4  11   2    3.41    1.72
  -4  11   2    1.76    1.82
  -4  11   2    0.59    0.93
   3 -11  -2    8.23    2.28
   3 -11  -2   10.25    2.18
  -3  11   2    9.95    1.68
  -3  11   2   12.33    2.50
  -3  11   2   10.86    2.43
   2 -11  -2   13.62    2.59
   2 -11  -2   21.59    3.08
  -2  11   2   13.23    2.70
  -2  11   2   10.68    2.51
  -2  11   2   13.55    2.04
   1 -11  -2    3.94    1.76
   1 -11  -2    1.66    1.99
  -1  11   2    1.47    1.87
  -1  11   2    6.25    2.41
  -1  11   2    5.45    2.50
   0 -11  -2  152.09   10.22
   0 -11  -2  168.91    9.52
   0  11   2  153.97   10.62
   0  11   2  166.75   10.12
   0  11   2  162.22   10.56
   7 -12  -2   58.19    5.87
   7 -12  -2   53.33    5.43
  -7  12   2   53.55    4.94
  -7  12   2   66.73    4.97
   6 -12  -2   93.90    7.73
   6 -12  -2  110.77    7.51
  -6  12   2  115.09    7.34
  -6  12   2   93.47    7.17
   5 -12  -2  203.22   11.69
   5 -12  -2  198.69   12.10
  -5  12   2  173.82   11.63
  -5  12   2  197.40   11.69
  -5  12   2  192.03   10.23
   4 -12  -2   48.50    4.49
   4 -12  -2   35.93    4.99
  -4  12   2   39.33    5.03
  -4  12   2   47.82    3.56
  -4  12   2   43.93    5.04
   3 -12  -2   50.65    5.71
   3 -12  -2   71.20    5.46
  -3  12   2   65.84    6.30
  -3  12   2   68.04    6.03
  -3  12   2   61.01    4.75
   2 -12  -2   20.27    3.53
   2 -12  -2   32.49    3.92
  -2  12   2   24.86    3.87
  -2  12   2   21.14    3.60
  -2  12   2   29.54    3.94
   1 -12  -2   59.19    6.11
   1 -12  -2   58.79    4.94
  -1  12   2   58.34    5.61
  -1  13  -3    8.86    3.16
   1 -13   3   -0.51    2.21
   1 -13   3   -1.23    2.19
  -2  13  -3   19.90    3.47
   2 -13   3   17.62    3.16
   2 -13   3   16.77    3.11
  -3  13  -3   37.78    4.93
  -3  13  -3   41.93    5.49
   3 -13   3   44.51    5.32
   3 -13   3   38.31    4.71
  -4  13  -3  131.90    8.85
  -4  13  -3   99.76    8.37
  -4  13  -3  126.00    7.47
   4 -13   3  117.42    8.37
   4 -13   3  140.83    8.85
  -5  13  -3   90.35    6.95
  -5  13  -3   76.44    6.63
  -5  13  -3   83.41    5.39
   5 -13   3   78.63    6.68
   5 -13   3  104.26    7.50
  -6  13  -3    0.52    1.17
  -6  13  -3    4.13    2.28
  -6  13  -3    2.51    1.96
   6 -13   3   -1.37    2.30
   6 -13   3    5.52    2.69
   1  12  -3  138.72    9.50
   1  12  -3  130.80    9.04
   1  12  -3  107.26    9.19
  -1 -12   3  123.39    8.27
  -1 -12   3  128.28    8.12
   0  12  -3    4.19    2.47
   0  12  -3    6.08    2.65
   0 -12   3    6.79    2.28
   0 -12   3    2.89    2.02
  -1  12  -3   51.50    5.33
  -1  12  -3   43.94    5.18
   1 -12   3   43.51    4.58
   1 -12   3   48.15    4.76
  -2  12  -3   60.22    5.50
  -2  12  -3   63.58    5.67
   2 -12   3   53.62    5.15
   2 -12   3   60.32    5.13
  -3  12  -3    2.05    2.08
  -3  12  -3    2.99    1.94
   3 -12   3    7.84    2.26
   3 -12   3    2.52    1.97
  -4  12  -3  131.56    8.50
  -4  12  -3  136.97    7.69
   4 -12   3  132.20    8.81
   4 -12   3  122.29    8.45
  -5  12  -3  338.62   18.37
  -5  12  -3  340.77   18.34
  -5  12  -3  334.79   17.42
   5 -12   3  339.16   18.71
   5 -12   3  304.53   18.35
  -6  12  -3    6.14    1.98
  -6  12  -3    5.47    1.98
  -6  12  -3    8.77    1.35
   6 -12   3    2.87    2.44
   6 -12   3    5.82    2.14
  -7  12  -3    8.88    1.82
  -7  12  -3    8.50    2.04
   7 -12   3    9.62    3.08
   7 -12   3    7.62    2.40
   2  11  -3   19.00    3.60
   2  11  -3   20.00    3.23
   2  11  -3   10.10    3.01
  -2 -11   3   16.49    2.43
  -2 -11   3   19.03    2.42
   1  11  -3   33.24    4.81
   1  11  -3   35.14    4.77
  -1 -11   3   38.25    3.77
  -1 -11   3   28.95    3.69
   0  11  -3  176.74   10.47
   0  11  -3  143.82   10.05
   0 -11   3  178.18    9.87
   0 -11   3  152.94    9.76
  -1  11  -3   -2.09    1.64
   1 -11   3    2.10    1.60
   1 -11   3   -0.87    1.68
  -2  11  -3   20.28    3.33
  -2  11  -3   27.44    3.78
   2 -11   3   24.58    3.31
   2 -11   3   26.42    3.51
  -3  11  -3   18.72    2.68
  -3  11  -3   19.83    3.20
   3 -11   3   18.80    2.62
   3 -11   3   21.65    3.21
  -4  11  -3   14.56    2.34
  -4  11  -3   13.76    1.95
  -4  11  -3   15.74    2.35
   4 -11   3    9.89    2.01
  -5  11  -3    3.36    1.70
  -5  11  -3    3.59    0.99
  -5  11  -3    2.10    1.47
   5 -11   3    4.72    1.80
  -6  11  -3   14.41    1.78
  -6  11  -3    9.23    1.88
  -6  11  -3   16.95    2.64
   6 -11   3    8.98    2.06
  -7  11  -3   68.11    4.93
  -7  11  -3   70.77    4.39
  -7  11  -3   73.81    4.79
   7 -11   3   71.56    5.63
   7 -11   3   70.16    6.28
  -8  11  -3   29.25    2.17
   8 -11   3   47.49    5.46
   8 -11   3   44.64    4.62
   3  10  -3    5.49    2.51
   3  10  -3    5.31    2.51
   3  10  -3    3.08    2.40
  -3 -10   3    6.95    1.37
  -3 -10   3    6.51    1.53
   2  10  -3   -0.27    2.15
   2  10  -3   -0.20    1.77
  -2 -10   3    1.72    1.22
  -2 -10   3    1.73    1.33
   1  10  -3    0.80    1.63
  -1 -10   3    2.44    1.46
  -1 -10   3    1.35    1.35
   0  10  -3  214.37   12.52
   0  10  -3  208.42   12.51
   0 -10   3  225.85   12.24
   0 -10   3  209.62   12.15
  -1  10  -3  260.06   14.66
  -1  10  -3  259.19   14.67
   1 -10   3  268.53   14.49
   1 -10   3  251.24   14.45
  -2  10  -3   -0.34    1.35
  -2  10  -3    1.44    1.39
   2 -10   3    1.09    1.27
   2 -10   3   -1.25    1.27
  -3  10  -3   18.86    2.92
  -3  10  -3   23.58    2.90
   3 -10   3   22.11    2.87
   3 -10   3   20.88    2.85
  -4  10  -3    3.85    1.43
  -4  10  -3    4.25    1.03
  -4  10  -3    3.72    1.42
   4 -10   3    4.31    1.55
   4 -10   3    2.48    1.67
  -5  10  -3  128.96    7.55
  -5  10  -3  121.75    6.92
  -5  10  -3  121.00    7.59
   5 -10   3  123.67    7.77
   5 -10   3  126.05    8.00
  -6  10  -3    8.94    1.68
  -6  10  -3    4.57    1.28
   6 -10   3    4.28    1.53
   6 -10   3    5.97    2.11
  -7  10  -3   84.38    5.21
  -7  10  -3   95.52    5.42
  -7  10  -3   75.98    5.15
   7 -10   3   96.40    6.19
   7 -10   3   95.35    6.73
   8 -10   3   11.43    2.16
   4   9  -3   20.24    3.40
   4   9  -3   30.15    4.37
   4   9  -3   18.65    3.41
  -4  -9   3   25.32    2.05
   3   9  -3   69.58    5.72
   3   9  -3   68.09    5.49
   3   9  -3   65.79    5.41
  -3  -9   3   59.17    4.31
  -3  -9   3   66.89    4.25
   2   9  -3  154.70    9.87
   2   9  -3  160.09    9.87
  -2  -9   3  163.95    9.15
  -2  -9   3  165.96    9.25
   1   9  -3    7.17    1.96
   1   9  -3    3.74    1.52
  -1  -9   3    7.89    1.60
  -1  -9   3    9.67    1.59
   0   9  -3    3.38    1.57
   0   9  -3    4.97    1.55
   0  -9   3    1.74    1.21
   0  -9   3    6.30    1.44
  -1   9  -3  683.60   34.91
  -1   9  -3  640.10   34.77
   1  -9   3  708.88   34.82
   1  -9   3  643.60   34.64
  -2   9  -3  866.91   44.10
  -2   9  -3  901.59   44.14
   2  -9   3  832.96   44.04
   2  -9   3  818.00   43.93
  -3   9  -3    5.19    1.58
  -3   9  -3    6.16    1.44
   3  -9   3    3.58    1.37
   3  -9   3    4.88    1.35
  -4   9  -3  212.27   10.93
  -4   9  -3  212.75   11.46
  -4   9  -3  217.84   11.53
   4  -9   3  175.44   11.51
   4  -9   3  201.73   11.51
  -5   9  -3   93.89    5.36
  -5   9  -3   86.24    5.72
  -5   9  -3   96.10    5.92
   5  -9   3   95.98    6.32
   5  -9   3   94.68    6.08
  -6   9  -3    6.01    1.10
  -6   9  -3    5.74    1.28
   6  -9   3    5.88    1.41
   6  -9   3    7.14    1.84
  -7   9  -3   39.95    2.62
  -7   9  -3   38.55    2.47
   7  -9   3   28.70    3.41
   7  -9   3   40.66    4.15
  -8   9  -3   16.95    2.20
   8  -9   3   11.55    2.47
   8  -9   3   20.69    3.01
  -9   9  -3    5.04    1.39
   9  -9   3    0.93    2.27
   9  -9   3    0.40    1.69
   5   8  -3    0.26    2.46
   5   8  -3    4.20    2.10
   4   8  -3   -2.28    1.85
   4   8  -3    0.15    1.69
   4   8  -3    0.71    1.60
  -4  -8   3   -0.37    0.61
   3   8  -3    0.02    1.55
   3   8  -3    0.56    1.40
  -3  -8   3    0.18    0.78
  -3  -8   3    0.66    0.87
   2   8  -3    6.72    1.66
   2   8  -3    8.34    1.88
  -2  -8   3   11.66    1.79
  -2  -8   3   10.50    1.50
   1   8  -3  287.92   14.93
   1   8  -3  257.61   14.83
  -1  -8   3  269.06   14.54
  -1  -8   3  264.57   14.51
   0   8  -3   51.26    3.91
   0   8  -3   44.11    3.73
   0  -8   3   46.28    3.50
   0  -8   3   42.12    3.56
  -1   8  -3   38.53    3.24
  -1   8  -3   40.02    3.27
   1  -8   3   33.81    2.99
   1  -8   3   36.27    3.16
  -2   8  -3   32.34    2.84
  -2   8  -3   26.99    2.70
   2  -8   3   28.32    2.64
   2  -8   3   26.95    2.82
  -3   8  -3  157.81    8.82
  -3   8  -3  146.47    8.30
  -3   8  -3  154.81    8.78
   3  -8   3  150.95    8.77
   3  -8   3  153.03    8.92
  -4   8  -3   14.03    1.42
  -4   8  -3   12.46    1.81
  -4   8  -3   12.14    1.84
   4  -8   3   11.96    1.97
   4  -8   3   10.62    1.89
  -5   8  -3   67.46    4.21
  -5   8  -3   73.43    4.53
  -5   8  -3   76.83    4.68
   5  -8   3   69.32    5.04
   5  -8   3   70.25    4.76
  -6   8  -3    5.94    1.09
  -6   8  -3    5.72    0.97
   6  -8   3    6.40    1.35
   6  -8   3    6.55    1.59
  -7   8  -3   20.43    2.15
   7  -8   3   19.55    2.95
   7  -8   3   20.77    2.55
  -8   8  -3   28.37    2.76
   8  -8   3   31.98    3.67
   8  -8   3   28.25    3.11
  -9   8  -3    1.66    1.42
   9  -8   3    1.66    1.49
   9  -8   3    2.41    1.92
   6   7  -3   12.15    2.58
   6   7  -3   14.06    2.78
   6   7  -3    8.26    2.82
   5   7  -3   26.09    3.78
   5   7  -3   24.68    3.66
   5   7  -3   21.35    3.46
   4   7  -3   54.85    4.46
   4   7  -3   44.78    4.15
   4   7  -3   42.13    4.05
  -4  -7   3   51.71    2.89
   3   7  -3   27.37    3.16
   3   7  -3   27.88    3.13
  -3  -7   3   35.35    2.41
  -3  -7   3   28.01    2.27
   2   7  -3  283.99   15.87
   2   7  -3  312.89   15.94
  -2  -7   3  285.25   15.43
  -2  -7   3  290.02   15.46
   1   7  -3  311.16   15.96
   1   7  -3  296.13   15.94
  -1  -7   3  286.47   15.62
  -1  -7   3  287.84   15.67
   0   7  -3   14.00    2.03
   0   7  -3   15.78    2.05
   0  -7   3   13.87    1.99
   0  -7   3   14.42    1.82
  -1   7  -3  218.81   12.34
  -1   7  -3  227.50   12.41
   1  -7   3  227.66   12.40
   1  -7   3  231.80   12.29
  -2   7  -3  122.47    7.28
  -2   7  -3  123.50    7.27
   2  -7   3  128.93    7.40
   2  -7   3  126.91    7.24
  -3   7  -3  147.11    8.51
  -3   7  -3  148.19    8.18
  -3   7  -3  155.97    8.58
   3  -7   3  162.92    8.78
   3  -7   3  145.38    8.53
  -4   7  -3  466.99   23.85
  -4   7  -3  469.90   24.17
  -4   7  -3  457.75   24.09
   4  -7   3  479.89   24.42
   4  -7   3  454.24   24.22
  -5   7  -3  297.15   14.73
  -5   7  -3  281.92   14.78
  -5   7  -3  288.11   14.66
   5  -7   3  258.74   14.92
   5  -7   3  274.23   15.14
  -6   7  -3    0.39    0.63
   6  -7   3    2.36    0.99
   6  -7   3   -0.47    1.11
  -7   7  -3  126.57    7.21
   7  -7   3  131.80    7.66
   7  -7   3  117.88    7.28
  -8   7  -3   15.20    2.37
   8  -7   3   18.30    2.96
   8  -7   3   13.60    2.29
   8  -7   3   19.76    2.34
  -9   7  -3    2.86    1.49
   9  -7   3    0.73    1.48
   9  -7   3   -0.37    1.34
   9  -7   3   -1.65    1.74
   7   6  -3   99.72    7.90
   7   6  -3   91.73    6.95
   7   6  -3   99.74    7.14
   6   6  -3   80.98    6.66
   6   6  -3   83.52    5.93
   6   6  -3   84.66    6.03
   5   6  -3   36.67    3.79
   5   6  -3   36.82    3.46
   5   6  -3   37.77    3.64
   4   6  -3   69.19    4.92
   4   6  -3   69.03    4.93
  -4  -6   3   77.66    3.95
   3   6  -3  100.71    6.09
   3   6  -3   97.51    6.10
  -3  -6   3   99.99    5.52
  -3  -6   3   96.01    5.47
   2   6  -3   98.50    5.93
   2   6  -3   95.84    5.87
  -2  -6   3   97.01    5.52
  -2  -6   3   93.85    5.54
   1   6  -3  532.41   27.05
   1   6  -3  532.54   27.10
  -1  -6   3  484.45   26.78
  -1  -6   3  539.11   26.93
   0   6  -3   74.76    4.53
   0   6  -3   70.79    4.46
   0  -6   3   66.15    4.35
   0  -6   3   68.19    4.27
  -1   6  -3    0.37    0.68
  -1   6  -3    0.87    0.65
   1  -6   3    0.58    0.62
   1  -6   3    0.31    0.55
  -2   6  -3   15.45    1.71
  -2   6  -3   17.92    1.70
   2  -6   3   15.20    1.71
   2  -6   3   12.61    1.55
  -3   6  -3  214.80   11.34
  -3   6  -3  204.09   11.58
  -3   6  -3  227.88   11.63
   3  -6   3  208.71   11.73
   3  -6   3  226.09   11.66
  -4   6  -3   52.36    3.47
  -4   6  -3   53.21    3.38
  -4   6  -3   52.39    3.24
   4  -6   3   58.43    3.60
   4  -6   3   50.39    3.66
  -5   6  -3   34.28    2.25
  -5   6  -3   33.34    2.39
  -5   6  -3   31.27    2.38
   5  -6   3   35.84    2.86
   5  -6   3   31.61    2.60
  -6   6  -3  759.87   38.21
   6  -6   3  753.34   38.25
   6  -6   3  732.06   38.09
   6  -6   3  747.74   38.42
  -7   6  -3  272.67   14.68
   7  -6   3  272.63   14.85
   7  -6   3  275.94   14.63
   7  -6   3  277.38   14.59
  -8   6  -3    2.12    1.27
   8  -6   3    3.16    1.23
   8  -6   3    2.61    1.29
   8  -6   3    2.18    1.06
   9  -6   3   33.71    3.77
   9  -6   3   25.53    3.33
   7   5  -3    4.85    1.69
   7   5  -3    1.59    2.50
   7   5  -3    6.00    1.86
   5   5  -3    3.60    1.26
   5   5  -3    2.40    1.24
   5   5  -3    1.67    1.53
   4   5  -3   80.50    5.16
   4   5  -3   77.38    5.13
  -4  -5   3   83.34    4.31
  -4  -5   3   88.17    4.32
   3   5  -3   12.75    1.77
   3   5  -3   13.96    1.76
  -3  -5   3   12.73    1.23
  -3  -5   3   13.56    1.24
   2   5  -3   16.85    1.74
   2   5  -3   15.81    1.68
  -2  -5   3   12.50    1.40
  -2  -5   3   12.11    1.31
   1   5  -3 2261.59  115.02
   1   5  -3 2432.58  115.13
  -1  -5   3 2195.71  114.84
  -1  -5   3 2257.34  114.95
   0   5  -3  758.75   38.68
   0   5  -3  756.09   38.64
   0  -5   3  734.74   38.52
   0  -5   3  783.52   38.67
  -1   5  -3 1210.89   60.54
  -1   5  -3 1163.88   60.53
   1  -5   3 1191.02   60.58
   1  -5   3 1221.79   60.48
  -2   5  -3   -0.11    0.52
  -2   5  -3    1.88    0.51
  -2   5  -3    0.57    0.57
   2  -5   3    0.07    0.52
   2  -5   3    0.66    0.57
  -3   5  -3    5.60    0.95
  -3   5  -3    7.37    1.07
  -3   5  -3    6.62    0.92
   3  -5   3    7.50    1.15
   3  -5   3    7.38    1.15
  -4   5  -3  169.38    8.85
  -4   5  -3  170.78    8.80
  -4   5  -3  169.44    8.87
   4  -5   3  155.56    8.92
   4  -5   3  165.31    9.08
   4  -5   3  160.56    8.82
  -5   5  -3    7.15    1.11
  -5   5  -3   10.12    0.97
  -5   5  -3    9.85    1.10
   5  -5   3    8.39    1.32
   5  -5   3   10.13    1.57
   5  -5   3   12.36    1.43
  -6   5  -3  385.70   19.78
   6  -5   3  366.67   19.61
   6  -5   3  400.42   19.67
   6  -5   3  359.24   19.76
  -7   5  -3   79.65    5.20
   7  -5   3   81.99    5.06
   7  -5   3   84.52    4.93
   7  -5   3   78.88    5.17
  -8   5  -3  179.94   10.14
   8  -5   3  174.90    9.97
   8  -5   3  173.73    9.91
   9  -5   3   14.07    2.29
   9  -5   3   24.66    3.31
   9  -5   3   17.55    2.30
   8   4  -3   40.03    4.02
   8   4  -3   37.34    5.13
   8   4  -3   43.25    3.97
   7   4  -3   37.43    3.22
   7   4  -3   32.78    3.87
   7   4  -3   30.64    3.24
   6   4  -3    1.19    1.08
   6   4  -3    0.38    1.56
   6   4  -3    1.88    1.03
   5   4  -3  580.88   29.88
   5   4  -3  582.11   29.92
   4   4  -3  224.41   12.09
   4   4  -3  229.42   12.14
   3   4  -3   68.92    4.22
   3   4  -3   64.80    4.15
  -3  -4   3   72.86    3.81
   2   4  -3  181.97    9.97
   2   4  -3  175.72    9.89
  -2  -4   3  190.19    9.72
  -2  -4   3  193.93    9.80
   1   4  -3  686.15   34.08
   1   4  -3  668.01   34.11
  -1  -4   3  653.15   33.92
  -1  -4   3  669.65   34.04
   0   4  -3 1311.34   65.94
   0   4  -3 1270.55   65.88
   0  -4   3 1353.45   65.83
   0  -4   3 1291.36   65.92
  -1   4  -3 1731.33   82.69
  -1   4  -3 1581.91   82.61
   1  -4   3 1637.88   82.58
   1  -4   3 1616.69   82.68
  -2   4  -3 1887.98   96.01
  -2   4  -3 1992.87   96.18
  -2   4  -3 1953.59   96.15
   2  -4   3 1861.49   96.11
   2  -4   3 1868.24   96.22
  -3   4  -3    6.38    0.92
  -3   4  -3    7.34    0.94
  -3   4  -3    7.74    1.05
   3  -4   3    6.35    0.93
   3  -4   3    6.42    0.99
   3  -4   3    8.97    1.19
  -4   4  -3   17.06    1.27
  -4   4  -3   17.09    1.51
  -4   4  -3   15.62    1.34
   4  -4   3   12.32    1.40
   4  -4   3   18.45    1.62
   4  -4   3   14.62    1.43
   5  -4   3    0.39    0.70
   5  -4   3    1.10    0.66
   5  -4   3    0.57    0.53
  -6   4  -3  512.94   25.45
   6  -4   3  496.76   25.26
   6  -4   3  479.98   25.22
   6  -4   3  467.59   25.05
  -7   4  -3   94.73    5.95
   7  -4   3   90.90    5.65
   7  -4   3   94.43    5.76
  -8   4  -3    2.18    1.58
   8  -4   3    3.72    1.36
   8  -4   3    3.47    0.98
   8  -4   3    0.39    1.31
   9  -4   3   18.40    2.27
   9  -4   3   21.31    2.76
   9  -4   3   17.93    2.43
   8   3  -3   64.35    4.57
   8   3  -3   71.45    5.94
   8   3  -3   65.62    4.58
   7   3  -3   48.07    3.68
   7   3  -3   61.43    3.79
   7   3  -3   50.78    4.58
   6   3  -3   19.08    1.94
   6   3  -3   23.07    2.72
   6   3  -3   19.62    2.00
   5   3  -3  438.55   22.22
   5   3  -3  425.51   22.24
   4   3  -3  848.30   42.42
   4   3  -3  825.07   42.35
   3   3  -3  130.43    6.96
   3   3  -3  126.34    7.00
  -3  -3   3  130.34    6.60
  -3  -3   3  127.25    6.63
   2   3  -3    0.19    0.39
   2   3  -3    0.59    0.44
  -2  -3   3    0.24    0.35
   1   3  -3 4294.06  237.95
  -1  -3   3 4609.01  236.96
   0   3  -3  127.18    6.65
   0   3  -3  123.52    6.59
   0  -3   3  114.47    6.50
   0  -3   3  123.46    6.65
  -1   3  -3  424.91   21.48
  -1   3  -3  424.21   21.56
  -1   3  -3  423.35   21.58
   1  -3   3  421.92   21.51
   1  -3   3  414.69   21.61
  -2   3  -3 1368.45   66.22
  -2   3  -3 1315.95   66.22
  -2   3  -3 1316.61   66.17
   2  -3   3 1323.89   66.18
   2  -3   3 1302.15   66.28
   2  -3   3 1267.46   66.18
  -3   3  -3   25.80    1.66
  -3   3  -3   25.83    1.70
  -3   3  -3   23.61    1.78
   3  -3   3   22.11    1.79
   3  -3   3   21.47    1.66
   3  -3   3   24.14    1.74
  -4   3  -3  488.26   25.65
  -4   3  -3  487.45   25.29
  -4   3  -3  490.89   25.27
   4  -3   3  495.02   25.56
   4  -3   3  496.13   25.56
   4  -3   3  540.11   25.50
  -5   3  -3   78.18    4.78
   5  -3   3   75.12    4.62
   5  -3   3   72.24    4.51
   5  -3   3   83.26    4.45
  -6   3  -3  138.29    7.90
   6  -3   3  131.81    7.54
   6  -3   3  138.13    7.73
  -7   3  -3   96.28    6.17
   7  -3   3   93.46    5.68
   7  -3   3   97.51    6.00
   7  -3   3   96.95    5.42
   8  -3   3   39.79    3.53
   8  -3   3   47.95    4.01
   8  -3   3   43.70    2.98
   9  -3   3    6.17    1.25
   9  -3   3    1.89    2.16
   9  -3   3    5.36    1.77
   9   2  -3   -2.00    2.28
   9   2  -3    0.31    1.17
   9   2  -3    1.93    1.24
   8   2  -3   28.41    2.55
   8   2  -3   30.97    3.92
   8   2  -3   26.98    2.48
   7   2  -3   30.37    3.32
   7   2  -3   26.63    2.24
   7   2  -3   26.34    2.20
   6   2  -3    4.48    0.78
   6   2  -3    4.12    0.79
   6   2  -3    3.76    1.39
   5   2  -3   36.99    2.26
   5   2  -3   33.24    2.26
   4   2  -3   11.84    1.11
   4   2  -3   12.17    1.08
   3   2  -3   22.27    1.65
   3   2  -3   26.27    1.61
   2   2  -3  111.35    6.13
   2   2  -3  125.36    6.27
  -2  -2   3  114.33    6.13
  -2  -2   3  114.59    6.01
   1   2  -3 1861.50   93.43
   0   2  -3 1703.05   85.40
   0   2  -3 1698.75   85.34
  -1   2  -3  155.46    8.68
  -1   2  -3  169.55    8.70
  -1   2  -3  161.28    8.66
   1  -2   3  170.90    8.67
   1  -2   3  170.79    8.76
   1  -2   3  168.48    8.69
  -2   2  -3  342.70   18.02
  -2   2  -3  354.68   17.97
  -2   2  -3  348.77   17.96
   2  -2   3  331.18   18.01
   2  -2   3  379.36   17.99
   2  -2   3  352.75   18.01
  -3   2  -3  135.40    7.22
  -3   2  -3  131.07    6.94
  -3   2  -3  135.22    6.96
   3  -2   3  125.82    7.06
   3  -2   3  130.10    7.11
  -4   2  -3  107.00    5.60
  -4   2  -3  108.25    5.61
   4  -2   3  111.43    5.96
   4  -2   3  103.43    6.03
  -5   2  -3   75.62    4.60
   5  -2   3   70.90    4.42
   5  -2   3   71.05    4.20
   5  -2   3   66.06    3.97
  -6   2  -3  168.41    9.56
   6  -2   3  171.44    9.11
   6  -2   3  170.75    9.42
   6  -2   3  158.92    8.83
  -7   2  -3    1.93    1.44
   7  -2   3    1.31    0.67
   7  -2   3    1.08    1.34
   7  -2   3    0.50    0.86
   8  -2   3    0.37    0.77
   8  -2   3   -0.70    1.16
   8  -2   3   -0.42    1.63
   9  -2   3   13.57    2.84
   9   1  -3    2.01    0.95
   9   1  -3    2.38    0.96
   8   1  -3  160.47    8.94
   8   1  -3  171.23    8.96
   8   1  -3  177.25   10.06
   7   1  -3   20.56    1.68
   7   1  -3   21.01    2.71
   7   1  -3   22.35    1.69
   6   1  -3   97.99    5.92
   6   1  -3   98.21    5.15
   6   1  -3   94.24    5.18
   5   1  -3  455.33   23.22
   5   1  -3  461.85   23.15
   4   1  -3  591.16   29.83
   3   1  -3  264.37   13.53
   3   1  -3  269.74   13.65
   2   1  -3 4987.86  262.52
  -2  -1   3 5171.41  261.69
  -1  -1   3 1762.02   88.39
   0   1  -3  898.64   45.74
   0   1  -3  915.05   45.79
   0  -1   3  971.10   45.83
   0  -1   3  925.39   45.77
   0  -1   3  835.82   45.66
  -1   1  -3  654.13   31.32
  -1   1  -3  612.94   31.34
  -1   1  -3  611.60   31.36
   1  -1   3  633.03   31.36
   1  -1   3  567.11   31.23
   1  -1   3  640.21   31.38
  -2   1  -3  104.65    5.80
  -2   1  -3  112.39    5.78
  -2   1  -3  108.47    5.96
   2  -1   3  104.43    5.89
   2  -1   3  118.76    5.90
   2  -1   3  101.37    5.71
  -3   1  -3  271.99   13.79
  -3   1  -3  264.34   13.82
  -3   1  -3  266.10   14.16
   3  -1   3  275.73   14.09
   3  -1   3  277.48   13.96
   3  -1   3  259.86   13.79
  -4   1  -3  476.92   24.26
  -4   1  -3  462.23   24.26
  -4   1  -3  495.65   25.01
   4  -1   3  498.67   24.92
   4  -1   3  507.11   24.71
   4  -1   3  456.94   24.48
  -5   1  -3    1.13    0.86
   5  -1   3    0.71    0.46
   5  -1   3    0.26    0.87
   5  -1   3    0.02    0.57
  -6   1  -3    2.70    1.34
   6  -1   3    3.21    1.24
   6  -1   3    4.37    0.77
   6  -1   3    3.63    0.91
   7  -1   3    2.02    0.74
   7  -1   3    1.76    1.49
   7  -1   3    2.01    1.01
   8  -1   3   47.34    4.58
   8  -1   3   45.96    3.78
   8  -1   3   45.45    3.20
   9   0  -3   46.01    2.79
   9   0  -3   46.23    4.63
   9   0  -3   45.48    2.76
   8   0  -3    9.84    1.02
   8   0  -3    5.45    1.64
   8   0  -3    9.09    1.02
   7   0  -3  343.70   18.00
   7   0  -3  337.86   17.12
   7   0  -3  336.18   17.16
   6   0  -3   41.63    2.24
   6   0  -3   40.72    2.16
   6   0  -3   40.53    3.02
   5   0  -3  357.88   18.18
   5   0  -3  366.23   18.25
   4   0  -3  515.43   25.81
   4   0  -3  509.59   25.72
   3   0  -3  750.10   37.73
   2   0  -3  230.47   11.20
   2   0  -3  210.95   11.08
  -2   0   3  213.29   11.06
  -2   0   3  218.07   11.15
   1   0  -3 1690.13   87.24
  -1   0   3 1471.99   86.07
   0   0  -3   29.50    1.81
   0   0  -3   27.09    1.72
   0   0  -3   30.04    1.86
   0   0   3   30.48    1.87
   0   0   3   30.06    1.82
   0   0   3   29.41    1.72
  -1   0  -3 3247.82  174.96
   1   0   3 3352.79  174.84
  -2   0  -3    8.83    0.99
  -2   0  -3    8.03    1.15
   2   0   3   10.56    1.08
   2   0   3   10.40    0.86
   2   0   3    8.26    1.12
  -3   0  -3  117.77    5.96
  -3   0  -3  118.10    5.88
   3   0   3   99.44    5.85
   3   0   3  109.79    6.09
   3   0   3  107.02    6.25
  -4   0  -3   19.37    2.03
  -4   0  -3   19.26    1.19
  -4   0  -3   19.49    1.19
   4   0   3   21.74    1.78
   4   0   3   18.49    2.00
   4   0   3   18.14    1.44
  -5   0  -3  168.56    9.87
   5   0   3  177.30    9.80
   5   0   3  174.87    9.43
   6   0   3   87.54    5.52
   6   0   3   79.76    4.59
   6   0   3   75.71    4.93
   7   0   3    1.18    0.77
   7   0   3    0.41    1.53
   7   0   3    0.92    1.11
   8   0   3    2.65    1.64
   8   0   3    1.44    1.07
   8   0   3    1.97    2.23
  10  -1  -3    2.91    2.21
   9  -1  -3    1.03    1.54
   8  -1  -3    2.51    1.34
   7  -1  -3  396.07   20.67
   6  -1  -3   29.67    2.35
   4  -1  -3  522.16   26.15
   4  -1  -3  516.29   26.11
   3  -1  -3  193.49    9.82
   3  -1  -3  191.40    9.88
   2  -1  -3  946.38   48.18
   2  -1  -3  970.23   48.09
  -2   1   3  970.27   48.16
  -2   1   3  944.23   48.11
   1  -1  -3  480.22   24.77
   1  -1  -3  505.74   24.76
   1  -1  -3  476.76   24.88
  -1   1   3  477.47   24.77
  -1   1   3  478.26   24.76
  -1   1   3  523.76   24.89
   0  -1  -3  977.22   50.18
   0  -1  -3 1038.22   50.04
   0  -1  -3  997.70   50.14
   0   1   3  944.83   50.01
   0   1   3  986.13   50.17
   0   1   3 1028.10   50.12
  -1  -1  -3  522.80   26.28
  -1  -1  -3  503.71   26.31
  -1  -1  -3  499.47   26.08
   1   1   3  510.27   26.08
   1   1   3  522.55   26.28
   1   1   3  535.24   26.29
  -2  -1  -3  269.67   13.93
  -2  -1  -3  280.69   13.55
  -2  -1  -3  256.11   13.69
   2   1   3  256.24   13.53
   2   1   3  259.95   13.75
   2   1   3  260.07   13.84
  -3  -1  -3  192.21   10.84
  -3  -1  -3  193.74   10.43
   3   1   3  200.52   10.62
   3   1   3  193.86   10.78
   3   1   3  214.56   10.39
  -4  -1  -3  225.57   12.18
  -4  -1  -3  215.02   11.28
  -4  -1  -3  229.85   11.26
   4   1   3  209.95   11.74
   4   1   3  222.26   12.06
  -5  -1  -3    1.90    1.23
   5   1   3    1.29    0.62
   5   1   3    1.54    0.88
   6   1   3   14.10    2.14
   6   1   3   15.06    1.69
   6   1   3   12.76    2.22
   7   1   3    1.64    1.85
   7   1   3    1.57    1.36
   7   1   3    0.69    0.90
   8   1   3    1.45    1.81
   8   1   3    3.75    1.48
   8   1   3    2.51    2.40
  10  -2  -3  109.22    7.15
   9  -2  -3   59.90    4.42
   8  -2  -3  176.82    9.81
   7  -2  -3  192.16    9.38
   7  -2  -3  184.77    9.99
   7  -2  -3  177.25    9.39
   6  -2  -3   62.05    3.38
   6  -2  -3   65.04    3.36
   6  -2  -3   62.28    3.75
   5  -2  -3  255.07   13.26
   5  -2  -3  261.04   13.10
   5  -2  -3  255.40   13.10
   4  -2  -3 3457.37  180.80
  -4   2   3 3508.71  182.59
   3  -2  -3    7.36    0.72
   3  -2  -3    7.30    0.78
   3  -2  -3    6.70    0.58
  -3   2   3    9.01    0.71
  -3   2   3    7.10    0.69
   2  -2  -3  201.24   10.24
   2  -2  -3  204.14   10.47
   2  -2  -3  197.87   10.33
  -2   2   3  190.51   10.37
  -2   2   3  200.12   10.24
  -2   2   3  209.66   10.42
   1  -2  -3   33.57    2.38
   1  -2  -3   38.23    2.25
   1  -2  -3   39.90    2.29
  -1   2   3   40.86    2.26
  -1   2   3   40.45    2.43
  -1   2   3   37.84    2.32
   0  -2  -3  239.92   13.53
   0  -2  -3  268.61   13.36
   0  -2  -3  258.61   13.50
   0   2   3  275.27   13.49
   0   2   3  268.04   13.57
   0   2   3  251.29   13.40
  -1  -2  -3  454.09   23.92
  -1  -2  -3  476.53   23.99
  -1  -2  -3  472.81   23.69
   1   2   3  464.42   23.93
   1   2   3  471.16   23.75
   1   2   3  460.73   23.93
  -2  -2  -3   34.09    2.48
  -2  -2  -3   36.88    2.69
  -2  -2  -3   39.74    2.30
   2   2   3   37.23    2.70
   2   2   3   39.18    2.38
   2   2   3   35.66    2.61
  -3  -2  -3  351.05   17.59
  -3  -2  -3  346.75   18.06
  -3  -2  -3  352.79   17.39
   3   2   3  343.64   17.97
   3   2   3  340.48   17.79
   3   2   3  306.96   17.47
  -4  -2  -3 1066.89   54.03
  -4  -2  -3 1083.08   53.06
  -4  -2  -3 1029.72   53.11
   4   2   3 1074.53   53.36
   4   2   3 1007.65   53.59
   4   2   3 1074.37   53.91
   5   2   3   29.74    2.33
   5   2   3   26.31    3.28
   5   2   3   28.17    2.75
   6   2   3   18.55    2.65
   6   2   3   16.40    2.12
   7   2   3   21.41    3.17
   7   2   3   22.00    2.76
   7   2   3   18.77    3.07
  10  -3  -3   -0.04    1.54
   9  -3  -3   26.37    1.73
   9  -3  -3   29.73    2.78
   9  -3  -3   25.07    1.73
   8  -3  -3   -0.20    0.44
   8  -3  -3    0.29    0.45
   8  -3  -3    0.60    0.80
   7  -3  -3  369.07   18.69
   7  -3  -3  352.38   18.45
   7  -3  -3  366.93   18.47
   6  -3  -3   14.33    1.26
   6  -3  -3   15.65    1.22
   6  -3  -3   14.96    1.23
   5  -3  -3  453.74   22.99
   5  -3  -3  450.71   22.82
   5  -3  -3  451.34   22.97
   4  -3  -3 1226.67   60.93
   4  -3  -3 1218.14   60.87
  -4   3   3 1228.39   60.66
  -4   3   3 1167.17   60.67
   3  -3  -3  316.38   16.09
   3  -3  -3  325.72   16.48
   3  -3  -3  313.20   16.35
  -3   3   3  294.72   16.34
  -3   3   3  345.02   16.37
   2  -3  -3   77.95    4.46
   2  -3  -3   84.78    4.66
   2  -3  -3   75.93    4.32
  -2   3   3   87.50    4.60
  -2   3   3   72.82    4.51
  -2   3   3   86.50    4.31
   1  -3  -3    8.95    0.96
   1  -3  -3    9.13    0.94
   1  -3  -3    6.30    1.07
  -1   3   3   10.95    1.17
  -1   3   3    8.92    0.93
   0  -3  -3   70.99    4.57
   0  -3  -3   80.41    4.54
   0  -3  -3   79.34    4.35
   0   3   3   77.57    4.51
   0   3   3   80.68    4.51
   0   3   3   82.21    4.65
  -1  -3  -3    2.44    0.51
  -1  -3  -3    2.86    0.76
   1   3   3    2.23    0.60
   1   3   3    3.63    0.85
   1   3   3    4.14    0.87
  -2  -3  -3  116.91    6.73
  -2  -3  -3  118.40    6.20
  -2  -3  -3  113.26    6.49
   2   3   3  103.28    6.53
   2   3   3  120.17    6.70
   2   3   3  116.98    6.40
  -3  -3  -3  177.08    9.74
  -3  -3  -3  186.85    9.52
   3   3   3  184.87   10.22
   3   3   3  174.34    9.75
   3   3   3  184.70   10.04
  -4  -3  -3  653.81   33.18
   4   3   3  669.96   34.03
   4   3   3  633.13   33.46
   4   3   3  661.95   33.75
   5   3   3  307.52   15.81
   5   3   3  283.36   16.00
   5   3   3  301.06   16.40
   6   3   3   66.10    5.54
   6   3   3   62.01    4.79
   6   3   3   57.09    4.35
   7   3   3   41.80    4.28
   7   3   3   52.18    4.74
   7   3   3   51.87    5.20
  10  -4  -3   49.21    3.28
  10  -4  -3   57.88    3.91
  10  -4  -3   56.13    3.27
   9  -4  -3   20.64    2.01
   9  -4  -3   16.86    1.70
   9  -4  -3   20.57    1.70
   8  -4  -3  291.72   15.28
   8  -4  -3  306.07   15.27
   8  -4  -3  289.42   15.25
   7  -4  -3    8.64    1.22
   7  -4  -3   11.75    1.03
   7  -4  -3    9.54    1.23
   6  -4  -3  153.05    8.16
   6  -4  -3  149.45    8.19
   6  -4  -3  155.20    7.77
   5  -4  -3   75.93    4.33
   5  -4  -3   74.70    4.37
   4  -4  -3   97.80    5.59
   4  -4  -3   97.65    5.68
  -4   4   3   99.18    5.52
  -4   4   3  109.21    5.49
   3  -4  -3  371.04   19.15
   3  -4  -3  395.37   19.33
  -3   4   3  372.70   19.15
  -3   4   3  354.84   19.17
  -3   4   3  368.09   18.77
   2  -4  -3 2939.87  147.63
  -2   4   3 2939.61  147.55
   1  -4  -3   -0.75    0.52
   1  -4  -3   -0.04    0.39
   1  -4  -3   -0.06    0.40
  -1   4   3   -0.46    0.45
  -1   4   3   -0.68    0.53
  -1   4   3    0.31    0.43
   0  -4  -3  213.38   10.79
   0  -4  -3  203.94   11.00
   0  -4  -3  200.38   11.10
   0   4   3  216.21   11.15
   0   4   3  200.97   11.00
   0   4   3  198.88   10.94
  -1  -4  -3  161.10    9.20
  -1  -4  -3  175.19    8.84
   1   4   3  164.76    9.17
   1   4   3  162.34    9.08
   1   4   3  167.21    9.24
  -2  -4  -3   43.80    2.62
  -2  -4  -3   36.96    2.93
   2   4   3   41.03    3.15
   2   4   3   39.82    2.96
   2   4   3   39.19    3.17
  -3  -4  -3  198.64   10.98
  -3  -4  -3  206.29   10.69
   3   4   3  206.47   11.32
   3   4   3  206.67   11.12
   3   4   3  200.43   11.43
  -4  -4  -3  328.30   17.86
  -4  -4  -3  340.33   17.70
   4   4   3  364.68   18.38
   4   4   3  342.67   18.52
   4   4   3  357.96   18.81
   5   4   3  151.92    9.36
   5   4   3  149.96    8.79
   5   4   3  150.06    9.03
   6   4   3    3.27    1.69
   6   4   3    7.02    2.54
   6   4   3    2.27    1.93
  10  -5  -3   53.14    3.69
  10  -5  -3   57.80    3.48
  10  -5  -3   56.78    3.63
   9  -5  -3    0.05    0.55
   9  -5  -3    0.63    0.78
   9  -5  -3    0.33    0.81
   8  -5  -3   76.47    4.57
   8  -5  -3   78.60    4.02
   8  -5  -3   74.63    4.60
   7  -5  -3  708.55   37.42
   7  -5  -3  764.00   37.53
   6  -5  -3   39.22    2.77
   6  -5  -3   38.14    2.70
   5  -5  -3  188.86   10.93
   5  -5  -3  202.45   10.88
  -5   5   3  201.95   10.63
  -5   5   3  222.58   10.60
   4  -5  -3 1107.27   55.01
   4  -5  -3 1063.32   54.84
  -4   5   3 1045.49   54.81
  -4   5   3 1122.04   54.77
   3  -5  -3  123.51    7.04
   3  -5  -3  112.07    7.15
  -3   5   3  125.76    7.13
  -3   5   3  130.98    6.64
  -3   5   3  145.86    7.20
   2  -5  -3  283.02   16.03
   2  -5  -3  303.76   15.83
  -2   5   3  304.52   16.01
  -2   5   3  292.42   15.98
  -2   5   3  334.17   15.68
   1  -5  -3 1149.91   56.81
   1  -5  -3 1129.27   56.46
  -1   5   3 1122.11   56.46
  -1   5   3 1095.15   56.72
  -1   5   3 1091.16   56.69
   0  -5  -3  100.37    5.44
   0  -5  -3   93.61    5.81
   0   5   3   97.45    5.66
   0   5   3   92.78    5.69
   0   5   3   94.58    5.82
  -1  -5  -3   17.89    1.58
  -1  -5  -3   13.95    1.90
   1   5   3   14.72    1.94
   1   5   3   14.57    1.94
   1   5   3   13.40    1.85
  -2  -5  -3   16.25    2.00
  -2  -5  -3   15.68    1.54
   2   5   3   15.07    2.19
   2   5   3   12.64    1.84
   2   5   3   14.69    2.33
  -3  -5  -3   79.54    4.45
  -3  -5  -3   70.14    4.76
   3   5   3   75.10    5.07
   3   5   3   74.90    5.25
   3   5   3   81.74    5.55
  -4  -5  -3   46.46    3.14
  -4  -5  -3   46.20    2.89
   4   5   3   45.29    3.84
   4   5   3   45.10    4.08
   5   5   3   -2.17    1.74
   5   5   3   -3.98    1.99
   5   5   3   -1.81    1.47
  10  -6  -3   25.95    2.60
  10  -6  -3   19.62    2.68
   9  -6  -3   24.77    2.49
   9  -6  -3   24.23    2.45
   8  -6  -3    1.59    0.91
   8  -6  -3    0.78    0.84
   7  -6  -3  138.85    7.84
   7  -6  -3  139.78    7.91
   6  -6  -3    5.37    1.04
   6  -6  -3    4.42    1.04
  -6   6   3    4.03    0.67
  -6   6   3    4.57    0.66
   5  -6  -3    1.73    0.90
   5  -6  -3    2.65    0.98
  -5   6   3    3.34    0.82
  -5   6   3    2.71    0.75
   4  -6  -3    0.06    0.64
   4  -6  -3    0.34    0.70
  -4   6   3   -0.02    0.63
  -4   6   3   -0.39    0.62
  -4   6   3    0.32    0.18
   3  -6  -3  137.07    7.54
   3  -6  -3  130.92    7.73
  -3   6   3  124.90    7.61
  -3   6   3  145.73    7.13
  -3   6   3  132.87    7.61
   2  -6  -3   84.99    5.29
   2  -6  -3   88.53    5.03
  -2   6   3   84.72    5.26
  -2   6   3   79.27    5.16
  -2   6   3   82.52    4.78
   1  -6  -3  391.05   20.27
   1  -6  -3  387.37   19.87
  -1   6   3  387.86   20.21
  -1   6   3  380.19   20.20
  -1   6   3  367.51   19.86
   0  -6  -3    4.07    0.88
   0  -6  -3    4.66    1.30
   0   6   3    3.79    1.27
   0   6   3    5.43    1.30
   0   6   3    5.85    1.32
  -1  -6  -3  181.09    9.60
  -1  -6  -3  172.25   10.06
   1   6   3  179.40   10.12
   1   6   3  190.08   10.30
   1   6   3  167.01   10.06
  -2  -6  -3   75.44    5.29
  -2  -6  -3   81.04    4.84
   2   6   3   81.27    5.51
   2   6   3   86.70    5.68
   2   6   3   87.91    5.69
  -3  -6  -3   85.10    5.44
  -3  -6  -3   83.75    4.99
   3   6   3   77.42    5.77
   3   6   3   87.04    6.08
   3   6   3  101.39    6.37
  -4  -6  -3   17.46    1.70
   4   6   3   19.36    3.13
   4   6   3   15.11    2.56
   4   6   3    8.77    2.66
   5   6   3    0.85    2.14
   5   6   3   -1.24    2.11
   5   6   3   -0.59    2.53
  10  -7  -3    1.37    1.46
  10  -7  -3    3.71    1.47
   9  -7  -3    1.97    1.16
   9  -7  -3    0.02    1.17
   8  -7  -3   13.99    1.88
   8  -7  -3   16.15    2.33
   7  -7  -3    1.73    0.99
   7  -7  -3    1.51    0.95
   6  -7  -3  326.60   17.70
   6  -7  -3  321.14   17.82
  -6   7   3  357.99   17.29
  -6   7   3  331.62   17.34
   5  -7  -3   -0.43    0.86
   5  -7  -3   -0.29    0.74
  -5   7   3   -0.59    0.67
   4  -7  -3  712.58   35.15
   4  -7  -3  696.52   34.89
  -4   7   3  674.40   34.86
  -4   7   3  648.35   34.91
  -4   7   3  663.62   34.15
   3  -7  -3  184.81   10.67
   3  -7  -3  190.64   10.41
  -3   7   3  187.38   10.58
  -3   7   3  189.75    9.96
  -3   7   3  193.00   10.56
   2  -7  -3  133.01    7.19
   2  -7  -3  117.07    7.46
  -2   7   3  129.30    7.50
  -2   7   3  123.59    6.94
  -2   7   3  118.95    7.39
   1  -7  -3    2.16    0.93
   1  -7  -3    4.58    1.25
  -1   7   3    3.33    1.24
  -1   7   3    4.77    1.10
  -1   7   3    3.33    1.26
   0  -7  -3  322.83   16.98
   0  -7  -3  334.52   16.46
   0   7   3  308.62   16.69
   0   7   3  320.52   17.01
   0   7   3  273.98   16.84
  -1  -7  -3    0.28    0.79
  -1  -7  -3    0.37    1.15
   1   7   3    0.16    1.32
   1   7   3    0.79    1.32
   1   7   3    3.22    1.42
  -2  -7  -3  175.07    9.17
  -2  -7  -3  154.79    9.64
   2   7   3  175.49   10.01
   2   7   3  157.68    9.94
   2   7   3  172.98   10.14
   3   7   3    5.34    1.81
   3   7   3    6.36    2.19
  -4  -7  -3   14.73    1.93
  -4  -7  -3   14.60    2.29
   4   7   3   14.88    2.73
   4   7   3   16.49    3.05
   4   7   3   12.46    2.73
  10  -8  -3   36.33    3.67
  10  -8  -3   29.35    3.83
   9  -8  -3   45.94    4.06
   9  -8  -3   49.64    4.23
   8  -8  -3  256.63   13.49
   8  -8  -3  232.03   13.49
   7  -8  -3   32.41    3.15
   7  -8  -3   30.62    3.18
  -7   8   3   34.19    2.11
  -7   8   3   31.37    2.09
   6  -8  -3  125.71    7.40
   6  -8  -3  113.10    7.48
  -6   8   3  131.29    7.02
   5  -8  -3  748.84   36.70
   5  -8  -3  712.24   36.40
  -5   8   3  684.13   36.23
  -5   8   3  679.97   36.33
   4  -8  -3    1.83    1.18
   4  -8  -3    1.34    1.11
  -4   8   3    1.33    1.11
  -4   8   3    3.46    1.31
  -4   8   3    2.50    0.61
   3  -8  -3   82.56    5.42
   3  -8  -3   91.45    5.87
  -3   8   3   88.30    5.08
  -3   8   3   96.01    5.85
  -3   8   3   82.09    5.73
   2  -8  -3  786.37   36.97
   2  -8  -3  767.13   37.41
  -2   8   3  674.85   37.14
  -2   8   3  683.90   37.24
  -2   8   3  678.55   36.67
   1  -8  -3   33.51    2.94
   1  -8  -3   31.96    3.33
  -1   8   3   37.82    3.53
  -1   8   3   32.95    3.50
  -1   8   3   37.68    3.09
   0  -8  -3   15.61    2.02
   0  -8  -3   12.37    2.13
   0   8   3   13.14    2.14
   0   8   3   11.63    2.08
   0   8   3   11.85    1.96
  -1  -8  -3  156.54    9.79
  -1  -8  -3  177.12    9.26
   1   8   3  150.64    9.90
   1   8   3  169.40    9.90
   1   8   3  174.53   10.20
  -2  -8  -3  150.84    7.88
  -2  -8  -3  132.41    8.40
   2   8   3  132.95    8.85
   2   8   3  128.91    8.86
   2   8   3  142.32    8.91
  -3  -8  -3    4.04    1.15
  -3  -8  -3    4.96    1.67
   3   8   3    1.23    2.51
   3   8   3    5.88    2.40
   3   8   3    1.86    2.24
   9  -9  -3   33.00    3.78
   9  -9  -3   24.34    3.79
   8  -9  -3   33.88    3.68
   8  -9  -3   35.26    3.86
   7  -9  -3  154.88    9.17
   7  -9  -3  149.72    9.33
  -7   9   3  159.41    8.46
  -7   9   3  154.69    8.54
   6  -9  -3    1.94    1.47
   6  -9  -3    6.17    1.51
  -6   9   3    3.65    1.18
  -6   9   3    3.71    1.12
   5  -9  -3   14.48    2.29
   5  -9  -3   17.39    2.62
  -5   9   3   14.20    2.07
  -5   9   3   16.03    2.50
   4  -9  -3   20.37    2.96
   4  -9  -3   26.57    2.91
  -4   9   3   25.74    3.04
  -4   9   3   26.37    1.97
  -4   9   3   22.78    2.90
   3  -9  -3  141.55    8.36
   3  -9  -3  140.75    8.79
  -3   9   3  153.88    8.76
  -3   9   3  134.51    8.71
  -3   9   3  141.46    7.91
   2  -9  -3   26.62    2.81
   2  -9  -3   24.84    3.13
  -2   9   3   21.65    3.21
  -2   9   3   22.02    2.52
  -2   9   3   24.83    3.34
   1  -9  -3  148.79    8.26
   1  -9  -3  134.41    8.77
  -1   9   3  132.54    8.30
  -1   9   3  147.16    8.91
  -1   9   3  142.60    8.89
   0  -9  -3   73.76    5.62
   0  -9  -3   73.06    4.88
   0   9   3   79.72    5.52
   0   9   3   73.09    5.79
  -1  -9  -3    5.38    1.35
  -1  -9  -3    4.50    1.79
   1   9   3    1.79    2.02
   1   9   3    5.33    2.28
  -2  -9  -3    2.60    1.29
  -2  -9  -3   -1.42    1.83
   2   9   3    2.33    2.42
   2   9   3    3.92    2.28
   2   9   3    1.28    2.45
   8 -10  -3  311.36   15.70
   8 -10  -3  268.80   15.77
  -8  10   3  281.56   14.30
  -8  10   3  259.54   14.28
   7 -10  -3  191.19   11.35
   7 -10  -3  192.40   11.06
  -7  10   3  177.08   10.47
  -7  10   3  195.03   10.43
   6 -10  -3    2.42    1.64
   6 -10  -3    5.23    1.89
  -6  10   3    4.70    1.44
  -6  10   3    6.62    1.52
   5 -10  -3  141.33    8.61
   5 -10  -3  132.43    8.87
  -5  10   3  148.07    7.37
  -5  10   3  138.07    8.68
  -5  10   3  145.18    8.63
   4 -10  -3    3.45    1.50
   4 -10  -3    2.90    1.64
  -4  10   3    2.26    1.67
  -4  10   3    8.16    1.86
  -4  10   3    2.57    0.88
   3 -10  -3   30.40    3.77
  -3  10   3   38.53    3.91
  -3  10   3   35.27    3.83
  -3  10   3   36.54    3.03
   2 -10  -3  357.85   17.50
   2 -10  -3  303.90   17.91
  -2  10   3  362.44   18.20
  -2  10   3  284.25   17.85
  -2  10   3  301.10   17.17
   1 -10  -3   20.34    2.99
   1 -10  -3   28.69    3.07
  -1  10   3   26.43    4.08
  -1  10   3   24.82    3.38
  -1  10   3   24.69    4.00
   0 -10  -3   41.53    4.72
   0 -10  -3   49.46    3.97
   0  10   3   51.50    5.23
   0  10   3   50.90    5.28
  -1 -10  -3  135.08    8.82
  -1 -10  -3  140.65    7.96
   1  10   3  133.48    9.03
   1  10   3  130.14    9.29
   1  10   3  121.22    9.28
   8 -11  -3   14.14    2.59
   8 -11  -3   10.62    2.80
  -8  11   3   19.89    2.32
  -8  11   3   13.69    2.26
   7 -11  -3  235.01   13.75
   7 -11  -3  242.47   14.14
  -7  11   3  230.70   13.34
  -7  11   3  252.67   13.27
   6 -11  -3  171.56   11.70
   6 -11  -3  200.07   11.58
  -6  11   3  201.66   11.49
  -6  11   3  205.60   11.36
   5 -11  -3   45.01    5.02
   5 -11  -3   49.08    4.60
  -5  11   3   48.81    3.07
  -5  11   3   56.15    4.89
  -5  11   3   59.01    4.82
   4 -11  -3   92.06    6.30
   4 -11  -3   94.94    6.93
  -4  11   3   83.47    6.77
  -4  11   3   94.42    5.49
   3 -11  -3    1.42    1.94
   3 -11  -3    1.77    1.62
  -3  11   3   -1.23    1.24
  -3  11   3    3.48    2.04
  -3  11   3   -0.24    2.05
   2 -11  -3    0.15    2.12
   2 -11  -3   -0.79    1.48
  -2  11   3   -0.67    1.63
  -2  11   3    0.60    2.18
  -2  11   3    1.59    2.27
   1 -11  -3   20.89    3.14
   1 -11  -3   11.84    2.74
  -1  11   3   15.94    3.12
  -1  11   3   18.19    3.16
   0 -11  -3   -3.04    2.30
   0 -11  -3    2.29    1.70
   0  11   3    1.65    3.40
   0  11   3    1.54    2.26
   7 -12  -3   77.84    6.28
   7 -12  -3   59.80    6.37
  -7  12   3   65.09    5.65
  -7  12   3   72.97    5.55
   6 -12  -3    2.80    2.41
   6 -12  -3    3.79    2.12
  -6  12   3    0.58    2.02
   5 -12  -3   39.15    4.37
   5 -12  -3   25.06    3.56
  -5  12   3   26.32    2.34
  -5  12   3   28.56    4.68
  -5  12   3   37.13    4.73
   4 -12  -3   -2.69    1.84
   4 -12  -3   -4.15    2.16
  -4  12   3    1.03    1.26
  -4  12   3   -0.93    2.46
  -4  12   3    2.58    2.41
   3 -12  -3    3.67    1.98
   3 -12  -3   -1.29    2.32
  -3  12   3   -0.58    1.63
  -3  12   3    4.35    2.69
  -3  12   3    3.37    2.68
   2 -12  -3   17.49    2.56
   2 -12  -3   14.27    3.44
  -2  12   3    7.27    4.53
  -2  12   3   16.35    3.63
  -2  12   3   13.34    2.55
  -1  13  -4    0.21    4.13
  -1  13  -4    5.26    2.90
   1 -13   4   -3.38    2.03
   1 -13   4    3.02    2.45
  -2  13  -4   21.03    3.43
  -2  13  -4   15.54    3.12
   2 -13   4   15.34    2.85
   2 -13   4   16.20    3.07
  -3  13  -4   37.60    5.17
  -3  13  -4   55.79    5.88
   3 -13   4   48.91    5.25
   3 -13   4   60.83    5.64
  -4  13  -4    5.02    2.61
  -4  13  -4    3.60    2.41
  -4  13  -4    6.03    1.66
   4 -13   4    5.82    2.64
  -5  13  -4    8.00    2.32
  -5  13  -4   13.70    1.85
  -5  13  -4   12.69    2.92
   5 -13   4   13.65    3.00
   5 -13   4    8.56    2.63
   1  12  -4    7.71    3.19
   1  12  -4   14.49    3.18
  -1 -12   4   13.69    2.45
  -1 -12   4   11.02    2.32
   0  12  -4   62.95    6.17
   0  12  -4   82.89    6.72
   0 -12   4   73.76    5.92
   0 -12   4   65.73    5.62
  -1  12  -4    8.83    2.56
  -1  12  -4   11.50    2.78
   1 -12   4   12.87    2.44
   1 -12   4   13.68    2.53
  -2  12  -4  118.67    8.31
  -2  12  -4  103.03    7.89
   2 -12   4  129.42    8.11
   2 -12   4  109.81    7.75
  -3  12  -4    9.76    2.38
  -3  12  -4    7.51    2.40
   3 -12   4   10.93    2.42
   3 -12   4   10.58    2.41
  -4  12  -4   37.10    4.53
  -4  12  -4   23.65    2.79
  -4  12  -4   24.40    3.77
   4 -12   4   28.30    4.37
   4 -12   4   23.96    3.61
  -5  12  -4   43.58    4.40
  -5  12  -4   58.26    4.84
  -5  12  -4   47.12    3.49
   5 -12   4   38.73    4.73
   5 -12   4   40.13    5.04
  -6  12  -4  420.60   22.29
  -6  12  -4  404.11   21.49
  -6  12  -4  398.69   22.08
   6 -12   4  439.59   23.04
   6 -12   4  402.09   22.53
  -7  12  -4    2.59    1.83
  -7  12  -4    5.29    1.71
  -7  12  -4    4.54    1.35
   7 -12   4    1.97    2.81
   7 -12   4    3.23    2.26
   2  11  -4   13.71    3.01
   2  11  -4   18.45    3.48
  -2 -11   4   10.02    1.98
  -2 -11   4   11.88    2.01
   1  11  -4  203.16   12.14
   1  11  -4  185.83   12.06
  -1 -11   4  204.08   11.41
  -1 -11   4  191.29   11.32
   0  11  -4   83.85    6.76
   0  11  -4   86.53    6.69
   0 -11   4   97.67    6.37
   0 -11   4   82.14    6.10
  -1  11  -4  158.65   10.48
  -1  11  -4  195.96   10.97
   1 -11   4  163.99   10.23
   1 -11   4  176.01   10.42
  -2  11  -4    4.10    1.86
  -2  11  -4    0.62    1.56
   2 -11   4    2.37    1.53
  -3  11  -4  101.55    7.27
  -3  11  -4  123.48    7.60
   3 -11   4  107.07    7.23
  -4  11  -4   28.06    3.53
  -4  11  -4   31.56    2.84
  -4  11  -4   35.43    3.92
   4 -11   4   34.63    3.65
  -5  11  -4    4.69    1.17
  -5  11  -4    7.92    1.85
  -5  11  -4    5.24    1.67
   5 -11   4    6.02    1.85
  -6  11  -4  158.28    9.53
  -6  11  -4  159.63    9.38
  -6  11  -4  162.93    8.92
   6 -11   4  168.71   10.35
   6 -11   4  152.85    9.76
  -7  11  -4  117.84    7.12
  -7  11  -4  120.81    7.45
  -7  11  -4  127.72    7.28
   7 -11   4  121.75    8.71
   7 -11   4  128.98    8.22
   8 -11   4    0.82    2.82
   3  10  -4    3.19    2.45
   3  10  -4    0.53    2.12
  -3 -10   4   -0.43    1.17
  -3 -10   4    2.09    1.40
   2  10  -4    7.13    2.33
   2  10  -4    9.55    2.40
  -2 -10   4    8.77    1.63
  -2 -10   4    9.36    1.64
   1  10  -4  117.58    7.33
   1  10  -4   97.44    7.11
  -1 -10   4   97.14    6.49
  -1 -10   4   99.59    6.63
   0  10  -4   50.03    4.44
   0  10  -4   39.01    4.11
   0 -10   4   47.24    4.16
   0 -10   4   44.47    3.82
  -1  10  -4   14.07    2.28
  -1  10  -4   16.12    2.38
   1 -10   4   13.60    2.03
   1 -10   4    9.29    2.08
  -2  10  -4   35.85    3.59
  -2  10  -4   38.11    3.78
   2 -10   4   31.00    3.76
   2 -10   4   33.86    3.41
  -3  10  -4  127.63    7.52
  -3  10  -4  122.68    8.03
  -3  10  -4  138.23    8.24
   3 -10   4  135.76    8.25
   3 -10   4  128.95    8.02
  -4  10  -4   32.26    3.34
  -4  10  -4   21.95    2.93
  -4  10  -4   25.41    2.40
   4 -10   4   29.79    3.19
   4 -10   4   27.71    3.66
  -5  10  -4    0.64    1.17
  -5  10  -4    0.88    0.87
  -5  10  -4   -1.73    1.28
   5 -10   4    1.82    1.64
   5 -10   4   -0.50    1.24
  -6  10  -4   87.53    5.69
  -6  10  -4   84.43    5.45
  -6  10  -4   84.59    5.18
   6 -10   4   96.30    6.58
   6 -10   4   74.94    5.78
  -7  10  -4    0.42    1.13
  -7  10  -4    1.65    1.13
   7 -10   4    0.41    1.50
  -8  10  -4    5.70    1.48
   8 -10   4    4.89    1.89
   8 -10   4    4.15    2.52
   4   9  -4   -4.47    1.96
   4   9  -4    2.58    2.37
   4   9  -4   -2.32    2.19
  -4  -9   4   -0.72    0.76
   3   9  -4   -0.93    1.75
   3   9  -4    3.40    1.92
  -3  -9   4    0.40    1.05
  -3  -9   4    0.34    1.01
   2   9  -4  461.03   24.41
   2   9  -4  448.38   24.43
  -2  -9   4  452.65   23.80
  -2  -9   4  456.58   23.79
   1   9  -4   66.80    4.93
   1   9  -4   61.05    4.74
  -1  -9   4   53.41    4.28
  -1  -9   4   51.24    4.04
   0   9  -4    1.50    1.34
   0   9  -4    1.61    1.45
   0  -9   4    2.36    1.14
   0  -9   4    0.50    1.12
  -1   9  -4   25.49    3.12
  -1   9  -4   25.38    2.99
   1  -9   4   24.75    3.00
   1  -9   4   26.26    2.75
  -2   9  -4   28.96    3.16
  -2   9  -4   33.73    3.37
   2  -9   4   34.80    3.15
   2  -9   4   29.77    3.35
  -3   9  -4  729.83   37.96
  -3   9  -4  718.33   37.48
  -3   9  -4  728.14   37.93
   3  -9   4  754.81   38.15
   3  -9   4  735.65   37.91
  -4   9  -4  118.23    7.18
  -4   9  -4  117.11    7.31
  -4   9  -4  122.12    6.77
   4  -9   4  110.72    7.24
   4  -9   4  126.37    7.61
  -5   9  -4   74.74    4.81
  -5   9  -4   76.86    4.51
  -5   9  -4   68.09    4.93
   5  -9   4   66.67    5.34
   5  -9   4   74.73    5.06
  -6   9  -4  137.82    8.08
  -6   9  -4  138.89    7.90
  -6   9  -4  146.00    7.97
   6  -9   4  136.95    8.41
   6  -9   4  143.44    8.82
  -7   9  -4   80.73    5.25
  -7   9  -4   84.12    4.78
  -7   9  -4   89.06    4.93
   7  -9   4   81.85    5.71
   7  -9   4   83.31    6.29
  -8   9  -4   35.61    3.36
   8  -9   4   41.98    4.78
   8  -9   4   33.49    3.76
   5   8  -4   89.23    7.48
   5   8  -4  108.19    8.04
   5   8  -4  131.96    7.97
   4   8  -4  211.22   12.92
   4   8  -4  232.31   13.08
  -4  -8   4  228.82   11.70
   3   8  -4  112.50    7.66
   3   8  -4  118.07    7.68
  -3  -8   4  124.57    6.85
  -3  -8   4  120.93    6.82
   2   8  -4    4.38    1.45
   2   8  -4    4.73    1.52
  -2  -8   4    5.85    1.13
  -2  -8   4    6.19    1.36
   1   8  -4  568.06   28.20
   1   8  -4  453.59   27.98
  -1  -8   4  559.23   27.93
  -1  -8   4  562.31   27.83
   0   8  -4  209.38   11.63
   0   8  -4  201.41   11.59
   0  -8   4  211.85   11.52
   0  -8   4  198.69   11.29
  -1   8  -4   64.29    4.68
  -1   8  -4   80.21    5.02
   1  -8   4   67.37    4.60
   1  -8   4   68.87    4.80
  -2   8  -4  332.14   17.24
  -2   8  -4  312.99   17.18
   2  -8   4  305.58   17.04
   2  -8   4  329.45   17.32
  -3   8  -4    0.05    0.90
  -3   8  -4   -0.11    1.00
  -3   8  -4    1.33    0.73
   3  -8   4   -0.37    0.83
   3  -8   4    0.26    1.13
  -4   8  -4  309.05   16.62
  -4   8  -4  320.68   16.27
  -4   8  -4  318.69   16.58
   4  -8   4  289.76   16.59
   4  -8   4  314.59   16.91
  -5   8  -4   12.44    1.76
  -5   8  -4   11.60    1.59
  -5   8  -4   11.31    1.53
   5  -8   4   10.28    1.63
   5  -8   4   12.40    1.99
  -6   8  -4   34.68    2.68
  -6   8  -4   31.85    2.68
  -6   8  -4   36.97    2.54
   6  -8   4   29.69    3.34
   6  -8   4   32.19    3.02
  -7   8  -4   16.65    2.33
   7  -8   4   17.17    2.51
   7  -8   4   14.26    2.28
  -8   8  -4    0.62    1.32
   8  -8   4    1.80    1.90
   8  -8   4    2.85    1.47
  -9   8  -4    2.12    1.81
   9  -8   4    1.30    2.31
   6   7  -4    0.03    1.92
   6   7  -4    0.91    2.60
   6   7  -4    1.97    2.09
   5   7  -4    7.38    2.14
   5   7  -4    6.69    1.94
   5   7  -4    3.57    1.92
   4   7  -4   20.26    3.00
   4   7  -4   22.08    3.06
  -4  -7   4   22.16    1.66
  -4  -7   4   24.00    1.74
   3   7  -4  104.81    7.50
   3   7  -4  121.75    7.65
  -3  -7   4  130.42    7.02
  -3  -7   4  140.90    7.05
   2   7  -4   59.82    4.14
   2   7  -4   50.72    4.03
  -2  -7   4   54.26    3.57
  -2  -7   4   50.53    3.70
   1   7  -4  471.76   24.09
   1   7  -4  479.62   24.05
  -1  -7   4  439.38   23.68
  -1  -7   4  438.49   23.81
   0   7  -4    5.67    1.27
   0   7  -4    3.33    1.04
   0  -7   4    2.94    0.93
   0  -7   4    2.54    0.97
  -1   7  -4    1.31    0.89
  -1   7  -4    0.01    0.79
   1  -7   4    0.45    0.70
   1  -7   4    1.22    0.94
  -2   7  -4   42.16    3.16
  -2   7  -4   37.70    3.12
   2  -7   4   39.34    2.99
   2  -7   4   44.19    3.33
  -3   7  -4    0.47    0.97
  -3   7  -4    1.63    0.83
   3  -7   4    0.73    0.93
   3  -7   4    0.88    0.76
  -4   7  -4    6.92    1.05
  -4   7  -4    5.69    1.16
  -4   7  -4    8.48    1.40
   4  -7   4    8.80    1.39
   4  -7   4   10.08    1.67
  -5   7  -4    0.92    0.69
  -5   7  -4   -0.17    0.80
   5  -7   4   -0.78    0.78
   5  -7   4    0.00    1.07
  -6   7  -4  239.05   12.44
  -6   7  -4  241.81   12.35
  -6   7  -4  232.74   12.74
   6  -7   4  221.14   13.09
   6  -7   4  248.59   12.93
  -7   7  -4    0.32    1.13
   7  -7   4    2.27    1.19
   7  -7   4    1.87    1.37
   7  -7   4    0.70    1.06
  -8   7  -4    5.83    1.64
   8  -7   4    6.56    1.54
   8  -7   4    7.12    1.69
   8  -7   4    7.42    2.03
  -9   7  -4  167.67   10.15
   9  -7   4  177.79   10.06
   9  -7   4  165.88   10.43
   7   6  -4    8.47    2.39
   7   6  -4    4.43    2.80
   7   6  -4   12.97    2.61
   6   6  -4   50.86    4.60
   6   6  -4   48.75    4.62
   6   6  -4   65.74    5.51
   5   6  -4    4.67    1.50
   5   6  -4    5.24    1.58
   4   6  -4  150.21    8.98
   4   6  -4  149.22    9.02
  -4  -6   4  168.13    8.14
  -4  -6   4  154.20    8.11
   3   6  -4   83.00    5.67
   3   6  -4   85.51    5.65
  -3  -6   4  100.78    5.20
  -3  -6   4   92.16    5.20
   2   6  -4   37.05    2.94
   2   6  -4   32.00    2.87
  -2  -6   4   33.86    2.48
  -2  -6   4   36.10    2.66
   1   6  -4  284.34   15.63
   1   6  -4  294.05   15.61
  -1  -6   4  292.75   15.36
  -1  -6   4  298.88   15.54
   0   6  -4  409.62   21.63
   0   6  -4  426.13   21.64
   0  -6   4  415.69   21.44
   0  -6   4  402.68   21.59
  -1   6  -4  859.46   44.71
  -1   6  -4  917.01   44.79
   1  -6   4  855.88   44.59
   1  -6   4  874.82   44.79
  -2   6  -4  495.59   25.65
  -2   6  -4  496.74   25.63
  -2   6  -4  502.66   25.42
   2  -6   4  490.00   25.74
   2  -6   4  490.96   25.56
  -3   6  -4   25.20    2.16
  -3   6  -4   22.08    1.80
  -3   6  -4   24.83    2.03
   3  -6   4   17.69    1.93
   3  -6   4   22.67    2.32
  -4   6  -4   91.54    5.93
  -4   6  -4  114.05    6.10
  -4   6  -4  108.13    6.17
   4  -6   4  106.50    6.41
   4  -6   4  112.01    6.24
  -5   6  -4  174.50    8.88
  -5   6  -4  159.01    8.94
  -5   6  -4  171.75    9.11
   5  -6   4  151.40    9.31
   5  -6   4  171.42    9.18
   5  -6   4  162.34    9.06
  -6   6  -4  130.05    6.70
  -6   6  -4  130.11    6.74
  -6   6  -4  129.17    7.43
   6  -6   4  123.83    7.34
   6  -6   4  131.46    7.65
   6  -6   4  124.03    7.32
  -7   6  -4  375.70   20.21
   7  -6   4  372.61   20.05
   7  -6   4  398.91   20.38
   7  -6   4  380.42   20.02
  -8   6  -4   21.08    3.10
   8  -6   4   24.18    2.98
   8  -6   4   23.55    2.60
   8  -6   4   20.04    2.65
  -9   6  -4    0.39    1.94
   9  -6   4    2.86    2.00
   9  -6   4    1.96    1.86
   9  -6   4    0.57    1.34
   7   5  -4   20.92    3.21
   7   5  -4   21.51    3.39
   7   5  -4   21.93    3.27
   6   5  -4  183.30   10.56
   6   5  -4  168.12    9.93
   6   5  -4  170.93    9.87
   5   5  -4  107.03    6.60
   5   5  -4  111.97    6.68
   4   5  -4    0.87    0.90
   4   5  -4    3.17    1.07
  -4  -5   4    2.13    0.38
  -4  -5   4    2.42    0.43
   3   5  -4   51.00    3.54
   3   5  -4   56.22    3.66
  -3  -5   4   49.16    3.13
   2   5  -4  495.79   26.65
   2   5  -4  514.50   26.62
  -2  -5   4  516.64   26.47
  -2  -5   4  536.34   26.36
   1   5  -4  424.29   25.09
   1   5  -4  495.98   25.15
  -1  -5   4  515.02   24.98
  -1  -5   4  511.86   25.15
   0   5  -4 1821.51   90.05
   0  -5   4 1714.68   89.88
   0  -5   4 1822.89   90.10
  -1   5  -4    2.50    0.72
  -1   5  -4    1.29    0.63
   1  -5   4    0.70    0.66
  -2   5  -4    4.18    0.87
  -2   5  -4    5.12    0.82
  -2   5  -4    2.55    0.79
   2  -5   4    2.74    0.83
  -3   5  -4    6.04    1.03
  -3   5  -4    5.51    0.89
  -3   5  -4    4.69    0.84
   3  -5   4    5.87    1.06
   3  -5   4    4.31    0.84
  -4   5  -4  724.01   35.07
  -4   5  -4  677.21   35.11
   4  -5   4  679.02   35.17
   4  -5   4  677.91   35.35
   4  -5   4  688.24   35.15
  -5   5  -4   66.36    4.34
  -5   5  -4   68.65    4.03
  -5   5  -4   71.03    3.95
   5  -5   4   69.64    4.52
   5  -5   4   66.75    4.30
   5  -5   4   70.62    4.28
  -6   5  -4   32.44    2.77
   6  -5   4   30.27    2.62
   6  -5   4   29.09    2.51
   6  -5   4   27.39    2.84
  -7   5  -4   39.79    3.42
   7  -5   4   33.95    3.29
   7  -5   4   38.98    3.21
  -8   5  -4   53.76    4.49
   8  -5   4   52.14    4.26
   8  -5   4   52.25    3.63
   8  -5   4   50.48    4.34
   9  -5   4   23.83    2.88
   9  -5   4   28.84    4.10
   8   4  -4  146.69    8.89
   8   4  -4  147.18    8.87
   8   4  -4  158.04   10.04
   7   4  -4  262.05   13.94
   7   4  -4  251.75   13.94
   6   4  -4   -0.77    1.32
   6   4  -4    0.56    0.93
   6   4  -4    0.39    0.97
   5   4  -4   32.05    2.69
   5   4  -4   34.34    2.74
   4   4  -4    7.78    1.19
   3   4  -4   20.12    1.78
   3   4  -4   17.12    1.77
  -3  -4   4   19.04    1.30
  -3  -4   4   18.82    1.46
   2   4  -4  398.23   20.39
   2   4  -4  405.20   20.49
  -2  -4   4  380.52   20.30
   1   4  -4   57.57    3.68
   1   4  -4   56.66    3.73
  -1  -4   4   65.22    3.59
  -1  -4   4   61.60    3.76
   0   4  -4  124.38    6.95
   0   4  -4  130.39    6.93
   0  -4   4  122.14    6.97
   0  -4   4  122.63    6.79
  -1   4  -4    7.74    1.00
  -1   4  -4    9.82    1.17
  -1   4  -4    9.25    1.22
   1  -4   4    8.80    1.23
   1  -4   4    8.32    1.05
  -2   4  -4  501.74   24.89
  -2   4  -4  504.33   24.98
  -2   4  -4  475.35   24.97
   2  -4   4  485.31   24.92
   2  -4   4  466.66   25.05
  -3   4  -4 1040.45   55.85
  -3   4  -4 1134.23   55.88
  -3   4  -4 1146.36   55.85
   3  -4   4 1104.91   56.02
   3  -4   4 1113.51   55.87
   3  -4   4 1095.15   55.86
  -4   4  -4  191.29   10.09
  -4   4  -4  191.51   10.27
  -4   4  -4  197.27   10.04
   4  -4   4  202.95   10.25
   4  -4   4  194.22   10.34
   4  -4   4  164.58   10.08
  -5   4  -4   13.30    1.18
  -5   4  -4   13.84    1.24
  -5   4  -4   16.86    1.84
   5  -4   4   15.18    1.81
   5  -4   4   15.73    1.60
   5  -4   4   11.85    1.79
  -6   4  -4  272.33   14.55
   6  -4   4  258.75   14.34
   6  -4   4  273.33   14.37
  -7   4  -4   43.84    3.74
   7  -4   4   43.86    3.50
   7  -4   4   42.27    3.54
   7  -4   4   41.45    2.98
  -8   4  -4   12.35    2.34
   8  -4   4   14.47    2.32
   8  -4   4   12.31    2.09
   8  -4   4   13.58    1.97
   9  -4   4   10.48    2.48
   8   3  -4   24.86    2.80
   8   3  -4   19.95    3.04
   8   3  -4   20.69    2.66
   7   3  -4  274.70   15.13
   7   3  -4  284.10   15.10
   7   3  -4  301.09   15.97
   6   3  -4   -0.95    0.69
   6   3  -4    0.92    0.73
   5   3  -4    4.83    0.93
   5   3  -4    4.50    0.94
   4   3  -4  581.81   29.44
   4   3  -4  573.54   29.53
   3   3  -4  912.33   46.91
   3   3  -4  951.30   46.83
  -3  -3   4  916.22   46.61
  -3  -3   4  925.35   46.51
   2   3  -4  183.60   10.01
   2   3  -4  209.50    9.97
  -2  -3   4  182.42    9.90
  -2  -3   4  177.32    9.70
   1   3  -4   58.96    3.67
   1   3  -4   63.86    3.63
  -1  -3   4   61.85    3.70
   0   3  -4  913.90   48.33
   0   3  -4  960.24   48.30
   0  -3   4  946.18   48.22
   0  -3   4 1003.14   48.42
  -1   3  -4   36.86    2.34
  -1   3  -4   32.84    2.30
  -1   3  -4   32.63    2.21
   1  -3   4   33.03    2.37
   1  -3   4   36.80    2.26
  -2   3  -4   75.14    4.39
  -2   3  -4   75.71    4.39
  -2   3  -4   77.62    4.43
   2  -3   4   76.06    4.40
   2  -3   4   76.83    4.37
   2  -3   4   78.18    4.51
  -3   3  -4 1561.43   76.91
  -3   3  -4 1562.70   77.06
  -3   3  -4 1477.40   76.91
   3  -3   4 1436.36   77.02
   3  -3   4 1640.67   76.97
   3  -3   4 1492.96   76.97
  -4   3  -4  374.94   19.17
  -4   3  -4  369.42   19.19
  -4   3  -4  381.76   19.57
   4  -3   4  372.99   19.45
   4  -3   4  373.63   19.44
  -5   3  -4   12.35    0.92
  -5   3  -4   15.06    1.90
  -5   3  -4   11.21    0.82
   5  -3   4   10.27    1.43
   5  -3   4   11.77    1.31
   5  -3   4   11.89    1.73
  -6   3  -4   74.21    5.00
   6  -3   4   73.73    4.36
   6  -3   4   70.18    4.66
   6  -3   4   76.62    4.89
  -7   3  -4   59.11    4.47
   7  -3   4   51.73    3.97
   7  -3   4   58.01    4.24
   7  -3   4   54.34    3.56
  -8   3  -4    6.01    2.01
   8  -3   4   10.11    1.95
   8  -3   4    7.74    1.27
   9   2  -4   12.69    1.65
   9   2  -4    5.65    2.58
   8   2  -4    9.90    1.37
   8   2  -4    9.14    2.24
   8   2  -4    9.45    1.34
   7   2  -4   62.79    4.79
   7   2  -4   65.28    3.95
   7   2  -4   65.98    4.02
   6   2  -4   51.49    3.08
   6   2  -4   48.34    3.15
   5   2  -4    2.46    0.66
   5   2  -4    0.94    0.48
   4   2  -4  519.32   25.75
   4   2  -4  494.78   25.85
   3   2  -4  737.42   36.64
   3   2  -4  749.10   36.52
  -3  -2   4  698.15   36.36
  -3  -2   4  707.02   36.27
   2   2  -4 1055.09   52.46
   2   2  -4 1071.25   52.35
  -2  -2   4 1003.49   52.20
  -2  -2   4 1029.69   52.39
   1   2  -4   32.42    2.14
   1   2  -4   33.38    2.05
  -1  -2   4   29.76    1.90
  -1  -2   4   32.73    2.17
   0   2  -4   19.26    1.40
   0   2  -4   17.42    1.37
   0   2  -4   17.72    1.42
   0  -2   4   18.15    1.29
   0  -2   4   18.82    1.48
  -1   2  -4  104.17    5.06
  -1   2  -4   86.84    4.99
  -1   2  -4   89.24    5.03
   1  -2   4   90.17    5.09
   1  -2   4   87.34    5.01
   1  -2   4   84.84    4.89
  -2   2  -4  194.49   10.33
  -2   2  -4  210.23   10.39
  -2   2  -4  194.74   10.43
   2  -2   4  194.07   10.43
   2  -2   4  180.72   10.22
   2  -2   4  207.12   10.42
  -3   2  -4  101.30    5.59
  -3   2  -4   99.61    5.58
  -3   2  -4   92.71    5.77
   3  -2   4  103.92    5.75
   3  -2   4   95.97    5.51
   3  -2   4  115.01    5.80
  -4   2  -4  119.60    6.72
  -4   2  -4  112.03    6.15
  -4   2  -4  113.96    6.15
   4  -2   4  109.89    6.21
   4  -2   4  114.11    6.51
   4  -2   4  117.47    6.46
  -5   2  -4   99.79    6.24
   5  -2   4  101.85    5.67
   5  -2   4  107.78    6.16
   5  -2   4   99.28    5.92
  -6   2  -4    2.04    1.21
   6  -2   4    1.06    0.64
   6  -2   4    0.56    0.88
   6  -2   4    3.01    1.15
  -7   2  -4    3.88    1.64
   7  -2   4    0.72    0.79
   7  -2   4    2.19    1.41
   7  -2   4    1.81    1.18
   8  -2   4   37.95    3.77
   8  -2   4   35.06    2.89
   8  -2   4   44.47    4.28
   9   1  -4    9.51    1.27
   9   1  -4   10.06    1.30
   8   1  -4    3.34    1.56
   8   1  -4    2.72    0.80
   8   1  -4    2.37    0.78
   7   1  -4  132.51    7.99
   7   1  -4  140.66    7.17
   7   1  -4  131.17    7.22
   6   1  -4  175.84    9.57
   6   1  -4  190.49    9.50
   5   1  -4   43.04    2.60
   4   1  -4  211.21   10.89
   4   1  -4  208.31   10.74
   3   1  -4   73.14    4.10
   3   1  -4   72.44    3.95
  -3  -1   4   72.07    3.89
  -3  -1   4   76.12    3.82
   2   1  -4  135.92    7.15
   2   1  -4  127.32    6.99
  -2  -1   4  137.44    6.94
  -2  -1   4  136.31    7.12
   1   1  -4  196.30    9.63
   1   1  -4  185.53    9.74
   1   1  -4  185.11    9.70
  -1  -1   4  179.56    9.75
  -1  -1   4  182.51    9.56
   0   1  -4 1296.43   61.12
   0   1  -4 1259.88   61.06
   0   1  -4 1107.22   60.94
   0  -1   4 1206.71   61.12
   0  -1   4 1135.11   60.92
   0  -1   4 1275.44   61.08
  -1   1  -4   42.30    2.79
  -1   1  -4   44.88    2.84
   1  -1   4   50.96    2.92
   1  -1   4   47.18    2.70
   1  -1   4   47.40    2.85
  -2   1  -4  148.35    7.85
  -2   1  -4  145.84    7.77
  -2   1  -4  143.97    7.97
   2  -1   4  141.10    7.89
   2  -1   4  149.65    7.90
   2  -1   4  147.66    7.71
  -3   1  -4  122.92    6.59
  -3   1  -4  115.55    6.62
  -3   1  -4  123.61    6.98
   3  -1   4  125.07    6.86
   3  -1   4  126.41    6.79
   3  -1   4  120.80    6.55
  -4   1  -4   50.47    2.99
  -4   1  -4   54.04    2.98
  -4   1  -4   51.16    3.60
   4  -1   4   53.84    3.36
   4  -1   4   51.26    3.51
   4  -1   4   43.96    3.00
  -5   1  -4  346.91   19.05
   5  -1   4  364.69   18.93
   5  -1   4  365.56   18.70
   5  -1   4  352.02   18.38
  -6   1  -4  122.82    7.59
   6  -1   4  114.05    6.56
   6  -1   4  125.78    7.35
   6  -1   4  115.78    6.96
  -7   1  -4   89.26    6.55
   7  -1   4   81.38    5.78
   7  -1   4   94.17    5.39
   7  -1   4  106.51    6.42
   8  -1   4    5.57    1.34
   8  -1   4    3.20    2.19
   8  -1   4    5.41    1.74
   9   0  -4   49.33    4.71
   9   0  -4   51.74    3.10
   9   0  -4   53.24    3.09
   8   0  -4  168.50    8.63
   8   0  -4  166.79    8.57
   8   0  -4  159.99    9.53
   7   0  -4    0.76    1.08
   6   0  -4    0.81    0.39
   6   0  -4    0.75    0.29
   5   0  -4  517.23   25.56
   5   0  -4  492.60   25.41
   4   0  -4 1276.64   64.13
   3   0  -4  275.54   13.92
   3   0  -4  274.60   14.06
  -3   0   4  269.19   13.86
  -3   0   4  275.85   13.93
   2   0  -4  764.04   40.91
   2   0  -4  814.50   41.02
   2   0  -4  837.43   41.08
  -2   0   4  781.53   40.89
  -2   0   4  871.22   41.08
   1   0  -4  437.78   22.99
   1   0  -4  475.01   23.11
   1   0  -4  436.01   22.94
  -1   0   4  447.98   22.92
  -1   0   4  457.36   23.04
  -1   0   4  464.65   23.11
   0   0  -4  970.75   48.85
   0   0  -4  992.94   48.91
   0   0  -4  916.79   48.73
   0   0   4  987.34   48.84
   0   0   4  989.48   48.90
   0   0   4  954.18   48.71
  -1   0  -4  697.16   34.97
  -1   0  -4  699.50   34.77
  -1   0  -4  679.57   34.92
   1   0   4  671.06   34.91
   1   0   4  681.63   34.73
   1   0   4  698.15   34.91
  -2   0  -4  249.20   13.90
  -2   0  -4  263.17   14.10
   2   0   4  260.61   13.99
   2   0   4  296.74   14.03
   2   0   4  266.32   13.75
  -3   0  -4   27.04    2.03
  -3   0  -4   30.22    1.95
  -3   0  -4   25.96    2.34
   3   0   4   28.82    2.19
   3   0   4   28.27    1.89
   3   0   4   25.59    2.32
  -4   0  -4    1.27    0.50
  -4   0  -4    0.59    0.87
  -4   0  -4    0.36    0.45
   4   0   4   -0.78    0.86
   4   0   4   -0.41    0.63
   4   0   4    0.18    0.47
  -5   0  -4    0.89    1.16
   5   0   4    0.13    0.57
   5   0   4    0.73    1.06
   5   0   4    0.69    1.00
  -6   0  -4  214.67   12.69
   6   0   4  240.69   12.67
   6   0   4  215.03   12.16
   6   0   4  222.13   11.80
   7   0   4   20.30    2.85
   7   0   4   15.95    2.70
   7   0   4   15.57    2.03
  10  -1  -4    7.70    2.28
   9  -1  -4   49.00    4.18
   9  -1  -4   51.74    2.73
   9  -1  -4   47.07    2.70
   8  -1  -4   56.54    3.05
   8  -1  -4   54.43    2.94
   8  -1  -4   54.83    4.02
   7  -1  -4   45.60    2.44
   7  -1  -4   44.72    2.56
   7  -1  -4   45.25    3.32
   6  -1  -4  113.51    5.87
   6  -1  -4  109.82    5.76
   5  -1  -4   74.86    4.15
   5  -1  -4   78.17    4.05
   4  -1  -4  143.55    7.24
   4  -1  -4  136.09    7.34
   3  -1  -4    1.76    0.43
   3  -1  -4    1.68    0.34
  -3   1   4    1.84    0.41
   2  -1  -4    0.52    0.28
   2  -1  -4    0.42    0.26
   2  -1  -4    0.30    0.36
  -2   1   4    0.50    0.36
  -2   1   4    0.15    0.26
   1  -1  -4 1380.64   72.00
   1  -1  -4 1452.18   71.89
  -1   1   4 1489.42   71.89
  -1   1   4 1401.79   71.98
   0  -1  -4  201.93   10.35
   0  -1  -4  212.40   10.58
   0  -1  -4  191.35   10.46
   0   1   4  191.70   10.32
   0   1   4  197.77   10.43
   0   1   4  201.26   10.52
  -1  -1  -4   24.33    1.86
  -1  -1  -4   23.40    1.61
  -1  -1  -4   21.00    1.78
   1   1   4   20.82    1.74
   1   1   4   22.90    1.58
   1   1   4   21.78    1.79
  -2  -1  -4    0.87    0.41
  -2  -1  -4    1.10    0.67
  -2  -1  -4    0.07    0.52
   2   1   4    0.89    0.45
   2   1   4    0.03    0.55
   2   1   4    0.53    0.62
  -3  -1  -4   81.20    4.91
  -3  -1  -4   82.39    5.31
   3   1   4   85.50    5.10
   3   1   4   83.32    5.23
   3   1   4   94.44    4.85
  -4  -1  -4   15.66    2.17
  -4  -1  -4   13.91    1.37
  -4  -1  -4   15.06    1.35
   4   1   4   16.84    1.53
   4   1   4   14.60    1.93
   4   1   4   14.48    2.00
  -5  -1  -4   20.84    2.78
   5   1   4   22.17    2.75
   5   1   4   20.67    2.37
   5   1   4   21.89    1.93
   6   1   4   64.61    4.04
   6   1   4   60.02    4.48
   7   1   4   -2.16    2.07
   7   1   4    0.30    1.61
   7   1   4    0.56    1.11
  10  -2  -4    3.61    1.69
   9  -2  -4    3.21    0.42
   9  -2  -4    5.25    0.84
   9  -2  -4    3.82    1.45
   8  -2  -4   26.98    2.52
   8  -2  -4   25.26    1.55
   8  -2  -4   25.68    1.66
   7  -2  -4  256.13   12.94
   7  -2  -4  262.76   13.01
   7  -2  -4  243.02   13.37
   6  -2  -4   56.23    3.30
   6  -2  -4   52.84    2.99
   6  -2  -4   52.69    3.05
   5  -2  -4    2.28    0.49
   5  -2  -4    2.20    0.46
   4  -2  -4  109.95    5.76
   4  -2  -4  109.22    5.65
  -4   2   4  103.23    5.48
  -4   2   4  102.65    5.48
  -3   2   4 1986.57   99.65
   2  -2  -4  480.24   24.60
   2  -2  -4  480.65   24.63
   2  -2  -4  489.68   24.84
  -2   2   4  476.79   24.59
  -2   2   4  506.21   24.79
  -2   2   4  481.25   24.72
   1  -2  -4 1780.65   95.32
   1  -2  -4 1942.57   95.20
  -1   2   4 1895.73   95.14
  -1   2   4 1906.01   95.19
  -1   2   4 1954.63   95.32
   0  -2  -4    0.90    0.59
   0  -2  -4    2.14    0.65
   0   2   4    2.34    0.68
   0   2   4    1.45    0.52
   0   2   4    1.48    0.49
  -1  -2  -4   53.39    3.58
  -1  -2  -4   49.08    3.52
  -1  -2  -4   60.06    3.32
   1   2   4   59.97    3.59
   1   2   4   55.15    3.34
   1   2   4   59.82    3.60
  -2  -2  -4   32.95    2.20
  -2  -2  -4   35.39    2.73
  -2  -2  -4   32.49    2.50
   2   2   4   30.81    2.57
   2   2   4   32.94    2.59
   2   2   4   35.35    2.31
  -3  -2  -4  107.81    6.00
  -3  -2  -4  106.79    6.24
  -3  -2  -4  103.89    6.65
   3   2   4  111.92    6.15
   3   2   4  111.65    6.48
   3   2   4  119.55    6.67
  -4  -2  -4    5.83    0.90
  -4  -2  -4    5.24    1.51
   4   2   4    5.97    1.66
   4   2   4    5.91    1.06
   4   2   4    5.64    1.30
   5   2   4    0.77    1.09
   5   2   4   -1.39    1.47
   5   2   4    0.36    0.87
   6   2   4   23.43    3.17
   6   2   4   20.06    2.51
   6   2   4   22.84    3.03
   7   2   4   25.17    3.85
   7   2   4   17.46    3.30
   7   2   4   22.01    3.15
  10  -3  -4  125.39    6.44
  10  -3  -4  132.48    7.51
  10  -3  -4  118.37    6.58
   9  -3  -4   77.28    4.48
   9  -3  -4   79.99    5.01
   9  -3  -4   84.27    4.36
   8  -3  -4  182.69    9.41
   8  -3  -4  180.65    9.50
   8  -3  -4  180.40    9.75
   7  -3  -4    0.91    0.62
   7  -3  -4    1.34    0.53
   7  -3  -4    1.32    0.51
   6  -3  -4  416.87   20.73
   6  -3  -4  394.12   20.74
   6  -3  -4  410.72   20.83
   5  -3  -4   42.24    2.33
   5  -3  -4   41.53    2.64
   5  -3  -4   41.08    2.54
   4  -3  -4  189.73    9.33
   4  -3  -4  181.40    9.57
   4  -3  -4  175.83    9.69
  -4   3   4  171.46    9.51
  -4   3   4  194.66    9.52
   3  -3  -4  307.04   15.25
   3  -3  -4  292.93   14.86
   3  -3  -4  277.70   15.01
  -3   3   4  273.15   15.08
  -3   3   4  308.80   15.12
   2  -3  -4  115.16    6.26
   2  -3  -4  113.82    6.21
   2  -3  -4  115.87    6.52
  -2   3   4  121.04    6.45
  -2   3   4  118.60    6.17
  -2   3   4  112.43    6.38
   1  -3  -4  767.07   38.96
   1  -3  -4  781.68   38.87
   1  -3  -4  780.66   39.19
  -1   3   4  762.87   39.10
  -1   3   4  762.86   38.90
  -1   3   4  756.99   39.01
   0  -3  -4  169.28    9.79
   0  -3  -4  179.13    9.94
   0  -3  -4  204.58    9.66
   0   3   4  191.07    9.81
   0   3   4  160.77    9.69
   0   3   4  191.16    9.95
  -1  -3  -4  208.43   10.62
  -1  -3  -4  183.93   10.92
   1   3   4  202.64   10.92
   1   3   4  210.44   11.01
   1   3   4  204.81   10.78
  -2  -3  -4  263.38   14.80
  -2  -3  -4  282.63   14.27
   2   3   4  279.10   14.73
   2   3   4  281.01   14.72
   2   3   4  266.10   14.42
  -3  -3  -4   12.47    1.34
  -3  -3  -4   11.90    1.69
  -3  -3  -4    8.77    1.72
   3   3   4   10.31    1.58
   3   3   4   11.34    1.61
   3   3   4   13.43    2.06
  -4  -3  -4    1.14    0.74
   4   3   4    4.04    1.56
   4   3   4    0.46    0.90
   4   3   4    1.92    1.21
   5   3   4  325.10   18.23
   5   3   4  355.20   18.91
   5   3   4  356.02   18.60
   6   3   4    5.34    2.26
   6   3   4   10.06    2.21
   6   3   4    7.46    1.77
  10  -4  -4   -0.86    0.82
  10  -4  -4    0.40    0.69
  10  -4  -4    0.06    1.08
   9  -4  -4   52.10    3.37
   9  -4  -4   55.12    3.29
   9  -4  -4   54.91    3.42
   8  -4  -4  273.73   13.62
   8  -4  -4  258.45   13.81
   8  -4  -4  260.27   13.70
   7  -4  -4    2.80    0.79
   7  -4  -4    2.63    0.70
   6  -4  -4   49.10    3.04
   6  -4  -4   48.23    3.16
   5  -4  -4    3.45    0.80
   5  -4  -4    5.30    0.82
  -5   4   4    4.09    0.54
  -5   4   4    4.16    0.67
   4  -4  -4   19.48    1.90
   4  -4  -4   21.48    1.74
   4  -4  -4   24.67    1.33
  -4   4   4   22.39    1.72
  -4   4   4   21.08    1.73
   3  -4  -4  368.80   18.10
   3  -4  -4  335.60   18.52
   3  -4  -4  355.98   18.32
  -3   4   4  354.94   18.40
  -3   4   4  366.03   18.05
  -3   4   4  350.71   18.43
   2  -4  -4  118.62    7.78
   2  -4  -4  146.03    7.56
   2  -4  -4  150.81    7.64
  -2   4   4  143.75    7.48
  -2   4   4  138.92    7.79
  -2   4   4  146.77    7.83
   1  -4  -4 1023.96   51.65
   1  -4  -4 1002.56   52.00
   1  -4  -4 1067.76   51.79
  -1   4   4  982.26   51.68
  -1   4   4 1027.72   51.95
  -1   4   4 1034.34   51.89
   0  -4  -4  316.36   15.22
   0  -4  -4  283.40   15.56
   0  -4  -4  288.02   15.46
   0   4   4  300.43   15.59
   0   4   4  287.96   15.43
   0   4   4  280.24   15.37
  -1  -4  -4   -0.80    0.50
  -1  -4  -4   -0.41    0.73
  -1  -4  -4   -0.87    0.79
   1   4   4   -1.02    0.77
   1   4   4   -0.99    0.64
  -2  -4  -4    9.03    1.68
  -2  -4  -4    9.60    1.31
  -2  -4  -4    6.85    1.28
   2   4   4    8.40    1.53
   2   4   4    9.37    1.64
   2   4   4    8.12    1.32
  -3  -4  -4   64.98    3.89
  -3  -4  -4   61.93    4.20
   3   4   4   59.34    4.62
   3   4   4   65.37    4.38
   3   4   4   69.13    4.74
  -4  -4  -4   44.35    3.19
   4   4   4   47.10    3.71
   4   4   4   46.19    4.11
   4   4   4   50.88    4.35
   5   4   4    6.21    2.13
   5   4   4    4.72    1.63
   5   4   4    4.84    1.86
   6   4   4   39.62    5.40
   6   4   4   41.20    4.71
   6   4   4   56.27    4.72
  10  -5  -4   49.96    2.94
  10  -5  -4   50.86    3.33
   9  -5  -4    0.64    0.76
   8  -5  -4   61.40    4.07
   8  -5  -4   73.82    4.34
   7  -5  -4  107.61    6.64
   7  -5  -4  125.22    6.59
   6  -5  -4   -0.75    0.56
   5  -5  -4  686.15   32.90
   5  -5  -4  605.28   33.00
  -5   5   4  622.26   32.72
  -5   5   4  661.55   32.66
   4  -5  -4   22.52    2.18
   4  -5  -4   24.90    2.00
  -4   5   4   25.89    2.04
  -4   5   4   22.10    1.92
   3  -5  -4    2.42    0.87
   3  -5  -4    2.54    0.71
  -3   5   4    4.75    0.97
  -3   5   4    4.17    0.58
   2  -5  -4   55.33    3.51
   2  -5  -4   60.48    4.00
   2  -5  -4   56.45    3.59
  -2   5   4   61.00    3.50
  -2   5   4   57.24    3.85
  -2   5   4   59.58    3.87
   1  -5  -4  466.41   27.55
   1  -5  -4  582.01   27.31
   1  -5  -4  527.20   27.39
  -1   5   4  536.25   27.33
  -1   5   4  525.94   27.56
  -1   5   4  556.91   27.65
   0  -5  -4  305.93   15.71
   0  -5  -4  294.39   16.16
   0   5   4  291.00   16.04
   0   5   4  312.61   16.20
   0   5   4  303.24   15.96
  -1  -5  -4  585.52   27.73
  -1  -5  -4  511.09   28.12
   1   5   4  522.88   28.19
   1   5   4  535.46   28.09
   1   5   4  548.96   28.13
  -2  -5  -4  101.35    5.56
  -2  -5  -4   90.32    5.96
   2   5   4   89.11    5.98
   2   5   4   95.97    6.22
   2   5   4  100.56    6.31
  -3  -5  -4   40.80    3.25
  -3  -5  -4   42.02    2.80
   3   5   4   37.50    3.75
   3   5   4   40.20    3.90
   3   5   4   31.27    3.40
  -4  -5  -4    3.45    0.82
   4   5   4    1.29    1.49
   4   5   4    4.62    2.04
   4   5   4    0.67    1.73
   5   5   4    5.11    2.60
   5   5   4   10.21    2.32
   5   5   4   10.39    2.52
  10  -6  -4  115.99    6.97
  10  -6  -4  116.38    6.76
   9  -6  -4   50.54    3.55
   9  -6  -4   49.53    3.75
   8  -6  -4    3.78    1.16
   8  -6  -4    3.64    1.06
   7  -6  -4  139.50    7.96
   7  -6  -4  144.26    8.14
   6  -6  -4  915.26   45.92
   6  -6  -4  859.52   45.67
  -6   6   4  896.84   45.33
  -6   6   4  920.40   45.27
   5  -6  -4   63.98    4.34
   5  -6  -4   64.23    4.13
  -5   6   4   60.83    4.02
  -5   6   4   67.98    3.98
   4  -6  -4  176.99    9.93
   4  -6  -4  186.96    9.69
  -4   6   4  165.43    9.70
  -4   6   4  178.34    9.03
  -4   6   4  172.55    9.65
   3  -6  -4  278.50   14.24
   3  -6  -4  271.89   14.57
  -3   6   4  272.18   14.45
  -3   6   4  253.66   14.33
  -3   6   4  265.33   13.84
   2  -6  -4    6.74    1.40
   2  -6  -4    6.94    1.14
  -2   6   4    6.02    1.25
  -2   6   4    8.43    1.23
  -2   6   4    6.50    1.39
   1  -6  -4   39.32    3.36
   1  -6  -4   41.40    2.92
  -1   6   4   41.43    3.32
  -1   6   4   34.56    3.14
  -1   6   4   47.79    3.05
   0  -6  -4  141.40    9.02
   0  -6  -4  166.19    8.60
   0   6   4  166.15    9.18
   0   6   4  151.08    8.83
   0   6   4  154.24    9.04
  -1  -6  -4  235.09   12.55
  -1  -6  -4  241.16   13.15
   1   6   4  227.54   13.03
   1   6   4  222.49   13.06
   1   6   4  256.05   13.32
  -2  -6  -4  126.95    7.06
  -2  -6  -4  120.40    7.54
   2   6   4  130.42    7.90
   2   6   4  114.42    7.62
   2   6   4  132.37    7.97
  -3  -6  -4   11.80    1.74
  -3  -6  -4    9.41    1.73
   3   6   4    8.91    2.05
   3   6   4    7.35    2.10
   3   6   4    9.06    2.23
  -4  -6  -4   23.21    2.21
  -4  -6  -4   23.10    2.56
   4   6   4   20.82    3.01
   4   6   4   23.69    3.45
   4   6   4   15.76    2.87
  10  -7  -4    2.17    1.36
  10  -7  -4    0.34    1.58
   9  -7  -4   53.64    4.17
   9  -7  -4   53.09    3.94
   8  -7  -4   14.11    2.26
   8  -7  -4   16.02    2.18
   7  -7  -4   10.63    1.61
   7  -7  -4    9.95    1.72
   6  -7  -4  211.32   11.92
   6  -7  -4  221.26   11.72
  -6   7   4  217.19   11.33
  -6   7   4  205.19   11.40
   5  -7  -4   97.26    6.19
   5  -7  -4   96.96    5.91
  -5   7   4   99.61    5.80
  -5   7   4   94.14    5.88
   4  -7  -4   23.71    2.70
   4  -7  -4   26.58    2.49
  -4   7   4   24.43    2.45
  -4   7   4   24.50    1.63
  -4   7   4   23.89    2.51
   3  -7  -4   -0.65    0.76
   3  -7  -4   -1.70    0.96
  -3   7   4    0.59    1.01
  -3   7   4    4.34    1.20
  -3   7   4    0.60    0.62
   2  -7  -4    0.59    1.14
   2  -7  -4   -0.30    0.83
  -2   7   4   -0.21    1.06
  -2   7   4   -1.47    1.01
  -2   7   4   -1.00    0.67
   1  -7  -4   10.27    1.88
   1  -7  -4    9.58    1.42
  -1   7   4   11.84    1.86
  -1   7   4   11.17    1.58
  -1   7   4    9.78    1.76
   0  -7  -4   50.32    4.23
   0  -7  -4   54.79    3.65
   0   7   4   55.26    4.03
   0   7   4   51.27    4.25
   0   7   4   54.30    4.35
  -1  -7  -4   52.66    4.38
  -1  -7  -4   53.07    3.70
   1   7   4   59.69    4.78
   1   7   4   59.81    4.39
   1   7   4   48.84    4.47
  -2  -7  -4    0.51    0.96
  -2  -7  -4    0.86    1.43
   2   7   4   -0.38    1.59
  -3  -7  -4   83.68    5.77
  -3  -7  -4   89.19    5.20
   3   7   4   74.23    6.24
   3   7   4   95.20    6.81
   3   7   4   83.27    6.49
  10  -8  -4    4.84    1.99
  10  -8  -4    6.62    1.83
   9  -8  -4   60.16    4.31
   9  -8  -4   47.68    4.54
   8  -8  -4  129.68    7.79
   8  -8  -4  132.64    8.12
   7  -8  -4  235.07   14.16
   7  -8  -4  260.73   14.55
  -7   8   4  266.33   13.68
  -7   8   4  284.47   13.63
   6  -8  -4  187.17   10.50
   6  -8  -4  172.72   10.11
  -6   8   4  169.36    9.92
  -6   8   4  189.47    9.88
   5  -8  -4    9.09    1.74
   5  -8  -4    5.85    1.42
  -5   8   4    7.52    1.42
  -5   8   4    6.37    1.40
   4  -8  -4  454.05   22.62
   4  -8  -4  400.49   22.87
  -4   8   4  407.48   22.74
  -4   8   4  432.45   22.68
  -4   8   4  452.35   21.92
   3  -8  -4  353.05   19.04
   3  -8  -4  386.30   19.65
  -3   8   4  381.88   19.43
  -3   8   4  350.41   18.68
  -3   8   4  333.38   19.38
   2  -8  -4   25.72    2.97
   2  -8  -4   23.29    2.41
  -2   8   4   20.06    2.96
  -2   8   4   23.00    3.03
  -2   8   4   19.05    2.29
   1  -8  -4   93.93    6.34
   1  -8  -4   97.99    5.67
  -1   8   4   84.01    5.75
  -1   8   4   94.82    6.37
  -1   8   4   86.30    6.22
   0  -8  -4    1.06    1.09
   0  -8  -4    0.95    1.39
   0   8   4   -0.46    1.30
   0   8   4    2.39    1.58
   0   8   4   -0.45    1.53
  -1  -8  -4    9.03    1.46
  -1  -8  -4    9.46    2.17
   1   8   4    8.76    2.38
   1   8   4   13.46    2.42
   1   8   4    9.79    2.15
  -2  -8  -4   17.71    2.67
  -2  -8  -4   23.32    2.52
   2   8   4   18.14    2.86
   2   8   4   19.93    3.00
   2   8   4   15.41    2.93
  -3  -8  -4   21.70    3.52
  -3  -8  -4   21.66    2.65
   3   8   4   22.31    3.52
   3   8   4   19.51    3.34
   3   8   4   18.15    3.35
   9  -9  -4    1.77    1.75
   9  -9  -4    0.32    1.87
   8  -9  -4   10.69    2.14
   8  -9  -4   10.90    2.01
   7  -9  -4  159.02    9.12
   7  -9  -4  150.96    9.40
  -7   9   4  159.20    8.48
  -7   9   4  143.50    8.57
   6  -9  -4   21.76    3.21
   6  -9  -4   23.48    2.93
  -6   9   4   22.53    2.59
  -6   9   4   18.07    2.59
   5  -9  -4   28.78    3.53
   5  -9  -4   29.54    3.13
  -5   9   4   24.53    3.15
  -5   9   4   28.90    1.67
  -5   9   4   30.44    3.04
   4  -9  -4   44.12    4.23
   4  -9  -4   48.53    3.78
  -4   9   4   48.20    4.15
  -4   9   4   54.41    4.16
  -4   9   4   44.15    3.00
   3  -9  -4   95.11    6.72
   3  -9  -4   96.77    6.23
  -3   9   4  107.77    6.80
  -3   9   4  102.45    6.81
  -3   9   4   94.42    5.78
   2  -9  -4    6.09    1.83
   2  -9  -4    9.70    1.68
  -2   9   4    7.23    1.48
  -2   9   4   11.96    2.34
  -2   9   4    8.84    2.03
   1  -9  -4  115.27    6.74
   1  -9  -4  111.66    7.53
  -1   9   4   99.70    6.93
  -1   9   4  131.54    7.98
  -1   9   4  103.31    7.47
   0  -9  -4   36.20    4.22
   0   9   4   37.86    4.32
   0   9   4   32.22    4.03
   0   9   4   48.54    4.72
  -1  -9  -4    4.56    2.00
   1   9   4    4.38    2.33
   1   9   4    4.80    2.35
   1   9   4   -0.77    2.02
  -2  -9  -4   -0.89    1.99
   2   9   4    0.27    2.81
   2   9   4   -1.37    2.77
   9 -10  -4  100.81    6.74
   9 -10  -4   81.09    7.04
   8 -10  -4    8.78    2.40
  -8  10   4    6.92    1.07
  -8  10   4    5.06    0.96
   7 -10  -4   98.22    7.21
   7 -10  -4  121.99    7.06
  -7  10   4   87.54    6.27
  -7  10   4  102.99    6.27
   6 -10  -4   23.48    3.82
  -6  10   4   22.99    3.03
  -6  10   4   21.81    3.08
   5 -10  -4   77.86    6.17
  -5  10   4   89.41    5.95
  -5  10   4   73.74    5.93
  -5  10   4   84.57    4.45
   4 -10  -4   22.05    3.54
   4 -10  -4   31.72    3.43
  -4  10   4   33.99    3.77
  -4  10   4   29.07    3.75
  -4  10   4   27.40    2.37
   3 -10  -4   31.24    3.20
  -3  10   4   24.87    2.70
  -3  10   4   28.66    3.91
   2 -10  -4    0.09    1.31
   2 -10  -4   -0.56    1.80
  -2  10   4   -2.08    1.83
  -2  10   4    0.21    1.35
  -2  10   4   -0.60    2.03
   1 -10  -4   24.46    4.09
   1 -10  -4   28.10    3.19
  -1  10   4   35.66    4.54
  -1  10   4   27.16    4.23
  -1  10   4   31.43    3.71
   0 -10  -4    1.89    1.54
   0 -10  -4    3.02    2.21
   0  10   4    3.01    2.26
   0  10   4    0.56    2.32
   0  10   4    1.64    2.29
   8 -11  -4    3.11    2.62
   8 -11  -4    6.74    2.31
  -8  11   4    2.20    1.33
  -8  11   4    1.95    1.33
   7 -11  -4   49.69    5.87
   7 -11  -4   60.89    5.45
  -7  11   4   75.69    5.06
  -7  11   4   70.00    5.21
   6 -11  -4   55.00    5.94
   6 -11  -4   73.37    5.44
  -6  11   4   63.54    5.22
  -6  11   4   67.77    5.43
   5 -11  -4   81.20    5.80
   5 -11  -4   68.38    6.24
  -5  11   4   80.82    4.33
  -5  11   4   68.50    6.20
   4 -11  -4  163.00   10.79
   4 -11  -4  184.11   10.25
  -4  11   4  170.16   10.56
  -4  11   4  171.64    9.38
  -4  11   4  159.73   10.73
   3 -11  -4   74.65    5.39
   3 -11  -4   66.45    6.08
  -3  11   4   71.59    4.92
  -3  11   4   69.61    6.29
  -3  11   4   69.63    6.23
   2 -11  -4   99.11    7.87
   2 -11  -4  109.39    7.06
  -2  11   4  111.46    8.23
  -2  11   4  110.31    8.16
  -2  11   4  110.52    7.12
   1 -11  -4   -2.75    2.49
   1 -11  -4   -2.90    1.50
  -1  11   4   -0.46    2.68
  -1  11   4    1.47    2.10
   6 -12  -4  138.92    8.51
   6 -12  -4  100.98    9.58
  -6  12   4  134.74    8.48
  -6  12   4  118.24    8.51
   5 -12  -4   24.75    3.92
   5 -12  -4   10.57    3.34
  -5  12   4   17.13    2.90
  -5  12   4   15.86    3.06
   4 -12  -4    6.02    2.27
  -4  12   4    5.55    1.58
  -4  12   4    5.52    2.88
  -4  12   4    2.27    2.67
  -1  13  -5    1.67    2.71
   1 -13   5   -1.53    2.17
   1 -13   5    2.66    2.39
  -2  13  -5   97.91    7.88
  -2  13  -5  116.14    8.21
   2 -13   5   89.87    7.39
   2 -13   5  106.87    7.86
  -3  13  -5   90.79    6.00
  -3  13  -5   81.46    6.85
  -3  13  -5   89.23    7.41
   3 -13   5   72.18    6.49
   3 -13   5   87.63    7.25
  -4  13  -5    3.32    1.68
  -4  13  -5    3.20    2.70
  -4  13  -5   -1.58    2.28
   4 -13   5    0.15    2.62
   4 -13   5   -2.23    2.27
  -5  13  -5   77.59    6.47
  -5  13  -5   83.85    6.86
  -5  13  -5   77.37    5.38
   5 -13   5   77.43    7.18
   1  12  -5    1.10    2.91
   1  12  -5    0.57    2.57
  -1 -12   5    0.24    2.13
  -1 -12   5   -0.27    1.77
   0  12  -5    9.95    2.81
   0  12  -5    6.58    2.45
   0 -12   5    8.87    2.55
   0 -12   5    6.80    2.07
  -1  12  -5   41.67    5.02
  -1  12  -5   39.38    4.91
   1 -12   5   45.18    4.84
   1 -12   5   39.23    4.37
  -2  12  -5   21.90    3.32
  -2  12  -5   18.49    2.99
   2 -12   5   16.23    2.74
   2 -12   5   17.26    3.12
  -3  12  -5    3.04    1.56
  -3  12  -5    5.71    2.00
  -3  12  -5    5.61    2.28
   3 -12   5    9.92    2.56
   3 -12   5    3.98    2.11
  -4  12  -5   -0.26    1.24
  -4  12  -5   -2.82    1.60
  -4  12  -5   -1.73    1.90
   4 -12   5    1.14    2.35
  -5  12  -5   10.33    1.73
  -5  12  -5    8.42    2.18
   5 -12   5    9.38    2.68
   5 -12   5    4.97    2.25
  -6  12  -5   24.05    3.10
  -6  12  -5   23.93    3.63
  -6  12  -5   20.06    2.81
   6 -12   5   17.06    2.99
   6 -12   5   33.08    5.16
   2  11  -5    1.47    2.54
   2  11  -5    6.06    2.84
  -2 -11   5    4.82    1.86
  -2 -11   5    6.67    1.92
   1  11  -5    0.80    2.14
   1  11  -5    1.36    2.08
  -1 -11   5   -0.63    1.47
   0  11  -5   92.88    7.22
   0  11  -5  112.87    7.58
   0 -11   5  102.36    6.79
  -1  11  -5  165.97   10.05
  -1  11  -5  148.28    9.75
   1 -11   5  153.96    9.40
  -2  11  -5  389.04   18.95
  -2  11  -5  307.48   18.45
   2 -11   5  349.20   18.75
   2 -11   5  298.20   18.16
  -3  11  -5   30.79    3.78
  -3  11  -5   23.40    3.55
  -3  11  -5   31.83    2.96
   3 -11   5   25.66    3.37
  -4  11  -5   90.33    5.55
  -4  11  -5   87.00    6.15
  -4  11  -5   85.28    6.38
   4 -11   5   82.30    6.16
   4 -11   5   90.78    6.71
  -5  11  -5   95.80    6.70
  -5  11  -5  113.63    7.15
  -5  11  -5  102.94    6.22
   5 -11   5  110.29    7.53
   5 -11   5   89.11    6.84
  -6  11  -5    4.83    1.63
  -6  11  -5    5.68    1.42
  -6  11  -5    8.35    1.98
   6 -11   5    9.22    2.79
   6 -11   5    6.78    1.97
  -7  11  -5   54.58    4.26
  -7  11  -5   41.78    3.79
  -7  11  -5   45.83    3.73
   7 -11   5   45.19    4.82
   7 -11   5   47.60    5.83
   3  10  -5   20.71    3.47
   3  10  -5   29.26    4.80
  -3 -10   5   28.44    2.97
  -3 -10   5   28.16    2.93
   2  10  -5    5.02    2.05
   2  10  -5    9.55    2.44
  -2 -10   5    6.78    1.66
  -2 -10   5    4.85    1.48
   1  10  -5  134.59    8.07
   1  10  -5  103.75    7.76
  -1 -10   5  115.11    7.17
  -1 -10   5  111.97    7.38
   0  10  -5    7.94    2.04
   0  10  -5    5.64    1.76
   0 -10   5   10.17    2.13
   0 -10   5    6.45    1.58
  -1  10  -5  186.71   11.34
  -1  10  -5  185.28   11.37
   1 -10   5  205.77   11.46
   1 -10   5  195.10   11.10
  -2  10  -5   92.43    6.13
  -2  10  -5   80.82    5.84
   2 -10   5   89.22    6.18
   2 -10   5   73.89    5.59
  -3  10  -5   11.11    2.10
  -3  10  -5    9.45    1.53
  -3  10  -5    8.00    1.80
   3 -10   5    8.54    1.81
   3 -10   5    8.80    2.01
  -4  10  -5    6.94    1.66
  -4  10  -5    4.95    1.25
  -4  10  -5    5.70    1.55
   4 -10   5    2.69    1.34
   4 -10   5    5.35    1.88
  -5  10  -5  103.51    6.26
  -5  10  -5   87.45    5.51
  -5  10  -5   86.51    5.85
   5 -10   5   84.06    6.02
   5 -10   5   86.93    6.55
  -6  10  -5   12.30    2.03
  -6  10  -5   10.47    1.71
  -6  10  -5    9.69    1.63
   6 -10   5   10.98    2.09
  -7  10  -5   32.82    3.26
  -7  10  -5   31.20    3.22
  -7  10  -5   36.96    2.94
   7 -10   5   39.41    4.99
   7 -10   5   37.19    3.97
  -8  10  -5   59.86    4.82
   8 -10   5   59.81    5.32
   8 -10   5   68.19    6.51
   4   9  -5   -0.21    2.23
   4   9  -5    1.51    2.25
  -4  -9   5   -0.09    0.88
  -4  -9   5    0.14    0.75
   3   9  -5   25.15    3.75
   3   9  -5   17.87    2.96
  -3  -9   5   25.47    2.68
  -3  -9   5   29.15    2.62
   2   9  -5   31.95    3.68
   2   9  -5   21.60    3.40
  -2  -9   5   24.79    2.67
  -2  -9   5   20.37    2.84
   1   9  -5    4.62    1.70
   1   9  -5    3.97    1.61
  -1  -9   5    5.56    1.54
  -1  -9   5    3.97    1.17
   0   9  -5   10.94    1.96
   0   9  -5   11.04    1.94
   0  -9   5   12.77    1.93
   0  -9   5   13.92    2.17
  -1   9  -5   13.66    2.25
  -1   9  -5   11.76    2.01
   1  -9   5   15.00    2.26
   1  -9   5   17.13    2.28
  -2   9  -5   -0.66    1.29
  -2   9  -5    0.80    1.23
   2  -9   5    1.16    1.29
   2  -9   5    0.81    1.02
  -3   9  -5    0.71    1.06
  -3   9  -5    0.75    1.17
  -3   9  -5    1.41    0.94
   3  -9   5    1.10    1.15
   3  -9   5    2.12    1.53
  -4   9  -5  465.03   25.45
  -4   9  -5  502.76   25.18
  -4   9  -5  497.63   25.63
   4  -9   5  456.41   25.49
   4  -9   5  506.49   25.93
  -5   9  -5  327.57   17.33
  -5   9  -5  325.60   17.17
  -5   9  -5  316.22   16.95
   5  -9   5  305.60   17.33
   5  -9   5  330.59   17.81
  -6   9  -5   72.24    4.89
  -6   9  -5   74.84    4.79
  -6   9  -5   75.31    5.09
   6  -9   5   73.01    5.79
   6  -9   5   81.86    5.38
  -7   9  -5    5.53    1.52
  -7   9  -5    4.95    1.01
  -7   9  -5    6.63    1.15
   7  -9   5    5.31    1.63
   7  -9   5    7.57    2.14
  -8   9  -5   15.62    2.34
   8  -9   5   20.59    2.67
   8  -9   5   17.11    3.05
   5   8  -5  193.81   12.81
   5   8  -5  244.26   13.09
   4   8  -5  605.71   32.51
   4   8  -5  636.87   32.51
  -4  -8   5  597.95   31.30
  -4  -8   5  626.83   31.35
   3   8  -5   81.32    5.97
   3   8  -5   78.66    5.98
  -3  -8   5   83.50    5.18
  -3  -8   5   87.57    5.07
   2   8  -5    4.36    1.59
   2   8  -5    7.14    1.67
  -2  -8   5    7.99    1.51
  -2  -8   5   12.76    1.82
   1   8  -5   24.29    3.08
   1   8  -5   29.22    3.11
  -1  -8   5   35.04    2.74
  -1  -8   5   27.58    2.96
   0   8  -5  144.20    8.32
   0   8  -5  131.07    8.19
   0  -8   5  133.07    8.15
   0  -8   5  138.88    7.92
  -1   8  -5  147.40    8.81
  -1   8  -5  156.06    8.86
   1  -8   5  144.57    8.55
   1  -8   5  150.75    8.86
  -2   8  -5   20.84    2.74
  -2   8  -5   20.19    2.51
  -2   8  -5   25.05    2.21
   2  -8   5   20.98    2.62
   2  -8   5   22.82    2.40
  -3   8  -5   99.08    5.95
  -3   8  -5   94.10    5.59
  -3   8  -5   82.65    5.91
   3  -8   5  101.09    5.93
   3  -8   5   91.75    6.17
  -4   8  -5  278.79   14.88
  -4   8  -5  277.11   15.08
  -4   8  -5  291.87   15.25
   4  -8   5  287.84   15.52
   4  -8   5  267.55   15.14
  -5   8  -5   57.94    3.88
  -5   8  -5   50.31    3.74
  -5   8  -5   53.54    4.05
   5  -8   5   57.44    4.55
   5  -8   5   59.43    4.16
  -6   8  -5  246.84   13.49
  -6   8  -5  242.98   13.61
  -6   8  -5  252.17   13.37
   6  -8   5  275.35   14.37
   6  -8   5  246.26   13.81
  -7   8  -5   17.94    1.41
  -7   8  -5   14.88    1.27
  -7   8  -5   12.77    1.99
   7  -8   5   14.70    2.52
   7  -8   5   16.01    2.21
  -8   8  -5   10.88    2.11
   8  -8   5   10.34    2.04
   8  -8   5   16.21    2.78
   6   7  -5    4.76    2.08
   6   7  -5    5.36    2.36
   6   7  -5    4.58    2.57
   5   7  -5    7.01    1.96
   5   7  -5    7.37    2.01
   4   7  -5  329.85   18.22
   4   7  -5  340.30   18.35
  -4  -7   5  333.61   17.25
  -4  -7   5  343.30   17.32
   3   7  -5  370.64   19.70
   3   7  -5  363.96   19.62
  -3  -7   5  363.31   19.07
   2   7  -5  117.74    7.29
   2   7  -5  113.24    7.25
  -2  -7   5  114.57    6.96
  -2  -7   5  127.70    6.82
   1   7  -5  741.84   37.33
   1   7  -5  745.44   37.29
  -1  -7   5  685.11   36.87
  -1  -7   5  714.91   37.13
   0   7  -5    7.00    1.47
   0   7  -5    6.84    1.37
   0  -7   5    7.57    1.48
   0  -7   5    7.85    1.27
  -1   7  -5    0.65    0.84
  -1   7  -5    0.47    0.86
   1  -7   5   -0.64    0.90
   1  -7   5    0.01    0.70
  -2   7  -5   69.82    4.63
  -2   7  -5   67.47    4.33
  -2   7  -5   70.80    4.67
   2  -7   5   73.17    4.54
   2  -7   5   69.45    4.77
  -3   7  -5   64.76    4.29
  -3   7  -5   57.80    4.10
  -3   7  -5   63.23    3.91
   3  -7   5   61.56    4.44
   3  -7   5   60.38    4.09
  -4   7  -5    2.03    0.89
  -4   7  -5    2.46    1.04
  -4   7  -5    1.92    0.93
   4  -7   5    1.02    1.23
   4  -7   5    1.08    0.91
  -5   7  -5   60.54    3.84
  -5   7  -5   57.58    4.03
  -5   7  -5   55.86    3.96
   5  -7   5   57.92    4.48
   5  -7   5   63.79    4.19
  -6   7  -5  118.40    7.19
  -6   7  -5  127.35    6.86
  -6   7  -5  125.48    6.73
   6  -7   5  126.95    7.29
   6  -7   5  108.39    7.48
  -7   7  -5    8.66    1.81
   7  -7   5   12.31    2.31
   7  -7   5   13.99    2.00
   7  -7   5   11.51    1.89
  -8   7  -5   27.25    3.55
   8  -7   5   27.01    3.95
   8  -7   5   20.91    3.31
   7   6  -5   61.99    6.18
   7   6  -5   62.43    5.58
   7   6  -5   58.20    5.50
   6   6  -5   26.01    3.52
   6   6  -5   24.83    3.52
   5   6  -5   -0.51    1.19
   5   6  -5    1.67    1.35
   4   6  -5   21.10    2.60
   4   6  -5   19.99    2.57
  -4  -6   5   20.73    1.47
  -4  -6   5   19.52    1.58
   3   6  -5   15.98    2.28
   3   6  -5   22.54    2.41
  -3  -6   5   17.20    1.83
   2   6  -5  353.51   19.10
   2   6  -5  339.63   18.99
  -2  -6   5  356.73   18.67
  -2  -6   5  390.02   18.95
   1   6  -5  216.24   12.12
   1   6  -5  227.07   12.21
  -1  -6   5  213.36   12.06
  -1  -6   5  231.49   11.88
   0   6  -5   70.08    4.54
   0   6  -5   64.93    4.47
   0  -6   5   72.93    4.32
   0  -6   5   68.60    4.56
  -1   6  -5   56.47    3.88
  -1   6  -5   58.30    3.89
   1  -6   5   59.21    4.02
   1  -6   5   54.08    3.67
  -2   6  -5   54.55    3.59
  -2   6  -5   52.44    3.38
  -2   6  -5   45.01    3.53
   2  -6   5   51.86    3.47
   2  -6   5   56.06    3.84
  -3   6  -5    3.43    0.78
  -3   6  -5    2.62    0.93
  -3   6  -5    3.09    0.88
   3  -6   5    3.02    0.86
   3  -6   5    3.21    1.10
  -4   6  -5  372.11   19.88
  -4   6  -5  380.93   19.81
  -4   6  -5  390.45   19.80
   4  -6   5  374.20   19.87
   4  -6   5  382.06   20.16
  -5   6  -5  396.82   20.53
  -5   6  -5  392.39   20.35
  -5   6  -5  408.64   20.26
   5  -6   5  377.82   20.74
   5  -6   5  383.61   20.46
   5  -6   5  387.79   20.48
  -6   6  -5  163.14    9.31
  -6   6  -5  159.17    8.57
  -6   6  -5  168.62    8.66
   6  -6   5  157.42    9.48
   6  -6   5  164.97    9.16
   6  -6   5  162.67    9.23
  -7   6  -5  293.78   15.68
   7  -6   5  258.21   15.62
   7  -6   5  307.58   15.55
  -8   6  -5   25.33    3.55
   8  -6   5   19.00    2.70
   8  -6   5   22.00    2.73
   8  -6   5   19.29    2.61
   7   5  -5    9.42    2.45
   7   5  -5    3.43    1.70
   7   5  -5    1.07    1.52
   6   5  -5   -0.92    1.20
   6   5  -5    0.18    1.23
   5   5  -5  148.52    8.59
   5   5  -5  150.25    8.67
   4   5  -5  216.56   12.47
   4   5  -5  235.50   12.62
  -4  -5   5  237.30   11.86
  -4  -5   5  232.91   11.79
   3   5  -5   68.43    4.44
   3   5  -5   66.18    4.35
  -3  -5   5   66.75    3.83
  -3  -5   5   68.28    4.05
   2   5  -5   12.73    1.71
   2   5  -5   11.39    1.63
  -2  -5   5    9.55    1.49
   1   5  -5 4558.80  228.64
   0   5  -5   60.04    4.00
   0   5  -5   65.84    4.07
   0  -5   5   66.18    4.16
   0  -5   5   59.38    3.81
  -1   5  -5   86.04    5.30
  -1   5  -5   97.41    5.53
  -1   5  -5   87.75    5.45
   1  -5   5   94.49    5.35
   1  -5   5   96.44    5.60
  -2   5  -5  787.05   38.90
  -2   5  -5  741.64   39.02
  -2   5  -5  742.08   38.99
   2  -5   5  783.26   38.95
   2  -5   5  767.96   39.17
  -3   5  -5   18.12    1.68
  -3   5  -5   15.64    1.82
  -3   5  -5   21.64    1.85
   3  -5   5   19.98    1.84
   3  -5   5   16.44    2.02
  -4   5  -5    9.43    1.35
  -4   5  -5    9.25    1.49
  -4   5  -5    8.20    1.32
   4  -5   5    8.73    1.50
   4  -5   5   10.84    1.50
   4  -5   5    9.44    1.44
  -5   5  -5  542.13   27.80
  -5   5  -5  537.44   28.15
  -5   5  -5  556.81   27.74
   5  -5   5  525.35   28.03
   5  -5   5  512.88   28.19
   5  -5   5  583.78   28.05
  -6   5  -5   57.62    4.16
   6  -5   5   53.27    4.12
   6  -5   5   52.88    3.95
  -7   5  -5    0.98    1.32
   7  -5   5   -0.92    1.28
   7  -5   5    0.99    0.91
   7  -5   5    0.37    1.34
  -8   5  -5  119.70    7.84
   8  -5   5  126.19    7.69
   8  -5   5  114.86    7.66
   8  -5   5  117.90    7.02
   8   4  -5   55.14    4.68
   8   4  -5   59.45    4.74
   8   4  -5   64.48    5.73
   6   4  -5   14.91    2.28
   6   4  -5   19.60    2.25
   5   4  -5   56.56    3.84
   5   4  -5   58.84    3.96
   4   4  -5   60.62    4.01
   4   4  -5   59.34    3.89
  -4  -4   5   60.95    3.23
  -4  -4   5   63.28    3.31
   3   4  -5  202.83   10.75
  -3  -4   5  197.27   10.55
  -3  -4   5  200.10   10.35
   2   4  -5    1.34    0.65
   2   4  -5    1.14    0.60
  -2  -4   5    1.01    0.42
  -2  -4   5    1.45    0.66
   1   4  -5  380.74   21.44
   1   4  -5  440.18   21.46
  -1  -4   5  422.04   21.50
   0   4  -5  345.80   19.40
   0   4  -5  380.46   19.42
   0  -4   5  384.76   19.54
   0  -4   5  384.63   19.31
  -1   4  -5  206.59   10.67
  -1   4  -5  200.03   10.64
  -1   4  -5  201.23   10.54
   1  -4   5  180.04   10.47
   1  -4   5  202.77   10.77
  -2   4  -5   59.01    4.19
  -2   4  -5   75.99    4.41
  -2   4  -5   79.72    4.40
   2  -4   5   68.55    4.44
   2  -4   5   77.17    4.31
  -3   4  -5  249.70   14.06
  -3   4  -5  272.99   14.06
  -3   4  -5  268.22   14.12
   3  -4   5  259.24   14.09
   3  -4   5  290.04   14.12
   3  -4   5  263.47   14.25
  -4   4  -5  296.26   15.21
  -4   4  -5  283.16   15.24
  -4   4  -5  291.97   15.46
   4  -4   5  291.02   15.39
   4  -4   5  294.52   15.53
  -5   4  -5   19.58    1.69
  -5   4  -5   17.80    1.60
  -5   4  -5   21.50    2.27
   5  -4   5   14.82    2.20
   5  -4   5   20.16    2.12
   5  -4   5   16.27    1.77
  -6   4  -5    3.31    1.36
   6  -4   5    1.61    1.18
   6  -4   5    3.73    0.90
   6  -4   5    4.32    1.31
  -7   4  -5    7.15    1.84
   7  -4   5    5.49    1.61
   7  -4   5    4.55    1.07
   7  -4   5    5.08    1.65
  -8   4  -5   10.53    2.34
   8  -4   5    9.99    2.16
   8  -4   5    9.80    1.57
   8   3  -5  118.93    7.24
   8   3  -5  128.62    8.28
   8   3  -5  120.66    7.19
   7   3  -5   -1.03    1.69
   7   3  -5    1.56    1.04
   7   3  -5    1.09    0.96
   6   3  -5    4.01    0.93
   5   3  -5   30.81    2.42
   5   3  -5   29.65    2.30
   4   3  -5   21.60    1.82
   4   3  -5   23.53    1.99
   3   3  -5    1.05    0.58
   3   3  -5    0.21    0.45
  -3  -3   5    0.24    0.44
   2   3  -5  301.89   16.79
   2   3  -5  340.38   16.75
  -2  -3   5  323.56   16.52
  -2  -3   5  326.11   16.78
   1   3  -5 1140.32   52.69
   1   3  -5 1002.94   52.70
  -1  -3   5  990.20   52.46
  -1  -3   5 1033.99   52.74
   0   3  -5  626.67   31.04
   0   3  -5  588.68   31.01
   0   3  -5  619.45   31.11
   0  -3   5  625.21   30.91
   0  -3   5  584.04   31.13
  -1   3  -5  134.67    7.44
  -1   3  -5  135.72    7.37
  -1   3  -5  127.88    7.38
   1  -3   5  132.83    7.40
   1  -3   5  146.79    7.59
   1  -3   5  134.80    7.27
  -2   3  -5  579.54   26.70
  -2   3  -5  566.22   26.69
  -2   3  -5  440.15   26.55
   2  -3   5  446.11   26.43
   2  -3   5  540.50   26.68
   2  -3   5  548.28   26.80
  -3   3  -5   -0.15    0.65
  -3   3  -5   -0.29    0.50
  -3   3  -5    0.84    0.63
   3  -3   5   -0.01    0.60
   3  -3   5    0.89    0.70
   3  -3   5   -0.12    0.47
  -4   3  -5  339.62   18.21
  -4   3  -5  372.44   18.25
  -4   3  -5  345.58   18.58
   4  -3   5  344.77   18.48
   4  -3   5  360.43   18.23
   4  -3   5  350.71   18.46
  -5   3  -5   18.36    2.29
  -5   3  -5   16.52    1.46
  -5   3  -5   16.17    1.48
   5  -3   5   18.47    2.19
   5  -3   5   17.09    1.72
   5  -3   5   18.44    2.21
  -6   3  -5   -1.77    1.16
   6  -3   5    0.87    0.73
   6  -3   5    2.25    1.32
   6  -3   5    0.37    1.03
  -7   3  -5    7.19    1.82
   7  -3   5    3.56    1.47
   7  -3   5    4.52    1.64
   7  -3   5    3.24    1.06
  -8   3  -5   56.37    5.16
   8  -3   5   49.45    4.80
   8  -3   5   58.88    5.02
   8  -3   5   51.13    3.84
   9   2  -5   78.46    5.49
   9   2  -5  100.38    5.64
   9   2  -5   95.36    7.00
   8   2  -5    7.49    1.28
   8   2  -5    8.45    2.27
   8   2  -5    9.30    1.30
   7   2  -5  167.37    8.91
   7   2  -5  159.23    8.79
   6   2  -5   13.18    1.55
   6   2  -5   12.40    1.37
   5   2  -5  183.81    9.88
   5   2  -5  186.30    9.75
   4   2  -5    0.94    0.58
   4   2  -5    2.08    0.55
   3   2  -5  107.51    6.19
   3   2  -5  122.02    6.12
  -3  -2   5  107.95    5.84
  -3  -2   5  110.85    6.05
   2   2  -5  474.92   23.03
   2   2  -5  442.54   23.10
  -2  -2   5  462.67   23.10
  -2  -2   5  422.30   22.82
   1   2  -5  789.54   40.24
   1   2  -5  760.92   40.27
   1   2  -5  829.09   40.22
  -1  -2   5  838.46   40.37
  -1  -2   5  754.05   40.06
   0   2  -5   21.72    1.62
   0   2  -5   18.74    1.64
   0   2  -5   21.52    1.62
   0  -2   5   19.32    1.46
   0  -2   5   19.72    1.73
  -1   2  -5 1326.46   63.81
  -1   2  -5 1245.72   63.81
  -1   2  -5 1261.73   63.84
   1  -2   5 1259.44   63.68
   1  -2   5 1239.10   63.90
   1  -2   5 1259.04   63.83
  -2   2  -5    1.15    0.55
  -2   2  -5    1.42    0.63
   2  -2   5    1.91    0.54
   2  -2   5    0.89    0.62
   2  -2   5    0.55    0.62
  -3   2  -5  176.91    9.76
  -3   2  -5  177.08    9.50
  -3   2  -5  184.49    9.56
   3  -2   5  177.92    9.66
   3  -2   5  181.18    9.69
   3  -2   5  168.32    9.39
  -4   2  -5  433.40   22.73
  -4   2  -5  449.59   23.24
  -4   2  -5  447.08   22.72
   4  -2   5  457.06   23.09
   4  -2   5  425.30   22.71
   4  -2   5  448.23   23.03
  -5   2  -5  475.21   24.46
  -5   2  -5  504.23   25.47
  -5   2  -5  479.44   24.47
   5  -2   5  492.11   25.22
   5  -2   5  468.20   24.75
   5  -2   5  481.50   25.11
  -6   2  -5   52.19    4.49
   6  -2   5   55.76    3.57
   6  -2   5   57.85    4.36
   6  -2   5   54.75    4.07
  -7   2  -5   46.78    4.36
   7  -2   5   40.47    3.22
   7  -2   5   51.21    3.99
   8  -2   5   57.04    5.00
   8  -2   5   59.24    5.39
   8  -2   5   50.02    4.01
   9   1  -5   45.94    3.19
   9   1  -5   43.79    3.20
   9   1  -5   49.68    4.69
   8   1  -5   67.86    3.99
   8   1  -5   65.36    4.05
   8   1  -5   69.75    5.09
   7   1  -5  151.46    7.84
   7   1  -5  143.40    7.94
   6   1  -5  131.75    7.13
   5   1  -5  329.54   16.48
   5   1  -5  308.74   16.27
   4   1  -5  324.17   16.38
   4   1  -5  310.23   16.18
   3   1  -5   35.37    2.45
   3   1  -5   39.51    2.31
  -3  -1   5   37.25    2.18
  -3  -1   5   42.31    2.41
   2   1  -5  315.06   16.29
   2   1  -5  305.86   16.43
  -2  -1   5  335.51   16.48
  -2  -1   5  316.73   16.21
   1   1  -5  526.35   25.17
   1   1  -5  498.45   25.22
   1   1  -5  467.54   25.04
  -1  -1   5  503.72   25.25
  -1  -1   5  470.23   24.98
   0   1  -5  448.76   22.92
   0   1  -5  439.01   22.96
   0   1  -5  427.85   22.81
   0  -1   5  440.40   23.00
   0  -1   5  464.41   22.79
   0  -1   5  466.00   22.95
  -1   1  -5  894.70   44.22
  -1   1  -5  868.87   44.22
   1  -1   5  876.22   44.01
   1  -1   5  873.44   44.24
   1  -1   5  846.35   44.16
  -2   1  -5   18.06    1.72
  -2   1  -5   23.11    1.73
  -2   1  -5   19.15    1.82
   2  -1   5   19.17    1.81
   2  -1   5   18.58    1.75
   2  -1   5   20.55    1.56
  -3   1  -5   40.18    2.68
  -3   1  -5   40.13    2.58
  -3   1  -5   37.84    2.97
   3  -1   5   36.18    2.76
   3  -1   5   38.02    2.83
   3  -1   5   37.05    2.48
  -4   1  -5   16.07    1.59
  -4   1  -5   17.66    1.65
  -4   1  -5   17.02    2.28
   4  -1   5   18.01    1.62
   4  -1   5   17.09    2.03
   4  -1   5   19.19    2.20
  -5   1  -5  173.34    9.21
  -5   1  -5  171.23    9.20
  -5   1  -5  188.33   10.46
   5  -1   5  183.34    9.64
   5  -1   5  182.96   10.22
   5  -1   5  180.58   10.01
  -6   1  -5    6.75    1.91
   6  -1   5   10.72    1.71
   6  -1   5   12.26    2.13
   6  -1   5   10.28    1.60
  -7   1  -5   56.27    5.47
   7  -1   5   64.38    4.92
   7  -1   5   63.62    5.14
   7  -1   5   72.43    4.34
   9   0  -5   43.49    2.94
   9   0  -5   50.00    2.96
   9   0  -5   49.28    4.40
   8   0  -5  469.82   24.20
   8   0  -5  495.99   24.14
   8   0  -5  459.84   24.94
   7   0  -5  542.10   27.57
   7   0  -5  543.72   27.43
   6   0  -5    1.26    0.50
   6   0  -5    0.81    0.36
   5   0  -5    5.62    0.74
   5   0  -5    6.23    0.91
   4   0  -5 1025.85   50.38
   4   0  -5  977.86   50.52
   3   0  -5    1.36    0.46
   3   0  -5    0.23    0.31
  -3   0   5    0.41    0.27
  -3   0   5   -0.14    0.35
   2   0  -5  270.79   14.24
   2   0  -5  266.60   14.15
   2   0  -5  270.11   14.08
  -2   0   5  276.65   14.25
  -2   0   5  287.02   14.06
   1   0  -5  371.92   18.25
   1   0  -5  352.60   18.30
   1   0  -5  358.37   18.41
  -1   0   5  355.58   18.41
  -1   0   5  350.64   18.32
  -1   0   5  350.43   18.18
   0   0  -5    4.95    0.81
   0   0  -5    4.29    0.81
   0   0  -5    6.76    0.88
   0   0   5    5.49    0.81
   0   0   5    6.78    0.80
   0   0   5    5.14    0.85
  -1   0  -5 1309.69   64.40
  -1   0  -5 1288.37   64.41
  -1   0  -5 1165.43   64.14
   1   0   5 1260.41   64.13
   1   0   5 1316.91   64.39
   1   0   5 1308.20   64.34
  -2   0  -5  621.55   30.84
  -2   0  -5  584.86   30.63
   2   0   5  604.24   30.68
   2   0   5  583.86   30.66
   2   0   5  598.81   30.40
  -3   0  -5   51.83    3.22
  -3   0  -5   50.63    3.70
  -3   0  -5   49.17    3.33
   3   0   5   50.74    3.48
   3   0   5   51.08    3.15
   3   0   5   55.10    3.63
  -4   0  -5  162.32    8.29
  -4   0  -5  158.75    9.01
  -4   0  -5  149.45    8.33
   4   0   5  143.50    8.29
   4   0   5  151.48    8.80
   4   0   5  161.09    8.73
  -5   0  -5   80.88    4.40
  -5   0  -5   80.78    4.44
  -5   0  -5   88.64    5.91
   5   0   5   82.05    5.38
   5   0   5   87.96    4.96
   5   0   5   87.34    5.72
   7   0   5    4.30    2.20
   7   0   5    7.47    1.41
   7   0   5    3.70    1.86
  10  -1  -5    1.35    0.70
  10  -1  -5    1.45    2.02
  10  -1  -5    2.10    0.70
   9  -1  -5    9.13    1.83
   9  -1  -5    7.67    1.23
   8  -1  -5    4.94    0.75
   8  -1  -5    4.53    1.34
   8  -1  -5    4.00    0.60
   7  -1  -5 1173.72   58.34
   7  -1  -5 1145.67   58.19
   6  -1  -5  663.91   34.46
   6  -1  -5  698.59   34.32
   5  -1  -5   18.02    1.26
   5  -1  -5   18.06    1.44
   4  -1  -5  553.45   28.03
   4  -1  -5  565.87   27.87
  -4   1   5  537.61   27.77
  -4   1   5  547.37   27.80
   3  -1  -5  216.60   11.10
   3  -1  -5  206.76   10.95
   3  -1  -5  212.36   10.91
  -3   1   5  217.12   11.05
  -3   1   5  203.44   10.92
   2  -1  -5  678.93   35.73
   2  -1  -5  723.08   35.60
   2  -1  -5  723.56   35.57
  -2   1   5  726.72   35.74
  -2   1   5  671.39   35.55
  -2   1   5  698.48   35.61
   1  -1  -5    1.62    0.48
   1  -1  -5    1.56    0.57
   1  -1  -5    1.53    0.54
  -1   1   5    0.79    0.52
  -1   1   5    1.69    0.51
  -1   1   5    1.19    0.45
   0  -1  -5   13.52    1.34
   0  -1  -5   12.26    1.15
   0  -1  -5   11.01    1.36
   0   1   5   10.18    1.22
   0   1   5   10.38    1.08
   0   1   5   11.07    1.31
  -1  -1  -5  378.96   20.46
  -1  -1  -5  387.99   20.51
  -1  -1  -5  405.29   20.24
   1   1   5  399.00   20.47
   1   1   5  419.94   20.23
   1   1   5  374.20   20.38
  -2  -1  -5   73.38    4.67
  -2  -1  -5   78.45    4.86
  -2  -1  -5   71.40    4.39
   2   1   5   80.41    4.76
   2   1   5   79.04    4.74
   2   1   5   79.53    4.43
  -3  -1  -5  119.65    6.93
  -3  -1  -5  118.38    7.29
   3   1   5  124.36    7.21
   3   1   5  128.39    6.78
   3   1   5  122.31    7.12
  -4  -1  -5   87.21    5.93
  -4  -1  -5   88.27    5.18
  -4  -1  -5   91.19    5.05
   4   1   5   91.03    5.61
   4   1   5   89.46    5.18
   4   1   5   85.98    5.81
  -5  -1  -5    9.21    2.01
   5   1   5    6.81    1.14
   5   1   5    8.12    1.61
   5   1   5   11.97    2.16
   6   1   5   17.81    2.32
   6   1   5   18.34    3.02
   6   1   5   18.06    2.83
   7   1   5   34.79    3.46
   7   1   5   28.23    4.18
   7   1   5   37.77    4.45
  10  -2  -5    2.12    0.79
  10  -2  -5    5.16    1.92
  10  -2  -5    4.03    0.62
   9  -2  -5   87.56    4.62
   9  -2  -5   85.86    4.79
   9  -2  -5   86.83    5.56
   8  -2  -5  102.07    5.29
   8  -2  -5   98.30    5.89
   8  -2  -5   98.79    5.45
   7  -2  -5   18.44    1.37
   7  -2  -5   19.29    1.88
   7  -2  -5   16.81    1.53
   6  -2  -5    0.04    0.46
   6  -2  -5    0.00    0.41
   5  -2  -5   39.57    2.50
   5  -2  -5   37.46    2.31
   4  -2  -5    6.66    1.01
   4  -2  -5    6.58    0.77
   4  -2  -5    7.32    0.83
  -4   2   5    7.86    0.90
  -4   2   5    5.41    0.78
   3  -2  -5  404.85   20.47
   3  -2  -5  389.70   20.19
   3  -2  -5  377.78   20.21
  -3   2   5  424.27   20.40
  -3   2   5  387.66   20.31
   2  -2  -5  598.84   29.31
   2  -2  -5  617.61   29.58
   2  -2  -5  563.96   29.26
  -2   2   5  572.20   29.27
  -2   2   5  559.57   29.43
  -2   2   5  550.29   29.33
   1  -2  -5  279.16   14.51
   1  -2  -5  274.72   14.68
   1  -2  -5  280.68   14.39
  -1   2   5  277.59   14.44
  -1   2   5  304.36   14.68
  -1   2   5  255.44   14.42
   0  -2  -5   48.55    2.87
   0  -2  -5   46.13    3.07
   0   2   5   48.03    2.89
   0   2   5   41.27    2.91
   0   2   5   45.90    3.11
  -1  -2  -5   27.08    1.96
  -1  -2  -5   28.07    2.36
  -1  -2  -5   26.52    2.31
   1   2   5   27.69    2.22
   1   2   5   26.55    2.30
   1   2   5   25.90    1.98
  -2  -2  -5  622.44   32.14
  -2  -2  -5  606.72   31.81
  -2  -2  -5  607.89   32.31
   2   2   5  628.71   31.89
   2   2   5  661.67   32.24
   2   2   5  623.89   32.21
  -3  -2  -5   70.61    4.10
  -3  -2  -5   65.16    4.37
  -3  -2  -5   57.49    4.65
   3   2   5   78.26    4.73
   3   2   5   75.16    4.78
   3   2   5   68.62    4.25
  -4  -2  -5  433.74   23.09
  -4  -2  -5  429.83   23.87
  -4  -2  -5  469.43   22.98
   4   2   5  449.85   23.19
   4   2   5  439.56   23.52
   4   2   5  463.67   23.78
  -5  -2  -5    4.31    1.90
   5   2   5    2.94    1.37
   5   2   5    1.74    1.09
   5   2   5    1.07    1.66
   6   2   5    1.62    2.18
   6   2   5    3.65    1.37
   6   2   5    3.32    1.75
  10  -3  -5    2.46    0.91
  10  -3  -5    0.55    1.41
  10  -3  -5    1.54    0.58
   9  -3  -5   20.26    1.90
   9  -3  -5   19.90    2.31
   9  -3  -5   21.83    1.57
   8  -3  -5    1.49    0.82
   8  -3  -5    1.23    0.55
   8  -3  -5    0.54    0.68
   7  -3  -5   60.48    3.73
   7  -3  -5   60.93    3.65
   7  -3  -5   63.69    3.56
   6  -3  -5  117.14    6.47
   6  -3  -5  116.39    6.28
   6  -3  -5  115.85    6.16
   5  -3  -5  131.81    7.17
   5  -3  -5  130.44    6.77
   5  -3  -5  132.86    6.97
  -5   3   5  124.61    6.71
  -5   3   5  129.70    6.72
   4  -3  -5 1556.61   77.09
   4  -3  -5 1570.67   77.33
   4  -3  -5 1525.60   76.91
  -4   3   5 1417.48   77.10
  -4   3   5 1596.60   77.14
   3  -3  -5  308.74   16.81
   3  -3  -5  323.08   16.56
   3  -3  -5  322.34   16.47
  -3   3   5  313.90   16.45
  -3   3   5  336.78   16.72
  -3   3   5  324.69   16.70
   2  -3  -5  951.86   48.72
   2  -3  -5 1002.65   48.71
   2  -3  -5  931.27   49.00
  -2   3   5  915.74   48.87
  -2   3   5 1026.95   48.90
  -2   3   5  958.14   48.66
   1  -3  -5   91.48    5.78
   1  -3  -5   96.36    5.60
   1  -3  -5   99.41    5.45
  -1   3   5   98.20    5.72
  -1   3   5  100.48    5.54
  -1   3   5  103.64    5.66
   0  -3  -5    0.42    0.74
   0  -3  -5   -0.35    0.61
   0   3   5   -0.56    0.52
   0   3   5    1.05    0.75
   0   3   5    0.91    0.64
  -1  -3  -5  587.90   30.05
  -1  -3  -5  598.99   29.63
  -1  -3  -5  544.97   29.96
   1   3   5  584.77   29.93
   1   3   5  588.47   29.78
   1   3   5  578.66   30.00
  -2  -3  -5   26.12    2.78
  -2  -3  -5   33.10    2.33
  -2  -3  -5   30.07    2.68
   2   3   5   29.35    2.76
   2   3   5   32.16    2.51
   2   3   5   32.98    2.90
  -3  -3  -5  241.63   13.77
  -3  -3  -5  246.37   12.94
  -3  -3  -5  240.88   13.26
   3   3   5  242.59   13.20
   3   3   5  247.06   13.53
   3   3   5  257.55   13.66
  -4  -3  -5   75.65    4.71
  -4  -3  -5   81.45    5.75
   4   3   5   71.16    4.89
   4   3   5   76.94    5.53
   4   3   5   77.85    5.37
   5   3   5   15.73    2.60
   5   3   5   15.67    2.54
   5   3   5   12.78    2.22
   6   3   5    6.70    2.78
   6   3   5    5.75    2.17
   6   3   5    3.52    1.84
  10  -4  -5   31.33    2.56
  10  -4  -5   31.00    2.16
  10  -4  -5   27.86    2.65
   9  -4  -5    7.09    1.22
   9  -4  -5    7.23    1.01
   9  -4  -5    8.59    1.29
   8  -4  -5   16.81    1.90
   8  -4  -5   16.95    1.40
   8  -4  -5   15.79    1.56
   7  -4  -5  236.92   12.73
   7  -4  -5  246.85   12.97
   7  -4  -5  245.40   12.39
   7  -4  -5  246.21   12.43
   6  -4  -5  120.55    5.78
   6  -4  -5  110.43    6.21
   6  -4  -5  103.01    6.38
   6  -4  -5  114.15    5.81
   5  -4  -5   38.55    2.65
   5  -4  -5   44.49    2.99
   5  -4  -5   40.17    2.26
  -5   4   5   42.78    2.55
  -5   4   5   37.85    2.56
   4  -4  -5  106.91    5.55
   4  -4  -5  100.98    5.80
   4  -4  -5  106.05    6.12
  -4   4   5   98.06    5.89
  -4   4   5  110.32    5.90
   3  -4  -5  183.15   11.11
   3  -4  -5  208.25   10.75
   3  -4  -5  208.64   10.88
  -3   4   5  211.62   10.69
  -3   4   5  216.44   11.07
   2  -4  -5  404.03   18.99
   2  -4  -5  355.71   19.29
   2  -4  -5  354.99   18.94
  -2   4   5  378.50   18.88
  -2   4   5  351.97   19.15
  -2   4   5  356.67   19.15
   1  -4  -5  922.13   48.02
   1  -4  -5  961.12   47.61
  -1   4   5  932.58   47.93
  -1   4   5  967.45   47.89
  -1   4   5  919.77   47.66
   0  -4  -5  122.09    7.98
   0  -4  -5  154.49    7.69
   0  -4  -5  144.53    8.00
   0   4   5  141.87    7.88
   0   4   5  138.73    7.89
   0   4   5  135.31    8.00
  -1  -4  -5  751.19   36.79
  -1  -4  -5  756.40   37.29
  -1  -4  -5  697.35   37.23
   1   4   5  671.61   36.98
   1   4   5  721.00   37.23
   1   4   5  738.11   37.16
  -2  -4  -5  756.78   39.93
  -2  -4  -5  780.88   39.29
  -2  -4  -5  768.72   39.73
   2   4   5  724.53   39.55
   2   4   5  812.86   39.87
   2   4   5  791.04   39.85
  -3  -4  -5   20.32    1.95
  -3  -4  -5   16.27    2.30
   3   4   5   16.88    2.76
   3   4   5   18.09    2.54
   3   4   5   19.49    2.44
  -4  -4  -5   25.02    2.59
   4   4   5   25.32    3.05
   4   4   5   29.02    3.79
   4   4   5   30.19    3.50
   5   4   5    1.93    1.73
   5   4   5   -0.30    2.09
   5   4   5    5.08    2.00
  10  -5  -5    8.95    1.23
  10  -5  -5    8.56    1.56
   9  -5  -5   14.40    1.76
   9  -5  -5   13.58    2.23
   8  -5  -5    9.75    1.54
   8  -5  -5    8.87    1.42
   7  -5  -5   50.17    3.32
   7  -5  -5   49.48    3.57
   6  -5  -5  157.45    8.90
   6  -5  -5  166.96    9.21
  -6   5   5  171.14    8.50
  -6   5   5  160.67    8.50
   5  -5  -5  493.91   25.70
   5  -5  -5  505.21   26.01
  -5   5   5  481.75   25.69
  -5   5   5  520.85   25.63
   4  -5  -5  658.81   31.76
   4  -5  -5  608.88   32.04
   4  -5  -5  652.96   31.40
  -4   5   5  540.89   31.77
  -4   5   5  641.60   31.81
   3  -5  -5  340.77   19.14
   3  -5  -5  392.72   19.37
   3  -5  -5  379.32   19.76
  -3   5   5  372.44   19.59
  -3   5   5  371.14   19.09
  -3   5   5  383.14   19.55
   2  -5  -5   50.80    3.68
   2  -5  -5   47.96    3.24
   2  -5  -5   50.21    3.23
  -2   5   5   54.46    3.57
  -2   5   5   46.78    3.10
  -2   5   5   48.12    3.50
   1  -5  -5   25.21    2.74
   1  -5  -5   32.13    2.39
   1  -5  -5   31.59    2.57
  -1   5   5   29.82    2.72
  -1   5   5   30.20    2.41
  -1   5   5   33.02    2.83
   0  -5  -5   11.69    1.69
   0  -5  -5    9.51    1.44
   0  -5  -5    7.25    1.56
   0   5   5    9.69    1.64
   0   5   5   11.25    1.58
   0   5   5    9.20    1.61
  -1  -5  -5   40.66    3.78
  -1  -5  -5   45.92    3.83
  -1  -5  -5   48.94    3.27
   1   5   5   50.21    4.00
   1   5   5   46.84    3.74
   1   5   5   52.87    3.88
  -2  -5  -5  193.98   11.69
  -2  -5  -5  216.36   11.26
   2   5   5  217.32   11.98
   2   5   5  220.44   11.91
   2   5   5  198.57   11.70
  -3  -5  -5   12.75    1.87
  -3  -5  -5   16.09    1.93
   3   5   5   15.27    2.23
   3   5   5   16.86    2.50
  -4  -5  -5    0.23    1.17
   4   5   5   -3.25    2.03
   4   5   5   -1.15    1.54
   4   5   5    2.11    2.00
  10  -6  -5  110.93    6.88
  10  -6  -5  109.63    6.42
   9  -6  -5   32.56    2.81
   9  -6  -5   36.43    3.24
   8  -6  -5   78.42    4.88
   8  -6  -5   79.01    5.22
   7  -6  -5   15.32    2.28
   7  -6  -5   12.71    1.87
   6  -6  -5   13.59    2.20
   6  -6  -5   12.78    1.82
  -6   6   5   15.19    1.50
  -6   6   5   13.58    1.53
   5  -6  -5  429.40   22.99
   5  -6  -5  457.87   22.70
  -5   6   5  416.80   22.69
  -5   6   5  442.73   22.60
   4  -6  -5    7.52    1.52
   4  -6  -5    7.05    1.20
  -4   6   5   10.07    0.98
  -4   6   5   10.11    1.47
  -4   6   5    8.71    1.47
   3  -6  -5   64.44    4.65
   3  -6  -5   69.70    4.31
  -3   6   5   63.57    4.55
  -3   6   5   72.96    4.61
  -3   6   5   67.34    3.94
   2  -6  -5  407.39   22.00
   2  -6  -5  447.39   21.54
  -2   6   5  411.63   21.86
  -2   6   5  394.36   21.84
  -2   6   5  409.38   21.41
   1  -6  -5   18.22    1.96
   1  -6  -5   21.42    2.69
  -1   6   5   20.36    2.62
  -1   6   5   20.87    2.14
   0  -6  -5  156.60    8.86
   0   6   5  163.26    9.24
   0   6   5  174.52    9.60
   0   6   5  151.56    9.36
  -1  -6  -5  110.70    7.13
  -1  -6  -5  110.67    6.48
   1   6   5  111.17    7.15
   1   6   5  118.71    7.15
   1   6   5  113.32    7.27
  -2  -6  -5  354.11   19.25
  -2  -6  -5  381.13   18.72
   2   6   5  329.08   19.26
   2   6   5  354.61   19.46
   2   6   5  365.05   19.42
  -3  -6  -5   -2.09    1.35
  -3  -6  -5    0.23    0.98
   3   6   5   -0.58    1.93
   3   6   5    0.03    1.71
   3   6   5   -0.44    1.86
  -4  -6  -5    4.31    1.15
  -4  -6  -5    1.67    1.44
   4   6   5    3.85    2.40
   4   6   5    5.98    2.37
   4   6   5   -1.20    2.66
  10  -7  -5   71.60    4.78
  10  -7  -5   63.38    5.18
   9  -7  -5  158.76    8.63
   9  -7  -5  139.93    8.88
   8  -7  -5   41.11    3.49
   8  -7  -5   48.59    3.97
   7  -7  -5   19.58    2.67
   7  -7  -5   24.29    2.50
  -7   7   5   18.50    1.47
  -7   7   5   20.86    1.51
   6  -7  -5   -0.99    1.05
   6  -7  -5    0.70    1.00
  -6   7   5   -0.29    0.72
   5  -7  -5  532.93   25.75
   5  -7  -5  424.44   25.90
  -5   7   5  508.51   25.84
  -5   7   5  511.58   25.68
   4  -7  -5  139.12    8.71
   4  -7  -5  139.86    8.25
  -4   7   5  139.07    8.53
  -4   7   5  161.63    8.55
  -4   7   5  150.46    7.74
   3  -7  -5   90.05    6.22
   3  -7  -5  102.66    5.77
  -3   7   5   90.33    5.36
  -3   7   5  101.74    6.15
  -3   7   5   87.34    6.02
   2  -7  -5   17.83    2.05
   2  -7  -5   20.97    2.86
  -2   7   5   19.43    2.77
  -2   7   5   17.06    2.56
  -2   7   5   16.12    2.07
   1  -7  -5    1.94    1.48
   1  -7  -5    2.08    1.01
  -1   7   5    2.55    1.44
  -1   7   5    2.25    1.18
  -1   7   5    2.61    1.50
   0  -7  -5   30.48    3.37
   0  -7  -5   28.92    2.55
   0   7   5   25.50    3.33
   0   7   5   23.59    3.37
   0   7   5   28.82    3.11
  -1  -7  -5   35.07    2.89
  -1  -7  -5   29.63    3.56
   1   7   5   33.37    3.61
   1   7   5   31.35    3.69
  -2  -7  -5  158.13    8.14
  -2  -7  -5  130.31    8.71
   2   7   5  154.75    9.35
   2   7   5  134.98    8.85
   2   7   5  125.68    8.88
  -3  -7  -5    0.54    1.75
  -3  -7  -5    2.33    1.28
   3   7   5    1.09    2.34
   3   7   5    1.55    2.28
   3   7   5    3.95    2.37
  10  -8  -5   51.39    4.42
   9  -8  -5   35.86    4.10
   9  -8  -5   42.66    3.72
   8  -8  -5   79.47    5.98
   8  -8  -5   86.88    5.60
   7  -8  -5   63.35    4.93
   7  -8  -5   59.12    4.42
  -7   8   5   60.57    3.80
  -7   8   5   61.46    3.91
   6  -8  -5   14.16    2.25
   6  -8  -5   13.98    2.33
  -6   8   5   11.84    1.73
  -6   8   5   12.64    2.06
   5  -8  -5   59.38    4.73
   5  -8  -5   56.92    4.18
  -5   8   5   67.69    4.37
  -5   8   5   51.68    4.34
   4  -8  -5  123.92    8.31
   4  -8  -5  141.06    7.96
  -4   8   5  138.23    8.32
  -4   8   5  129.34    7.29
  -4   8   5  147.27    8.21
   3  -8  -5   14.33    2.19
   3  -8  -5   12.97    2.15
  -3   8   5   12.21    2.03
  -3   8   5   13.59    2.23
  -3   8   5    9.84    1.40
   2  -8  -5  524.67   25.78
   2  -8  -5  505.78   26.43
  -2   8   5  477.40   25.63
  -2   8   5  449.99   26.22
  -2   8   5  514.40   26.31
   1  -8  -5   26.57    2.53
   1  -8  -5   19.89    3.18
  -1   8   5   18.18    2.38
  -1   8   5   23.95    3.31
  -1   8   5   22.51    3.26
   0  -8  -5    1.78    1.79
   0  -8  -5    3.09    1.16
   0   8   5    4.00    1.69
   0   8   5    2.82    2.07
   0   8   5    4.09    1.85
  -1  -8  -5   25.50    3.71
   1   8   5   24.40    3.34
   1   8   5   31.02    4.27
   1   8   5   24.54    3.74
  -2  -8  -5    5.10    2.15
  -2  -8  -5   17.92    2.62
   2   8   5   11.40    2.95
   2   8   5   10.10    2.61
   2   8   5   15.22    3.17
   9  -9  -5  282.95   14.83
   9  -9  -5  251.33   15.23
   8  -9  -5   26.35    3.90
   8  -9  -5   30.50    3.48
   7  -9  -5   83.39    5.80
   7  -9  -5   76.40    6.17
  -7   9   5   98.09    5.42
  -7   9   5   82.81    5.44
   6  -9  -5  298.75   15.57
   6  -9  -5  281.90   16.02
  -6   9   5  266.14   15.50
  -6   9   5  290.97   15.40
   5  -9  -5  147.55   10.03
   5  -9  -5  187.46    9.78
  -5   9   5  159.33    9.89
  -5   9   5  171.09    8.65
  -5   9   5  167.39    9.76
   4  -9  -5   90.20    6.68
   4  -9  -5  104.57    6.15
  -4   9   5   88.79    6.47
  -4   9   5   95.94    6.40
  -4   9   5   92.78    5.38
   3  -9  -5    1.48    1.73
  -3   9   5    4.47    1.19
  -3   9   5    2.40    1.67
  -3   9   5    3.78    1.70
   2  -9  -5   68.13    6.00
   2  -9  -5   90.69    5.36
  -2   9   5   67.99    5.88
  -2   9   5   90.33    6.28
  -2   9   5   72.87    5.17
   1  -9  -5   60.39    4.36
   1  -9  -5   53.50    5.12
  -1   9   5   55.30    5.26
  -1   9   5   54.53    5.36
  -1   9   5   65.56    4.74
   0  -9  -5   17.72    3.00
   0  -9  -5   19.22    2.72
   0   9   5   10.63    3.00
   0   9   5   17.36    3.03
  -1  -9  -5    5.25    2.21
  -1  -9  -5    0.45    1.42
   1   9   5   -1.27    2.35
   1   9   5    5.03    2.64
   1   9   5    1.22    2.62
   8 -10  -5   83.22    5.88
   8 -10  -5   74.61    6.54
  -8  10   5   77.64    4.80
  -8  10   5   75.79    4.68
   7 -10  -5   36.61    4.10
   7 -10  -5   44.29    4.83
  -7  10   5   38.92    3.62
  -7  10   5   38.40    3.73
   6 -10  -5    4.86    1.90
   6 -10  -5    0.31    2.05
  -6  10   5    4.46    1.91
  -6  10   5    3.72    1.76
   5 -10  -5   -0.90    1.43
   5 -10  -5   -0.66    1.76
  -5  10   5    3.11    1.73
  -5  10   5    3.58    1.93
  -5  10   5   -0.37    0.63
   4 -10  -5   16.52    2.89
   4 -10  -5   13.61    2.23
  -4  10   5   17.22    2.82
  -4  10   5   13.61    1.93
   3 -10  -5   10.08    2.52
   3 -10  -5   11.75    2.00
  -3  10   5   11.85    2.56
  -3  10   5    9.91    2.37
  -3  10   5   10.19    1.70
   2 -10  -5    4.99    2.25
   2 -10  -5    4.89    1.66
  -2  10   5    3.23    1.69
  -2  10   5    5.37    2.41
  -2  10   5    8.77    2.46
   1 -10  -5   43.48    5.04
   1 -10  -5   42.86    3.84
  -1  10   5   36.45    5.09
  -1  10   5   31.18    5.19
   7 -11  -5   16.45    2.86
   7 -11  -5   18.65    3.16
  -7  11   5   17.64    2.69
  -7  11   5   22.28    2.73
   6 -11  -5   -0.04    2.40
   6 -11  -5    3.94    1.99
  -6  11   5    7.43    2.32
   5 -11  -5  196.60   10.51
   5 -11  -5  161.82   11.08
  -5  11   5  177.44   10.66
  -5  11   5  167.60    9.12
  -5  11   5  159.47   10.86
   4 -11  -5   16.88    3.14
   4 -11  -5   24.01    3.35
  -4  11   5   24.54    2.56
  -4  11   5   24.93    3.41
  -4  11   5   25.30    3.60
   3 -11  -5   45.61    4.16
   3 -11  -5   41.87    5.28
  -3  11   5   42.87    3.89
  -3  11   5   35.47    5.56
  -3  11   5   43.59    5.42
   2 -11  -5   44.12    6.00
   2 -11  -5   63.11    4.79
  -2  11   5   61.11    6.29
  -2  11   5   55.51    5.02
  -2  13  -6    8.81    2.85
  -2  13  -6   13.69    3.24
   2 -13   6   13.91    3.20
   2 -13   6   13.77    2.78
  -3  13  -6  195.27   12.82
  -3  13  -6  220.25   12.21
  -3  13  -6  233.95   13.35
   3 -13   6  216.30   13.29
   3 -13   6  191.15   12.69
  -4  13  -6   58.59    5.83
  -4  13  -6   60.19    6.38
  -4  13  -6   60.88    4.92
   4 -13   6   60.67    7.34
   1  12  -6    2.15    3.16
   1  12  -6    8.31    2.92
  -1 -12   6    3.04    2.37
  -1 -12   6    5.49    2.22
   0  12  -6  149.94    9.71
   0  12  -6  128.05    9.31
   0 -12   6  127.00    8.76
   0 -12   6  156.49    9.38
  -1  12  -6  157.80   10.04
  -1  12  -6  148.84    9.86
   1 -12   6  135.20    9.16
   1 -12   6  153.43    9.80
  -2  12  -6    2.03    2.23
  -2  12  -6    1.13    2.01
   2 -12   6    0.44    1.78
   2 -12   6    4.99    2.34
  -3  12  -6   14.17    2.81
  -3  12  -6   12.87    2.67
  -3  12  -6   20.12    3.02
   3 -12   6   22.12    3.08
   3 -12   6   25.74    3.55
  -4  12  -6   31.10    4.22
  -4  12  -6   33.50    4.77
  -4  12  -6   25.72    3.32
   4 -12   6   32.10    4.22
   4 -12   6   46.33    5.22
  -5  12  -6   24.31    3.11
  -5  12  -6   16.58    2.70
  -5  12  -6   18.36    3.01
   5 -12   6   20.74    3.48
   5 -12   6   24.93    3.95
  -6  12  -6   -1.39    1.87
  -6  12  -6    0.15    1.64
   6 -12   6   -0.72    2.95
   6 -12   6    2.22    2.31
   2  11  -6   -1.35    2.23
   2  11  -6    7.00    2.67
  -2 -11   6    1.13    1.64
  -2 -11   6    2.48    1.94
   1  11  -6    1.92    2.09
   1  11  -6    3.21    2.35
  -1 -11   6    1.05    1.56
   0  11  -6   20.03    3.03
   0  11  -6   21.03    3.38
   0 -11   6   24.88    3.26
  -1  11  -6    0.01    2.10
  -1  11  -6    4.17    1.90
   1 -11   6    3.38    1.52
   1 -11   6    3.44    1.92
  -2  11  -6   10.77    2.28
  -2  11  -6    9.86    2.34
   2 -11   6   15.16    2.73
   2 -11   6   10.89    2.11
  -3  11  -6  242.49   14.75
  -3  11  -6  287.04   15.24
  -3  11  -6  267.77   14.41
   3 -11   6  269.33   15.26
   3 -11   6  248.28   14.67
  -4  11  -6   27.21    3.86
  -4  11  -6   21.19    2.70
  -4  11  -6   15.45    2.43
   4 -11   6   29.25    4.19
   4 -11   6   22.90    3.28
  -5  11  -6   20.05    3.12
  -5  11  -6   13.67    1.96
  -5  11  -6   18.87    2.73
   5 -11   6   13.12    2.30
   5 -11   6   11.23    2.94
  -6  11  -6   85.72    5.82
  -6  11  -6   92.36    6.14
  -6  11  -6   95.96    6.63
   6 -11   6   85.16    6.50
   6 -11   6   84.85    7.28
  -7  11  -6   21.33    3.43
  -7  11  -6   28.77    3.13
   7 -11   6   37.22    5.84
   3  10  -6    6.38    2.42
   3  10  -6   -0.34    2.51
  -3 -10   6   11.69    1.86
   2  10  -6   13.58    2.43
   2  10  -6    6.29    2.36
  -2 -10   6    8.04    1.99
  -2 -10   6    6.43    1.59
   1  10  -6   79.30    6.35
  -1 -10   6   84.99    5.77
  -1 -10   6   95.82    6.23
   0  10  -6   79.10    5.77
   0  10  -6   67.98    5.40
   0 -10   6   64.51    4.95
   0 -10   6   71.08    5.48
  -1  10  -6  136.75    9.06
  -1  10  -6  153.25    9.35
   1 -10   6  147.80    8.78
   1 -10   6  149.89    9.24
  -2  10  -6  310.95   16.70
  -2  10  -6  302.18   17.09
  -2  10  -6  314.09   17.27
   2 -10   6  317.05   17.33
   2 -10   6  303.91   16.85
  -3  10  -6   64.76    4.54
  -3  10  -6   67.70    5.32
  -3  10  -6   67.35    5.03
   3 -10   6   71.51    4.98
   3 -10   6   59.24    5.37
  -4  10  -6  179.72   10.03
  -4  10  -6  181.31   10.44
  -4  10  -6  178.23   10.62
   4 -10   6  158.80   10.27
   4 -10   6  195.69   11.12
  -5  10  -6   47.02    4.03
  -5  10  -6   44.31    4.33
  -5  10  -6   51.77    3.78
   5 -10   6   49.49    4.27
  -6  10  -6    0.16    1.53
  -6  10  -6    0.74    1.35
  -6  10  -6   -2.42    1.16
   6 -10   6    1.27    1.64
   6 -10   6   -0.39    2.06
  -7  10  -6   -1.09    1.52
  -7  10  -6    0.04    1.16
  -7  10  -6    0.41    1.41
   7 -10   6   -1.75    1.86
   7 -10   6   -5.43    2.32
   4   9  -6    5.47    2.47
   4   9  -6    4.08    2.39
  -4  -9   6    7.29    1.11
  -4  -9   6    7.95    1.32
   3   9  -6    9.40    2.21
  -3  -9   6    8.88    1.61
   2   9  -6    5.18    1.75
   2   9  -6   11.15    2.30
  -2  -9   6    6.75    1.48
  -2  -9   6    4.78    1.53
   1   9  -6   11.10    2.11
   1   9  -6    7.80    1.91
  -1  -9   6   11.56    2.07
  -1  -9   6    9.98    1.66
   0   9  -6    4.23    1.69
   0   9  -6    4.12    1.56
   0  -9   6    6.01    1.38
   0  -9   6    4.66    1.62
  -1   9  -6    1.12    1.26
  -1   9  -6   -0.73    1.36
   1  -9   6    0.12    1.10
   1  -9   6    0.15    1.32
  -2   9  -6  226.94   12.37
  -2   9  -6  215.21   12.66
  -2   9  -6  236.38   12.90
   2  -9   6  215.15   12.51
   2  -9   6  235.66   12.97
  -3   9  -6   50.08    3.63
  -3   9  -6   45.94    4.17
  -3   9  -6   47.19    4.01
   3  -9   6   53.46    4.47
   3  -9   6   50.28    3.88
  -4   9  -6    1.85    1.14
  -4   9  -6    1.84    1.05
  -4   9  -6    1.94    1.33
   4  -9   6    0.97    1.13
   4  -9   6    0.28    1.61
  -5   9  -6   29.00    3.31
  -5   9  -6   26.46    2.79
  -5   9  -6   32.26    2.97
   5  -9   6   30.00    3.97
   5  -9   6   23.38    3.05
  -6   9  -6   29.63    3.06
  -6   9  -6   26.96    3.14
  -6   9  -6   29.30    2.78
   6  -9   6   27.38    3.28
  -7   9  -6   -0.48    0.93
  -7   9  -6   -0.77    1.09
  -7   9  -6   -0.55    1.45
   7  -9   6   -0.92    1.54
   7  -9   6    0.37    2.05
   5   8  -6  182.88   12.62
   5   8  -6  249.71   13.07
   4   8  -6  341.57   18.37
   4   8  -6  335.61   18.38
  -4  -8   6  303.78   17.05
  -4  -8   6  346.17   17.22
   3   8  -6  389.81   20.74
   3   8  -6  367.75   20.71
  -3  -8   6  388.94   20.10
   2   8  -6    0.97    1.46
   2   8  -6    2.92    1.35
  -2  -8   6    2.67    1.31
  -2  -8   6    3.40    1.00
   1   8  -6  117.45    7.22
   1   8  -6  107.23    7.08
  -1  -8   6  115.10    7.08
  -1  -8   6  112.21    6.70
   0   8  -6   -0.44    1.21
   0   8  -6    0.65    1.11
   0  -8   6    1.82    1.25
   0  -8   6    1.64    0.95
  -1   8  -6   99.58    6.00
  -1   8  -6   80.23    5.77
   1  -8   6  101.10    6.16
   1  -8   6   79.04    5.48
  -2   8  -6  219.04   12.25
  -2   8  -6  233.95   12.44
  -2   8  -6  227.09   12.01
   2  -8   6  183.11   12.22
   2  -8   6  234.08   12.16
  -3   8  -6   44.85    3.66
  -3   8  -6   45.97    3.37
  -3   8  -6   50.38    3.95
   3  -8   6   49.28    4.16
   3  -8   6   45.71    3.64
  -4   8  -6    3.68    1.23
  -4   8  -6    4.23    1.40
  -4   8  -6    5.48    1.29
   4  -8   6    5.02    1.37
   4  -8   6    3.36    1.74
  -5   8  -6  529.49   29.21
  -5   8  -6  582.30   29.18
  -5   8  -6  548.99   29.08
   5  -8   6  564.90   29.74
   5  -8   6  586.32   29.36
  -6   8  -6    2.93    1.27
  -6   8  -6    1.49    1.31
  -6   8  -6    0.77    0.95
   6  -8   6   -0.77    1.60
   6  -8   6    0.48    1.26
  -7   8  -6   12.88    1.47
  -7   8  -6   11.47    2.15
  -7   8  -6   16.01    1.71
   7  -8   6   18.10    2.91
   7  -8   6   13.24    2.52
  -8   8  -6   -2.25    1.88
   8  -8   6   -0.53    2.23
   6   7  -6  174.21   11.40
   6   7  -6  206.96   11.60
   5   7  -6   16.56    2.47
   5   7  -6   14.30    2.43
   4   7  -6    4.18    1.73
   4   7  -6    3.30    1.54
  -4  -7   6    3.24    0.88
  -4  -7   6    2.87    0.70
   3   7  -6  635.46   33.63
   3   7  -6  669.97   33.76
  -3  -7   6  638.09   32.91
  -3  -7   6  642.37   33.18
   2   7  -6 1301.10   65.86
   2   7  -6 1273.96   65.78
  -2  -7   6 1323.79   65.35
  -2  -7   6 1265.91   65.56
   1   7  -6  382.30   20.97
   1   7  -6  404.63   21.00
  -1  -7   6  401.18   20.61
  -1  -7   6  389.34   20.89
   0   7  -6  148.97    8.99
   0   7  -6  153.47    9.00
   0  -7   6  153.44    9.08
   0  -7   6  165.91    8.79
  -1   7  -6   54.40    3.90
  -1   7  -6   58.66    4.18
  -1   7  -6   59.81    4.12
   1  -7   6   61.09    4.40
   1  -7   6   59.22    3.97
  -2   7  -6   48.93    3.65
  -2   7  -6   48.72    3.43
  -2   7  -6   50.83    3.80
   2  -7   6   46.18    3.84
   2  -7   6   50.62    3.51
  -3   7  -6    2.37    1.02
  -3   7  -6    4.00    1.00
  -3   7  -6    5.48    1.32
   3  -7   6    5.83    1.25
   3  -7   6    5.23    1.44
  -4   7  -6  307.49   16.50
  -4   7  -6  298.53   16.64
  -4   7  -6  316.36   16.56
   4  -7   6  304.26   16.58
   4  -7   6  328.65   17.04
  -5   7  -6  360.68   18.81
  -5   7  -6  356.99   18.76
  -5   7  -6  354.94   18.58
   5  -7   6  346.09   18.79
   5  -7   6  351.30   19.19
  -6   7  -6  111.26    7.24
  -6   7  -6  116.43    6.70
  -6   7  -6  118.23    6.87
   6  -7   6  125.86    7.81
   6  -7   6  126.70    7.30
  -7   7  -6    3.71    1.78
   7  -7   6    3.96    1.74
   7  -7   6    2.20    1.86
  -8   7  -6    9.62    2.19
   8  -7   6    5.33    1.73
   7   6  -6   13.02    3.32
   7   6  -6   16.49    2.71
   7   6  -6   18.38    2.88
   6   6  -6    8.93    2.15
   6   6  -6   10.46    2.14
   5   6  -6   29.27    3.29
   5   6  -6   31.78    3.41
   4   6  -6   30.32    3.12
   4   6  -6   31.09    3.04
  -4  -6   6   32.00    2.25
  -4  -6   6   30.10    2.00
   3   6  -6  352.04   17.95
   3   6  -6  349.93   17.87
  -3  -6   6  343.49   17.50
  -3  -6   6  291.08   17.14
   2   6  -6  194.62   10.79
   2   6  -6  187.31   10.69
  -2  -6   6  193.25   10.60
   1   6  -6   48.40    3.58
   1   6  -6   46.46    3.51
  -1  -6   6   43.27    3.49
  -1  -6   6   47.52    3.20
   0   6  -6  106.45    6.66
   0   6  -6  117.93    6.77
   0  -6   6  110.44    6.46
   0  -6   6  116.99    6.85
  -1   6  -6   19.63    2.15
  -1   6  -6   17.03    1.89
  -1   6  -6   18.64    2.17
   1  -6   6   22.66    2.36
   1  -6   6   24.44    2.08
  -2   6  -6   57.61    3.92
  -2   6  -6   55.39    3.70
  -2   6  -6   60.82    4.03
   2  -6   6   57.02    4.16
   2  -6   6   55.73    3.75
  -3   6  -6   27.75    2.61
  -3   6  -6   27.37    2.46
  -3   6  -6   31.87    2.58
   3  -6   6   28.97    2.48
   3  -6   6   30.06    2.90
  -4   6  -6  141.26    7.96
  -4   6  -6  138.48    7.88
  -4   6  -6  131.96    7.98
   4  -6   6  140.53    7.97
   4  -6   6  146.06    8.38
  -5   6  -6   68.02    4.38
  -5   6  -6   67.85    4.58
  -5   6  -6   67.96    4.22
   5  -6   6   63.76    4.87
   5  -6   6   70.12    4.61
   5  -6   6   60.86    4.41
  -6   6  -6  430.65   22.49
  -6   6  -6  448.63   23.22
  -6   6  -6  430.21   22.44
   6  -6   6  441.18   23.07
   6  -6   6  439.43   23.35
  -7   6  -6    6.75    1.81
   7  -6   6    8.36    2.08
   7  -6   6    5.81    1.41
   7  -6   6    4.58    1.72
  -8   6  -6   70.13    6.10
   8  -6   6   68.49    5.33
   8  -6   6   91.63    6.54
   8  -6   6   94.25    6.28
   7   5  -6   29.55    3.67
   7   5  -6   33.64    3.73
   6   5  -6   51.36    4.06
   6   5  -6   47.49    4.04
   5   5  -6    1.50    1.12
   5   5  -6    1.32    1.11
   4   5  -6  138.18    8.08
   4   5  -6  143.17    8.20
  -4  -5   6  140.75    7.36
  -4  -5   6  141.65    7.53
   3   5  -6   87.23    5.45
   3   5  -6   89.76    5.40
  -3  -5   6   86.88    4.84
  -3  -5   6   83.75    5.11
   2   5  -6    0.29    0.86
   2   5  -6    1.69    0.89
   1   5  -6   -0.12    0.76
   1   5  -6    0.36    0.86
  -1  -5   6    0.83    0.79
   0   5  -6  750.03   38.84
   0   5  -6  723.44   38.84
   0   5  -6  751.22   38.74
   0  -5   6  819.02   38.73
   0  -5   6  751.69   38.95
  -1   5  -6  676.76   33.72
  -1   5  -6  597.76   33.61
  -1   5  -6  659.95   33.56
   1  -5   6  707.05   33.59
   1  -5   6  636.53   33.80
  -2   5  -6    3.76    0.96
  -2   5  -6    4.43    0.97
  -2   5  -6    3.40    0.91
   2  -5   6    4.41    0.95
   2  -5   6    3.27    1.04
  -3   5  -6    0.99    0.86
  -3   5  -6   -0.69    0.70
  -3   5  -6    0.59    0.71
   3  -5   6    0.61    0.71
   3  -5   6    0.74    0.93
  -4   5  -6    0.89    0.84
  -4   5  -6    1.57    0.95
  -4   5  -6    1.74    0.82
   4  -5   6    0.38    0.99
   4  -5   6    2.22    1.11
  -5   5  -6  491.06   26.08
  -5   5  -6  521.02   26.52
  -5   5  -6  525.09   26.05
   5  -5   6  514.94   26.39
   5  -5   6  515.94   26.60
   5  -5   6  472.15   26.08
  -6   5  -6   24.76    1.86
  -6   5  -6   28.86    3.07
  -6   5  -6   27.12    1.96
   6  -5   6   21.85    3.09
   6  -5   6   27.10    2.89
   6  -5   6   24.21    2.42
  -7   5  -6   21.22    2.89
   7  -5   6   27.23    2.71
   7  -5   6   32.71    3.76
   7  -5   6   22.09    3.21
  -8   5  -6    7.31    2.31
   8  -5   6    1.85    2.07
   8  -5   6    1.54    1.39
   8  -5   6    2.59    2.03
   8   4  -6    7.21    2.59
   8   4  -6    4.74    1.79
   8   4  -6    5.95    1.82
   7   4  -6   37.86    3.58
   7   4  -6   45.10    3.62
   6   4  -6  144.43    8.33
   6   4  -6  143.34    8.23
   5   4  -6   40.29    3.05
   5   4  -6   33.56    2.87
   4   4  -6  171.36    9.45
   4   4  -6  160.13    9.28
  -4  -4   6  174.26    8.73
  -4  -4   6  171.16    8.88
   3   4  -6 1004.79   50.44
   3   4  -6  997.91   50.31
  -3  -4   6  971.22   49.91
  -3  -4   6  989.85   50.20
   2   4  -6  453.28   22.64
   2   4  -6  445.97   22.51
  -2  -4   6  440.66   22.21
  -2  -4   6  398.13   22.47
   1   4  -6  171.45    9.14
   1   4  -6  165.82    9.04
  -1  -4   6  155.85    9.10
   0   4  -6  770.51   39.16
   0   4  -6  724.30   39.21
   0   4  -6  807.20   39.25
   0  -4   6  757.32   38.99
   0  -4   6  784.60   39.37
  -1   4  -6   27.79    2.23
  -1   4  -6   30.27    2.33
  -1   4  -6   29.95    2.36
   1  -4   6   27.33    2.08
   1  -4   6   27.42    2.49
  -2   4  -6  304.27   15.31
  -2   4  -6  271.85   15.27
  -2   4  -6  303.41   15.33
   2  -4   6  272.33   15.09
   2  -4   6  294.14   15.49
   2  -4   6  292.51   15.32
  -3   4  -6  120.29    6.82
  -3   4  -6  123.52    6.91
  -3   4  -6  115.83    6.92
   3  -4   6  124.78    7.12
   3  -4   6  118.59    6.89
   3  -4   6  117.60    6.69
  -4   4  -6   49.38    3.41
  -4   4  -6   49.28    3.66
  -4   4  -6   46.16    3.31
   4  -4   6   50.85    3.33
   4  -4   6   52.84    3.65
   4  -4   6   53.62    3.81
  -5   4  -6   52.02    3.47
  -5   4  -6   51.42    3.43
  -5   4  -6   47.29    3.88
   5  -4   6   55.73    3.60
   5  -4   6   56.28    4.16
   5  -4   6   57.12    3.87
  -6   4  -6   44.74    4.00
   6  -4   6   44.35    3.19
   6  -4   6   47.24    3.78
   6  -4   6   37.25    3.76
  -7   4  -6   26.76    3.72
   7  -4   6   27.63    2.72
   7  -4   6   28.93    3.72
  -8   4  -6    4.78    2.55
   8  -4   6    1.61    1.45
   8  -4   6    5.89    2.33
   8  -4   6    1.92    2.20
   8   3  -6   68.21    4.86
   8   3  -6   81.95    6.19
   8   3  -6   69.11    4.91
   7   3  -6   85.85    5.46
   7   3  -6   88.74    5.38
   6   3  -6   20.53    2.09
   6   3  -6   23.89    2.28
   5   3  -6  124.21    7.06
   5   3  -6  129.27    7.23
   4   3  -6  159.50    9.11
  -4  -3   6  179.74    8.69
  -4  -3   6  167.66    8.82
   3   3  -6   29.37    2.23
   3   3  -6   35.02    2.46
  -3  -3   6   29.38    2.23
  -3  -3   6   29.26    1.90
   2   3  -6  382.61   19.64
  -2  -3   6  391.31   19.76
  -2  -3   6  365.82   19.40
   1   3  -6   -0.78    0.48
   1   3  -6    0.57    0.56
  -1  -3   6    0.17    0.39
  -1  -3   6    0.04    0.63
   0   3  -6   66.54    4.14
   0   3  -6   70.63    4.17
   0   3  -6   73.65    4.28
   0  -3   6   71.40    4.38
   0  -3   6   63.72    3.97
  -1   3  -6    2.41    0.75
  -1   3  -6    2.21    0.71
  -1   3  -6    1.94    0.71
   1  -3   6    2.23    0.62
   1  -3   6    1.97    0.82
   1  -3   6    2.19    0.75
  -2   3  -6    3.67    0.91
  -2   3  -6    3.92    0.87
  -2   3  -6    4.58    0.90
   2  -3   6    5.16    1.03
   2  -3   6    5.23    0.90
   2  -3   6    4.44    1.12
  -3   3  -6   13.66    1.65
  -3   3  -6   15.12    1.88
   3  -3   6   14.24    1.92
   3  -3   6   12.78    1.46
   3  -3   6   13.99    1.72
  -4   3  -6   58.49    4.09
  -4   3  -6   53.40    3.63
  -4   3  -6   57.15    3.67
   4  -3   6   61.95    4.04
   4  -3   6   55.82    3.98
   4  -3   6   54.52    3.57
  -5   3  -6  268.43   14.57
  -5   3  -6  260.52   13.78
  -5   3  -6  255.10   13.77
   5  -3   6  262.11   14.31
   5  -3   6  273.61   14.39
   5  -3   6  262.43   13.93
  -6   3  -6    1.52    1.47
   6  -3   6    2.11    0.90
   6  -3   6    1.54    1.49
   6  -3   6    2.50    1.30
  -7   3  -6   21.81    3.09
   7  -3   6   26.45    2.68
   7  -3   6   28.79    3.79
   7  -3   6   29.75    3.67
   9   2  -6   85.01    5.48
   9   2  -6   87.22    5.45
   9   2  -6   86.76    6.84
   8   2  -6   16.72    2.20
   8   2  -6   16.59    2.61
   8   2  -6   12.76    2.02
   7   2  -6   12.48    1.70
   6   2  -6  144.18    8.04
   6   2  -6  146.32    7.89
   5   2  -6   56.32    3.32
   5   2  -6   50.65    3.45
   4   2  -6   20.60    1.74
   4   2  -6   23.12    1.91
  -4  -2   6   22.23    1.34
  -4  -2   6   21.57    1.50
   3   2  -6  153.31    8.10
  -3  -2   6  140.16    7.67
  -3  -2   6  149.03    7.97
   2   2  -6  521.88   28.72
  -2  -2   6  581.06   28.47
  -2  -2   6  581.22   28.79
   1   2  -6  327.76   17.55
   1   2  -6  326.18   17.47
  -1  -2   6  334.97   17.31
  -1  -2   6  360.39   17.68
   0   2  -6  659.94   37.42
   0   2  -6  619.99   37.32
   0  -2   6  821.24   37.55
   0  -2   6  844.63   37.69
  -1   2  -6  165.48   10.51
  -1   2  -6  221.02   10.64
  -1   2  -6  193.50   10.59
   1  -2   6  207.17   10.44
   1  -2   6  196.52   10.61
   1  -2   6  201.44   10.73
  -2   2  -6  285.65   15.73
  -2   2  -6  280.25   15.78
  -2   2  -6  310.00   15.95
   2  -2   6  311.93   15.97
   2  -2   6  304.50   15.64
   2  -2   6  314.97   15.88
  -3   2  -6   16.10    1.73
  -3   2  -6   16.81    2.07
   3  -2   6   14.69    1.92
   3  -2   6   16.74    1.58
   3  -2   6   19.95    1.97
  -4   2  -6    3.18    0.89
  -4   2  -6    2.89    1.22
  -4   2  -6    4.91    0.99
   4  -2   6    4.98    0.96
   4  -2   6    4.88    1.23
   4  -2   6    3.70    1.19
  -5   2  -6   21.78    1.84
  -5   2  -6   22.13    2.94
  -5   2  -6   22.99    1.86
   5  -2   6   23.68    2.11
   5  -2   6   21.22    2.64
   5  -2   6   19.05    2.71
  -6   2  -6   95.03    6.97
   6  -2   6   99.96    6.06
   6  -2   6  108.76    6.78
   6  -2   6  112.61    6.75
  -7   2  -6   -0.31    2.13
   7  -2   6   -0.61    1.05
   7  -2   6   -1.21    1.83
   7  -2   6   -2.98    1.67
   9   1  -6  300.15   16.13
   9   1  -6  281.64   15.03
   9   1  -6  282.39   15.07
   8   1  -6  211.89   11.32
   8   1  -6  212.16   11.41
   8   1  -6  220.50   12.24
   7   1  -6   37.24    2.67
   7   1  -6   36.77    2.51
   6   1  -6   37.26    2.61
   5   1  -6  207.31   10.72
   5   1  -6  195.31   10.48
   4   1  -6    7.53    1.13
   4   1  -6    7.12    0.92
  -4  -1   6    5.57    0.66
  -4  -1   6    7.12    0.87
   3   1  -6    9.85    1.07
   3   1  -6   11.98    1.32
  -3  -1   6   13.56    1.01
  -3  -1   6   10.23    1.25
   2   1  -6  104.79    6.17
   2   1  -6  111.47    6.13
   2   1  -6  112.28    6.02
  -2  -1   6  107.13    5.91
  -2  -1   6  117.25    6.26
   1   1  -6 1915.18   92.62
   1   1  -6 1793.83   92.48
   1   1  -6 1754.52   92.40
  -1  -1   6 1935.82   92.67
  -1  -1   6 1797.81   92.33
   0   1  -6  631.77   35.25
   0   1  -6  735.07   35.24
   0   1  -6  614.96   35.30
   0  -1   6  722.86   35.45
   0  -1   6  762.75   35.39
  -1   1  -6   59.06    4.01
  -1   1  -6   66.31    4.09
   1  -1   6   70.96    3.88
   1  -1   6   64.55    4.05
   1  -1   6   67.03    4.15
  -2   1  -6   79.67    4.74
  -2   1  -6   76.02    4.60
  -2   1  -6   81.30    4.91
   2  -1   6   74.23    4.45
   2  -1   6   75.11    4.72
   2  -1   6   78.36    4.81
  -3   1  -6  256.02   13.94
  -3   1  -6  266.30   13.55
   3  -1   6  260.47   13.78
   3  -1   6  258.99   13.79
   3  -1   6  240.41   13.40
  -4   1  -6    9.37    1.26
  -4   1  -6    9.90    1.81
  -4   1  -6    8.45    1.31
   4  -1   6   11.82    1.73
   4  -1   6   10.09    1.59
   4  -1   6    8.40    1.39
  -5   1  -6    0.06    0.61
  -5   1  -6    1.01    0.64
  -5   1  -6    2.26    1.56
   5  -1   6    0.44    1.07
   5  -1   6   -1.69    1.22
   5  -1   6   -0.69    0.70
  -6   1  -6   73.56    5.91
   6  -1   6   79.10    5.45
   6  -1   6   67.16    5.38
   6  -1   6   79.27    4.79
  -7   1  -6    3.72    2.70
   7  -1   6    7.92    2.12
   7  -1   6    9.52    2.51
   7  -1   6    7.45    1.49
   9   0  -6  121.11    6.80
   9   0  -6  121.18    6.86
   9   0  -6  134.49    7.97
   8   0  -6  588.14   30.61
   8   0  -6  589.35   29.99
   7   0  -6  237.89   12.04
   7   0  -6  219.96   11.82
   6   0  -6    2.17    0.69
   6   0  -6    0.34    0.44
   5   0  -6    0.97    0.44
   5   0  -6    0.89    0.53
   4   0  -6   52.38    3.13
   4   0  -6   45.65    2.87
  -4   0   6   48.89    2.78
  -4   0   6   49.84    2.91
   3   0  -6  240.28   13.38
   3   0  -6  259.45   13.23
   3   0  -6  254.15   13.32
  -3   0   6  264.37   13.39
  -3   0   6  259.58   13.17
   2   0  -6  453.40   22.90
   2   0  -6  441.49   23.01
   2   0  -6  433.48   22.81
  -2   0   6  455.44   22.77
  -2   0   6  452.04   23.03
   1   0  -6  558.05   29.35
   1   0  -6  546.74   29.14
   1   0  -6  585.03   29.25
  -1   0   6  575.16   29.26
  -1   0   6  563.38   29.36
  -1   0   6  610.18   29.13
   0   0  -6  564.73   27.43
   0   0  -6  494.96   27.56
   0   0   6  563.49   27.36
   0   0   6  537.63   27.50
   0   0   6  523.61   27.59
  -1   0  -6    0.41    0.64
  -1   0  -6   -0.12    0.50
  -1   0  -6    0.35    0.70
   1   0   6    0.69    0.66
   1   0   6    0.10    0.43
   1   0   6    1.02    0.68
  -2   0  -6  329.52   17.93
  -2   0  -6  353.13   18.15
   2   0   6  344.10   17.97
   2   0   6  319.91   17.63
   2   0   6  363.44   18.06
  -3   0  -6   57.13    4.24
  -3   0  -6   60.15    3.69
  -3   0  -6   58.41    3.85
   3   0   6   56.38    3.57
   3   0   6   55.73    3.95
   3   0   6   54.47    3.95
  -4   0  -6    7.41    1.13
  -4   0  -6    5.30    1.08
  -4   0  -6    7.15    1.56
   4   0   6    6.64    1.58
   4   0   6    6.21    1.08
   4   0   6    5.80    1.39
  -5   0  -6    0.55    0.65
  -5   0  -6    0.63    1.44
  -5   0  -6    0.16    0.63
   5   0   6    0.57    0.83
   5   0   6    0.70    1.22
   5   0   6   -0.63    1.40
  -6   0  -6   -2.48    1.88
   6   0   6   -1.54    1.68
   6   0   6    0.51    1.50
   6   0   6    0.57    1.03
   7   0   6    0.53    2.34
  10  -1  -6  219.31   11.62
  10  -1  -6  220.38   11.67
  10  -1  -6  230.91   12.83
   9  -1  -6   25.22    3.21
   9  -1  -6   22.37    2.10
   9  -1  -6   26.49    1.87
   8  -1  -6  156.01    8.23
   8  -1  -6  157.79    8.93
   8  -1  -6  156.97    8.42
   7  -1  -6   33.47    2.35
   7  -1  -6   31.15    2.09
   6  -1  -6 1153.41   57.25
   6  -1  -6 1115.34   57.04
   5  -1  -6  504.05   25.59
   5  -1  -6  496.16   25.38
   4  -1  -6  112.60    6.14
   4  -1  -6  114.39    6.24
   4  -1  -6  116.68    6.38
  -4   1   6  111.92    6.12
  -4   1   6  117.03    6.23
   3  -1  -6  104.97    5.83
   3  -1  -6   97.91    5.61
   3  -1  -6  104.50    5.60
  -3   1   6   97.77    5.59
  -3   1   6  108.00    5.79
   2  -1  -6  188.01    9.53
   2  -1  -6  166.45    9.43
  -2   1   6  181.62    9.55
  -2   1   6  177.26    9.66
  -2   1   6  183.41    9.47
   1  -1  -6  899.91   46.93
   1  -1  -6  932.67   46.81
   1  -1  -6  970.55   46.71
  -1   1   6  898.73   46.74
  -1   1   6  931.41   46.67
  -1   1   6  907.56   46.89
   0  -1  -6  178.53   10.04
   0  -1  -6  182.91   10.14
   0  -1  -6  193.05    9.89
   0   1   6  197.87   10.03
   0   1   6  180.44   10.08
   0   1   6  180.98    9.81
  -1  -1  -6   11.35    1.70
  -1  -1  -6   12.34    1.70
  -1  -1  -6   13.22    1.46
   1   1   6   13.32    1.39
   1   1   6   14.40    1.84
   1   1   6   15.63    1.68
  -2  -1  -6  711.53   34.55
  -2  -1  -6  693.23   34.70
  -2  -1  -6  651.32   34.16
   2   1   6  639.33   34.14
   2   1   6  664.89   34.50
   2   1   6  666.49   34.48
  -3  -1  -6  493.98   26.22
  -3  -1  -6  505.25   26.64
   3   1   6  495.92   25.99
   3   1   6  526.71   26.46
   3   1   6  509.76   26.40
  -4  -1  -6    0.55    1.49
  -4  -1  -6    0.47    0.72
   4   1   6    0.22    0.82
   4   1   6    1.55    1.32
   4   1   6    1.13    1.16
  -5  -1  -6   13.63    1.49
  -5  -1  -6   13.47    2.42
  -5  -1  -6   12.59    1.45
   5   1   6   12.89    2.04
   5   1   6   12.60    2.05
   5   1   6   11.07    2.25
  -6  -1  -6    5.70    2.42
   6   1   6    6.42    1.54
   6   1   6    8.48    2.42
   6   1   6    6.57    2.11
  10  -2  -6    2.77    0.74
  10  -2  -6    1.12    1.00
  10  -2  -6    3.66    1.81
   9  -2  -6   41.65    2.84
   9  -2  -6   39.91    3.46
   9  -2  -6   40.41    2.53
   8  -2  -6  183.56    9.43
   8  -2  -6  184.31    9.66
   8  -2  -6  174.36    9.88
   7  -2  -6   -0.11    0.44
   7  -2  -6   -0.71    0.58
   6  -2  -6  451.01   23.66
   6  -2  -6  480.42   23.92
   5  -2  -6  975.20   49.51
   5  -2  -6  990.72   49.53
   5  -2  -6  992.80   49.75
  -5   2   6  946.25   49.32
  -5   2   6 1005.98   49.34
   4  -2  -6   54.56    3.47
   4  -2  -6   54.06    3.17
   4  -2  -6   57.01    3.22
  -4   2   6   53.87    3.25
  -4   2   6   50.87    3.29
   3  -2  -6   34.80    2.29
   3  -2  -6   35.45    2.59
   3  -2  -6   34.77    2.29
  -3   2   6   38.26    2.53
  -3   2   6   34.22    2.39
   2  -2  -6   88.03    5.32
   2  -2  -6   94.86    5.04
   2  -2  -6   91.83    5.10
  -2   2   6   96.47    5.30
  -2   2   6   87.58    5.05
  -2   2   6   78.56    5.03
   1  -2  -6    4.02    0.99
   1  -2  -6    5.91    0.88
  -1   2   6    4.94    0.99
  -1   2   6    4.79    0.85
  -1   2   6    5.83    0.90
   0  -2  -6  187.73   11.00
   0  -2  -6  222.20   10.77
   0  -2  -6  206.64   11.00
   0   2   6  213.43   11.05
   0   2   6  187.49   10.70
   0   2   6  193.41   10.82
  -1  -2  -6    1.92    0.99
  -1  -2  -6    0.42    0.89
  -1  -2  -6    0.95    0.68
   1   2   6    2.29    0.98
   1   2   6    0.98    0.82
   1   2   6    1.58    0.70
  -2  -2  -6   -0.58    0.63
  -2  -2  -6   -0.33    0.91
  -2  -2  -6   -1.12    0.89
   2   2   6    0.48    0.96
   2   2   6    0.70    0.95
   2   2   6   -0.80    0.65
  -3  -2  -6  365.99   19.83
  -3  -2  -6  362.57   19.37
  -3  -2  -6  356.01   19.03
   3   2   6  380.21   19.65
   3   2   6  357.07   19.17
   3   2   6  382.48   19.60
  -4  -2  -6   14.04    1.94
  -4  -2  -6   10.14    2.23
  -4  -2  -6    9.78    1.33
   4   2   6    6.85    1.72
   4   2   6    7.79    1.85
   4   2   6    8.43    1.45
  -5  -2  -6    0.80    0.66
  -5  -2  -6    1.19    2.04
  -5  -2  -6    0.68    0.72
   5   2   6    0.37    1.76
   5   2   6    0.14    1.62
   5   2   6    0.84    1.14
   6   2   6    5.75    2.22
   6   2   6    7.42    2.59
   6   2   6    8.63    2.03
  10  -3  -6   27.36    2.86
  10  -3  -6   19.52    2.37
  10  -3  -6   21.40    1.77
   9  -3  -6   27.68    2.53
   9  -3  -6   30.61    2.10
   9  -3  -6   31.73    2.65
   8  -3  -6   27.17    2.26
   8  -3  -6   32.56    2.44
   8  -3  -6   26.25    1.99
   7  -3  -6  140.89    7.58
   7  -3  -6  144.31    7.62
   7  -3  -6  142.52    7.89
   6  -3  -6  312.96   18.53
   6  -3  -6  371.06   18.36
   6  -3  -6  386.80   18.25
   5  -3  -6   43.82    2.72
   5  -3  -6   41.23    2.99
   5  -3  -6   43.77    2.53
  -5   3   6   42.30    2.66
  -5   3   6   40.64    2.63
   4  -3  -6    6.98    1.18
   4  -3  -6   10.88    1.22
   4  -3  -6   10.57    1.06
  -4   3   6   10.80    1.33
  -4   3   6    8.87    1.27
   3  -3  -6   44.48    2.73
   3  -3  -6   46.98    2.81
   3  -3  -6   45.20    3.16
  -3   3   6   38.31    2.88
  -3   3   6   43.21    2.70
  -3   3   6   40.41    2.93
   2  -3  -6   61.98    4.08
   2  -3  -6   60.78    3.75
   2  -3  -6   61.70    3.66
  -2   3   6   60.17    3.65
  -2   3   6   65.09    3.99
  -2   3   6   56.36    3.79
   1  -3  -6  154.93    8.46
   1  -3  -6  146.89    8.63
   1  -3  -6  151.65    8.22
  -1   3   6  150.82    8.39
  -1   3   6  147.73    8.30
  -1   3   6  160.69    8.61
   0  -3  -6   57.58    4.17
   0  -3  -6   63.29    3.79
   0  -3  -6   58.92    4.08
   0   3   6   60.59    3.94
   0   3   6   65.35    4.18
   0   3   6   58.65    3.89
  -1  -3  -6   72.45    5.12
  -1  -3  -6   85.34    4.77
  -1  -3  -6   78.16    5.24
   1   3   6   82.65    5.25
   1   3   6   74.82    4.84
   1   3   6   79.40    5.04
  -2  -3  -6  488.05   23.91
  -2  -3  -6  474.52   24.55
  -2  -3  -6  431.29   24.22
   2   3   6  475.43   24.35
   2   3   6  482.97   24.10
   2   3   6  423.65   24.25
  -3  -3  -6   -0.01    1.08
  -3  -3  -6    1.89    1.47
  -3  -3  -6    0.33    0.75
   3   3   6    1.97    1.53
   3   3   6   -0.03    1.03
   3   3   6    0.03    1.29
  -4  -3  -6    1.07    1.05
  -4  -3  -6    2.46    1.04
  -4  -3  -6    0.56    1.76
   4   3   6    1.01    1.16
   4   3   6    0.84    1.48
   4   3   6    4.66    1.91
  -5  -3  -6   11.90    1.50
  -5  -3  -6   12.03    1.46
   5   3   6   12.14    2.64
   5   3   6    9.50    2.06
   5   3   6   11.82    2.41
  10  -4  -6    7.26    1.17
  10  -4  -6    7.82    1.49
  10  -4  -6    8.09    1.09
   9  -4  -6   93.20    5.02
   9  -4  -6   88.54    5.51
   9  -4  -6   89.74    4.93
   9  -4  -6   88.94    5.08
   8  -4  -6   10.41    1.13
   8  -4  -6    9.27    1.43
   8  -4  -6    8.91    0.96
   8  -4  -6    7.26    1.03
   7  -4  -6  218.03   11.31
   7  -4  -6  218.36   11.60
   7  -4  -6  224.90   11.96
   7  -4  -6  220.85   11.25
   6  -4  -6  381.29   19.17
   6  -4  -6  403.98   19.56
   6  -4  -6  367.79   19.82
  -6   4   6  361.80   19.06
   5  -4  -6  157.63    8.71
   5  -4  -6  155.99    8.35
   5  -4  -6  155.61    8.05
  -5   4   6  143.56    8.34
  -5   4   6  157.77    8.33
   4  -4  -6  241.81   13.08
   4  -4  -6  241.48   12.70
   4  -4  -6  241.60   12.52
  -4   4   6  240.71   12.82
   3  -4  -6  661.66   33.74
   3  -4  -6  643.38   33.69
   3  -4  -6  659.03   34.16
  -3   4   6  648.22   33.97
  -3   4   6  663.35   33.62
  -3   4   6  699.92   34.01
   2  -4  -6    8.98    1.31
   2  -4  -6   12.56    1.45
   2  -4  -6    8.95    1.52
  -2   4   6    7.70    1.31
  -2   4   6    9.51    1.28
  -2   4   6   10.77    1.74
   1  -4  -6  811.42   39.97
   1  -4  -6  759.35   39.61
   1  -4  -6  838.53   39.45
  -1   4   6  766.07   39.77
  -1   4   6  755.53   39.48
  -1   4   6  719.21   39.61
   0  -4  -6   16.23    2.34
   0  -4  -6   14.22    2.01
   0  -4  -6   20.02    1.88
   0   4   6   17.32    2.08
   0   4   6   17.34    1.94
   0   4   6   18.22    2.27
  -1  -4  -6    2.62    0.96
  -1  -4  -6    0.07    1.19
  -1  -4  -6    2.74    1.30
   1   4   6    3.59    1.25
   1   4   6    1.69    1.01
   1   4   6    2.35    1.22
  -2  -4  -6   63.97    4.81
  -2  -4  -6   62.50    4.58
  -2  -4  -6   64.49    4.08
   2   4   6   59.06    4.43
   2   4   6   63.26    4.69
   2   4   6   62.76    4.66
  -3  -4  -6   52.11    3.47
  -3  -4  -6   48.07    4.38
  -3  -4  -6   44.58    3.87
   3   4   6   47.74    4.28
   3   4   6   47.17    3.94
  -4  -4  -6   19.07    2.68
   4   4   6   23.06    3.21
   4   4   6   20.07    2.92
   4   4   6   20.99    3.04
  10  -5  -6    7.83    1.30
  10  -5  -6    8.08    1.82
   9  -5  -6   11.80    1.75
   9  -5  -6   12.76    1.80
   8  -5  -6    1.08    1.10
   8  -5  -6    1.06    0.79
   7  -5  -6   88.46    5.54
   7  -5  -6   85.35    5.10
   6  -5  -6  527.01   25.68
   6  -5  -6  474.28   25.97
  -6   5   6  512.52   25.42
  -6   5   6  480.84   25.45
   5  -5  -6   25.46    2.15
   5  -5  -6   26.23    1.66
   5  -5  -6   22.10    2.50
  -5   5   6   24.08    2.14
   4  -5  -6   70.42    4.73
   4  -5  -6   67.98    4.23
   4  -5  -6   71.75    3.98
  -4   5   6   66.44    4.44
  -4   5   6   69.36    4.42
  -4   5   6   66.47    3.89
   3  -5  -6  628.40   32.20
   3  -5  -6  617.30   32.74
   3  -5  -6  678.03   32.31
  -3   5   6  585.54   32.51
  -3   5   6  609.46   32.07
  -3   5   6  667.52   32.59
   2  -5  -6   -0.48    0.70
   2  -5  -6   -1.49    0.93
  -2   5   6    0.73    1.00
  -2   5   6   -0.06    0.93
  -2   5   6    0.34    0.67
   1  -5  -6   40.02    2.80
   1  -5  -6   39.53    3.44
   1  -5  -6   33.11    2.98
  -1   5   6   36.15    3.12
  -1   5   6   32.26    3.24
  -1   5   6   37.21    2.81
   0  -5  -6  527.91   25.42
   0  -5  -6  494.17   25.82
   0   5   6  475.07   25.61
   0   5   6  512.30   25.94
   0   5   6  449.01   25.70
  -1  -5  -6    8.26    1.69
  -1  -5  -6    9.20    1.36
  -1  -5  -6    7.38    1.79
   1   5   6    8.91    1.95
   1   5   6    9.74    1.79
   1   5   6    8.25    1.71
  -2  -5  -6   45.19    4.27
  -2  -5  -6   60.34    3.79
   2   5   6   52.44    4.57
   2   5   6   48.80    4.16
   2   5   6   61.46    4.70
  -3  -5  -6    3.61    1.17
  -3  -5  -6    2.88    1.47
   3   5   6   -1.30    2.01
   3   5   6    1.59    1.61
   3   5   6    3.73    1.86
  -4  -5  -6   67.75    4.98
   4   5   6   82.05    6.32
   4   5   6   69.63    5.91
   4   5   6   73.95    6.21
  10  -6  -6    0.97    1.69
  10  -6  -6    1.03    1.19
   9  -6  -6  130.57    8.10
   9  -6  -6  136.20    7.61
   8  -6  -6   -0.33    0.94
   8  -6  -6   -0.09    1.28
   7  -6  -6    6.54    1.29
   7  -6  -6    5.60    1.53
   6  -6  -6  247.34   13.27
   6  -6  -6  236.38   12.77
  -6   6   6  240.95   12.60
  -6   6   6  229.38   12.69
   5  -6  -6    0.32    1.11
   5  -6  -6   -0.78    0.76
  -5   6   6   -0.09    0.86
  -5   6   6   -0.82    0.88
   4  -6  -6  303.48   16.18
   4  -6  -6  289.21   16.89
   4  -6  -6  338.44   16.53
  -4   6   6  296.08   16.73
  -4   6   6  328.10   16.71
  -4   6   6  319.59   16.10
   3  -6  -6  208.89   11.63
   3  -6  -6  184.46   10.93
   3  -6  -6  208.59   10.95
  -3   6   6  202.13   11.41
  -3   6   6  207.10   11.36
  -3   6   6  208.97   10.81
   2  -6  -6    1.84    0.99
   2  -6  -6    2.01    1.35
   2  -6  -6    3.03    1.10
  -2   6   6    0.79    1.27
  -2   6   6    2.83    1.30
  -2   6   6    2.63    1.02
   1  -6  -6  115.14    6.80
   1  -6  -6  122.61    7.18
   1  -6  -6  117.19    7.55
  -1   6   6  120.30    7.37
  -1   6   6  126.61    7.04
  -1   6   6  109.73    7.33
   0  -6  -6   10.11    2.01
   0  -6  -6    9.64    1.42
   0   6   6    9.68    1.95
   0   6   6   12.92    1.91
   0   6   6   11.11    1.95
  -1  -6  -6   -1.21    0.89
  -1  -6  -6   -0.48    1.44
   1   6   6    0.23    1.46
   1   6   6    2.80    1.46
   1   6   6   -0.36    1.35
  -2  -6  -6   45.59    4.27
  -2  -6  -6   42.33    3.51
   2   6   6   51.06    4.78
   2   6   6   52.39    4.62
   2   6   6   41.51    4.35
  -3  -6  -6    3.94    1.33
  -3  -6  -6    0.91    1.74
   3   6   6    0.81    2.03
   3   6   6    2.96    2.12
   3   6   6    5.85    2.24
  10  -7  -6   48.64    3.92
  10  -7  -6   46.98    4.89
   9  -7  -6   35.93    4.04
   9  -7  -6   38.75    3.36
   8  -7  -6   82.33    5.17
   8  -7  -6   75.76    5.68
   7  -7  -6  131.48    8.20
   7  -7  -6  133.02    7.71
  -7   7   6  141.09    7.21
  -7   7   6  124.56    7.21
   6  -7  -6    0.28    1.29
   6  -7  -6   -0.64    0.91
  -6   7   6    0.31    0.93
  -6   7   6   -1.78    0.89
   5  -7  -6   19.13    2.77
   5  -7  -6   19.56    2.25
  -5   7   6   16.87    2.34
  -5   7   6   18.63    2.46
   4  -7  -6  123.27    6.80
   4  -7  -6  114.28    7.32
  -4   7   6  108.90    7.10
  -4   7   6  110.04    6.23
  -4   7   6  113.78    6.98
   3  -7  -6  498.03   28.29
   3  -7  -6  556.70   27.78
  -3   7   6  544.88   27.52
  -3   7   6  511.22   28.19
  -3   7   6  570.22   28.20
   2  -7  -6   30.09    2.72
   2  -7  -6   32.37    3.58
  -2   7   6   29.75    3.41
  -2   7   6   27.31    2.60
  -2   7   6   29.85    3.34
   1  -7  -6  182.85    9.68
   1  -7  -6  172.95   10.42
  -1   7   6  157.44   10.22
  -1   7   6  179.31   10.35
  -1   7   6  170.88    9.80
   0  -7  -6   26.47    3.56
   0  -7  -6   28.38    2.70
   0   7   6   23.74    3.13
   0   7   6   23.62    3.50
  -1  -7  -6   -1.64    1.67
  -1  -7  -6   -0.79    1.17
   1   7   6    2.37    1.85
   1   7   6   -0.58    1.67
   1   7   6   -0.48    1.79
  -2  -7  -6   27.04    2.98
  -2  -7  -6   30.51    3.96
   2   7   6   27.86    4.46
   2   7   6   32.43    4.49
   2   7   6   23.08    3.33
   9  -8  -6   20.97    3.04
   9  -8  -6   22.54    3.13
   8  -8  -6   57.50    4.26
   8  -8  -6   46.06    4.77
   7  -8  -6   26.20    3.07
   7  -8  -6   27.14    3.67
  -7   8   6   28.99    2.53
  -7   8   6   36.37    2.85
   6  -8  -6    0.54    1.18
   6  -8  -6   -0.95    1.59
  -6   8   6   -1.53    1.18
  -6   8   6   -2.09    1.08
   5  -8  -6   79.95    5.02
   5  -8  -6   71.72    5.49
  -5   8   6   74.08    4.02
  -5   8   6   71.26    5.03
  -5   8   6   64.56    5.13
   4  -8  -6    0.92    1.10
   4  -8  -6   -1.21    1.48
  -4   8   6    0.90    0.73
  -4   8   6   -0.35    1.29
  -4   8   6   -0.68    1.37
   3  -8  -6   41.05    3.27
   3  -8  -6   36.08    3.82
  -3   8   6   38.79    3.94
  -3   8   6   43.13    3.87
  -3   8   6   33.41    2.88
   2  -8  -6    7.86    2.02
  -2   8   6    8.33    1.50
   1  -8  -6   25.25    3.78
  -1   8   6   31.32    3.29
  -1   8   6   33.74    4.13
  -1   8   6   26.42    3.69
   0  -8  -6    7.60    2.34
   0  -8  -6    3.15    1.41
   0   8   6    5.55    2.21
   0   8   6    5.01    2.23
  -1  -8  -6    0.08    1.34
  -1  -8  -6    4.15    2.05
   1   8   6    4.59    2.55
   1   8   6    2.68    2.40
   9  -9  -6   18.29    2.52
   9  -9  -6   16.03    2.93
   8  -9  -6   78.14    5.20
   8  -9  -6   65.78    5.82
  -8   9   6   63.29    3.85
  -8   9   6   60.18    3.83
   7  -9  -6   50.00    5.10
  -7   9   6   50.07    4.17
  -7   9   6   63.04    4.13
   6  -9  -6    5.25    1.94
  -6   9   6    3.24    1.64
  -6   9   6    5.48    1.63
   5  -9  -6   16.83    2.88
   5  -9  -6   19.25    2.73
  -5   9   6   20.12    3.31
  -5   9   6   20.89    1.66
  -5   9   6   21.12    3.15
   4  -9  -6  235.47   12.00
   4  -9  -6  197.43   12.51
  -4   9   6  200.71   12.44
  -4   9   6  214.72   12.26
  -4   9   6  212.60   11.33
   3  -9  -6    1.76    1.28
   3  -9  -6    2.94    1.98
  -3   9   6    4.51    1.89
  -3   9   6    0.48    1.72
  -3   9   6    0.35    1.10
   2  -9  -6    4.58    1.55
   2  -9  -6    4.02    2.17
  -2   9   6    0.87    1.99
  -2   9   6    4.35    2.07
  -2   9   6    4.29    1.45
   1  -9  -6   65.57    5.96
   1  -9  -6   70.67    4.89
  -1   9   6   64.24    5.23
  -1   9   6   64.84    6.23
  -1   9   6   79.28    6.21
   0  -9  -6   79.63    5.22
   0  -9  -6   69.34    6.38
   0   9   6   72.73    6.36
   0   9   6   66.61    5.79
   0   9   6   67.49    6.47
   8 -10  -6   44.56    5.56
   8 -10  -6   49.61    4.48
  -8  10   6   47.28    3.53
  -8  10   6   34.78    3.30
   7 -10  -6  216.47   12.32
   7 -10  -6  203.17   13.04
  -7  10   6  229.35   12.11
  -7  10   6  208.42   12.20
   6 -10  -6  173.55    9.78
   6 -10  -6  154.52   10.50
  -6  10   6  147.88    9.99
  -6  10   6  171.86    9.85
   5 -10  -6   21.73    3.40
   5 -10  -6   30.00    3.39
  -5  10   6   20.55    3.08
  -5  10   6   25.60    2.03
   4 -10  -6    7.74    2.31
   4 -10  -6    3.42    1.68
  -4  10   6    4.93    2.32
  -4  10   6    2.26    1.22
  -4  10   6    5.67    2.19
   3 -10  -6    0.81    1.48
   3 -10  -6   -2.18    2.29
  -3  10   6    1.17    2.25
  -3  10   6    0.03    2.28
   2 -10  -6   -1.71    1.54
   2 -10  -6   -2.47    2.38
  -2  10   6    2.42    2.52
  -2  10   6    5.18    2.44
  -2  10   6   -1.63    1.70
   6 -11  -6    3.09    2.03
   6 -11  -6   -5.10    3.43
  -6  11   6    4.28    2.09
  -6  11   6   -0.79    2.41
   5 -11  -6   33.07    4.06
  -5  11   6   38.30    4.92
  -5  11   6   40.33    5.45
   4 -11  -6   -3.44    2.09
  -4  11   6    3.71    2.72
  -4  11   6    1.11    2.40
  -4  11   6   -1.49    1.34
   0  12  -7    6.43    2.60
   0  12  -7   12.75    3.15
   0 -12   7    8.65    2.32
   0 -12   7   10.09    2.86
  -1  12  -7   83.35    7.08
  -1  12  -7   94.04    7.58
   1 -12   7   90.66    6.53
   1 -12   7   96.62    7.43
  -2  12  -7   74.45    5.32
  -2  12  -7   50.88    5.78
  -2  12  -7   74.33    6.29
   2 -12   7   64.14    5.54
   2 -12   7   71.31    6.30
  -3  12  -7   90.59    7.14
  -3  12  -7  110.77    7.73
  -3  12  -7   89.68    6.41
   3 -12   7  100.62    7.78
   3 -12   7   87.97    6.92
  -4  12  -7   13.02    2.54
  -4  12  -7   17.19    2.42
  -4  12  -7   12.98    2.87
   4 -12   7   15.98    3.18
   4 -12   7   14.09    2.62
  -5  12  -7  115.53    8.10
  -5  12  -7  126.74    7.64
  -5  12  -7  114.34    8.53
   5 -12   7  112.78    8.32
   5 -12   7  126.99    9.15
   2  11  -7    3.72    2.48
   2  11  -7    2.92    2.69
  -2 -11   7    4.04    1.78
   1  11  -7   15.78    3.12
   1  11  -7   19.65    3.31
  -1 -11   7   25.10    3.40
  -1 -11   7   24.97    3.97
   0  11  -7    1.07    1.98
   0  11  -7    2.36    2.29
   0 -11   7    0.39    2.13
   0 -11   7    2.54    1.72
  -1  11  -7   18.53    3.16
  -1  11  -7   13.54    2.66
   1 -11   7   17.70    2.78
  -2  11  -7   -3.05    1.90
  -2  11  -7   -1.12    1.44
  -2  11  -7   -2.13    1.62
   2 -11   7    1.51    2.13
   2 -11   7   -0.02    1.47
  -3  11  -7   30.32    3.79
  -3  11  -7   28.85    4.34
  -3  11  -7   29.35    3.27
   3 -11   7   33.75    4.47
   3 -11   7   32.63    3.68
  -4  11  -7    1.00    1.78
  -4  11  -7    1.28    1.37
   4 -11   7    2.04    2.27
   4 -11   7    3.05    1.75
  -5  11  -7   68.97    4.94
  -5  11  -7   64.89    5.22
   5 -11   7   61.76    6.28
   5 -11   7   59.32    5.37
  -6  11  -7   12.95    2.10
  -6  11  -7   10.92    2.50
  -6  11  -7    8.33    1.87
   6 -11   7    6.86    2.99
   6 -11   7   10.18    2.50
   3  10  -7   18.26    3.26
   3  10  -7   19.75    3.42
  -3 -10   7   25.31    3.35
  -3 -10   7   22.56    2.54
   2  10  -7  167.14   10.29
   2  10  -7  146.33   10.04
  -2 -10   7  160.51    9.57
   1  10  -7    2.38    1.90
   1  10  -7    1.11    1.88
  -1 -10   7    1.65    1.67
  -1 -10   7    1.05    1.33
   0  10  -7    1.09    1.56
   0 -10   7    0.18    1.78
   0 -10   7    0.63    1.20
  -1  10  -7   62.82    5.33
   1 -10   7   71.33    5.47
   1 -10   7   68.37    4.91
  -2  10  -7   28.78    3.49
  -2  10  -7   28.93    3.10
  -2  10  -7   25.78    3.72
   2 -10   7   30.78    3.21
  -3  10  -7    1.70    1.70
  -3  10  -7    0.12    1.39
  -3  10  -7   -0.57    1.17
   3 -10   7    0.89    1.36
  -4  10  -7  129.94    8.51
  -4  10  -7  132.06    7.93
  -4  10  -7  136.27    8.29
   4 -10   7  131.92    8.89
   4 -10   7  131.13    8.20
  -5  10  -7   29.42    3.41
  -5  10  -7   27.14    3.92
  -5  10  -7   30.98    3.18
   5 -10   7   20.40    3.32
   5 -10   7   22.99    3.49
  -6  10  -7   94.67    6.34
  -6  10  -7   95.11    6.14
  -6  10  -7  107.82    6.72
   6 -10   7   77.84    7.27
   6 -10   7   91.94    6.62
   4   9  -7  213.98   12.99
   4   9  -7  222.85   13.09
  -4  -9   7  224.43   11.64
  -4  -9   7  203.68   11.40
   3   9  -7  197.38   11.01
   3   9  -7  147.57   10.44
  -3  -9   7  179.42    9.93
  -3  -9   7  169.51    9.48
   2   9  -7   53.50    4.59
   2   9  -7   40.34    4.37
  -2  -9   7   42.25    3.99
   1   9  -7  479.95   26.85
   1   9  -7  529.59   27.03
  -1  -9   7  498.82   26.72
  -1  -9   7  510.20   26.38
   0   9  -7   26.18    3.27
   0   9  -7   36.55    3.66
   0  -9   7   30.85    3.02
   0  -9   7   30.64    3.61
  -1   9  -7   -0.36    1.09
  -1   9  -7    1.16    1.56
   1  -9   7   -0.22    1.10
   1  -9   7    0.12    1.52
  -2   9  -7   75.22    4.99
  -2   9  -7   75.17    5.40
  -2   9  -7   75.12    5.53
   2  -9   7   75.19    5.18
   2  -9   7   72.16    5.66
  -3   9  -7  222.18   12.15
  -3   9  -7  208.30   11.88
  -3   9  -7  208.55   11.59
   3  -9   7  200.25   11.75
   3  -9   7  204.08   12.24
  -4   9  -7   64.88    4.66
  -4   9  -7   63.50    4.77
  -4   9  -7   62.49    5.02
   4  -9   7   70.03    4.91
   4  -9   7   70.85    5.61
  -6   9  -7   39.88    3.98
  -6   9  -7   42.79    3.91
  -6   9  -7   40.66    3.48
   6  -9   7   32.32    4.96
   6  -9   7   48.75    4.12
  -7   9  -7    1.64    1.31
  -7   9  -7    2.57    1.96
   7  -9   7    1.17    1.82
   7  -9   7    4.01    2.58
   5   8  -7  166.89   11.44
   5   8  -7  214.07   11.85
   4   8  -7  113.06    7.56
   4   8  -7  114.25    7.64
  -4  -8   7  105.08    6.10
  -4  -8   7  110.57    6.39
   3   8  -7   20.18    3.14
   3   8  -7   11.69    2.27
  -3  -8   7   11.40    1.77
   2   8  -7  572.34   28.98
   2   8  -7  533.95   28.89
  -2  -8   7  535.24   28.60
   1   8  -7    8.43    1.84
   1   8  -7    7.84    1.64
  -1  -8   7    7.23    1.63
  -1  -8   7    5.81    1.29
   0   8  -7   23.17    2.94
   0   8  -7   24.74    2.84
   0  -8   7   24.86    2.50
   0  -8   7   22.87    3.02
  -1   8  -7    0.73    1.11
  -1   8  -7    0.13    1.17
  -1   8  -7    2.06    1.35
   1  -8   7    1.78    1.01
   1  -8   7    0.43    1.46
  -2   8  -7    1.98    1.46
  -2   8  -7    3.56    1.21
  -2   8  -7    3.46    1.30
   2  -8   7    2.72    1.14
   2  -8   7    2.76    1.50
  -3   8  -7   52.32    4.01
  -3   8  -7   53.95    4.26
  -3   8  -7   42.70    3.59
   3  -8   7   54.50    3.87
   3  -8   7   49.74    4.32
  -4   8  -7   33.25    3.15
  -4   8  -7   38.89    3.18
  -4   8  -7   29.43    3.38
   4  -8   7   33.51    3.87
   4  -8   7   40.45    3.34
  -5   8  -7  289.44   15.56
  -5   8  -7  289.26   15.48
  -5   8  -7  291.26   15.33
   5  -8   7  280.88   16.05
   5  -8   7  269.71   15.46
  -6   8  -7  126.30    7.48
  -6   8  -7  124.26    7.22
  -6   8  -7  119.67    7.69
   6  -8   7  126.39    7.73
  -7   8  -7   57.49    3.70
  -7   8  -7   61.79    5.06
  -7   8  -7   66.02    3.89
   7  -8   7   55.07    5.91
   6   7  -7   62.66    5.78
   6   7  -7   73.01    5.98
   5   7  -7   -1.00    1.70
   5   7  -7   -0.33    1.66
   4   7  -7   32.71    3.70
   4   7  -7   30.28    3.61
  -4  -7   7   35.22    2.73
  -4  -7   7   35.52    2.36
   3   7  -7   26.42    3.17
   3   7  -7   28.11    3.20
  -3  -7   7   26.62    2.72
  -3  -7   7   28.09    2.24
   2   7  -7   46.94    3.93
   2   7  -7   45.74    4.01
  -2  -7   7   49.03    3.28
  -2  -7   7   53.07    3.92
   1   7  -7 2434.79  118.91
   1   7  -7 2338.51  118.89
  -1  -7   7 2285.08  118.81
   0   7  -7   86.90    5.64
   0   7  -7   88.36    5.72
   0  -7   7   85.49    5.30
   0  -7   7   81.66    5.73
  -1   7  -7    6.80    1.50
  -1   7  -7    3.39    1.20
  -1   7  -7    4.74    1.15
   1  -7   7    4.92    1.17
   1  -7   7    3.36    1.36
  -2   7  -7  329.09   16.93
  -2   7  -7  311.81   16.58
  -2   7  -7  315.89   16.80
   2  -7   7  316.36   16.64
   2  -7   7  285.07   16.93
  -3   7  -7   -0.60    0.99
  -3   7  -7    1.33    1.15
  -3   7  -7    0.15    0.93
   3  -7   7   -1.07    1.25
   3  -7   7    0.98    1.02
  -4   7  -7    6.79    1.58
  -4   7  -7    8.79    1.52
  -4   7  -7    8.32    1.50
   4  -7   7    8.26    1.51
   4  -7   7   12.35    2.04
  -5   7  -7   31.08    3.13
  -5   7  -7   39.69    3.23
  -5   7  -7   32.29    2.92
   5  -7   7   27.87    3.70
  -6   7  -7   10.07    1.60
  -6   7  -7   11.59    2.07
  -6   7  -7    9.26    1.38
   6  -7   7   11.16    2.32
  -7   7  -7   57.48    5.12
   7  -7   7   59.30    4.48
   7   6  -7   14.21    2.70
   7   6  -7   13.06    2.78
   6   6  -7   -0.65    1.65
   6   6  -7    2.46    1.71
   5   6  -7  150.65    9.06
   5   6  -7  149.94    8.97
   4   6  -7   -0.30    1.16
   4   6  -7   -1.43    1.01
  -4  -6   7   -0.44    0.71
  -4  -6   7    0.45    0.49
   3   6  -7   50.25    3.80
   3   6  -7   42.32    3.69
  -3  -6   7   46.51    2.99
  -3  -6   7   45.89    3.44
   2   6  -7  345.59   17.94
   2   6  -7  345.15   17.87
  -2  -6   7  326.38   17.73
  -2  -6   7  315.72   17.28
   1   6  -7  517.22   25.93
   1   6  -7  485.83   25.90
  -1  -6   7  473.21   25.42
  -1  -6   7  503.67   25.95
   0   6  -7   58.31    4.08
   0   6  -7   54.63    3.83
   0   6  -7   57.43    4.07
   0  -6   7   53.85    4.14
  -1   6  -7   86.58    5.57
  -1   6  -7   88.66    5.39
  -1   6  -7   84.14    5.44
   1  -6   7   85.69    5.69
  -2   6  -7   96.07    5.80
  -2   6  -7   90.43    5.89
  -2   6  -7   98.71    6.03
   2  -6   7   98.19    6.22
  -3   6  -7  399.19   21.86
  -3   6  -7  432.76   22.10
  -3   6  -7  425.07   21.96
   3  -6   7  415.93   22.29
  -4   6  -7   15.79    2.38
  -4   6  -7   19.19    2.16
  -4   6  -7   18.55    2.14
   4  -6   7   17.50    2.63
  -5   6  -7   32.66    3.08
  -5   6  -7   36.74    3.34
  -5   6  -7   36.37    2.89
   5  -6   7   33.12    2.93
   5  -6   7   38.47    3.34
   5  -6   7   31.56    3.73
  -6   6  -7   28.99    2.44
  -6   6  -7   28.48    2.60
  -6   6  -7   31.19    3.47
   6  -6   7   25.47    3.84
   6  -6   7   28.13    2.82
   6  -6   7   29.11    3.41
  -7   6  -7    0.68    1.79
   7  -6   7    0.40    1.38
   7   5  -7    4.05    1.78
   7   5  -7    7.20    1.99
   6   5  -7    3.28    1.42
   6   5  -7    5.68    1.66
   5   5  -7    2.01    1.21
   5   5  -7    0.18    1.09
   4   5  -7   22.53    2.61
   4   5  -7   24.08    2.55
  -4  -5   7   25.06    2.03
  -4  -5   7   23.53    1.67
   3   5  -7    2.41    1.03
   3   5  -7    3.39    1.16
  -3  -5   7    3.97    1.03
   2   5  -7   61.27    4.25
   2   5  -7   61.89    4.21
  -2  -5   7   60.91    4.24
  -2  -5   7   65.32    3.80
   1   5  -7   68.68    4.35
   1   5  -7   62.82    4.28
  -1  -5   7   59.65    4.33
  -1  -5   7   66.35    3.95
   0   5  -7    3.03    0.92
   0   5  -7    4.17    1.03
   0   5  -7    3.56    1.08
   0  -5   7    4.41    0.88
   0  -5   7    2.68    1.09
  -1   5  -7  245.83   12.83
  -1   5  -7  224.90   12.62
  -1   5  -7  229.22   12.80
   1  -5   7  256.16   13.06
   1  -5   7  222.78   12.48
  -2   5  -7 1881.87   99.02
  -2   5  -7 2026.56   99.04
  -2   5  -7 2030.66   98.98
   2  -5   7 1855.20   98.75
   2  -5   7 2015.63   99.28
  -3   5  -7   99.73    5.94
  -3   5  -7   95.05    5.99
  -3   5  -7   97.50    5.96
   3  -5   7  101.21    5.80
   3  -5   7   93.28    6.21
   3  -5   7   99.09    6.00
  -4   5  -7   12.49    2.01
  -4   5  -7   11.44    1.81
  -4   5  -7    8.63    1.62
   4  -5   7   11.34    1.55
   4  -5   7   15.11    2.31
   4  -5   7   10.52    1.73
  -5   5  -7    3.07    1.51
  -5   5  -7    3.91    1.15
  -5   5  -7    3.57    1.12
   5  -5   7    4.06    1.53
   5  -5   7    3.43    1.17
   5  -5   7    3.75    1.31
  -6   5  -7    8.65    1.24
  -6   5  -7    8.54    1.15
  -6   5  -7   10.75    1.96
   6  -5   7    5.64    2.00
   6  -5   7   10.66    2.07
   6  -5   7    7.75    1.49
  -7   5  -7   -0.05    2.05
   7  -5   7    2.17    1.33
   7  -5   7    3.01    1.92
   8   4  -7   63.82    5.08
   8   4  -7   65.74    5.15
   7   4  -7  127.92    7.60
   7   4  -7  123.55    7.62
   6   4  -7   39.40    3.38
   6   4  -7   37.51    3.24
   5   4  -7  166.88    9.43
   5   4  -7  171.37    9.58
   4   4  -7    3.19    1.07
   4   4  -7    3.12    1.01
  -4  -4   7    4.35    0.85
  -4  -4   7    4.02    0.57
   3   4  -7  148.51    8.63
   3   4  -7  163.80    8.60
  -3  -4   7  147.31    8.47
  -3  -4   7  152.86    8.13
   2   4  -7   32.32    2.68
   2   4  -7   37.36    2.68
  -2  -4   7   31.38    2.21
  -2  -4   7   29.84    2.66
   1   4  -7  113.78    7.04
   1   4  -7  121.35    6.99
   1   4  -7  125.31    7.04
  -1  -4   7  125.82    7.22
  -1  -4   7  127.48    6.78
   0   4  -7   47.08    3.39
   0   4  -7   48.08    3.42
   0   4  -7   48.39    3.28
   0  -4   7   52.74    3.66
   0  -4   7   45.84    3.09
  -1   4  -7  350.61   17.92
  -1   4  -7  334.21   17.95
  -1   4  -7  341.43   17.97
   1  -4   7  324.69   17.70
   1  -4   7  353.86   18.18
  -2   4  -7  278.40   14.80
  -2   4  -7  282.05   14.77
  -2   4  -7  277.02   14.76
   2  -4   7  277.69   14.80
   2  -4   7  267.30   14.54
   2  -4   7  276.21   14.97
  -3   4  -7  418.91   21.78
  -3   4  -7  439.14   21.67
  -3   4  -7  394.22   21.62
   3  -4   7  402.36   21.87
   3  -4   7  403.63   21.45
   3  -4   7  426.12   21.76
  -4   4  -7   49.48    3.68
  -4   4  -7   54.32    3.62
  -4   4  -7   50.27    3.91
   4  -4   7   52.85    4.07
   4  -4   7   49.41    3.47
  -5   4  -7   65.57    4.86
  -5   4  -7   60.76    4.12
  -5   4  -7   61.47    4.10
   5  -4   7   66.22    4.86
   5  -4   7   62.68    4.18
   5  -4   7   67.43    4.60
  -6   4  -7    2.05    0.68
  -6   4  -7    2.91    0.79
  -6   4  -7   -1.07    1.62
   6  -4   7    2.30    1.67
   6  -4   7    4.51    1.59
   6  -4   7    2.65    1.14
  -7   4  -7    8.80    2.50
   7  -4   7    7.06    2.17
   7  -4   7    5.98    1.48
   8   3  -7    1.23    1.40
   8   3  -7    5.97    1.55
   7   3  -7   62.57    4.42
   7   3  -7   63.61    4.35
   6   3  -7  147.59    8.11
   6   3  -7  134.68    7.91
   5   3  -7   31.39    2.61
   5   3  -7   28.73    2.43
   4   3  -7  228.28   12.29
   4   3  -7  226.00   12.13
  -4  -3   7  224.99   11.68
  -4  -3   7  230.72   11.95
   3   3  -7   33.75    2.50
   3   3  -7   31.96    2.61
  -3  -3   7   33.19    2.15
  -3  -3   7   33.40    2.54
   2   3  -7  249.89   13.02
   2   3  -7  252.43   12.91
   2   3  -7  236.50   12.90
  -2  -3   7  230.13   12.97
   1   3  -7   31.10    2.37
   1   3  -7   28.94    2.44
   1   3  -7   30.20    2.36
  -1  -3   7   28.24    2.53
  -1  -3   7   30.33    2.11
   0   3  -7   29.88    2.27
   0   3  -7   24.71    2.33
   0   3  -7   28.90    2.33
   0  -3   7   30.44    2.59
   0  -3   7   30.31    2.15
  -1   3  -7  203.52   10.89
  -1   3  -7  206.41   10.93
  -1   3  -7  191.84   10.86
   1  -3   7  191.35   11.02
   1  -3   7  211.11   10.71
   1  -3   7  197.18   10.91
  -2   3  -7   26.37    2.47
  -2   3  -7   27.00    2.42
  -2   3  -7   29.19    2.47
   2  -3   7   27.30    2.21
   2  -3   7   28.41    2.60
   2  -3   7   29.00    2.46
  -3   3  -7   31.35    2.51
  -3   3  -7   25.47    2.63
  -3   3  -7   27.27    2.55
   3  -3   7   31.54    2.82
   3  -3   7   23.41    2.20
   3  -3   7   28.49    2.58
  -4   3  -7   56.20    4.32
  -4   3  -7   54.86    3.82
  -4   3  -7   56.00    3.85
   4  -3   7   56.63    4.08
   4  -3   7   55.67    3.72
   4  -3   7   59.83    4.30
  -5   3  -7   38.16    2.94
  -5   3  -7   35.73    2.88
  -5   3  -7   40.98    3.71
   5  -3   7   39.89    3.73
   5  -3   7   36.26    3.54
   5  -3   7   41.09    3.03
  -6   3  -7   42.47    4.51
   6  -3   7   50.43    4.53
   6  -3   7   40.74    3.45
   6  -3   7   57.56    4.54
  -7   3  -7    5.27    2.51
   7  -3   7    4.21    2.32
   7  -3   7    3.61    1.45
   9   2  -7   30.16    3.30
   9   2  -7   28.70    3.19
   9   2  -7   32.36    3.97
   8   2  -7   92.24    5.72
   8   2  -7   93.90    5.67
   7   2  -7    3.55    1.09
   7   2  -7    2.26    0.96
   6   2  -7   46.99    3.10
   6   2  -7   43.09    3.23
   5   2  -7   86.54    5.24
   5   2  -7   88.48    5.10
   4   2  -7   71.34    4.53
  -4  -2   7   73.04    4.00
  -4  -2   7   75.73    4.29
   3   2  -7    0.62    0.68
  -3  -2   7    0.25    0.37
  -3  -2   7    0.88    0.70
   2   2  -7   -0.76    0.59
   2   2  -7    1.02    0.62
  -2  -2   7   -0.21    0.71
   1   2  -7   94.66    5.71
   1   2  -7   97.73    5.63
  -1  -2   7   95.84    5.42
  -1  -2   7  103.32    5.86
   0   2  -7    8.87    1.35
   0   2  -7    5.90    1.07
   0   2  -7    6.28    1.04
   0  -2   7    6.97    1.16
   0  -2   7    6.98    1.25
   0  -2   7    7.69    1.09
  -1   2  -7   42.34    3.10
  -1   2  -7   39.82    3.03
  -1   2  -7   50.59    3.17
   1  -2   7   41.11    3.25
   1  -2   7   46.36    2.88
   1  -2   7   39.82    3.08
  -2   2  -7    1.27    0.76
  -2   2  -7    0.68    0.90
  -2   2  -7    1.09    0.81
   2  -2   7    0.80    0.89
   2  -2   7    3.63    1.05
   2  -2   7    1.46    0.72
  -3   2  -7   27.17    2.40
  -3   2  -7   27.88    2.66
  -3   2  -7   24.88    2.44
   3  -2   7   26.92    2.19
   3  -2   7   28.04    2.63
   3  -2   7   22.22    2.61
  -4   2  -7   85.13    5.61
  -4   2  -7   84.10    5.08
  -4   2  -7   82.35    5.02
   4  -2   7   78.90    5.43
   4  -2   7   71.55    4.85
   4  -2   7   86.85    5.48
  -5   2  -7  233.28   12.76
  -5   2  -7  230.85   13.64
  -5   2  -7  240.29   12.81
   5  -2   7  257.62   13.55
   5  -2   7  240.89   13.44
   5  -2   7  244.94   12.94
  -6   2  -7   10.09    2.41
   6  -2   7   15.50    1.91
   6  -2   7   16.68    2.48
   6  -2   7    9.86    2.21
  -7   2  -7   -0.59    2.42
   7  -2   7    5.31    2.39
   7  -2   7    0.65    2.13
   7  -2   7   -1.27    1.36
   9   1  -7   20.96    2.50
   9   1  -7   19.58    2.38
   9   1  -7   16.69    3.00
   8   1  -7   64.84    4.27
   8   1  -7   68.65    4.17
   7   1  -7  352.57   18.40
   6   1  -7  175.23    9.40
   6   1  -7  168.80    9.14
   5   1  -7  154.82    8.33
   5   1  -7  146.98    8.08
   4   1  -7  931.44   46.37
   4   1  -7  910.55   46.13
  -4  -1   7  893.78   45.95
  -4  -1   7  914.13   46.16
   3   1  -7   15.19    1.46
   3   1  -7   16.18    1.68
   3   1  -7   15.06    1.61
  -3  -1   7   14.75    1.67
  -3  -1   7   15.06    1.27
   2   1  -7  779.14   39.00
   2   1  -7  757.80   39.06
   2   1  -7  801.66   39.23
  -2  -1   7  734.51   39.18
   1   1  -7   32.32    2.44
   1   1  -7   28.50    2.23
   1   1  -7   30.58    2.22
  -1  -1   7   32.66    2.53
  -1  -1   7   28.68    2.06
   0   1  -7   30.73    2.47
   0   1  -7   29.84    2.23
   0   1  -7   32.01    2.43
   0  -1   7   29.32    2.14
   0  -1   7   28.49    2.39
   0  -1   7   33.99    2.60
  -1   1  -7  322.87   17.58
  -1   1  -7  328.37   17.59
   1  -1   7  342.84   17.31
   1  -1   7  343.18   17.68
   1  -1   7  330.00   17.53
  -2   1  -7   82.48    4.91
  -2   1  -7   74.88    4.96
  -2   1  -7   82.26    5.20
   2  -1   7   80.07    4.69
   2  -1   7   80.50    4.99
   2  -1   7   76.83    5.05
  -3   1  -7    2.94    1.06
  -3   1  -7    3.09    1.31
  -3   1  -7    1.64    0.93
   3  -1   7    2.45    0.80
   3  -1   7    2.04    1.12
   3  -1   7    3.82    1.21
  -4   1  -7   50.75    3.55
  -4   1  -7   50.61    3.67
  -4   1  -7   49.82    4.24
   4  -1   7   54.96    4.07
   4  -1   7   49.57    3.48
   4  -1   7   54.18    4.12
  -5   1  -7    1.36    0.88
  -5   1  -7    0.75    0.87
  -5   1  -7   -1.07    1.54
   5  -1   7    1.82    1.05
   5  -1   7    2.40    1.45
  -6   1  -7   31.33    4.30
   6  -1   7   33.81    3.13
   6  -1   7   34.60    4.21
   6  -1   7   37.36    4.22
   9   0  -7   86.54    6.26
   9   0  -7   84.49    5.25
   9   0  -7   99.01    5.46
   8   0  -7    8.42    1.31
   7   0  -7  291.12   17.42
   7   0  -7  380.29   17.36
   6   0  -7   97.89    6.39
   6   0  -7  130.65    6.31
   5   0  -7  109.15    6.39
   5   0  -7  110.21    6.16
  -5   0   7  116.48    5.83
  -5   0   7  114.88    5.82
   4   0  -7    4.12    0.76
   4   0  -7    5.55    1.02
  -4   0   7    5.30    0.89
  -4   0   7    4.70    0.72
   3   0  -7  547.44   29.03
   3   0  -7  573.43   28.98
   3   0  -7  581.28   29.22
  -3   0   7  568.67   29.17
  -3   0   7  573.03   28.91
   2   0  -7   74.91    4.38
   2   0  -7   62.15    4.34
   2   0  -7   79.56    4.65
  -2   0   7   79.96    4.32
  -2   0   7   79.40    4.66
   1   0  -7    3.74    0.78
   1   0  -7    4.40    0.88
   1   0  -7    2.86    0.84
  -1   0   7    4.04    0.99
  -1   0   7    4.02    0.73
  -1   0   7    4.29    0.92
   0   0  -7  108.84    6.35
   0   0  -7  107.03    6.42
   0   0  -7  110.46    6.19
   0   0   7  108.35    6.29
   0   0   7  116.09    6.50
   0   0   7  107.20    6.06
  -1   0  -7  135.43    7.63
  -1   0  -7  134.90    7.93
  -1   0  -7  147.24    7.98
   1   0   7  128.44    7.51
   1   0   7  138.87    7.83
   1   0   7  144.20    7.97
  -2   0  -7  319.12   17.23
  -2   0  -7  327.38   17.41
   2   0   7  332.28   17.23
   2   0   7  326.05   17.28
   2   0   7  314.98   16.86
  -3   0  -7   14.18    2.10
  -3   0  -7   13.85    1.95
  -3   0  -7   14.38    2.09
   3   0   7   17.54    2.25
   3   0   7   10.15    1.61
   3   0   7   11.23    1.81
  -4   0  -7    0.73    0.94
  -4   0  -7    0.83    0.88
  -4   0  -7   -0.28    1.43
   4   0   7    0.52    1.23
   4   0   7    0.58    0.92
   4   0   7    0.81    1.35
  -5   0  -7   22.08    2.17
  -5   0  -7   20.22    2.08
  -5   0  -7   25.32    3.36
   5   0   7   26.20    3.58
   5   0   7   24.59    3.39
   5   0   7   19.05    2.44
  -6   0  -7   28.82    4.53
   6   0   7   37.40    4.47
   6   0   7   30.74    3.24
  10  -1  -7   20.38    2.86
   9  -1  -7  125.53    7.64
   9  -1  -7  120.77    6.75
   9  -1  -7  126.09    6.98
   8  -1  -7   57.82    3.63
   8  -1  -7   66.37    3.96
   7  -1  -7  327.02   17.74
   7  -1  -7  355.07   17.55
   6  -1  -7    2.67    0.67
   5  -1  -7  131.08    7.30
   5  -1  -7  135.20    7.56
   5  -1  -7  132.31    7.43
  -5   1   7  134.89    7.13
  -5   1   7  145.63    7.21
   4  -1  -7 1068.54   57.16
   4  -1  -7 1156.27   57.26
   4  -1  -7 1168.36   57.47
  -4   1   7 1109.20   57.18
  -4   1   7 1169.19   57.34
   3  -1  -7  176.96    9.70
   3  -1  -7  173.94    9.46
   3  -1  -7  188.64    9.47
  -3   1   7  176.11    9.44
  -3   1   7  170.14    9.62
   2  -1  -7  409.26   21.70
   2  -1  -7  424.82   21.44
  -2   1   7  434.43   21.71
  -2   1   7  394.19   21.48
  -2   1   7  421.04   21.42
   1  -1  -7  101.23    5.73
   1  -1  -7  106.67    6.08
   1  -1  -7  100.28    5.88
  -1   1   7  100.17    5.82
  -1   1   7   96.67    5.67
  -1   1   7  103.56    6.02
   0  -1  -7    0.12    0.74
   0  -1  -7   -0.03    0.74
   0  -1  -7    0.16    0.59
   0   1   7    0.67    0.79
   0   1   7   -0.18    0.73
   0   1   7   -0.14    0.52
  -1  -1  -7  298.84   15.84
  -1  -1  -7  300.73   15.87
  -1  -1  -7  301.95   15.50
   1   1   7  289.63   15.41
   1   1   7  286.34   15.65
   1   1   7  289.80   15.78
  -2  -1  -7  108.98    6.69
  -2  -1  -7  106.63    6.13
  -2  -1  -7  102.29    6.50
   2   1   7  111.75    6.59
   2   1   7  109.91    6.13
   2   1   7   98.36    6.42
  -3  -1  -7    9.81    1.43
  -3  -1  -7    4.84    1.66
  -3  -1  -7    9.53    1.58
   3   1   7    6.14    1.20
   3   1   7    7.52    1.68
   3   1   7    9.18    1.80
  -4  -1  -7  146.61    9.52
  -4  -1  -7  156.02    8.60
  -4  -1  -7  141.56    8.69
   4   1   7  181.72    9.45
   4   1   7  153.06    9.19
   4   1   7  147.76    8.63
  -5  -1  -7    1.24    2.07
  -5  -1  -7    0.43    0.90
  -5  -1  -7   -0.72    0.89
   5   1   7    1.18    1.82
   5   1   7    0.58    1.15
   6   1   7    9.82    3.18
  10  -2  -7   15.86    2.35
  10  -2  -7   18.05    1.84
  10  -2  -7   19.05    2.40
   9  -2  -7  123.03    6.82
   9  -2  -7  128.11    7.15
   9  -2  -7  127.56    7.48
   8  -2  -7   53.83    3.33
   8  -2  -7   57.05    3.67
   7  -2  -7   34.41    2.40
   7  -2  -7   38.43    2.78
   6  -2  -7  169.09    9.10
   6  -2  -7  166.53    9.04
   6  -2  -7  176.24    9.36
   5  -2  -7   16.78    1.82
   5  -2  -7   17.25    1.53
   5  -2  -7   17.43    1.51
  -5   2   7   17.32    1.57
  -5   2   7   14.45    1.41
   4  -2  -7  787.23   42.45
   4  -2  -7  829.14   42.17
   4  -2  -7  876.66   42.22
  -4   2   7  863.61   42.37
  -4   2   7  808.54   42.25
   3  -2  -7  216.34   11.68
   3  -2  -7  219.00   12.00
   3  -2  -7  216.36   11.66
  -3   2   7  231.49   11.93
  -3   2   7  225.10   11.78
   2  -2  -7  150.60    9.01
   2  -2  -7  168.80    8.74
   2  -2  -7  156.48    8.80
  -2   2   7  165.15    8.81
  -2   2   7  163.07    9.00
  -2   2   7  163.68    8.78
   1  -2  -7  294.50   15.41
   1  -2  -7  293.89   15.00
   1  -2  -7  279.02   15.16
  -1   2   7  282.66   15.02
  -1   2   7  278.40   15.05
  -1   2   7  288.44   15.27
   0  -2  -7  516.48   28.63
   0  -2  -7  551.98   28.61
   0  -2  -7  579.59   28.33
   0   2   7  546.02   28.60
   0   2   7  541.45   28.42
   0   2   7  573.01   28.35
  -1  -2  -7  238.01   14.03
  -1  -2  -7  259.09   14.14
  -1  -2  -7  279.87   13.74
   1   2   7  262.92   13.95
   1   2   7  245.43   13.68
   1   2   7  261.48   14.05
  -2  -2  -7  305.72   16.63
  -2  -2  -7  308.98   16.03
  -2  -2  -7  287.77   16.38
   2   2   7  298.23   16.07
   2   2   7  303.12   16.46
   2   2   7  319.96   16.47
  -3  -2  -7   15.25    2.45
  -3  -2  -7   23.33    3.15
   3   2   7   17.46    2.19
   3   2   7   17.28    2.36
   3   2   7   16.71    2.74
  -4  -2  -7   86.90    5.16
  -4  -2  -7   74.41    5.27
  -4  -2  -7   78.26    6.33
   4   2   7   87.01    6.00
   4   2   7   89.36    5.96
   4   2   7   77.49    5.31
  -5  -2  -7   27.11    2.50
  -5  -2  -7   30.29    2.53
  -5  -2  -7   31.19    4.03
   5   2   7   35.08    4.29
   5   2   7   32.98    3.42
   5   2   7   28.29    3.99
  10  -3  -7   10.59    1.75
  10  -3  -7   11.92    1.70
  10  -3  -7   10.90    1.77
   9  -3  -7    8.16    1.34
   9  -3  -7    8.27    1.46
   9  -3  -7    8.40    1.10
   8  -3  -7   27.58    2.13
   8  -3  -7   27.81    2.55
   8  -3  -7   26.54    2.07
   7  -3  -7   48.38    3.08
   7  -3  -7   48.55    3.47
   7  -3  -7   48.90    2.98
   6  -3  -7  276.32   13.89
   6  -3  -7  260.51   14.32
   6  -3  -7  268.18   13.99
   5  -3  -7 1099.35   55.01
   5  -3  -7 1109.80   55.39
   5  -3  -7 1098.09   54.90
  -5   3   7 1028.68   55.03
  -5   3   7 1111.12   55.07
   4  -3  -7  384.37   19.71
   4  -3  -7  400.88   19.68
   4  -3  -7  365.01   20.06
  -4   3   7  366.02   19.84
  -4   3   7  393.85   19.91
   3  -3  -7    2.74    1.05
   3  -3  -7    2.04    0.71
   3  -3  -7    1.23    0.72
  -3   3   7    2.73    0.91
  -3   3   7    3.04    0.76
  -3   3   7    2.89    0.89
   2  -3  -7  356.31   18.43
   2  -3  -7  329.77   18.67
   2  -3  -7  353.01   18.29
  -2   3   7  326.64   18.40
  -2   3   7  366.88   18.34
  -2   3   7  381.40   18.67
   1  -3  -7  105.02    6.48
   1  -3  -7  111.76    6.28
   1  -3  -7  103.83    6.71
  -1   3   7  108.40    6.59
  -1   3   7  118.02    6.47
  -1   3   7  112.09    6.40
   0  -3  -7  101.66    6.17
   0  -3  -7   91.85    6.21
   0  -3  -7   98.29    5.75
   0   3   7  103.29    6.00
   0   3   7   97.82    5.86
   0   3   7   96.71    6.14
  -1  -3  -7    4.63    1.01
  -1  -3  -7    3.66    1.43
  -1  -3  -7    4.23    1.34
   1   3   7    7.25    1.39
   1   3   7    3.99    1.12
   1   3   7    6.97    1.58
  -2  -3  -7   33.52    3.46
  -2  -3  -7   28.92    2.65
  -2  -3  -7   28.94    3.13
   2   3   7   32.03    3.13
   2   3   7   34.95    3.34
   2   3   7   30.54    2.84
  -3  -3  -7    4.28    1.81
  -3  -3  -7    2.32    1.40
  -3  -3  -7    4.09    1.13
   3   3   7    1.49    1.23
   3   3   7    4.29    1.82
  -4  -3  -7   23.85    2.98
  -4  -3  -7   30.76    2.87
  -4  -3  -7   28.97    4.37
   4   3   7   24.19    3.66
   4   3   7   23.44    3.90
   4   3   7   23.34    3.19
  10  -4  -7  115.81    6.29
  10  -4  -7  112.84    6.36
  10  -4  -7  121.77    6.57
  10  -4  -7  119.08    7.17
   9  -4  -7   10.56    1.30
   9  -4  -7    8.78    1.18
   9  -4  -7   11.24    1.43
   9  -4  -7   10.13    1.74
   8  -4  -7   24.10    1.68
   8  -4  -7   24.51    1.82
   8  -4  -7   25.50    2.12
   8  -4  -7   26.41    2.71
   7  -4  -7   35.59    2.51
   7  -4  -7   32.48    2.08
   7  -4  -7   33.15    2.92
   6  -4  -7  161.70    8.66
   6  -4  -7  157.46    9.07
   6  -4  -7  162.82    8.38
  -6   4   7  150.85    8.46
  -6   4   7  164.81    8.48
   5  -4  -7   20.95    1.87
   5  -4  -7   19.57    1.60
   5  -4  -7   16.46    2.21
  -5   4   7   21.02    1.99
  -5   4   7   19.26    1.93
   4  -4  -7   39.59    3.36
   4  -4  -7   41.29    2.88
   4  -4  -7   45.01    2.78
  -4   4   7   42.37    3.15
  -4   4   7   37.78    3.06
   3  -4  -7   18.35    1.87
   3  -4  -7   14.80    2.38
  -3   4   7   16.60    1.67
  -3   4   7   13.97    2.10
  -3   4   7   14.44    2.07
   2  -4  -7  113.72    6.85
   2  -4  -7  116.38    6.29
   2  -4  -7  104.55    6.35
  -2   4   7  110.53    6.26
  -2   4   7  113.77    6.66
  -2   4   7   96.31    6.43
   1  -4  -7  505.01   26.14
   1  -4  -7  537.60   25.90
   1  -4  -7  508.73   26.44
  -1   4   7  423.82   25.98
  -1   4   7  497.61   25.95
  -1   4   7  537.98   26.34
   0  -4  -7  636.71   32.43
   0  -4  -7  555.81   31.89
   0  -4  -7  613.32   32.54
   0   4   7  630.45   32.46
   0   4   7  664.42   32.27
   0   4   7  641.51   32.29
  -1  -4  -7   12.70    1.80
  -1  -4  -7   10.98    1.85
  -1  -4  -7    9.77    1.89
   1   4   7    9.85    1.84
   1   4   7   12.97    2.06
   1   4   7    9.82    1.77
  -2  -4  -7   76.33    5.52
  -2  -4  -7   82.86    4.97
  -2  -4  -7   70.17    5.58
   2   4   7   81.84    5.74
   2   4   7   73.64    5.28
   2   4   7   77.41    5.41
  -3  -4  -7   49.19    3.54
  -3  -4  -7   40.61    4.05
  -3  -4  -7   46.58    4.68
   3   4   7   43.64    4.52
   3   4   7   48.51    4.68
   3   4   7   46.67    4.12
  -4  -4  -7   11.55    1.99
  -4  -4  -7   17.49    2.10
   4   4   7   12.48    2.75
   4   4   7   12.06    2.36
   4   4   7   12.64    2.81
  10  -5  -7   54.09    3.84
  10  -5  -7   59.85    4.76
   9  -5  -7  149.36    8.22
   9  -5  -7  148.00    8.79
   8  -5  -7  291.85   16.20
   8  -5  -7  307.00   15.74
   7  -5  -7   71.46    4.40
   7  -5  -7   69.30    4.93
   6  -5  -7    9.46    0.96
   6  -5  -7    7.38    1.54
   6  -5  -7    6.59    1.16
  -6   5   7    6.47    1.08
  -6   5   7    9.76    1.53
   5  -5  -7  406.54   22.27
   5  -5  -7  450.44   21.84
   5  -5  -7  419.55   21.50
  -5   5   7  428.21   21.90
  -5   5   7  397.58   21.94
   4  -5  -7  103.12    5.67
   4  -5  -7  107.92    5.86
   4  -5  -7   91.85    6.32
  -4   5   7   97.49    5.54
  -4   5   7   95.01    6.08
  -4   5   7   97.42    6.02
   3  -5  -7    2.82    0.92
   3  -5  -7    0.25    0.77
   3  -5  -7   -0.65    1.12
  -3   5   7    2.53    0.83
  -3   5   7    0.50    1.06
  -3   5   7    0.83    1.13
   2  -5  -7  275.58   15.46
   2  -5  -7  284.83   15.02
   2  -5  -7  292.35   14.86
  -2   5   7  282.97   15.27
  -2   5   7  291.36   14.87
  -2   5   7  253.85   15.17
   1  -5  -7    2.35    1.26
   1  -5  -7    2.99    1.47
   1  -5  -7    2.20    0.95
  -1   5   7    3.19    1.20
  -1   5   7    3.44    1.35
  -1   5   7    1.95    1.30
   0  -5  -7   18.89    2.24
   0  -5  -7   19.49    2.86
   0  -5  -7   17.98    2.96
   0   5   7   16.69    2.33
   0   5   7   25.49    3.08
   0   5   7   19.51    2.59
  -1  -5  -7   25.17    2.48
  -1  -5  -7   24.18    3.13
  -1  -5  -7   22.06    3.27
   1   5   7   20.63    3.12
   1   5   7   22.98    3.01
   1   5   7   25.44    3.27
  -2  -5  -7   46.16    3.51
  -2  -5  -7   42.39    4.23
  -2  -5  -7   42.53    4.58
   2   5   7   39.96    4.03
   2   5   7   35.11    4.28
   2   5   7   48.44    4.34
  -3  -5  -7    4.78    1.51
  -3  -5  -7    8.01    1.96
   3   5   7    6.32    2.46
   3   5   7    6.19    2.16
   3   5   7    8.20    2.38
  10  -6  -7    7.50    1.50
  10  -6  -7    6.81    2.20
   9  -6  -7   10.57    2.10
   9  -6  -7   10.16    1.55
   8  -6  -7   -1.53    1.36
   7  -6  -7    0.47    1.32
   7  -6  -7    2.63    1.02
  -7   6   7   -0.11    0.59
  -7   6   7    0.19    0.65
   6  -6  -7    5.05    1.12
   6  -6  -7    3.01    1.53
  -6   6   7    4.97    1.11
  -6   6   7    6.73    1.35
   5  -6  -7   -0.13    0.77
   5  -6  -7   -1.15    1.15
   5  -6  -7    1.79    0.67
  -5   6   7   -0.39    0.95
  -5   6   7   -0.46    0.91
   4  -6  -7   35.14    3.56
   4  -6  -7   37.39    2.68
   4  -6  -7   37.48    2.88
  -4   6   7   35.20    2.51
  -4   6   7   31.86    3.21
  -4   6   7   33.24    3.18
   3  -6  -7   -0.45    0.92
   3  -6  -7   -1.07    1.34
   3  -6  -7    2.99    1.06
  -3   6   7   -0.56    1.22
  -3   6   7   -1.82    1.13
  -3   6   7    0.50    0.84
   2  -6  -7    8.96    1.50
   2  -6  -7    6.66    1.88
   2  -6  -7    7.10    1.54
  -2   6   7   10.35    2.05
  -2   6   7    6.47    1.30
  -2   6   7    7.96    1.93
   1  -6  -7   15.27    2.50
   1  -6  -7   24.09    2.44
   1  -6  -7   17.30    2.41
  -1   6   7   19.27    3.01
  -1   6   7   15.79    2.26
  -1   6   7   24.64    3.18
   0  -6  -7   -0.45    1.48
   0   6   7    1.03    1.32
  -1  -6  -7   25.73    3.65
  -1  -6  -7   24.62    2.64
   1   6   7   21.91    3.60
   1   6   7   17.84    2.75
  -2  -6  -7   39.11    3.40
  -2  -6  -7   34.89    4.35
   2   6   7   35.14    4.48
   2   6   7   32.75    4.46
   2   6   7   38.34    4.71
   9  -7  -7  108.86    6.57
   9  -7  -7  102.89    7.30
   8  -7  -7  159.71   10.09
   8  -7  -7  172.69    9.47
   7  -7  -7   64.31    4.41
   7  -7  -7   60.92    5.13
  -7   7   7   62.97    3.97
  -7   7   7   61.98    4.09
   6  -7  -7  183.16   10.79
   6  -7  -7  185.30   10.10
  -6   7   7  168.72   10.15
  -6   7   7  184.10   10.07
   5  -7  -7  144.16    9.31
   5  -7  -7  154.03    8.65
  -5   7   7  162.33    8.91
  -5   7   7  146.17    8.97
   4  -7  -7   62.42    4.16
   4  -7  -7   54.76    4.73
  -4   7   7   56.40    4.60
  -4   7   7   62.92    4.55
  -4   7   7   60.65    3.73
   3  -7  -7    5.01    1.79
   3  -7  -7    4.50    1.31
  -3   7   7    3.10    1.47
  -3   7   7    3.76    1.53
  -3   7   7    6.13    1.19
   2  -7  -7   81.86    5.07
   2  -7  -7   83.49    5.94
  -2   7   7   77.64    5.08
  -2   7   7   74.09    5.67
  -2   7   7   72.88    5.71
   1  -7  -7   25.97    3.75
  -1   7   7   25.29    3.62
  -1   7   7   29.66    3.47
  -1   7   7   29.06    3.02
   0  -7  -7   38.08    4.64
   0  -7  -7   45.59    3.55
   0   7   7   40.32    4.40
   0   7   7   38.25    4.42
  -1  -7  -7   16.98    2.98
  -1  -7  -7   17.58    2.79
   1   7   7   18.69    3.12
   1   7   7   20.67    3.15
   1   7   7   21.07    2.98
   9  -8  -7   23.18    3.36
   8  -8  -7  105.37    6.71
   7  -8  -7  123.52    7.97
  -7   8   7  113.75    6.79
  -7   8   7  112.55    6.97
   6  -8  -7   49.36    4.73
  -6   8   7   54.40    3.95
  -6   8   7   39.75    4.03
   5  -8  -7   24.59    3.70
  -5   8   7   26.13    2.02
  -5   8   7   28.53    3.34
  -5   8   7   27.67    3.47
   4  -8  -7   26.48    2.81
   4  -8  -7   16.44    2.75
  -4   8   7   26.52    3.33
  -4   8   7   20.78    2.14
  -4   8   7   21.36    3.43
   3  -8  -7  106.30    7.52
   3  -8  -7  119.62    6.67
  -3   8   7  106.35    6.37
  -3   8   7   93.02    7.19
   2  -8  -7   40.90    4.76
   2  -8  -7   47.75    3.73
  -2   8   7   43.45    4.61
  -2   8   7   42.00    3.64
  -2   8   7   39.08    4.47
   1  -8  -7   25.99    3.56
   1  -8  -7   22.75    2.98
  -1   8   7   25.70    4.19
  -1   8   7   21.96    3.27
   0  -8  -7   21.90    2.94
   0  -8  -7   12.65    2.93
   0   8   7   15.30    2.92
   0   8   7   19.66    3.10
   0   8   7   18.45    2.67
   8  -9  -7   -0.69    1.64
   8  -9  -7    0.69    2.44
  -8   9   7   -2.49    1.08
  -8   9   7   -0.99    1.03
   7  -9  -7   55.41    5.54
   7  -9  -7   56.17    4.54
  -7   9   7   52.56    4.25
  -7   9   7   47.93    4.44
   6  -9  -7   14.67    2.26
   6  -9  -7   17.37    3.04
  -6   9   7   16.06    2.40
  -6   9   7   10.42    2.31
   5  -9  -7   77.38    6.63
   5  -9  -7   87.28    5.64
  -5   9   7   76.21    6.22
  -5   9   7   89.85    6.02
  -5   9   7   76.62    4.68
   4  -9  -7   43.53    4.83
   4  -9  -7   38.67    3.61
  -4   9   7   39.72    4.52
  -4   9   7   35.69    3.07
  -4   9   7   42.52    4.41
   3  -9  -7   35.88    3.65
   3  -9  -7   37.55    4.82
  -3   9   7   33.82    4.69
  -3   9   7   37.92    3.36
  -3   9   7   45.93    4.73
   2  -9  -7   29.05    3.23
   2  -9  -7   31.17    4.71
  -2   9   7   23.82    3.36
  -2   9   7   31.19    4.43
  -2   9   7   29.04    4.66
   1  -9  -7   -0.92    1.46
   1  -9  -7    4.78    2.64
  -1   9   7   -0.07    1.90
  -1   9   7    2.34    2.52
  -1   9   7    2.49    2.40
   7 -10  -7   54.81    4.71
   7 -10  -7   36.37    5.85
  -7  10   7   52.26    4.71
  -7  10   7   62.59    5.22
   6 -10  -7  104.04    6.66
   6 -10  -7   93.97    7.71
  -6  10   7   89.92    7.22
   5 -10  -7   42.83    5.69
   5 -10  -7   56.50    4.59
  -5  10   7   51.68    5.48
  -5  10   7   46.08    3.29
  -5  10   7   51.40    5.16
   4 -10  -7  112.63    9.08
   4 -10  -7  137.75    8.06
  -4  10   7  124.75    7.39
  -4  10   7  128.03    8.66
  -4  10   7  130.27    9.13
   3 -10  -7   42.67    6.74
   3 -10  -7   63.30    4.77
  -3  10   7   59.75    4.54
  -3  10   7   52.03    6.17
  -3  10   7   48.67    5.57
   0  12  -8   17.00    3.27
   0 -12   8   13.37    2.54
   0 -12   8   14.65    3.31
  -1  12  -8   15.36    2.52
  -1  12  -8    4.93    2.67
   1 -12   8    9.76    2.83
   1 -12   8   13.47    2.55
  -2  12  -8   14.76    3.23
  -2  12  -8   10.88    2.84
  -2  12  -8   12.38    2.55
   2 -12   8   11.46    2.90
   2 -12   8   10.32    2.45
  -3  12  -8   95.58    7.45
  -3  12  -8  107.65    8.16
  -3  12  -8   98.78    6.82
   3 -12   8  110.89    8.44
   3 -12   8   94.46    7.31
  -4  12  -8   43.56    5.00
  -4  12  -8   37.51    4.30
   4 -12   8   42.81    6.04
   2  11  -8   85.70    7.41
   2  11  -8   67.19    7.09
  -2 -11   8   90.84    6.56
   1  11  -8    8.91    2.66
   1  11  -8   14.18    3.09
  -1 -11   8   17.37    2.88
  -1 -11   8   18.58    2.52
   0  11  -8   -2.32    2.16
   0  11  -8    1.26    2.24
   0 -11   8    2.86    2.28
   0 -11   8   -0.97    1.66
  -1  11  -8    9.83    2.08
  -1  11  -8   11.70    2.68
  -1  11  -8    9.71    2.74
   1 -11   8    7.74    2.10
   1 -11   8    8.69    2.49
  -2  11  -8   77.71    6.50
  -2  11  -8   74.72    5.40
  -2  11  -8   78.21    6.15
   2 -11   8   72.80    5.57
   2 -11   8   71.96    6.44
  -3  11  -8   14.53    2.81
  -3  11  -8   13.46    2.15
  -3  11  -8   18.41    2.78
   3 -11   8   19.29    3.47
   3 -11   8   17.61    2.68
  -4  11  -8    1.78    1.73
  -4  11  -8    2.09    2.25
  -4  11  -8   -0.85    1.86
   4 -11   8   -0.13    1.76
   4 -11   8    3.86    2.46
  -5  11  -8  248.79   13.77
  -5  11  -8  229.31   14.25
  -5  11  -8  240.60   13.93
   5 -11   8  252.77   14.19
   5 -11   8  248.54   14.90
   3  10  -8   21.71    3.58
   3  10  -8   29.81    4.79
  -3 -10   8   28.60    3.81
  -3 -10   8   29.65    2.90
   2  10  -8   79.70    6.70
   2  10  -8   75.09    6.49
  -2 -10   8   87.63    6.04
  -2 -10   8   71.99    5.12
   1  10  -8  122.94    8.51
   1  10  -8  113.61    8.28
  -1 -10   8  130.39    8.19
   0  10  -8    0.44    1.83
   0  10  -8    2.97    1.72
   0 -10   8   -1.14    1.29
  -1  10  -8    2.27    1.50
  -1  10  -8    0.98    1.66
  -1  10  -8    3.45    2.08
   1 -10   8    3.02    1.48
  -2  10  -8    7.87    1.74
  -2  10  -8    9.09    2.00
   2 -10   8    9.81    2.03
   2 -10   8    6.78    2.34
  -3  10  -8   15.27    2.30
  -3  10  -8   19.55    2.72
   3 -10   8   14.27    2.27
   3 -10   8   22.59    3.31
  -4  10  -8   60.82    4.90
  -4  10  -8   62.10    5.12
  -4  10  -8   76.52    5.71
   4 -10   8   70.38    6.10
   4 -10   8   63.42    5.13
  -5  10  -8  225.22   13.11
  -5  10  -8  224.85   12.68
  -5  10  -8  225.32   12.71
   5 -10   8  222.12   13.64
   5 -10   8  219.34   12.91
  -6  10  -8    5.74    2.03
  -6  10  -8    6.28    1.85
  -6  10  -8    0.23    2.03
   6 -10   8    4.08    2.12
   6 -10   8    1.95    2.87
   4   9  -8   30.85    4.77
   4   9  -8   33.17    5.00
  -4  -9   8   33.37    3.19
  -4  -9   8   32.31    2.63
   3   9  -8   80.80    6.77
   3   9  -8  101.99    7.11
  -3  -9   8   90.82    6.14
  -3  -9   8   93.07    5.58
   2   9  -8  320.92   18.18
   2   9  -8  359.64   18.39
  -2  -9   8  325.49   17.84
  -2  -9   8  302.13   17.22
   1   9  -8    1.46    1.63
  -1  -9   8   -0.09    1.54
   0   9  -8  146.13    9.02
   0   9  -8  130.58    8.73
   0  -9   8  140.16    8.88
   0  -9   8  147.39    8.42
  -1   9  -8   31.77    3.54
  -1   9  -8   29.78    3.71
  -1   9  -8   28.21    3.10
   1  -9   8   32.90    3.14
   1  -9   8   31.98    4.09
  -2   9  -8    2.83    1.22
  -2   9  -8    4.06    1.63
  -2   9  -8    1.19    1.74
   2  -9   8    2.68    1.35
   2  -9   8    4.26    1.92
  -3   9  -8   70.30    4.91
  -3   9  -8   70.85    5.49
  -3   9  -8   68.02    5.15
   3  -9   8   66.25    5.00
  -4   9  -8    3.62    1.62
  -4   9  -8    4.25    1.51
  -4   9  -8    4.84    1.82
   4  -9   8    4.00    2.17
   4  -9   8    4.58    1.67
  -5   9  -8  102.05    6.75
  -5   9  -8   86.35    6.19
  -5   9  -8   91.95    6.20
   5  -9   8  103.23    6.53
   5  -9   8   86.04    7.11
  -6   9  -8   99.17    6.64
  -6   9  -8   91.74    6.16
  -6   9  -8   95.62    6.64
   6  -9   8   94.64    7.60
   5   8  -8   15.77    3.08
   5   8  -8   18.96    3.16
  -5  -8   8   14.92    1.09
   4   8  -8   53.17    5.28
  -4  -8   8   63.42    4.26
  -4  -8   8   61.70    3.76
   3   8  -8  398.50   20.67
   3   8  -8  381.43   20.61
  -3  -8   8  370.68   20.06
  -3  -8   8  359.89   19.60
   2   8  -8  420.74   22.76
   2   8  -8  443.61   22.84
  -2  -8   8  404.14   21.95
   1   8  -8   47.93    4.18
   1   8  -8   47.23    4.33
  -1  -8   8   49.98    4.25
   0   8  -8   10.07    1.98
   0   8  -8   11.35    2.06
   0   8  -8    8.97    1.72
   0  -8   8   10.76    2.04
  -1   8  -8   77.04    5.33
  -1   8  -8   89.86    5.93
  -1   8  -8   74.74    5.52
   1  -8   8   84.44    6.05
   1  -8   8   81.45    5.35
  -2   8  -8   -1.04    1.37
  -2   8  -8   -0.31    1.21
  -2   8  -8    2.02    1.05
   2  -8   8    1.88    1.14
   2  -8   8    1.34    1.58
  -3   8  -8    4.56    1.48
  -3   8  -8    4.17    1.38
  -3   8  -8    2.23    1.51
   3  -8   8    6.20    1.84
   3  -8   8    3.10    1.31
  -4   8  -8   33.21    3.60
  -4   8  -8   27.52    3.16
  -4   8  -8   29.64    3.04
   4  -8   8   31.04    3.99
  -5   8  -8   10.90    2.08
  -5   8  -8   10.44    1.79
  -5   8  -8    8.59    1.96
   5  -8   8   10.31    2.56
  -6   8  -8   23.94    3.43
  -6   8  -8   22.76    2.71
  -6   8  -8   14.89    2.41
   6  -8   8   15.90    2.99
   6  -8   8   18.27    3.00
   5   7  -8   16.70    2.76
   5   7  -8   20.56    2.98
  -5  -7   8   18.70    1.28
  -5  -7   8   20.53    1.44
   4   7  -8    0.86    1.53
   4   7  -8   -2.12    1.46
  -4  -7   8   -1.03    0.62
   3   7  -8   31.54    3.67
   3   7  -8   34.90    3.70
  -3  -7   8   34.71    3.25
  -3  -7   8   38.91    2.68
   2   7  -8   36.30    3.50
   2   7  -8   31.24    3.43
  -2  -7   8   36.66    3.41
  -2  -7   8   36.48    2.74
   1   7  -8   22.68    2.87
   1   7  -8   25.81    2.94
  -1  -7   8   22.16    2.96
  -1  -7   8   24.54    2.29
   0   7  -8  175.27   10.07
   0   7  -8  176.96   10.03
   0   7  -8  161.91    9.74
   0  -7   8  174.40   10.16
  -1   7  -8  310.97   17.27
  -1   7  -8  329.18   17.45
  -1   7  -8  315.87   17.11
   1  -7   8  323.00   17.58
  -2   7  -8   15.23    2.27
  -2   7  -8   10.78    1.95
  -2   7  -8   15.02    2.00
   2  -7   8   13.57    2.21
  -3   7  -8   -0.70    0.96
  -3   7  -8   -0.81    1.06
  -3   7  -8   -0.76    1.13
   3  -7   8   -0.40    1.44
  -4   7  -8    3.10    1.34
  -4   7  -8    6.54    1.59
  -4   7  -8    5.82    1.44
   4  -7   8    6.96    1.46
   4  -7   8    7.11    2.02
  -5   7  -8   82.89    5.70
  -5   7  -8   82.09    5.32
  -5   7  -8   74.86    5.49
   5  -7   8   87.49    6.33
   5  -7   8   77.19    5.32
  -6   7  -8    2.27    1.44
  -6   7  -8    0.48    1.22
  -6   7  -8    2.17    1.82
   6  -7   8   -1.71    2.10
   6  -7   8    2.21    1.38
  -7   7  -8   27.18    3.79
   7  -7   8   30.58    5.04
   7  -7   8   31.14    4.57
   7  -7   8   33.17    3.72
   7   6  -8    2.78    2.22
   7   6  -8    3.62    2.49
   6   6  -8  104.34    7.20
   6   6  -8  108.50    7.22
   5   6  -8   -0.46    1.44
   5   6  -8    1.48    1.53
  -5  -6   8   -0.13    0.32
  -5  -6   8    0.84    0.47
   4   6  -8   26.72    3.18
   4   6  -8   26.13    3.12
  -4  -6   8   24.16    2.38
  -4  -6   8   31.18    2.07
   3   6  -8   92.67    6.04
   3   6  -8   90.15    5.97
  -3  -6   8   90.54    5.78
  -3  -6   8   91.82    5.26
   2   6  -8   18.01    2.52
   2   6  -8   15.82    2.54
  -2  -6   8   18.80    2.53
  -2  -6   8   17.47    1.80
   1   6  -8  427.54   23.92
   1   6  -8  498.39   24.23
   1   6  -8  402.11   24.01
  -1  -6   8  491.06   24.31
  -1  -6   8  470.29   23.69
   0   6  -8 1251.68   65.88
   0   6  -8 1366.57   65.99
   0   6  -8 1318.40   65.78
   0  -6   8 1172.93   65.44
   0  -6   8 1366.43   66.14
  -1   6  -8    6.25    1.52
  -1   6  -8    5.50    1.37
  -1   6  -8    5.94    1.31
   1  -6   8    3.04    1.08
   1  -6   8    4.89    1.66
  -2   6  -8   19.36    2.60
  -2   6  -8   20.02    2.39
  -2   6  -8   16.04    2.12
   2  -6   8   20.53    2.93
   2  -6   8   17.01    2.10
  -3   6  -8  202.61   10.99
  -3   6  -8  188.92   10.76
  -3   6  -8  191.04   10.76
   3  -6   8  194.13   11.23
   3  -6   8  184.19   10.55
  -4   6  -8   25.38    2.86
  -4   6  -8   21.52    2.52
  -4   6  -8   19.45    2.57
   4  -6   8   21.64    3.26
   4  -6   8   22.46    2.37
  -5   6  -8    0.72    1.42
  -5   6  -8   -0.06    1.23
  -5   6  -8   -0.32    1.04
   5  -6   8   -0.18    1.14
   5  -6   8    1.06    1.79
   5  -6   8    1.22    1.57
  -6   6  -8    0.18    1.07
  -6   6  -8    1.18    1.77
  -6   6  -8    2.12    1.25
   6  -6   8    3.03    1.86
   6  -6   8    1.70    1.26
  -7   6  -8   11.24    2.56
   7  -6   8   12.03    2.52
   7  -6   8    7.37    1.81
   7  -6   8    8.43    2.70
   7   5  -8   -2.23    1.70
   7   5  -8    0.44    1.76
   6   5  -8    1.67    1.46
   6   5  -8    1.26    1.39
   5   5  -8  169.54    9.87
   5   5  -8  168.63    9.81
  -5  -5   8  170.35    8.68
  -5  -5   8  172.03    8.75
   4   5  -8   -1.30    0.92
   4   5  -8   -0.50    1.06
  -4  -5   8    0.15    0.81
  -4  -5   8   -0.84    0.47
   3   5  -8   37.81    3.23
   3   5  -8   38.57    3.31
  -3  -5   8   34.22    3.06
  -3  -5   8   37.73    2.52
   2   5  -8   -0.09    0.86
   2   5  -8   -0.39    0.95
  -2  -5   8   -0.57    0.93
  -2  -5   8   -0.42    0.58
   1   5  -8    4.93    1.30
   1   5  -8    4.23    1.25
   1   5  -8    5.29    1.23
  -1  -5   8    4.03    0.91
  -1  -5   8    3.56    1.41
   0   5  -8 1860.53   95.11
   0   5  -8 1880.51   95.23
   0   5  -8 1934.21   95.28
   0  -5   8 1826.18   94.88
   0  -5   8 1918.44   95.44
  -1   5  -8  315.85   16.30
  -1   5  -8  300.32   16.09
  -1   5  -8  291.79   16.17
   1  -5   8  301.56   16.45
   1  -5   8  299.70   15.91
  -2   5  -8  322.32   16.30
  -2   5  -8  304.52   16.15
  -2   5  -8  309.04   16.13
   2  -5   8  302.62   16.44
   2  -5   8  266.88   15.82
  -3   5  -8   64.40    4.68
  -3   5  -8   67.94    4.55
  -3   5  -8   70.90    4.69
   3  -5   8   64.43    4.35
   3  -5   8   59.78    4.90
   3  -5   8   69.89    4.66
  -4   5  -8  159.10    9.10
  -4   5  -8  157.92    9.35
  -4   5  -8  153.63    9.18
   4  -5   8  168.30    9.05
   4  -5   8  162.10    9.60
   4  -5   8  157.38    9.36
  -5   5  -8   22.05    2.86
  -5   5  -8   24.95    2.62
  -5   5  -8   23.47    2.74
   5  -5   8   23.77    2.57
   5  -5   8   23.24    3.25
   5  -5   8   24.29    3.62
  -6   5  -8   18.28    2.17
  -6   5  -8   12.08    2.50
  -6   5  -8   13.60    2.19
   6  -5   8   16.75    2.50
   6  -5   8   14.94    2.56
  -7   5  -8   -1.70    2.39
   7  -5   8   -0.02    2.10
   7  -5   8    1.01    1.55
   7  -5   8   -2.91    2.45
   8   4  -8   74.94    5.39
   8   4  -8   55.58    5.14
   7   4  -8    0.32    1.32
   7   4  -8    0.58    1.41
   6   4  -8  243.99   13.50
   6   4  -8  246.97   13.44
   5   4  -8    2.74    1.15
   5   4  -8    2.76    1.21
  -5  -4   8    2.72    0.39
  -5  -4   8    3.12    0.52
   4   4  -8    1.13    1.01
   4   4  -8    0.96    0.92
  -4  -4   8    0.50    0.74
  -4  -4   8    1.09    0.48
   3   4  -8   42.67    3.11
   3   4  -8   38.79    3.16
  -3  -4   8   36.28    3.03
  -3  -4   8   37.76    2.54
   2   4  -8  111.60    6.61
   2   4  -8  108.56    6.50
   2   4  -8  114.85    6.54
  -2  -4   8  104.67    6.61
  -2  -4   8  108.42    6.11
   1   4  -8  170.94    9.23
   1   4  -8  159.80    9.25
   1   4  -8  162.22    9.16
  -1  -4   8  168.99    9.42
  -1  -4   8  158.07    8.86
   0   4  -8  145.22    8.02
   0   4  -8  145.62    8.04
   0   4  -8  137.81    7.87
   0  -4   8  131.04    7.63
   0  -4   8  132.37    8.14
  -1   4  -8  205.19   11.07
  -1   4  -8  215.12   11.19
  -1   4  -8  201.71   11.12
   1  -4   8  190.34   11.27
   1  -4   8  192.08   10.79
  -2   4  -8  192.18   10.25
  -2   4  -8  173.84   10.19
  -2   4  -8  187.66   10.23
   2  -4   8  168.50    9.90
   2  -4   8  192.21   10.54
   2  -4   8  180.91   10.24
  -3   4  -8  588.65   32.82
  -3   4  -8  643.29   33.05
  -3   4  -8  648.60   32.88
   3  -4   8  637.04   32.98
   3  -4   8  660.46   33.22
   3  -4   8  639.47   32.66
  -4   4  -8    3.10    1.28
  -4   4  -8    4.70    1.30
  -4   4  -8    6.26    1.59
   4  -4   8    4.82    1.57
   4  -4   8    6.14    1.65
   4  -4   8    3.66    1.18
  -5   4  -8   10.14    1.60
  -5   4  -8    9.25    1.49
  -5   4  -8    6.69    1.93
   5  -4   8   12.21    1.68
   5  -4   8   10.12    2.16
   5  -4   8   10.93    1.91
  -6   4  -8    0.10    0.90
  -6   4  -8   -0.67    0.92
  -6   4  -8   -0.07    1.99
   6  -4   8    1.25    1.91
   6  -4   8    0.32    1.20
   8   3  -8   55.06    4.43
   8   3  -8   54.37    4.35
   7   3  -8   18.41    2.52
   7   3  -8   15.09    2.06
   6   3  -8   43.69    3.47
   6   3  -8   40.73    3.27
   5   3  -8  568.29   29.00
   5   3  -8  568.69   28.84
  -5  -3   8  547.47   28.19
  -5  -3   8  553.03   28.13
   4   3  -8    5.29    1.14
   4   3  -8    5.04    1.16
  -4  -3   8    8.00    1.19
  -4  -3   8    9.07    0.98
   3   3  -8  232.61   12.55
   3   3  -8  248.80   12.46
  -3  -3   8  225.39   12.45
  -3  -3   8  216.73   12.00
   2   3  -8    5.54    1.11
   2   3  -8    3.70    1.00
   2   3  -8    4.29    1.02
  -2  -3   8    3.66    1.16
  -2  -3   8    4.09    0.75
   1   3  -8   82.45    5.12
   1   3  -8   86.51    5.15
   1   3  -8   79.43    5.18
  -1  -3   8   86.30    5.39
  -1  -3   8   86.76    4.90
   0   3  -8  164.44    8.72
   0   3  -8  147.77    8.59
   0   3  -8  145.86    8.67
   0  -3   8  156.05    8.89
   0  -3   8  156.16    8.41
  -1   3  -8  102.40    6.23
  -1   3  -8   96.62    6.12
  -1   3  -8  107.95    6.24
   1  -3   8  102.62    5.93
   1  -3   8  107.05    6.30
   1  -3   8  102.66    6.43
  -2   3  -8  147.48    8.56
  -2   3  -8  155.61    8.65
  -2   3  -8  139.46    8.48
   2  -3   8  151.81    8.29
   2  -3   8  153.32    8.63
   2  -3   8  148.57    8.77
  -3   3  -8 1029.93   52.14
  -3   3  -8 1030.36   52.39
  -3   3  -8  986.67   52.13
   3  -3   8 1035.08   52.28
   3  -3   8 1098.23   52.52
   3  -3   8  957.81   51.87
  -4   3  -8   44.58    3.49
  -4   3  -8   45.15    3.91
  -4   3  -8   39.94    3.43
   4  -3   8   49.04    3.38
   4  -3   8   45.94    3.99
   4  -3   8   39.97    3.79
  -5   3  -8   39.39    3.20
  -5   3  -8   38.70    3.24
  -5   3  -8   40.54    4.24
   5  -3   8   37.86    3.17
   5  -3   8   38.11    4.09
  -6   3  -8    0.21    0.82
  -6   3  -8   -0.56    0.71
  -6   3  -8   -0.64    2.10
   6  -3   8   -1.22    1.75
   6  -3   8   -0.26    1.18
   9   2  -8   -1.09    1.49
   9   2  -8   -3.18    2.47
   9   2  -8    0.35    1.51
   8   2  -8  290.44   15.14
   8   2  -8  275.83   15.20
   7   2  -8    9.58    1.55
   7   2  -8   12.41    1.99
   6   2  -8   44.97    3.40
   6   2  -8   46.71    3.27
   5   2  -8   46.89    3.16
   5   2  -8   41.58    3.22
  -5  -2   8   42.65    2.56
  -5  -2   8   42.40    2.43
   4   2  -8  125.62    7.30
  -4  -2   8  130.05    6.77
  -4  -2   8  123.67    7.08
   3   2  -8    1.97    0.82
   3   2  -8    1.55    0.83
  -3  -2   8    2.93    0.99
   2   2  -8    9.45    1.38
   2   2  -8   11.27    1.71
  -2  -2   8   10.10    1.53
  -2  -2   8   12.63    1.26
   1   2  -8   44.96    3.31
   1   2  -8   47.24    3.19
  -1  -2   8   43.18    2.93
  -1  -2   8   47.96    3.52
   0   2  -8   57.44    3.81
   0   2  -8   57.59    3.93
   0   2  -8   59.52    3.84
   0  -2   8   57.43    4.05
   0  -2   8   58.00    3.61
   0  -2   8   53.34    3.84
  -1   2  -8   18.78    2.19
  -1   2  -8   16.99    2.02
  -1   2  -8   18.14    2.09
   1  -2   8   15.74    1.74
   1  -2   8   13.80    1.97
   1  -2   8   14.61    2.15
  -2   2  -8   51.53    4.28
  -2   2  -8   68.48    4.36
  -2   2  -8   67.55    4.44
   2  -2   8   66.91    4.43
   2  -2   8   68.11    4.63
   2  -2   8   60.98    4.01
  -3   2  -8  184.28   10.44
  -3   2  -8  170.76   10.04
  -3   2  -8  182.17   10.18
   3  -2   8  165.55    9.81
   3  -2   8  193.81   10.49
   3  -2   8  187.34   10.26
  -4   2  -8   81.34    5.21
  -4   2  -8   79.50    5.25
  -4   2  -8   84.78    5.95
   4  -2   8   76.39    5.05
   4  -2   8   88.99    5.84
   4  -2   8   79.14    5.63
  -5   2  -8    9.48    1.51
  -5   2  -8   14.99    2.12
  -5   2  -8    9.19    2.28
   5  -2   8   10.23    2.03
   5  -2   8   14.21    2.47
   5  -2   8    7.79    1.54
  -6   2  -8    1.10    2.40
   6  -2   8    3.00    2.21
   6  -2   8    2.58    2.21
   6  -2   8    2.71    1.37
   9   1  -8   22.98    2.95
   9   1  -8   25.32    2.83
   8   1  -8   32.67    2.84
   8   1  -8   32.22    2.91
   7   1  -8   31.19    2.74
   6   1  -8  106.98    5.95
   6   1  -8   90.79    5.61
   5   1  -8   65.80    4.23
   5   1  -8   74.45    4.54
  -5  -1   8   70.35    3.89
  -5  -1   8   73.38    4.03
   4   1  -8  101.53    5.95
   4   1  -8   98.07    5.78
   4   1  -8  110.84    6.10
  -4  -1   8  103.53    5.90
  -4  -1   8   97.02    5.56
   3   1  -8  241.09   12.71
   3   1  -8  234.43   12.81
   3   1  -8  237.02   12.59
  -3  -1   8  230.36   12.78
  -3  -1   8  246.35   12.43
   2   1  -8  194.78   10.78
   2   1  -8  190.14   10.55
   2   1  -8  196.98   10.64
  -2  -1   8  201.76   10.42
  -2  -1   8  200.52   10.86
   1   1  -8  288.84   15.16
   1   1  -8  300.64   15.30
   1   1  -8  290.38   15.40
  -1  -1   8  290.99   15.46
  -1  -1   8  271.73   14.99
   0   1  -8  276.50   14.35
   0   1  -8  275.92   14.44
   0   1  -8  255.05   14.13
   0  -1   8  267.32   14.03
   0  -1   8  255.46   14.42
   0  -1   8  275.31   14.36
  -1   1  -8  178.73    9.97
  -1   1  -8  178.32    9.96
   1  -1   8  181.92   10.04
   1  -1   8  167.51    9.52
   1  -1   8  177.66    9.89
  -2   1  -8  207.12   10.67
  -2   1  -8  194.55   10.92
  -2   1  -8  188.15   10.73
   2  -1   8  195.49   10.71
   2  -1   8  168.95   10.29
   2  -1   8  197.64   10.88
  -3   1  -8  423.95   23.26
  -3   1  -8  404.86   22.89
  -3   1  -8  450.35   22.84
   3  -1   8  471.34   23.15
   3  -1   8  453.45   22.67
   3  -1   8  413.87   23.08
  -4   1  -8    0.23    1.59
  -4   1  -8    0.53    1.01
  -4   1  -8   -0.15    1.15
   4  -1   8   -0.40    1.51
   4  -1   8    0.85    0.99
  -5   1  -8    9.31    2.47
  -5   1  -8    7.27    1.47
   5  -1   8   12.43    2.41
   5  -1   8   14.18    1.87
  -6   1  -8   68.36    6.87
   6  -1   8   91.12    6.69
   6  -1   8   72.62    6.19
   6  -1   8   82.86    5.50
   9   0  -8   -0.03    1.12
   9   0  -8   -1.20    1.19
   8   0  -8   42.83    3.28
   8   0  -8   39.87    2.90
   7   0  -8  168.44    8.83
   7   0  -8  146.86    8.48
   6   0  -8  233.67   12.90
   6   0  -8  258.79   13.22
   5   0  -8  694.11   35.81
   5   0  -8  715.91   35.66
   5   0  -8  714.22   35.92
  -5   0   8  688.21   35.53
  -5   0   8  692.43   35.43
   4   0  -8  145.28    8.15
   4   0  -8  155.66    8.30
   4   0  -8  158.97    8.47
  -4   0   8  141.06    8.02
  -4   0   8  150.39    8.31
   3   0  -8  549.33   28.23
   3   0  -8  558.73   28.44
   3   0  -8  594.50   28.22
  -3   0   8  518.14   28.04
  -3   0   8  531.05   28.38
   2   0  -8   90.18    5.81
   2   0  -8   97.48    5.72
   2   0  -8  101.56    5.67
  -2   0   8  101.09    5.93
  -2   0   8   98.81    5.53
   1   0  -8   15.37    1.66
   1   0  -8   12.53    1.72
   1   0  -8   11.87    1.63
  -1   0   8   13.38    1.94
  -1   0   8   13.08    1.69
  -1   0   8   12.79    1.44
   0   0  -8    7.76    1.46
   0   0  -8    7.81    1.23
   0   0  -8   10.09    1.50
   0   0   8    8.11    1.38
   0   0   8    7.89    1.47
   0   0   8   10.01    1.35
  -1   0  -8   74.56    5.22
  -1   0  -8   75.14    4.91
  -1   0  -8   87.17    5.33
   1   0   8   81.84    5.19
   1   0   8   82.87    5.34
   1   0   8   82.93    4.86
  -2   0  -8   58.02    4.28
  -2   0  -8   61.12    4.45
   2   0   8   56.08    4.20
   2   0   8   57.68    3.84
   2   0   8   59.52    4.36
  -3   0  -8   73.54    5.46
  -3   0  -8   85.26    5.37
  -3   0  -8   81.57    5.90
   3   0   8   80.70    5.13
   3   0   8   94.40    5.81
   3   0   8   86.88    5.77
  -4   0  -8   44.95    3.76
  -4   0  -8   44.75    4.60
  -4   0  -8   45.16    3.60
   4   0   8   48.34    4.34
   4   0   8   48.57    3.58
   4   0   8   50.05    4.23
  -5   0  -8   26.87    2.77
  -5   0  -8   28.45    4.45
  -5   0  -8   33.95    2.90
   5   0   8   27.15    4.07
   5   0   8   26.83    3.06
   5   0   8   32.15    4.16
   9  -1  -8   31.06    2.59
   9  -1  -8   29.06    2.89
   8  -1  -8   22.30    1.97
   8  -1  -8   18.00    2.30
   7  -1  -8   69.53    4.43
   7  -1  -8   67.04    4.09
   6  -1  -8  799.81   40.90
   6  -1  -8  832.07   41.08
   6  -1  -8  779.83   40.75
   5  -1  -8  151.60    8.21
   5  -1  -8  150.89    8.27
   5  -1  -8  155.33    8.52
  -5   1   8  143.33    8.06
  -5   1   8  154.87    8.21
   4  -1  -8   38.67    2.70
   4  -1  -8   37.12    2.72
   4  -1  -8   41.79    3.07
  -4   1   8   35.64    2.85
  -4   1   8   41.27    2.70
   3  -1  -8    0.36    0.81
   3  -1  -8    0.54    0.71
   3  -1  -8    0.84    0.71
  -3   1   8   -0.31    0.55
  -3   1   8    1.87    0.87
   2  -1  -8   52.37    3.27
   2  -1  -8   48.77    3.59
   2  -1  -8   46.72    3.32
  -2   1   8   50.53    3.23
  -2   1   8   47.14    3.36
  -2   1   8   50.36    3.55
   1  -1  -8    0.02    0.71
   1  -1  -8    0.41    0.87
   1  -1  -8   -0.65    0.80
  -1   1   8    0.24    0.81
  -1   1   8   -0.37    0.58
  -1   1   8   -1.12    0.74
   0  -1  -8   49.21    3.81
   0  -1  -8   50.74    3.45
   0  -1  -8   52.10    3.74
   0   1   8   47.43    3.67
   0   1   8   46.26    3.58
   0   1   8   51.79    3.35
  -1  -1  -8   87.86    5.76
  -1  -1  -8   82.26    5.69
  -1  -1  -8   91.73    5.38
   1   1   8   91.09    5.30
   1   1   8   84.57    5.69
  -2  -1  -8   24.45    2.99
  -2  -1  -8   27.11    2.50
  -2  -1  -8   26.97    3.00
   2   1   8   27.99    3.03
   2   1   8   28.48    2.88
   2   1   8   28.28    2.47
  -3  -1  -8    3.23    1.60
  -3  -1  -8    4.29    1.41
  -3  -1  -8    3.20    1.23
   3   1   8    2.85    1.05
   3   1   8    3.71    1.49
   3   1   8    4.76    1.68
  -4  -1  -8   12.40    1.83
  -4  -1  -8   11.72    2.59
   4   1   8   12.40    2.32
   4   1   8    9.45    1.64
  -5  -1  -8    2.26    1.33
  -5  -1  -8   -1.77    1.13
  -5  -1  -8    2.30    2.67
   5   1   8    0.05    2.09
   5   1   8    1.23    1.58
   5   1   8   -0.20    2.10
   9  -2  -8   46.07    3.63
   9  -2  -8   45.05    3.83
   9  -2  -8   48.87    3.21
   8  -2  -8   63.75    3.93
   8  -2  -8   65.48    4.10
   8  -2  -8   61.63    4.26
   7  -2  -8  226.25   12.19
   7  -2  -8  232.33   12.47
   7  -2  -8  232.20   12.13
   6  -2  -8   70.76    4.58
   6  -2  -8   71.35    4.23
   6  -2  -8   60.57    4.13
  -6   2   8   73.79    3.82
  -6   2   8   73.34    3.72
   5  -2  -8   10.32    1.43
   5  -2  -8    7.73    1.35
  -5   2   8    8.18    1.33
  -5   2   8   11.61    1.51
   4  -2  -8  332.10   17.96
   4  -2  -8  368.41   18.03
   4  -2  -8  354.02   18.38
  -4   2   8  340.96   18.18
  -4   2   8  336.64   18.05
   3  -2  -8  797.79   41.25
   3  -2  -8  824.30   40.93
   3  -2  -8  783.62   40.85
  -3   2   8  768.82   40.91
  -3   2   8  843.79   41.17
   2  -2  -8   40.89    3.29
   2  -2  -8   38.30    2.95
   2  -2  -8   41.46    2.83
  -2   2   8   39.57    2.91
  -2   2   8   35.25    2.80
  -2   2   8   36.80    3.13
   1  -2  -8  544.37   28.72
   1  -2  -8  564.26   28.98
   1  -2  -8  554.04   29.18
  -1   2   8  543.23   28.81
  -1   2   8  557.11   28.78
  -1   2   8  592.65   29.14
   0  -2  -8    0.60    1.09
   0  -2  -8    0.31    1.12
   0  -2  -8    0.24    0.82
   0   2   8    0.01    0.98
   0   2   8    0.24    0.98
   0   2   8   -0.21    0.78
  -1  -2  -8   90.32    5.46
  -1  -2  -8   88.77    6.00
   1   2   8   92.46    5.82
   1   2   8   91.29    5.95
   1   2   8   84.16    5.45
  -2  -2  -8   19.00    2.73
  -2  -2  -8   16.42    2.07
  -2  -2  -8   14.96    2.30
   2   2   8   12.48    2.13
   2   2   8   15.72    2.19
   2   2   8   16.78    2.36
  -3  -2  -8   45.41    4.20
  -3  -2  -8   53.38    4.86
   3   2   8   63.49    4.82
   3   2   8   53.51    3.99
  -4  -2  -8   12.54    1.89
  -4  -2  -8   12.14    2.05
  -4  -2  -8   13.17    2.73
   4   2   8   10.74    1.99
   4   2   8   15.33    2.60
   4   2   8   15.37    2.77
  10  -3  -8   23.75    2.68
  10  -3  -8   22.24    3.34
  10  -3  -8   27.09    2.46
  10  -3  -8   24.27    2.94
   9  -3  -8  106.80    5.73
   9  -3  -8  100.55    5.88
   9  -3  -8   93.19    5.64
   9  -3  -8   93.24    6.15
   8  -3  -8   85.95    5.03
   8  -3  -8   91.60    5.14
   8  -3  -8   86.91    5.60
   7  -3  -8   16.74    2.31
   7  -3  -8   17.20    1.78
   7  -3  -8   15.86    1.65
   6  -3  -8  184.56    9.96
   6  -3  -8  190.07   10.41
   6  -3  -8  192.38    9.85
  -6   3   8  172.63    9.74
  -6   3   8  188.77    9.79
   5  -3  -8  322.37   17.26
   5  -3  -8  335.94   17.38
   5  -3  -8  337.17   17.82
  -5   3   8  339.43   17.50
   4  -3  -8   75.59    4.30
   4  -3  -8   72.44    4.76
   4  -3  -8   58.98    4.12
  -4   3   8   68.55    4.41
  -4   3   8   69.76    4.50
   3  -3  -8 2760.11  134.54
   3  -3  -8 2700.03  134.02
   3  -3  -8 2654.43  134.07
  -3   3   8 2520.12  134.15
  -3   3   8 2695.75  134.04
  -3   3   8 2673.38  134.31
   2  -3  -8  169.42    8.51
   2  -3  -8  149.78    8.59
   2  -3  -8  150.09    8.93
  -2   3   8  148.53    8.76
  -2   3   8  149.44    8.57
  -2   3   8  143.31    8.44
   1  -3  -8   67.38    4.80
   1  -3  -8   62.08    4.14
   1  -3  -8   65.34    4.47
  -1   3   8   58.70    4.50
  -1   3   8   65.55    4.33
  -1   3   8   67.63    4.35
   0  -3  -8  203.07   11.01
   0  -3  -8  195.66   10.82
   0  -3  -8  196.99   10.39
   0   3   8  191.07   10.82
   0   3   8  190.37   10.50
   0   3   8  156.33   10.37
  -1  -3  -8   90.38    6.55
  -1  -3  -8   97.63    6.71
  -1  -3  -8  109.21    6.19
   1   3   8  106.57    6.74
   1   3   8  100.38    6.26
   1   3   8  107.37    6.60
  -2  -3  -8   -0.92    1.06
  -2  -3  -8    1.15    1.60
  -2  -3  -8    0.24    1.33
   2   3   8    0.60    1.20
  -3  -3  -8    4.80    1.74
  -3  -3  -8    2.58    2.20
   3   3   8    0.48    1.90
   3   3   8   -0.17    1.81
   3   3   8    0.52    1.40
  -4  -3  -8   95.60    6.55
  -4  -3  -8  109.08    6.41
  -4  -3  -8   90.10    7.62
   4   3   8   96.80    6.86
   4   3   8  105.29    7.57
   4   3   8  102.85    7.33
  10  -4  -8   61.33    4.06
   9  -4  -8   41.41    3.75
   9  -4  -8   37.80    2.63
   9  -4  -8   42.08    3.03
   9  -4  -8   36.57    2.46
   8  -4  -8   12.38    1.76
   8  -4  -8    8.89    1.72
   8  -4  -8   11.30    1.27
   7  -4  -8   40.06    2.88
   7  -4  -8   35.04    3.38
   7  -4  -8   39.60    2.49
   6  -4  -8   38.38    2.48
   6  -4  -8   37.06    2.75
   6  -4  -8   42.53    3.37
  -6   4   8   32.52    2.64
  -6   4   8   34.05    2.66
   5  -4  -8   18.42    1.90
   5  -4  -8   16.29    2.42
   5  -4  -8   19.48    1.79
  -5   4   8   21.19    2.24
  -5   4   8   18.59    2.10
   4  -4  -8  455.41   23.98
   4  -4  -8  465.52   24.55
  -4   4   8  457.27   24.25
  -4   4   8  480.66   24.28
   3  -4  -8   65.34    4.95
   3  -4  -8   68.48    4.43
   3  -4  -8   71.93    4.36
  -3   4   8   69.39    4.33
  -3   4   8   74.28    4.78
  -3   4   8   64.44    4.64
   2  -4  -8  661.86   35.01
   2  -4  -8  722.21   34.89
   2  -4  -8  688.33   35.47
  -2   4   8  669.23   35.12
  -2   4   8  646.83   34.83
  -2   4   8  693.43   35.25
   1  -4  -8  113.71    6.66
   1  -4  -8  116.82    7.03
   1  -4  -8  105.65    7.24
  -1   4   8  118.08    6.85
  -1   4   8  110.96    6.94
  -1   4   8  119.96    7.20
   0  -4  -8  304.63   17.16
   0  -4  -8  301.62   16.99
   0  -4  -8  321.79   16.58
   0   4   8  328.44   16.85
   0   4   8  293.59   16.77
   0   4   8  321.53   17.10
  -1  -4  -8    0.83    1.52
  -1  -4  -8   -0.45    0.96
  -1  -4  -8   -2.76    1.53
   1   4   8   -1.43    1.34
   1   4   8    0.51    1.33
  -2  -4  -8    9.74    1.69
  -2  -4  -8   11.97    2.34
  -2  -4  -8   14.22    2.66
   2   4   8   14.47    2.45
   2   4   8    8.34    2.35
   2   4   8   13.81    2.23
  -3  -4  -8   83.15    6.81
  -3  -4  -8   82.07    5.25
  -3  -4  -8   72.32    5.90
   3   4   8   70.74    5.89
   3   4   8   80.78    6.47
   3   4   8   78.91    6.21
   9  -5  -8   89.77    6.26
   9  -5  -8   89.94    5.48
   8  -5  -8   93.82    5.63
   8  -5  -8   93.56    6.33
   7  -5  -8  140.38    7.61
   7  -5  -8  135.44    7.00
   7  -5  -8  133.37    8.19
  -7   5   8  125.46    7.01
  -7   5   8  135.39    7.04
   6  -5  -8   91.14    5.97
   6  -5  -8   92.27    5.35
   6  -5  -8   85.79    4.90
  -6   5   8   80.93    5.31
  -6   5   8   88.21    5.29
   5  -5  -8    4.48    0.93
   5  -5  -8    4.36    1.05
   5  -5  -8    1.41    1.43
  -5   5   8    5.08    1.21
   4  -5  -8    2.43    1.00
   4  -5  -8    1.64    1.36
   4  -5  -8    2.07    0.92
  -4   5   8    1.38    0.79
  -4   5   8    0.77    1.08
  -4   5   8    0.76    1.14
   3  -5  -8  477.80   22.81
   3  -5  -8  421.45   22.78
   3  -5  -8  408.41   23.32
  -3   5   8  428.92   22.66
  -3   5   8  445.80   23.14
  -3   5   8  439.84   23.15
   2  -5  -8   -1.17    1.41
   2  -5  -8    1.23    1.09
   2  -5  -8    1.51    1.03
  -2   5   8    1.42    1.01
  -2   5   8    0.41    1.37
  -2   5   8   -0.46    1.16
   1  -5  -8   54.47    4.82
   1  -5  -8   55.88    4.43
   1  -5  -8   58.72    4.04
  -1   5   8   52.16    4.45
  -1   5   8   57.76    4.13
  -1   5   8   56.68    4.70
   0  -5  -8  308.71   15.86
   0  -5  -8  270.09   16.41
   0  -5  -8  287.97   16.36
   0   5   8  281.89   16.19
   0   5   8  329.28   16.25
  -1  -5  -8   98.21    7.11
  -1  -5  -8  111.69    6.43
  -1  -5  -8   96.59    7.15
   1   5   8   98.64    6.89
   1   5   8  106.26    6.95
   1   5   8  105.95    7.25
  -2  -5  -8   14.35    2.93
  -2  -5  -8    7.72    2.27
  -2  -5  -8   17.38    2.68
   2   5   8   10.31    2.44
   2   5   8    8.89    2.42
   2   5   8   13.40    2.46
   9  -6  -8   40.41    3.40
   9  -6  -8   33.29    4.29
   8  -6  -8  104.42    6.02
   8  -6  -8   88.47    6.70
   7  -6  -8  176.57    9.28
   7  -6  -8  159.38    9.87
  -7   6   8  162.30    8.88
  -7   6   8  158.77    8.94
   6  -6  -8   87.26    6.46
   6  -6  -8   99.69    5.82
   6  -6  -8   94.13    5.18
  -6   6   8   96.70    5.78
  -6   6   8   91.07    5.89
   5  -6  -8   42.48    3.27
   5  -6  -8   44.91    2.96
   5  -6  -8   43.21    4.08
  -5   6   8   36.42    3.58
  -5   6   8   38.81    3.53
   4  -6  -8   -0.76    1.42
   4  -6  -8    2.15    0.96
   4  -6  -8   -0.22    1.03
  -4   6   8   -0.14    0.75
  -4   6   8    0.29    1.26
  -4   6   8    0.16    1.27
   3  -6  -8   12.94    2.35
   3  -6  -8   12.13    1.77
   3  -6  -8   17.02    2.08
  -3   6   8   11.96    2.09
  -3   6   8   11.41    2.14
  -3   6   8   13.77    2.00
   2  -6  -8    1.32    1.27
   2  -6  -8    0.92    1.03
   2  -6  -8    1.44    1.61
  -2   6   8    0.30    1.34
  -2   6   8    1.16    1.10
  -2   6   8   -0.52    1.47
   1  -6  -8    2.33    1.60
   1  -6  -8    3.69    1.86
  -1   6   8    2.80    1.69
  -1   6   8    2.32    1.77
  -1   6   8    3.60    1.46
   0  -6  -8  154.43   10.00
   0  -6  -8  149.98   10.22
   0  -6  -8  168.14    9.47
   0   6   8  194.23   10.02
   0   6   8  149.29    9.99
   0   6   8  176.73   10.31
  -1  -6  -8   61.01    4.41
  -1  -6  -8   63.37    5.58
   1   6   8   56.88    5.43
   1   6   8   53.97    5.21
   1   6   8   48.88    4.90
   9  -7  -8   95.87    6.21
   8  -7  -8    9.16    2.47
   7  -7  -8    8.53    2.40
  -7   7   8   12.58    1.66
  -7   7   8   11.57    1.78
   6  -7  -8    4.57    1.91
  -6   7   8    8.08    1.74
  -6   7   8   10.58    1.69
   5  -7  -8    2.16    1.76
  -5   7   8    5.60    1.67
  -5   7   8    6.46    1.67
   4  -7  -8   28.77    3.90
  -4   7   8   36.64    2.88
  -4   7   8   36.14    3.88
  -4   7   8   40.10    3.83
   3  -7  -8    1.95    1.19
   3  -7  -8   -1.80    1.81
  -3   7   8    2.50    1.11
  -3   7   8    1.21    1.69
   2  -7  -8    0.32    1.15
   2  -7  -8    2.13    1.92
  -2   7   8    3.67    1.88
  -2   7   8    2.66    1.43
  -2   7   8    2.32    1.81
   1  -7  -8   39.91    4.63
   1  -7  -8   38.74    3.52
  -1   7   8   43.03    4.69
  -1   7   8   38.37    4.59
  -1   7   8   40.84    3.89
   0  -7  -8   10.00    1.89
   0  -7  -8   15.59    3.01
   0   7   8   14.58    2.81
   0   7   8   12.83    2.71
   0   7   8   14.93    2.54
   8  -8  -8   12.08    2.02
   8  -8  -8   10.29    2.57
  -8   8   8    8.51    1.16
   7  -8  -8  151.78   10.14
   7  -8  -8  167.48    9.29
  -7   8   8  163.38    9.09
  -7   8   8  149.01    9.24
   6  -8  -8  337.02   19.60
   6  -8  -8  361.67   18.82
  -6   8   8  371.67   18.96
  -6   8   8  334.39   19.08
   5  -8  -8   33.31    4.53
   5  -8  -8   37.78    3.53
  -5   8   8   42.71    4.27
  -5   8   8   37.04    4.05
   4  -8  -8   22.02    2.73
   4  -8  -8   14.76    2.89
  -4   8   8   24.89    2.46
  -4   8   8   18.88    2.92
   3  -8  -8   27.73    4.56
   3  -8  -8   40.22    3.46
  -3   8   8   29.04    4.32
  -3   8   8   34.36    4.38
  -3   8   8   31.09    3.10
   2  -8  -8   17.94    3.17
   2  -8  -8   15.16    2.11
  -2   8   8   13.74    2.77
  -2   8   8   11.04    2.06
  -2   8   8   10.39    2.62
   1  -8  -8   13.34    1.99
   1  -8  -8   13.40    3.11
  -1   8   8   10.35    2.88
  -1   8   8    5.18    2.73
  -1   8   8   11.17    2.37
   7  -9  -8   29.45    3.55
   7  -9  -8   22.72    3.56
  -7   9   8   21.23    2.65
  -7   9   8   27.33    3.92
   6  -9  -8    1.86    1.62
   6  -9  -8    5.45    2.42
  -6   9   8    3.52    2.14
  -6   9   8    3.65    1.96
   5  -9  -8  162.21   11.17
   5  -9  -8  190.14   10.26
  -5   9   8  184.91   10.74
  -5   9   8  159.81   10.83
  -5   9   8  174.26    9.47
   4  -9  -8   11.24    2.65
   4  -9  -8    8.33    1.84
  -4   9   8    5.03    2.48
  -4   9   8    9.03    2.53
  -4   9   8    7.83    1.63
   3  -9  -8    2.43    2.64
   3  -9  -8    1.76    1.60
  -3   9   8    1.49    2.27
  -3   9   8    2.37    1.58
  -3   9   8    2.84    2.40
  -2  12  -9    1.89    2.30
  -2  12  -9    3.62    2.90
  -2  12  -9    0.28    2.64
   2 -12   9    1.77    2.96
   1  11  -9  263.11   15.39
   1  11  -9  235.47   15.12
  -1 -11   9  262.44   14.95
   0  11  -9   42.36    5.19
   0  11  -9   43.60    4.75
   0  11  -9   51.70    5.57
   0 -11   9   54.82    5.73
  -1  11  -9   14.56    2.74
  -1  11  -9   15.70    3.32
  -1  11  -9   18.79    2.79
   1 -11   9   13.89    2.99
   1 -11   9   14.05    2.54
  -2  11  -9   24.06    3.51
  -2  11  -9   26.49    3.59
  -2  11  -9   16.71    3.01
   2 -11   9   22.43    3.68
   2 -11   9   21.80    3.65
  -3  11  -9   17.33    2.92
  -3  11  -9   17.74    3.27
  -3  11  -9   13.58    2.34
   3 -11   9   11.53    3.08
   3 -11   9   10.30    2.40
  -4  11  -9  106.60    7.92
  -4  11  -9   96.25    6.80
  -4  11  -9   96.39    7.14
   4 -11   9  102.04    8.37
   4 -11   9   87.29    7.14
   3  10  -9  136.78    9.95
   3  10  -9  148.66   10.26
  -3 -10   9  148.87    8.53
  -3 -10   9  158.69    9.30
   2  10  -9  103.11    7.64
   2  10  -9   83.84    7.12
  -2 -10   9   87.21    5.79
   1  10  -9  141.23    9.38
   1  10  -9  153.12    9.70
  -1 -10   9  156.00    9.56
  -1 -10   9  129.14    8.34
   0  10  -9   40.50    4.02
   0  10  -9   44.82    4.84
   0  10  -9   45.03    4.67
   0 -10   9   43.92    5.04
  -1  10  -9    9.89    2.34
  -1  10  -9    6.84    2.49
  -1  10  -9    8.36    2.00
   1 -10   9    8.09    2.59
  -2  10  -9    0.66    1.85
  -2  10  -9    6.50    1.84
  -2  10  -9    3.11    2.17
   2 -10   9    4.38    2.37
   2 -10   9    3.50    1.75
  -3  10  -9   67.14    5.62
  -3  10  -9   72.57    6.13
  -3  10  -9   70.87    5.33
   3 -10   9   82.31    6.68
   3 -10   9   69.29    5.54
  -4  10  -9   12.26    2.35
  -4  10  -9   14.86    2.86
  -4  10  -9   10.71    2.30
   4 -10   9    9.99    2.93
  -5  10  -9   51.39    4.69
  -5  10  -9   48.99    4.70
   5 -10   9   47.57    6.05
   4   9  -9    2.83    2.61
   4   9  -9    7.24    2.84
  -4  -9   9    5.09    1.14
  -4  -9   9    8.11    1.72
   3   9  -9    6.37    2.68
   3   9  -9    7.36    2.48
  -3  -9   9    5.89    1.89
  -3  -9   9    7.89    1.42
   2   9  -9   40.58    4.90
   2   9  -9   40.62    4.49
  -2  -9   9   42.71    4.43
  -2  -9   9   44.36    3.46
   1   9  -9  208.37   12.12
   1   9  -9  188.57   11.85
  -1  -9   9  209.11   11.97
  -1  -9   9  197.13   11.13
   0   9  -9  103.67    7.21
   0   9  -9  110.88    7.64
   0   9  -9  128.38    8.03
   0  -9   9  117.58    7.87
  -1   9  -9    0.53    1.66
  -1   9  -9   -0.72    1.35
  -2   9  -9  110.49    7.21
  -2   9  -9  115.74    7.65
   2  -9   9  127.92    8.36
  -3   9  -9   45.34    4.30
  -3   9  -9   50.70    4.17
   3  -9   9   49.54    5.28
  -4   9  -9   35.96    3.71
  -4   9  -9   27.79    4.17
  -4   9  -9   32.13    3.64
   4  -9   9   29.74    4.81
  -5   9  -9   66.28    5.10
  -5   9  -9   72.34    5.35
  -5   9  -9   67.64    5.68
   5  -9   9   54.90    4.91
   5  -9   9   59.89    6.34
   5   8  -9   51.12    5.65
   5   8  -9   68.07    6.08
  -5  -8   9   49.82    3.00
   4   8  -9   25.90    3.57
   4   8  -9   29.86    4.25
  -4  -8   9   27.20    3.16
  -4  -8   9   28.10    2.35
   3   8  -9  112.65    7.18
   3   8  -9   85.93    6.72
  -3  -8   9   94.64    6.30
  -3  -8   9   87.66    5.57
   2   8  -9   97.16    6.82
   2   8  -9  108.35    6.99
  -2  -8   9   94.91    6.68
  -2  -8   9   92.92    5.90
   1   8  -9  112.36    7.10
   1   8  -9  105.03    7.29
   1   8  -9  124.54    7.65
  -1  -8   9  105.17    6.64
  -1  -8   9  119.52    7.60
   0   8  -9   92.01    6.33
   0   8  -9  101.07    6.61
   0   8  -9  104.66    6.80
   0  -8   9   89.00    5.92
   0  -8   9  100.27    6.95
  -1   8  -9   22.88    3.43
  -1   8  -9   23.50    2.89
  -1   8  -9   27.40    3.17
   1  -8   9   24.82    3.74
   1  -8   9   20.62    2.43
  -2   8  -9  116.39    7.40
  -2   8  -9  117.56    6.94
  -2   8  -9  118.28    7.19
   2  -8   9  101.34    7.44
   2  -8   9   94.30    6.58
  -3   8  -9   10.28    1.88
  -3   8  -9    8.61    2.15
  -3   8  -9    8.57    1.79
   3  -8   9    7.36    1.54
  -4   8  -9   66.25    5.01
  -4   8  -9   73.47    5.08
  -4   8  -9   64.65    5.34
   4  -8   9   71.48    5.88
   4  -8   9   60.91    4.75
  -5   8  -9   35.69    3.64
  -5   8  -9   28.21    4.04
  -5   8  -9   33.76    3.95
   5  -8   9   37.36    4.90
   5  -8   9   30.59    3.51
  -6   8  -9    2.77    1.56
  -6   8  -9    3.72    2.22
  -6   8  -9    5.19    1.87
   6  -8   9    4.74    2.90
   6  -8   9    3.57    1.79
   6   7  -9    2.84    2.57
   6   7  -9    0.03    2.32
   5   7  -9   31.08    4.08
  -5  -7   9   29.35    2.25
  -5  -7   9   29.46    1.93
   4   7  -9   -0.99    1.66
   4   7  -9    0.18    1.58
  -4  -7   9    0.25    1.13
  -4  -7   9   -0.01    0.76
   3   7  -9   31.93    3.63
   3   7  -9   31.14    3.78
  -3  -7   9   33.98    3.44
  -3  -7   9   32.46    2.61
   2   7  -9  140.08    8.91
   2   7  -9  155.88    9.01
  -2  -7   9  146.20    8.18
  -2  -7   9  140.96    8.79
   1   7  -9  211.61   11.72
   1   7  -9  202.60   11.45
   1   7  -9  189.41   11.53
  -1  -7   9  201.40   11.73
  -1  -7   9  203.91   11.03
   0   7  -9   -0.97    1.17
   0   7  -9   -0.12    1.29
   0   7  -9   -0.54    1.17
   0  -7   9   -0.89    1.41
   0  -7   9   -0.01    0.90
  -1   7  -9    1.02    1.15
  -1   7  -9    1.77    1.25
  -1   7  -9    1.50    1.44
   1  -7   9    1.51    0.98
   1  -7   9   -0.45    1.57
  -2   7  -9  199.69   11.74
  -2   7  -9  225.53   12.08
  -2   7  -9  212.95   11.69
   2  -7   9  183.23   11.32
   2  -7   9  218.46   12.29
  -3   7  -9    3.51    1.45
  -3   7  -9    4.71    1.68
  -3   7  -9    3.45    1.46
   3  -7   9    3.10    1.26
   3  -7   9    5.28    1.84
  -4   7  -9   47.27    4.03
  -4   7  -9   47.81    4.02
  -4   7  -9   54.34    4.36
   4  -7   9   44.37    3.74
  -5   7  -9   47.23    4.34
  -5   7  -9   37.91    3.70
  -5   7  -9   41.92    4.16
   5  -7   9   41.21    5.03
   5  -7   9   40.84    3.75
  -6   7  -9   22.32    3.36
  -6   7  -9   20.25    3.12
  -6   7  -9   12.58    2.04
   6  -7   9   15.34    3.24
   6  -7   9   14.95    2.31
   6   6  -9   -0.96    1.82
   5   6  -9   87.70    6.30
   5   6  -9   80.26    6.14
  -5  -6   9   89.89    4.99
  -5  -6   9   91.70    4.76
   4   6  -9    6.67    1.70
   4   6  -9    6.86    1.86
  -4  -6   9    7.17    1.00
  -4  -6   9    6.36    1.39
   3   6  -9   27.12    3.17
   3   6  -9   29.09    3.21
  -3  -6   9   26.17    3.02
  -3  -6   9   29.28    2.28
   2   6  -9   30.61    3.30
   2   6  -9   35.97    3.40
  -2  -6   9   41.38    3.57
  -2  -6   9   34.66    2.72
   1   6  -9   -0.75    1.17
   1   6  -9   -0.04    1.17
   1   6  -9   -0.02    1.06
  -1  -6   9    1.60    1.28
  -1  -6   9   -0.92    0.78
   0   6  -9   95.54    6.49
   0   6  -9   96.56    6.39
   0   6  -9  108.73    6.41
   0  -6   9   98.60    6.02
   0  -6   9  106.83    6.79
  -1   6  -9  100.60    6.32
  -1   6  -9   89.97    6.05
  -1   6  -9   98.29    6.38
   1  -6   9  100.79    6.62
   1  -6   9   94.93    5.86
  -2   6  -9  104.30    6.57
  -2   6  -9  103.55    6.60
  -2   6  -9  111.59    6.82
   2  -6   9  103.03    7.07
   2  -6   9  100.05    6.23
  -3   6  -9   50.72    3.94
  -3   6  -9   46.78    3.83
  -3   6  -9   49.51    4.19
   3  -6   9   46.17    3.59
   3  -6   9   48.87    4.48
  -4   6  -9   58.93    4.67
  -4   6  -9   55.64    4.66
  -4   6  -9   58.70    4.43
   4  -6   9   69.10    5.40
   4  -6   9   57.00    4.23
  -5   6  -9   80.95    6.07
  -5   6  -9   72.88    5.55
  -5   6  -9   80.54    5.44
   5  -6   9   79.41    5.37
   5  -6   9   88.93    6.11
   5  -6   9   79.89    6.48
  -6   6  -9   -2.08    2.04
  -6   6  -9   -1.05    1.43
  -6   6  -9    1.66    1.36
   6  -6   9    2.02    2.50
   6  -6   9    3.96    2.10
   6  -6   9    4.42    1.67
   7   5  -9   85.92    6.61
   7   5  -9  104.03    6.91
   6   5  -9   87.02    6.17
   6   5  -9   89.54    6.21
   5   5  -9   29.30    3.17
   5   5  -9   22.36    3.03
  -5  -5   9   23.54    1.61
  -5  -5   9   21.73    1.95
   4   5  -9  205.86   11.61
   4   5  -9  207.82   11.71
  -4  -5   9  200.41   11.26
  -4  -5   9  209.56   10.84
   3   5  -9  250.54   13.51
   3   5  -9  248.30   13.60
  -3  -5   9  245.02   12.89
  -3  -5   9  235.59   13.41
   2   5  -9   68.74    5.02
   2   5  -9   73.71    5.05
   2   5  -9   75.30    4.94
  -2  -5   9   76.90    5.27
  -2  -5   9   76.63    4.53
   1   5  -9  179.94    9.98
   1   5  -9  167.16   10.05
   1   5  -9  167.43   10.03
  -1  -5   9  189.94   10.38
  -1  -5   9  179.57    9.66
   0   5  -9  178.37   10.16
   0   5  -9  179.33   10.18
   0   5  -9  175.43   10.00
   0  -5   9  178.80    9.78
  -1   5  -9 1280.71   61.76
  -1   5  -9 1190.96   61.54
  -1   5  -9 1203.47   61.64
   1  -5   9 1228.57   61.94
   1  -5   9 1144.17   61.26
  -2   5  -9  152.04    8.95
  -2   5  -9  158.14    9.03
  -2   5  -9  161.50    9.13
   2  -5   9  146.73    8.62
   2  -5   9  149.95    9.31
  -3   5  -9   21.54    2.86
  -3   5  -9   26.16    2.75
  -3   5  -9   18.28    2.78
   3  -5   9   27.65    3.28
   3  -5   9   18.57    2.33
  -4   5  -9   79.45    5.88
  -4   5  -9  101.21    6.48
  -4   5  -9   80.81    6.02
   4  -5   9   92.98    5.87
   4  -5   9  104.65    6.41
   4  -5   9  110.41    6.81
  -5   5  -9   11.24    2.41
  -5   5  -9   12.58    2.03
  -5   5  -9    9.77    1.74
   5  -5   9   13.09    1.89
   5  -5   9    8.96    2.44
   5  -5   9   13.76    2.39
  -6   5  -9   83.02    6.72
  -6   5  -9   81.03    5.45
  -6   5  -9   91.01    5.38
   6  -5   9   87.52    5.74
   6  -5   9   74.46    6.95
   6  -5   9   86.27    6.39
   7   4  -9  190.16   11.02
   7   4  -9  191.26   11.01
   6   4  -9    8.81    1.73
   6   4  -9    7.85    1.79
   5   4  -9   33.88    3.07
   5   4  -9   32.81    3.17
  -5  -4   9   32.05    2.01
  -5  -4   9   31.12    2.30
   4   4  -9   18.66    2.40
  -4  -4   9   16.36    2.15
  -4  -4   9   16.35    1.51
   3   4  -9   18.46    2.43
   3   4  -9   17.44    2.29
   3   4  -9   16.66    2.25
  -3  -4   9   17.19    2.37
  -3  -4   9   20.01    1.75
   2   4  -9  353.71   18.47
   2   4  -9  325.87   18.27
   2   4  -9  338.78   18.33
  -2  -4   9  361.29   18.57
  -2  -4   9  346.35   17.95
   1   4  -9    2.10    1.15
   1   4  -9   -0.24    0.87
   1   4  -9    1.56    1.11
  -1  -4   9    1.79    1.29
  -1  -4   9    1.05    0.79
   0   4  -9  262.78   16.25
   0   4  -9  328.22   16.57
   0   4  -9  292.13   16.47
   0  -4   9  343.04   16.86
   0  -4   9  308.96   16.14
  -1   4  -9  246.57   15.73
  -1   4  -9  325.43   16.01
  -1   4  -9  307.45   15.90
   1  -4   9  303.63   16.18
   1  -4   9  288.83   15.54
  -2   4  -9  602.60   30.66
  -2   4  -9  604.34   30.68
  -2   4  -9  507.89   30.48
   2  -4   9  599.85   30.93
   2  -4   9  596.43   30.33
   2  -4   9  622.11   30.76
  -3   4  -9   32.98    3.15
  -3   4  -9   33.08    3.30
  -3   4  -9   38.61    3.60
   3  -4   9   37.63    3.50
   3  -4   9   34.76    3.74
   3  -4   9   36.62    3.01
  -4   4  -9   88.28    5.91
  -4   4  -9   84.95    6.38
  -4   4  -9   95.24    6.04
   4  -4   9   87.64    5.67
   4  -4   9   98.41    6.63
  -5   4  -9  163.03   10.08
  -5   4  -9  172.82    9.40
  -5   4  -9  155.29    9.26
   5  -4   9  163.04    9.81
   5  -4   9  147.03    9.18
   5  -4   9  169.75   10.25
  -6   4  -9   -0.29    2.38
  -6   4  -9   -0.50    1.21
   6  -4   9   -0.24    2.25
   6  -4   9    0.35    1.48
   6  -4   9   -3.38    2.22
   8   3  -9   95.31    6.44
   8   3  -9   94.93    6.40
   7   3  -9    1.24    1.41
   7   3  -9    0.53    1.27
   6   3  -9    3.73    1.26
   6   3  -9    4.77    1.36
   5   3  -9   75.65    4.87
   5   3  -9   70.55    4.95
  -5  -3   9   74.39    4.09
  -5  -3   9   74.83    4.34
   4   3  -9  436.45   22.14
   4   3  -9  414.48   22.24
  -4  -3   9  403.16   21.99
  -4  -3   9  435.25   21.62
   3   3  -9   68.62    4.56
   3   3  -9   72.46    4.50
   3   3  -9   63.41    4.41
  -3  -3   9   63.55    3.92
  -3  -3   9   62.56    4.47
   2   3  -9  980.41   46.56
   2   3  -9  896.93   46.45
   2   3  -9  866.45   46.54
  -2  -3   9  903.41   46.66
  -2  -3   9  903.03   46.13
   1   3  -9    1.19    0.99
   1   3  -9    0.77    0.97
   1   3  -9    1.65    0.95
  -1  -3   9    0.20    1.14
  -1  -3   9    0.50    0.71
   0   3  -9   16.28    1.93
   0   3  -9   13.88    2.09
   0   3  -9   10.53    1.68
   0  -3   9   11.29    1.86
   0  -3   9   10.69    1.55
  -1   3  -9  135.18    8.00
  -1   3  -9  140.84    8.05
  -1   3  -9  139.87    8.07
   1  -3   9  126.69    7.64
   1  -3   9  139.19    8.29
   1  -3   9  138.86    8.05
  -2   3  -9   45.88    3.80
  -2   3  -9   35.04    3.43
  -2   3  -9   49.38    3.72
   2  -3   9   47.43    4.01
   2  -3   9   47.90    3.78
   2  -3   9   42.25    3.26
  -3   3  -9    0.81    1.17
  -3   3  -9   -0.54    1.30
  -3   3  -9    0.52    1.15
   3  -3   9    1.10    0.97
   3  -3   9    1.50    1.54
   3  -3   9    1.50    1.45
  -4   3  -9  255.82   13.94
  -4   3  -9  243.73   14.40
  -4   3  -9  237.80   13.86
   4  -3   9  246.93   13.69
   4  -3   9  274.21   14.35
   4  -3   9  264.04   14.50
  -5   3  -9   59.96    4.50
  -5   3  -9   58.68    4.49
  -5   3  -9   60.96    5.51
   5  -3   9   69.70    5.63
   5  -3   9   53.55    5.15
   5  -3   9   64.63    4.49
  -6   3  -9   -1.84    2.54
   6  -3   9   -0.88    2.38
   6  -3   9   -3.20    2.56
   6  -3   9    3.04    1.58
   8   2  -9   -1.25    1.35
   8   2  -9   -0.16    1.39
   7   2  -9  109.59    6.63
   7   2  -9  104.40    6.47
   6   2  -9  143.92    8.18
   6   2  -9  143.00    8.34
   5   2  -9   12.96    2.09
  -5  -2   9   11.23    1.20
  -5  -2   9   13.04    1.58
   4   2  -9  129.34    7.59
   4   2  -9  130.97    7.68
  -4  -2   9  140.05    7.13
  -4  -2   9  123.08    7.49
   3   2  -9   81.91    4.98
   3   2  -9   73.45    4.99
  -3  -2   9   79.08    5.10
  -3  -2   9   77.28    4.51
   2   2  -9  143.36    8.51
   2   2  -9  153.73    8.43
  -2  -2   9  142.49    8.61
  -2  -2   9  153.38    8.11
   1   2  -9  109.66    6.53
   1   2  -9  114.24    6.70
  -1  -2   9  105.24    6.78
  -1  -2   9  109.13    6.22
   0   2  -9   40.43    3.23
   0   2  -9   39.01    3.17
   0   2  -9   40.71    3.29
   0  -2   9   38.81    2.82
   0  -2   9   35.43    3.24
   0  -2   9   38.16    3.43
  -1   2  -9  121.81    7.39
  -1   2  -9  116.24    7.28
  -1   2  -9  126.03    7.30
   1  -2   9  128.46    7.36
   1  -2   9  116.30    7.43
   1  -2   9  121.61    6.96
  -2   2  -9   24.06    2.59
  -2   2  -9   25.85    2.76
  -2   2  -9   15.56    2.54
   2  -2   9   18.71    2.12
   2  -2   9   21.67    2.81
   2  -2   9   22.24    2.74
  -3   2  -9   15.80    2.41
  -3   2  -9   17.72    2.55
  -3   2  -9   15.64    2.12
   3  -2   9   13.51    1.97
   3  -2   9   13.36    2.19
   3  -2   9   14.20    2.32
  -4   2  -9  322.73   16.92
  -4   2  -9  310.04   17.51
  -4   2  -9  289.61   16.89
   4  -2   9  292.14   16.66
   4  -2   9  322.76   17.30
   4  -2   9  351.05   17.62
  -5   2  -9   68.94    4.84
  -5   2  -9   63.46    6.09
  -5   2  -9   66.76    4.77
   5  -2   9   70.17    4.85
   5  -2   9   68.72    5.94
   5  -2   9   69.47    5.50
   9   1  -9   11.02    1.97
   9   1  -9   15.10    2.15
   8   1  -9   -0.42    1.16
   8   1  -9   -0.77    1.24
   7   1  -9   30.47    3.01
   6   1  -9   58.81    3.89
   6   1  -9   61.15    4.26
   5   1  -9   13.84    2.06
   5   1  -9   13.85    1.76
   5   1  -9   13.29    1.97
  -5  -1   9   15.61    1.71
  -5  -1   9   12.01    1.32
   4   1  -9   16.82    2.01
   4   1  -9   14.50    1.81
   4   1  -9   17.51    2.15
  -4  -1   9   17.77    2.07
  -4  -1   9   20.41    1.64
   3   1  -9   -0.20    0.72
   3   1  -9    0.11    0.88
   3   1  -9    0.68    0.85
  -3  -1   9    2.18    0.71
  -3  -1   9    0.35    0.93
   2   1  -9   99.37    6.17
   2   1  -9  107.88    6.02
   2   1  -9  100.00    6.04
  -2  -1   9   95.35    5.74
  -2  -1   9  104.92    6.35
   1   1  -9  121.85    7.09
   1   1  -9  118.45    6.91
   1   1  -9  118.58    6.79
  -1  -1   9  112.75    7.12
  -1  -1   9  114.11    6.59
   0   1  -9    6.50    1.46
   0   1  -9   12.39    1.79
   0  -1   9   12.32    1.79
   0  -1   9   11.41    1.85
   0  -1   9    9.02    1.49
  -1   1  -9  244.20   13.93
  -1   1  -9  276.14   13.91
   1  -1   9  244.58   13.50
   1  -1   9  253.55   14.05
   1  -1   9  251.57   13.88
  -2   1  -9  122.66    7.54
  -2   1  -9  108.38    7.24
  -2   1  -9  128.66    7.70
   2  -1   9  122.99    7.09
   2  -1   9  122.85    7.70
   2  -1   9  134.21    7.62
  -3   1  -9    1.30    1.59
  -3   1  -9    0.42    1.27
  -3   1  -9    3.18    1.22
   3  -1   9    0.08    0.92
   3  -1   9   -2.56    1.35
  -4   1  -9    5.01    1.51
  -4   1  -9    3.71    1.60
  -4   1  -9    4.16    2.02
   4  -1   9    3.39    1.37
   4  -1   9    3.82    1.92
   4  -1   9    3.95    1.95
  -5   1  -9    4.84    1.55
  -5   1  -9    8.20    1.62
  -5   1  -9   10.65    2.64
   5  -1   9    3.50    2.27
   5  -1   9    9.57    2.52
   5  -1   9    9.55    1.86
   9   0  -9   25.85    3.22
   8   0  -9   33.96    2.76
   8   0  -9   32.79    3.21
   7   0  -9   42.60    3.09
   7   0  -9   42.91    3.50
   7   0  -9   44.25    3.42
   6   0  -9  628.73   32.60
   6   0  -9  622.58   32.48
   6   0  -9  644.22   32.33
   5   0  -9   12.34    1.77
   5   0  -9    7.63    1.23
   5   0  -9   12.38    1.77
  -5   0   9   10.61    1.66
  -5   0   9    8.43    1.33
   4   0  -9   28.31    2.64
   4   0  -9   26.34    2.36
   4   0  -9   27.77    2.38
  -4   0   9   26.23    2.57
  -4   0   9   28.95    2.19
   3   0  -9  157.88    8.96
   3   0  -9  163.50    9.03
   3   0  -9  162.53    9.27
  -3   0   9  163.31    9.26
  -3   0   9  167.16    8.86
   2   0  -9  392.60   20.72
   2   0  -9  387.13   20.80
   2   0  -9  400.27   21.05
  -2   0   9  401.40   20.61
  -2   0   9  408.38   21.06
   1   0  -9    1.31    1.03
   1   0  -9    2.61    1.00
   1   0  -9    3.16    1.17
  -1   0   9    2.83    1.16
  -1   0   9    2.33    1.24
  -1   0   9    4.02    0.98
   0   0  -9  414.19   19.87
   0   0  -9  317.04   19.87
   0   0  -9  324.70   19.96
   0   0   9  409.76   20.05
   0   0   9  392.35   19.68
   0   0   9  404.01   20.19
  -1   0  -9   38.29    3.62
  -1   0  -9   39.58    3.54
   1   0   9   42.04    3.52
   1   0   9   40.96    3.36
   1   0   9   35.81    2.93
  -2   0  -9   90.96    6.32
  -2   0  -9   93.90    6.45
  -2   0  -9  106.77    6.24
   2   0   9   98.66    5.87
   2   0   9   92.57    6.44
   2   0   9   98.07    6.34
  -3   0  -9    3.64    1.71
  -3   0  -9    1.33    1.49
  -3   0  -9    1.76    1.32
   3   0   9    4.09    1.66
   3   0   9    2.03    1.15
  -4   0  -9   13.51    2.25
  -4   0  -9   17.76    2.73
  -4   0  -9   13.42    2.79
   4   0   9   16.82    2.84
   4   0   9   16.56    2.12
   4   0   9   22.12    3.06
  -5   0  -9    1.31    1.47
  -5   0  -9   -0.06    1.43
   5   0   9   -0.05    1.48
   5   0   9    1.02    2.60
   5   0   9   -0.51    2.42
   9  -1  -9   12.61    1.97
   9  -1  -9   14.76    2.24
   8  -1  -9   27.95    2.92
   8  -1  -9   29.51    2.84
   8  -1  -9   29.48    2.51
   7  -1  -9   65.93    4.05
   7  -1  -9   64.46    4.42
   7  -1  -9   60.64    4.22
   6  -1  -9   27.96    2.74
   6  -1  -9   29.14    2.46
   6  -1  -9   29.23    2.39
  -6   1   9   25.43    1.78
  -6   1   9   29.02    1.90
   5  -1  -9 1024.78   48.78
   5  -1  -9  972.66   48.38
   5  -1  -9  943.62   48.39
  -5   1   9  901.94   48.25
  -5   1   9  923.61   48.41
   4  -1  -9  481.53   25.33
   4  -1  -9  499.09   25.71
   4  -1  -9  495.98   25.39
  -4   1   9  506.65   25.60
  -4   1   9  475.75   25.30
   3  -1  -9    6.44    1.18
   3  -1  -9    7.03    1.27
   3  -1  -9    5.42    1.39
  -3   1   9    6.23    1.14
  -3   1   9    7.34    1.40
   2  -1  -9   22.31    2.22
   2  -1  -9   23.86    2.22
   2  -1  -9   19.03    2.48
  -2   1   9   25.03    2.11
  -2   1   9   20.16    2.17
  -2   1   9   21.55    2.57
   1  -1  -9    4.99    1.13
   1  -1  -9    5.50    1.41
   1  -1  -9    5.78    1.36
  -1   1   9    6.37    1.15
  -1   1   9    5.22    1.31
  -1   1   9    8.95    1.59
   0  -1  -9   19.01    2.66
   0  -1  -9   18.26    2.67
   0  -1  -9   24.48    2.40
   0   1   9   17.51    2.03
   0   1   9   18.79    2.62
   0   1   9   26.35    2.63
  -1  -1  -9   65.30    4.37
  -1  -1  -9   60.09    4.79
  -1  -1  -9   64.45    4.88
   1   1   9   60.85    4.54
   1   1   9   64.00    4.83
   1   1   9   67.31    4.29
  -2  -1  -9   37.80    3.83
  -2  -1  -9   36.76    3.69
   2   1   9   29.46    2.91
   2   1   9   33.61    3.38
   2   1   9   40.12    3.77
  -3  -1  -9   14.30    2.33
  -3  -1  -9   16.70    2.83
  -3  -1  -9   13.52    2.02
   3   1   9   15.36    2.30
   3   1   9   20.51    3.15
   3   1   9   11.57    2.41
  -4  -1  -9   14.93    2.08
  -4  -1  -9   17.12    3.02
  -4  -1  -9   12.24    2.16
   4   1   9   13.27    2.56
   4   1   9   11.40    1.98
   4   1   9   11.18    2.56
   9  -2  -9   -1.18    1.34
   9  -2  -9   -1.00    1.22
   9  -2  -9    0.97    1.02
   8  -2  -9    1.54    1.20
   8  -2  -9    0.57    0.91
   8  -2  -9    0.98    1.02
   7  -2  -9    5.50    1.36
   7  -2  -9    2.60    0.95
   7  -2  -9    2.41    0.95
   6  -2  -9  240.90   12.45
   6  -2  -9  229.06   12.00
   6  -2  -9  225.84   11.96
  -6   2   9  204.93   11.70
  -6   2   9  223.54   11.79
   5  -2  -9   53.41    3.95
   5  -2  -9   51.78    3.47
   5  -2  -9   57.26    3.61
  -5   2   9   49.06    3.50
  -5   2   9   51.99    3.66
   4  -2  -9  383.30   19.38
   4  -2  -9  383.07   19.38
  -4   2   9  332.54   19.35
  -4   2   9  386.79   19.65
   3  -2  -9    2.30    0.91
   3  -2  -9    3.50    1.08
   3  -2  -9    2.93    1.29
  -3   2   9    2.49    1.20
  -3   2   9    4.03    1.07
   2  -2  -9   32.21    2.67
   2  -2  -9   32.97    2.92
   2  -2  -9   32.71    3.17
  -2   2   9   26.47    2.59
  -2   2   9   33.31    3.06
  -2   2   9   36.93    2.89
   1  -2  -9   11.38    2.00
   1  -2  -9   14.71    2.07
   1  -2  -9   11.58    1.85
  -1   2   9   13.97    1.82
  -1   2   9   13.18    2.00
  -1   2   9   13.74    2.05
   0  -2  -9  104.18    6.77
   0  -2  -9  102.19    6.89
   0  -2  -9  111.32    6.39
   0   2   9  103.74    6.78
   0   2   9   98.74    6.33
   0   2   9  114.86    6.64
  -1  -2  -9   37.42    3.18
  -1  -2  -9   35.76    3.78
  -1  -2  -9   37.88    3.62
   1   2   9   32.96    3.03
   1   2   9   36.44    3.71
   1   2   9   38.70    3.64
  -2  -2  -9   49.33    4.49
  -2  -2  -9   54.12    4.79
  -2  -2  -9   47.74    3.84
   2   2   9   52.26    4.37
   2   2   9   57.77    4.83
   2   2   9   45.05    3.86
  -3  -2  -9   41.73    5.08
  -3  -2  -9   46.18    4.45
  -3  -2  -9   44.77    4.18
   3   2   9   48.55    4.06
   3   2   9   45.38    4.85
   3   2   9   52.43    4.88
  -4  -2  -9   44.12    4.63
  -4  -2  -9   53.62    4.45
   4   2   9   59.39    5.61
   4   2   9   45.47    4.51
   9  -3  -9   29.33    2.52
   9  -3  -9   28.95    3.47
   9  -3  -9   26.95    2.66
   8  -3  -9  187.63    9.80
   8  -3  -9  184.21    9.93
   8  -3  -9  174.43   10.40
   7  -3  -9  272.18   14.05
   7  -3  -9  267.65   14.54
   7  -3  -9  255.79   13.87
   6  -3  -9  105.57    5.78
   6  -3  -9   90.47    5.79
   6  -3  -9  105.03    6.45
  -6   3   9  103.01    5.83
  -6   3   9   98.72    5.76
   5  -3  -9   74.08    4.53
   5  -3  -9   74.88    5.17
   5  -3  -9   74.62    4.61
  -5   3   9   69.10    4.67
  -5   3   9   79.16    4.86
   4  -3  -9    2.42    0.95
   4  -3  -9    1.81    1.25
   4  -3  -9    3.08    1.03
  -4   3   9    2.39    1.16
  -4   3   9    3.63    1.20
   3  -3  -9   15.85    2.15
   3  -3  -9   18.19    2.06
   3  -3  -9   17.71    2.71
  -3   3   9   21.48    2.50
  -3   3   9   16.89    2.26
  -3   3   9   17.47    2.08
   2  -3  -9  663.54   35.06
   2  -3  -9  696.92   34.90
   2  -3  -9  664.32   35.41
  -2   3   9  660.39   34.93
  -2   3   9  674.42   35.04
  -2   3   9  717.33   35.32
   1  -3  -9   80.14    5.07
   1  -3  -9   80.55    5.64
   1  -3  -9   77.51    5.44
  -1   3   9   75.76    5.12
  -1   3   9   79.98    5.53
  -1   3   9   80.23    5.17
   0  -3  -9    3.64    1.21
   0  -3  -9    5.07    1.66
   0  -3  -9    5.26    1.87
   0   3   9    4.05    1.28
   0   3   9    5.07    1.67
   0   3   9    3.71    1.47
  -1  -3  -9    4.15    1.79
  -1  -3  -9    4.43    1.32
  -1  -3  -9    1.97    1.70
   1   3   9    4.37    1.34
  -2  -3  -9   30.36    4.21
  -2  -3  -9   31.87    3.97
  -2  -3  -9   36.33    3.33
   2   3   9   32.99    4.19
   2   3   9   28.89    3.96
   2   3   9   34.70    3.52
  -3  -3  -9   67.42    5.56
  -3  -3  -9   58.85    6.39
   3   3   9   71.47    6.06
   3   3   9   57.32    5.21
   3   3   9   70.00    5.87
   9  -4  -9   56.09    4.65
   9  -4  -9   53.67    3.63
   9  -4  -9   44.71    3.16
   9  -4  -9   44.36    3.02
   8  -4  -9   40.97    3.15
   8  -4  -9   40.09    3.96
   8  -4  -9   40.11    2.70
   7  -4  -9   -0.77    1.37
   7  -4  -9   -1.04    0.74
   7  -4  -9    0.21    0.94
  -7   4   9    0.01    0.49
  -7   4   9    0.20    0.55
   6  -4  -9  105.99    6.93
   6  -4  -9  114.59    6.38
   6  -4  -9  106.27    6.13
  -6   4   9  108.66    6.36
  -6   4   9  106.56    6.35
   5  -4  -9  124.58    7.12
   5  -4  -9  141.29    7.33
   5  -4  -9  115.92    7.76
  -5   4   9  130.12    7.48
  -5   4   9  118.40    7.39
   4  -4  -9   45.21    3.93
   4  -4  -9   47.85    3.30
   4  -4  -9   41.85    3.23
  -4   4   9   38.17    3.50
  -4   4   9   43.67    3.55
   3  -4  -9   83.12    5.34
   3  -4  -9   83.41    5.91
   3  -4  -9   87.74    5.24
  -3   4   9   82.99    5.20
  -3   4   9   82.83    5.57
  -3   4   9   81.98    5.63
   2  -4  -9  660.03   35.37
   2  -4  -9  692.88   34.75
   2  -4  -9  640.52   34.91
  -2   4   9  673.15   34.78
  -2   4   9  710.77   35.22
   1  -4  -9  451.62   22.66
   1  -4  -9  415.98   23.25
   1  -4  -9  415.35   22.93
  -1   4   9  442.06   22.78
  -1   4   9  428.47   23.08
  -1   4   9  435.58   22.91
   0  -4  -9   27.06    3.37
   0  -4  -9   25.42    3.73
   0  -4  -9   34.36    3.09
   0   4   9   29.77    3.14
   0   4   9   38.81    4.09
   0   4   9   26.36    3.24
  -1  -4  -9   36.92    4.32
  -1  -4  -9   38.51    4.20
   1   4   9   40.56    4.42
   1   4   9   37.21    3.78
   1   4   9   38.52    4.05
  -2  -4  -9   34.24    4.44
  -2  -4  -9   30.83    4.82
   2   4   9   30.51    4.34
   2   4   9   34.78    4.72
   9  -5  -9    2.52    1.32
   9  -5  -9   -1.11    1.89
   8  -5  -9   24.47    1.57
   8  -5  -9   25.93    3.68
   8  -5  -9   22.58    2.62
   7  -5  -9   13.75    2.15
   7  -5  -9   10.30    2.18
   7  -5  -9   14.54    1.54
  -7   5   9   13.76    1.80
  -7   5   9   10.98    1.81
   6  -5  -9  227.87   12.45
   6  -5  -9  230.56   13.15
   6  -5  -9  233.40   12.16
  -6   5   9  224.15   12.57
  -6   5   9  233.67   12.54
   5  -5  -9  107.49    5.93
   5  -5  -9   83.81    6.49
   5  -5  -9   97.47    5.66
  -5   5   9   99.11    6.10
  -5   5   9   85.46    6.07
   4  -5  -9    6.42    1.35
   4  -5  -9    6.06    1.29
   4  -5  -9    4.46    1.63
  -4   5   9    5.48    1.15
  -4   5   9    4.91    1.49
  -4   5   9    5.41    1.51
   3  -5  -9  101.83    6.45
   3  -5  -9  111.52    6.37
   3  -5  -9  101.51    7.11
  -3   5   9   99.46    6.77
  -3   5   9  110.04    6.89
  -3   5   9  105.18    6.32
   2  -5  -9   14.41    2.14
   2  -5  -9   10.36    2.26
  -2   5   9   14.72    2.28
  -2   5   9   12.72    2.16
  -2   5   9   11.74    1.78
   1  -5  -9  144.09    9.42
   1  -5  -9  171.64    8.75
   1  -5  -9  130.88    8.86
  -1   5   9  155.10    9.26
  -1   5   9  148.50    8.79
  -1   5   9  135.40    8.91
   0  -5  -9   10.73    1.89
   0  -5  -9    8.76    2.33
   0  -5  -9   12.52    2.51
   0   5   9    8.38    2.00
   0   5   9    7.61    2.27
  -1  -5  -9    4.40    2.30
  -1  -5  -9    2.18    1.58
  -1  -5  -9    2.58    2.30
   1   5   9    5.66    2.07
   1   5   9    1.91    2.24
   1   5   9    7.72    2.29
   8  -6  -9  120.79    6.53
   8  -6  -9   83.00    7.18
   7  -6  -9   83.73    6.74
   7  -6  -9  111.54    6.10
  -7   6   9   94.61    5.81
  -7   6   9   88.07    5.69
   6  -6  -9    7.76    2.10
   6  -6  -9   12.71    1.66
  -6   6   9    8.93    1.72
  -6   6   9    7.93    1.74
   5  -6  -9  318.07   16.95
   5  -6  -9  321.99   17.95
  -5   6   9  309.14   17.53
  -5   6   9  340.63   17.50
   4  -6  -9  113.68    6.20
   4  -6  -9   97.21    6.02
   4  -6  -9   81.34    6.75
  -4   6   9   90.11    6.49
  -4   6   9  103.17    6.59
  -4   6   9   94.91    5.83
   3  -6  -9   91.39    7.03
   3  -6  -9  110.21    6.36
   3  -6  -9   98.83    6.46
  -3   6   9  103.78    6.29
  -3   6   9  105.80    6.95
   2  -6  -9    8.07    1.96
   2  -6  -9    9.31    1.70
   2  -6  -9    9.39    2.40
  -2   6   9   11.18    2.34
  -2   6   9    9.81    1.84
  -2   6   9    8.89    2.12
   1  -6  -9    8.20    2.23
   1  -6  -9    7.93    1.64
   1  -6  -9    9.00    2.48
  -1   6   9    8.48    2.12
  -1   6   9    6.92    1.88
  -1   6   9    4.20    2.17
   0  -6  -9    0.61    1.51
   0  -6  -9    5.17    2.53
   0  -6  -9    3.61    2.36
   0   6   9    2.53    2.21
   0   6   9    5.29    2.11
   0   6   9    4.31    2.05
   8  -7  -9  147.10    9.67
   8  -7  -9  141.44    8.51
   7  -7  -9   19.45    2.42
   7  -7  -9   21.82    3.25
  -7   7   9   18.69    2.76
  -7   7   9   18.33    3.00
   6  -7  -9   55.01    4.19
   6  -7  -9   51.63    5.12
  -6   7   9   39.40    4.41
  -6   7   9   51.43    4.24
   5  -7  -9   23.64    2.90
   5  -7  -9   18.93    3.11
  -5   7   9   30.32    3.54
  -5   7   9   22.37    3.55
   4  -7  -9   -1.44    1.93
   4  -7  -9    2.11    1.25
   4  -7  -9   -1.17    1.32
  -4   7   9   -0.30    1.10
  -4   7   9   -0.99    1.70
   3  -7  -9    7.81    1.82
   3  -7  -9    9.14    1.65
   3  -7  -9    4.19    2.29
  -3   7   9    5.01    2.13
  -3   7   9    6.70    2.11
  -3   7   9    6.70    1.59
   2  -7  -9   46.94    4.63
   2  -7  -9   52.72    4.02
   2  -7  -9   49.36    5.39
  -2   7   9   51.09    4.24
  -2   7   9   44.79    5.02
  -2   7   9   36.16    4.74
   1  -7  -9    3.45    2.76
   1  -7  -9    3.98    1.75
  -1   7   9    4.72    2.46
  -1   7   9    6.03    2.01
  -1   7   9    5.07    2.31
   7  -8  -9   -2.62    2.47
   7  -8  -9   -1.20    1.54
  -7   8   9    0.42    1.83
  -7   8   9   -2.34    1.51
   6  -8  -9    4.41    2.42
   6  -8  -9    3.61    1.75
  -6   8   9    1.37    1.80
  -6   8   9    0.69    2.01
   5  -8  -9   21.52    3.40
   5  -8  -9   23.34    3.30
  -5   8   9   28.22    4.11
  -5   8   9   31.82    4.26
   4  -8  -9   32.24    3.43
  -4   8   9   28.61    4.42
  -4   8   9   31.10    3.19
  -4   8   9   29.01    3.83
   3  -8  -9  112.98    9.08
   3  -8  -9  132.06    7.97
  -3   8   9  123.62    8.81
  -3   8   9  136.51    7.89
  -3   8   9  135.34    8.82
   2  -8  -9   21.80    3.36
   2  -8  -9   20.22    3.54
  -2   8   9   17.84    3.47
  -2   8   9   32.77    4.78
   0  11 -10   68.89    5.65
   0  11 -10   62.50    6.70
   0 -11  10   59.27    4.88
   0 -11  10   60.25    6.54
  -1  11 -10   80.74    7.13
  -1  11 -10   91.00    7.46
  -1  11 -10   82.04    6.41
   1 -11  10   94.29    7.51
  -2  11 -10    1.25    2.05
  -2  11 -10    0.95    2.53
  -2  11 -10    0.86    2.24
   2 -11  10    0.75    2.94
  -3  11 -10   23.61    3.41
  -3  11 -10   31.76    4.27
   2  10 -10  160.98   10.28
   2  10 -10  139.34    9.91
  -2 -10  10  147.55    9.59
  -2 -10  10  137.29    8.53
   1  10 -10   10.02    2.48
   1  10 -10    9.15    2.58
   1  10 -10   18.89    3.32
  -1 -10  10    7.93    2.64
  -1 -10  10    8.59    1.79
   0  10 -10  112.74    7.84
   0  10 -10  114.93    8.30
   0  10 -10  123.71    8.71
   0 -10  10  110.33    7.25
   0 -10  10  131.52    8.63
  -1  10 -10  243.68   14.26
  -1  10 -10  239.81   13.86
  -1  10 -10  247.33   14.53
   1 -10  10  232.39   13.54
   1 -10  10  254.57   14.68
  -2  10 -10    5.04    2.09
  -2  10 -10    5.17    2.64
  -2  10 -10    8.67    2.16
   2 -10  10    4.59    1.70
   2 -10  10    4.79    2.80
  -3  10 -10    4.30    2.53
  -3  10 -10    3.84    1.94
  -3  10 -10    8.34    2.33
   3 -10  10    0.39    1.61
   3 -10  10    5.32    2.89
  -4  10 -10   62.13    5.63
  -4  10 -10   73.83    5.75
  -4  10 -10   63.16    6.31
   4 -10  10   53.52    6.86
   4 -10  10   73.98    7.14
   3   9 -10    1.22    2.43
   3   9 -10    2.68    2.34
  -3  -9  10    6.52    2.15
  -3  -9  10    4.73    1.40
   2   9 -10   13.86    2.80
   2   9 -10   13.54    2.68
  -2  -9  10   14.62    2.73
  -2  -9  10   16.44    2.51
   1   9 -10    6.05    1.93
   1   9 -10   10.67    2.35
   1   9 -10    7.49    2.20
  -1  -9  10    7.65    1.62
   0   9 -10   19.16    2.85
   0   9 -10   21.67    3.31
   0   9 -10   26.72    3.89
   0  -9  10   21.03    2.70
   0  -9  10   25.81    4.16
  -1   9 -10   -3.31    1.39
  -1   9 -10    0.79    1.68
  -1   9 -10   -0.19    1.94
   1  -9  10    0.34    2.25
  -2   9 -10   32.74    3.51
  -2   9 -10   34.78    4.43
  -2   9 -10   28.66    3.95
   2  -9  10   24.69    3.10
   2  -9  10   36.53    4.77
  -3   9 -10   55.73    4.99
  -3   9 -10   67.80    5.83
  -3   9 -10   58.66    4.99
   3  -9  10   55.70    4.64
   3  -9  10   69.90    6.28
  -4   9 -10   -1.91    1.77
  -4   9 -10   -1.02    1.88
  -4   9 -10   -1.68    2.19
   4  -9  10    1.40    1.61
   4  -9  10   -0.82    2.63
   4   8 -10   -0.38    2.18
   4   8 -10    1.17    2.34
  -4  -8  10    1.95    1.58
  -4  -8  10    1.52    1.02
   3   8 -10  166.72   10.73
   3   8 -10  179.66   10.77
  -3  -8  10  166.09    9.53
  -3  -8  10  179.31   10.34
   2   8 -10   72.47    5.89
   2   8 -10   81.98    6.15
  -2  -8  10   68.84    4.81
  -2  -8  10   76.38    5.85
   1   8 -10   27.38    3.88
   1   8 -10   23.33    3.08
   1   8 -10   24.01    3.46
  -1  -8  10   24.80    3.82
  -1  -8  10   24.47    2.65
   0   8 -10   50.03    4.31
   0   8 -10   60.64    5.32
   0   8 -10   48.29    4.64
   0  -8  10   55.54    4.01
  -1   8 -10   99.34    6.92
  -1   8 -10  123.17    7.68
  -1   8 -10   94.33    6.58
   1  -8  10   92.00    6.36
   1  -8  10  116.24    7.73
  -2   8 -10   36.31    3.83
  -2   8 -10   43.71    3.81
   2  -8  10   30.31    3.17
   2  -8  10   27.19    3.87
  -3   8 -10   85.15    6.07
  -3   8 -10   88.11    5.97
   3  -8  10   89.83    7.00
   3  -8  10   84.00    5.77
  -4   8 -10    0.72    1.59
  -4   8 -10    1.31    1.76
   4  -8  10    0.53    1.54
   4  -8  10    2.34    2.45
  -5   8 -10   18.96    2.57
  -5   8 -10   15.72    2.81
  -5   8 -10   16.63    2.81
   5  -8  10    9.84    3.07
   5  -8  10   17.90    2.56
   5   7 -10   66.93    5.87
   5   7 -10   74.08    6.14
  -5  -7  10   67.52    3.89
  -5  -7  10   66.72    4.27
   4   7 -10   14.97    2.58
   4   7 -10   11.98    2.31
  -4  -7  10   12.55    2.00
  -4  -7  10   13.44    1.82
   3   7 -10   14.76    2.45
  -3  -7  10   14.77    1.91
  -3  -7  10   10.93    2.03
   2   7 -10   56.25    4.86
   2   7 -10   65.58    4.70
   2   7 -10   70.50    5.20
  -2  -7  10   56.30    5.03
  -2  -7  10   58.73    4.11
   1   7 -10   10.35    1.88
   1   7 -10   11.75    2.20
   1   7 -10    8.83    1.87
  -1  -7  10   10.68    2.27
  -1  -7  10   11.91    1.92
   0   7 -10  380.80   20.10
   0   7 -10  356.28   19.74
   0   7 -10  360.01   19.94
   0  -7  10  388.59   20.34
   0  -7  10  356.47   19.42
  -1   7 -10   53.00    4.74
  -1   7 -10   57.44    4.39
  -1   7 -10   58.50    4.58
   1  -7  10   48.51    3.89
   1  -7  10   49.88    5.00
  -2   7 -10   21.78    2.99
  -2   7 -10   20.54    2.82
  -2   7 -10   24.14    3.52
   2  -7  10   18.35    2.50
  -3   7 -10   57.89    4.66
  -3   7 -10   58.44    4.66
  -3   7 -10   59.58    5.12
   3  -7  10   55.50    4.21
   3  -7  10   50.49    5.29
  -4   7 -10   38.45    3.86
  -4   7 -10   31.93    4.16
  -4   7 -10   36.15    4.21
   4  -7  10   37.61    5.20
   4  -7  10   41.81    3.66
  -5   7 -10    8.74    1.99
  -5   7 -10   15.64    2.55
  -5   7 -10   10.86    2.60
   5  -7  10   11.10    2.07
   5  -7  10    4.36    2.67
   6   6 -10   55.84    5.41
   6   6 -10   56.61    5.32
   5   6 -10    8.90    2.23
  -5  -6  10   11.96    1.34
  -5  -6  10   10.59    1.44
   4   6 -10   -2.53    1.49
   4   6 -10   -0.07    1.57
  -4  -6  10   -0.96    1.25
  -4  -6  10   -1.17    0.69
   3   6 -10   11.92    2.33
   3   6 -10   12.41    2.14
  -3  -6  10   10.88    2.07
  -3  -6  10   12.33    1.80
   2   6 -10    2.62    1.39
   2   6 -10    5.07    1.69
   2   6 -10    2.71    1.51
  -2  -6  10    5.06    1.12
  -2  -6  10    3.70    1.65
   1   6 -10    5.72    1.62
   1   6 -10    7.73    1.58
   1   6 -10    8.28    1.85
  -1  -6  10    7.49    1.36
  -1  -6  10    6.00    1.81
   0   6 -10   22.47    2.95
   0   6 -10   23.70    2.67
   0   6 -10   30.17    3.20
   0  -6  10   27.39    3.63
   0  -6  10   20.72    2.40
  -1   6 -10   53.00    4.70
  -1   6 -10   61.41    4.59
  -1   6 -10   57.48    4.44
   1  -6  10   57.45    4.09
   1  -6  10   60.11    5.12
  -2   6 -10   95.40    6.44
  -2   6 -10   87.06    6.05
  -2   6 -10   88.79    6.17
   2  -6  10  102.69    6.82
   2  -6  10   88.97    5.79
  -3   6 -10   15.83    2.44
  -3   6 -10   20.76    2.93
  -3   6 -10   24.37    3.48
   3  -6  10   23.77    3.31
   3  -6  10   18.54    2.59
  -4   6 -10   14.01    2.48
  -4   6 -10   11.31    1.98
  -4   6 -10   11.59    2.42
   4  -6  10   15.51    2.93
   4  -6  10    9.82    1.87
  -5   6 -10    8.89    2.06
  -5   6 -10    8.96    2.28
  -5   6 -10    8.19    2.44
   5  -6  10    7.04    2.75
   5  -6  10    7.49    1.82
   7   5 -10   15.03    2.59
   6   5 -10   50.01    4.63
   6   5 -10   51.88    4.81
   5   5 -10  202.20   11.80
   5   5 -10  211.07   11.83
  -5  -5  10  202.37   10.95
  -5  -5  10  202.03   10.64
   4   5 -10    5.81    1.76
   4   5 -10    7.32    1.69
  -4  -5  10    8.10    1.10
  -4  -5  10    7.62    1.54
   3   5 -10  337.79   18.81
   3   5 -10  344.36   18.93
   3   5 -10  350.09   18.87
  -3  -5  10  372.27   18.28
  -3  -5  10  345.53   18.87
   2   5 -10   21.25    2.80
   2   5 -10   20.07    2.85
   2   5 -10   22.54    2.72
  -2  -5  10   22.52    2.11
  -2  -5  10   20.33    2.90
   1   5 -10   23.63    2.92
   1   5 -10   17.56    2.62
   1   5 -10   23.22    2.76
  -1  -5  10   24.44    2.24
  -1  -5  10   25.24    3.26
   0   5 -10    2.82    1.38
   0   5 -10    3.40    1.38
   0   5 -10    1.66    1.25
   0  -5  10    3.31    1.70
   0  -5  10    3.19    1.02
  -1   5 -10   51.34    4.24
  -1   5 -10   56.30    4.45
  -1   5 -10   49.43    4.07
   1  -5  10   56.26    3.82
   1  -5  10   57.70    4.71
  -2   5 -10  134.66    8.12
  -2   5 -10  135.07    8.09
  -2   5 -10  135.13    8.26
   2  -5  10  125.88    7.67
   2  -5  10  132.03    8.53
  -3   5 -10  607.99   32.07
  -3   5 -10  628.15   31.93
  -3   5 -10  572.60   31.91
   3  -5  10  658.67   32.50
   3  -5  10  585.73   31.55
  -4   5 -10   22.60    3.20
  -4   5 -10   31.02    3.68
  -4   5 -10   27.26    3.49
   4  -5  10   27.34    3.11
   4  -5  10   26.83    3.61
   4  -5  10   40.65    4.52
  -5   5 -10   12.21    2.19
  -5   5 -10   13.55    2.73
  -5   5 -10   10.60    2.11
   5  -5  10   13.02    2.07
   5  -5  10   14.08    2.87
   5  -5  10   17.57    3.25
   7   4 -10   57.83    4.85
   7   4 -10   44.52    4.56
   6   4 -10  146.31    9.09
   6   4 -10  155.70    9.08
   5   4 -10  351.97   18.51
   5   4 -10  341.74   18.34
  -5  -4  10  330.48   17.78
  -5  -4  10  340.71   17.48
   4   4 -10   12.19    2.00
   4   4 -10    9.49    1.86
   4   4 -10    9.06    1.70
  -4  -4  10   10.66    1.75
  -4  -4  10   13.49    1.47
   3   4 -10    2.05    1.25
   3   4 -10    3.25    1.32
   3   4 -10    3.43    1.36
  -3  -4  10    3.33    1.46
  -3  -4  10    3.11    0.90
   2   4 -10  124.01    8.13
   2   4 -10  144.39    8.24
   2   4 -10  136.46    8.08
  -2  -4  10  148.05    7.74
  -2  -4  10  135.05    8.38
   1   4 -10   72.36    5.22
   1   4 -10   75.27    5.09
   1   4 -10   85.34    5.33
  -1  -4  10   80.11    5.54
  -1  -4  10   76.42    4.79
   0   4 -10    0.09    1.10
   0   4 -10    0.98    1.20
   0   4 -10   -0.65    1.15
   0  -4  10    0.80    1.36
   0  -4  10    0.65    0.84
  -1   4 -10   30.86    3.03
  -1   4 -10   29.70    3.23
  -1   4 -10   29.68    3.12
   1  -4  10   31.32    2.70
   1  -4  10   34.09    3.62
  -2   4 -10    5.86    1.64
  -2   4 -10    3.80    1.49
  -2   4 -10    3.77    1.47
   2  -4  10    3.21    1.15
   2  -4  10    2.36    1.72
  -3   4 -10  459.61   24.68
  -3   4 -10  459.77   24.63
  -3   4 -10  431.02   24.76
   3  -4  10  484.19   24.88
   3  -4  10  519.99   25.30
   3  -4  10  438.68   24.25
  -4   4 -10   47.57    4.49
  -4   4 -10   53.79    4.94
  -4   4 -10   64.01    4.76
   4  -4  10   56.67    5.04
   4  -4  10   55.32    4.17
  -5   4 -10   23.26    3.44
  -5   4 -10   22.36    3.59
  -5   4 -10   16.38    3.10
   5  -4  10   23.84    3.27
   5  -4  10   28.06    3.27
   5  -4  10   21.12    3.43
   8   3 -10    0.59    1.93
   8   3 -10    1.68    1.96
   7   3 -10   -0.45    1.52
   7   3 -10    1.72    1.59
   6   3 -10    0.02    1.27
   6   3 -10   -0.30    1.34
   5   3 -10   33.63    3.27
   5   3 -10   34.59    3.33
   5   3 -10   32.41    3.17
  -5  -3  10   31.67    2.23
  -5  -3  10   32.64    2.71
   4   3 -10   61.18    4.49
   4   3 -10   64.12    4.48
   4   3 -10   65.84    4.65
  -4  -3  10   62.59    4.44
  -4  -3  10   61.79    3.82
   3   3 -10  244.11   12.56
   3   3 -10  221.77   12.58
   3   3 -10  221.46   12.46
  -3  -3  10  212.22   11.95
  -3  -3  10  232.22   12.64
   2   3 -10    6.94    1.43
   2   3 -10    4.57    1.46
   2   3 -10    7.87    1.54
  -2  -3  10    7.93    1.75
  -2  -3  10    4.77    1.03
   1   3 -10   13.78    2.21
   1   3 -10   14.72    2.00
   1   3 -10   18.16    2.42
  -1  -3  10   14.95    1.80
  -1  -3  10   13.60    2.15
   0   3 -10  169.50    9.78
   0   3 -10  159.23    9.60
   0   3 -10  182.33    9.82
   0  -3  10  158.74    9.26
   0  -3  10  174.45   10.07
  -1   3 -10   95.46    5.76
  -1   3 -10   77.09    5.52
  -1   3 -10   78.88    5.54
   1  -3  10   88.28    5.98
   1  -3  10   82.38    5.15
   1  -3  10   74.40    5.49
  -2   3 -10    3.82    1.50
  -2   3 -10    4.97    1.56
  -2   3 -10    3.91    1.64
   2  -3  10    4.84    1.88
   2  -3  10    6.12    1.70
   2  -3  10    4.43    1.24
  -3   3 -10   -0.40    1.51
  -3   3 -10   -2.38    1.38
  -3   3 -10    2.78    1.56
   3  -3  10    0.78    1.64
   3  -3  10   -0.02    1.06
  -4   3 -10    1.70    1.63
  -4   3 -10    7.37    2.28
  -4   3 -10    5.43    1.88
   4  -3  10    2.42    1.29
   4  -3  10    0.81    2.17
   4  -3  10    4.99    1.96
  -5   3 -10   86.58    7.26
  -5   3 -10   92.30    6.39
  -5   3 -10   97.60    6.37
   5  -3  10  105.79    7.22
   5  -3  10   90.40    6.26
   5  -3  10   98.18    7.74
   8   2 -10   10.41    2.13
   8   2 -10    9.69    1.96
   7   2 -10  225.19   12.44
   7   2 -10  224.99   12.61
   6   2 -10   14.67    2.12
   6   2 -10   15.80    2.40
   6   2 -10   10.11    1.95
   5   2 -10  176.54   10.14
   5   2 -10  184.53   10.27
  -5  -2  10  177.21    9.80
  -5  -2  10  178.11    9.49
   4   2 -10  197.68   10.89
   4   2 -10  188.19   10.65
  -4  -2  10  182.69   10.18
  -4  -2  10  197.88   10.74
   3   2 -10  349.84   19.93
   3   2 -10  388.84   20.21
  -3  -2  10  393.91   20.25
  -3  -2  10  383.95   19.65
   2   2 -10   87.60    5.70
   2   2 -10   89.42    5.52
  -2  -2  10   89.16    5.81
  -2  -2  10   80.34    5.08
   1   2 -10   74.50    5.29
   1   2 -10   90.50    5.48
   1   2 -10   82.68    5.48
  -1  -2  10   80.89    5.70
  -1  -2  10   83.29    5.00
   0   2 -10   46.37    3.90
   0   2 -10   54.94    4.16
   0   2 -10   57.07    4.25
   0  -2  10   56.02    4.45
   0  -2  10   53.59    3.65
  -1   2 -10  118.23    7.18
  -1   2 -10  111.44    7.15
  -1   2 -10  121.24    7.13
   1  -2  10  114.37    7.12
   1  -2  10  110.29    7.32
   1  -2  10  106.81    6.61
  -2   2 -10   38.20    3.73
  -2   2 -10   43.09    3.72
  -2   2 -10   40.39    3.83
   2  -2  10   36.36    3.14
   2  -2  10   41.53    3.78
   2  -2  10   36.79    3.94
  -3   2 -10    3.97    1.63
  -3   2 -10    1.83    1.90
  -3   2 -10    3.48    1.60
   3  -2  10    2.51    1.81
   3  -2  10    4.60    2.02
   3  -2  10    2.87    1.23
  -4   2 -10    7.41    1.94
  -4   2 -10    9.83    2.10
  -4   2 -10    6.84    2.38
   4  -2  10    9.83    2.28
   4  -2  10    8.52    1.72
   4  -2  10    8.22    2.52
   8   1 -10   61.77    4.99
   8   1 -10   71.93    4.95
   7   1 -10    2.36    1.48
   7   1 -10    3.90    1.46
   6   1 -10   46.59    3.57
   6   1 -10   36.77    3.17
   6   1 -10   45.75    3.72
  -6  -1  10   42.63    2.49
  -6  -1  10   44.53    2.45
   5   1 -10   27.66    2.66
   5   1 -10   32.12    2.88
   5   1 -10   34.05    3.13
  -5  -1  10   34.31    2.82
  -5  -1  10   37.07    2.46
   4   1 -10    0.83    1.11
   4   1 -10    2.24    0.98
   4   1 -10    1.12    1.06
  -4  -1  10    3.53    1.30
  -4  -1  10    4.61    0.95
   3   1 -10  228.31   12.93
   3   1 -10  241.32   13.04
   3   1 -10  253.68   13.34
  -3  -1  10  252.03   12.79
  -3  -1  10  226.62   13.23
   2   1 -10  165.47   10.75
   2   1 -10  216.13   10.92
   2   1 -10  200.52   11.13
  -2  -1  10  208.94   11.27
  -2  -1  10  192.87   10.60
   1   1 -10  160.26    9.18
   1   1 -10  157.68    9.33
   1   1 -10  148.99    8.99
  -1  -1  10  161.74    8.85
  -1  -1  10  169.50    9.53
   0   1 -10  235.47   12.93
   0   1 -10  228.28   12.96
   0  -1  10  238.19   13.12
   0  -1  10  223.88   12.44
   0  -1  10  231.62   12.89
  -1   1 -10  264.91   14.26
  -1   1 -10  252.99   14.17
   1  -1  10  243.00   13.62
   1  -1  10  256.36   14.29
   1  -1  10  254.06   14.08
  -2   1 -10    4.29    1.63
  -2   1 -10    8.94    1.89
  -2   1 -10    8.17    1.96
   2  -1  10    9.14    1.52
  -3   1 -10   16.87    2.46
  -3   1 -10   20.41    3.13
   3  -1  10   13.92    2.64
   3  -1  10   23.03    3.44
   3  -1  10   16.33    2.43
  -4   1 -10    2.12    2.42
  -4   1 -10    2.99    1.79
  -4   1 -10    6.47    1.99
   4  -1  10    7.44    1.68
   4  -1  10    8.55    2.34
   4  -1  10    2.72    2.25
   9   0 -10    0.59    1.78
   8   0 -10   73.70    5.28
   8   0 -10   74.36    5.21
   8   0 -10   75.46    4.88
   7   0 -10  141.00    8.09
   7   0 -10  138.59    7.87
   7   0 -10  135.07    8.21
   6   0 -10   26.92    2.91
   6   0 -10   20.96    2.38
   6   0 -10   26.08    2.65
  -6   0  10   28.70    2.05
  -6   0  10   25.50    1.85
   5   0 -10   52.02    3.68
   5   0 -10   54.39    3.75
   5   0 -10   52.34    4.05
  -5   0  10   52.26    3.46
  -5   0  10   54.76    3.83
   4   0 -10   78.66    5.31
   4   0 -10   85.12    4.97
   4   0 -10   74.71    4.97
  -4   0  10   75.91    5.19
  -4   0  10   78.00    4.77
   3   0 -10   35.91    2.98
   3   0 -10   38.62    3.11
   3   0 -10   42.07    3.49
  -3   0  10   36.41    2.82
  -3   0  10   34.82    3.44
   2   0 -10    1.52    1.19
   2   0 -10   -0.43    1.01
   2   0 -10    0.68    0.96
  -2   0  10    2.00    1.19
  -2   0  10    1.16    0.78
   1   0 -10  127.71    8.16
   1   0 -10  144.82    7.90
   1   0 -10  135.50    7.99
  -1   0  10  133.32    8.00
  -1   0  10  134.36    7.65
  -1   0  10  130.15    8.16
   0   0 -10    1.23    1.36
   0   0 -10    2.73    1.38
   0   0 -10    0.61    1.12
   0   0  10    0.88    0.90
   0   0  10    1.26    1.34
   0   0  10    1.28    1.30
  -1   0 -10  110.96    7.08
  -1   0 -10  109.09    7.02
   1   0  10  105.86    6.45
   1   0  10  108.53    6.85
   1   0  10  104.26    7.07
  -2   0 -10    2.08    1.57
  -2   0 -10    4.67    1.79
  -2   0 -10    3.12    1.64
   2   0  10   -0.02    1.71
   2   0  10    6.33    1.83
   2   0  10    2.31    1.18
  -3   0 -10   36.98    4.53
  -3   0 -10   40.91    3.94
  -3   0 -10   40.24    4.30
   3   0  10   33.35    3.38
   3   0  10   34.67    3.95
   3   0  10   43.55    4.64
  -4   0 -10   10.48    3.84
  -4   0 -10   13.93    2.35
  -4   0 -10   11.13    2.26
   4   0  10    8.50    2.75
   4   0  10    7.79    1.87
   4   0  10   13.60    2.76
   9  -1 -10   99.16    6.55
   9  -1 -10  100.46    6.19
   9  -1 -10  102.36    6.72
   8  -1 -10   76.05    4.67
   8  -1 -10   64.87    5.05
   8  -1 -10   69.76    4.78
   7  -1 -10   16.45    2.16
   7  -1 -10   17.27    2.13
   7  -1 -10   12.76    1.75
   6  -1 -10  193.99   10.42
   6  -1 -10  188.80   10.43
   6  -1 -10  191.52   10.81
  -6   1  10  193.86   10.19
  -6   1  10  182.88   10.06
   5  -1 -10    1.67    0.97
   5  -1 -10    1.82    1.25
   5  -1 -10    0.42    0.87
  -5   1  10    3.26    1.23
   4  -1 -10   16.27    2.44
   4  -1 -10   12.59    1.93
   4  -1 -10   17.22    1.99
  -4   1  10   11.07    1.77
  -4   1  10   12.96    1.87
   3  -1 -10  583.75   29.79
   3  -1 -10  610.43   29.77
   3  -1 -10  573.85   30.11
  -3   1  10  548.59   29.62
  -3   1  10  561.40   30.00
   2  -1 -10   60.92    4.46
   2  -1 -10   48.08    3.95
   2  -1 -10   60.27    4.02
  -2   1  10   58.65    4.41
  -2   1  10   53.62    3.80
  -2   1  10   56.95    4.09
   1  -1 -10  125.25    7.33
   1  -1 -10  108.40    6.95
   1  -1 -10  118.94    7.43
  -1   1  10  127.57    7.51
  -1   1  10  119.96    7.15
  -1   1  10  107.22    6.82
   0  -1 -10  119.92    7.12
   0  -1 -10  113.93    7.55
   0  -1 -10  114.52    7.45
   0   1  10  118.63    6.97
   0   1  10  121.04    7.34
   0   1  10  117.06    7.47
  -1  -1 -10   69.75    5.35
  -1  -1 -10   69.98    4.85
  -1  -1 -10   68.98    5.28
   1   1  10   61.43    4.61
   1   1  10   79.70    5.15
  -2  -1 -10   58.22    4.96
  -2  -1 -10   51.35    5.16
   2   1  10   57.48    4.95
   2   1  10   53.44    4.18
   2   1  10   57.10    4.82
  -3  -1 -10    0.16    1.69
  -3  -1 -10   -0.91    1.96
  -3  -1 -10   -2.07    2.23
   3   1  10   -3.18    2.00
   3   1  10   -0.96    1.43
   3   1  10   -1.12    2.12
   9  -2 -10    3.48    1.87
   9  -2 -10    5.37    1.52
   9  -2 -10    4.86    1.39
   8  -2 -10   14.26    2.18
   8  -2 -10   11.06    1.99
   8  -2 -10   11.51    1.73
   7  -2 -10   74.33    4.90
   7  -2 -10   82.87    4.93
   7  -2 -10   76.80    5.41
   6  -2 -10   26.54    2.50
   6  -2 -10   21.39    2.34
   6  -2 -10   27.38    3.03
  -6   2  10   23.35    2.19
  -6   2  10   23.98    2.39
   5  -2 -10   22.15    2.32
   5  -2 -10   20.58    2.24
   5  -2 -10   17.97    2.76
  -5   2  10   22.45    2.31
  -5   2  10   18.53    2.53
   4  -2 -10   95.60    5.83
   4  -2 -10   94.37    5.81
   4  -2 -10  100.85    6.34
  -4   2  10   94.70    6.11
  -4   2  10   93.37    5.84
   3  -2 -10  132.32    8.33
   3  -2 -10  147.66    7.90
   3  -2 -10  127.69    7.92
  -3   2  10  141.29    8.23
  -3   2  10  130.83    7.86
   2  -2 -10   64.70    4.21
   2  -2 -10   56.24    4.33
   2  -2 -10   56.06    4.64
  -2   2  10   57.61    4.20
  -2   2  10   60.98    4.62
   1  -2 -10    4.30    1.34
   1  -2 -10    1.28    1.39
   1  -2 -10    5.52    1.69
  -1   2  10    2.15    1.11
  -1   2  10    3.36    1.45
  -1   2  10    3.07    1.48
   0  -2 -10    1.76    1.64
   0  -2 -10    1.94    1.31
   0  -2 -10    5.26    1.73
   0   2  10    0.90    1.45
   0   2  10   -0.07    1.13
  -1  -2 -10   24.29    3.45
  -1  -2 -10   24.38    3.75
  -1  -2 -10   31.01    3.04
   1   2  10   21.20    3.48
   1   2  10   31.52    3.34
   1   2  10   24.88    2.94
  -2  -2 -10   49.19    4.81
  -2  -2 -10   43.49    4.80
   2   2  10   43.66    4.58
   2   2  10   45.92    4.87
   2   2  10   44.40    4.06
  -3  -2 -10   63.36    5.60
   3   2  10   69.84    6.22
   3   2  10   60.36    5.60
   3   2  10   60.75    5.07
   9  -3 -10   41.52    3.32
   9  -3 -10   47.16    4.55
   9  -3 -10   40.92    3.57
   8  -3 -10   14.05    2.10
   8  -3 -10   17.28    2.46
   8  -3 -10   14.06    2.33
   7  -3 -10   27.13    2.54
   7  -3 -10   28.90    3.45
   7  -3 -10   30.51    2.81
   6  -3 -10  132.88    7.53
   6  -3 -10  140.06    7.70
   6  -3 -10  134.35    8.25
  -6   3  10  133.23    7.67
  -6   3  10  125.10    7.54
   5  -3 -10    2.52    1.04
   5  -3 -10    2.19    1.43
   5  -3 -10    2.62    1.17
  -5   3  10    2.09    1.27
  -5   3  10    1.83    1.06
   4  -3 -10   68.80    5.45
   4  -3 -10   77.12    4.89
   4  -3 -10   72.49    4.84
  -4   3  10   69.68    4.99
  -4   3  10   82.89    5.25
   3  -3 -10   57.05    4.11
   3  -3 -10   57.83    3.97
   3  -3 -10   49.75    4.53
  -3   3  10   53.80    4.11
  -3   3  10   54.46    4.38
  -3   3  10   50.84    3.94
   2  -3 -10    1.30    1.18
   2  -3 -10    2.92    1.53
   2  -3 -10    1.06    1.60
  -2   3  10    1.17    1.50
  -2   3  10    2.30    1.28
  -2   3  10    3.17    1.29
   1  -3 -10   88.97    6.84
   1  -3 -10   94.82    6.67
   1  -3 -10  115.20    6.38
  -1   3  10  117.45    7.12
  -1   3  10   95.21    6.34
  -1   3  10   90.80    6.32
   0  -3 -10  150.42    9.78
   0  -3 -10  150.47    9.99
   0   3  10  143.86    9.41
   0   3  10  173.44   10.05
   0   3  10  194.75    9.84
  -1  -3 -10   10.37    2.30
  -1  -3 -10    2.76    2.20
  -1  -3 -10    3.46    1.66
   1   3  10    4.24    1.60
   1   3  10    4.38    2.10
   1   3  10    3.15    1.94
  -2  -3 -10   16.22    2.78
  -2  -3 -10   13.55    3.14
  -2  -3 -10   25.01    3.24
   2   3  10   22.11    3.19
   2   3  10   26.37    3.65
   2   3  10   15.88    3.04
   9  -4 -10  119.29    7.93
   9  -4 -10  117.84    6.96
   9  -4 -10  108.37    6.67
   8  -4 -10  136.33    7.23
   8  -4 -10  131.93    7.62
   8  -4 -10  119.79    8.29
   7  -4 -10   55.05    3.37
   7  -4 -10   39.92    4.30
   7  -4 -10   52.47    3.66
  -7   4  10   39.02    3.11
  -7   4  10   46.01    3.20
   6  -4 -10  174.00    9.56
   6  -4 -10  189.24    9.82
   6  -4 -10  174.90   10.43
  -6   4  10  158.85    9.73
  -6   4  10  172.66    9.82
   5  -4 -10  388.97   21.08
   5  -4 -10  391.39   21.80
   5  -4 -10  449.41   21.31
  -5   4  10  367.00   21.32
  -5   4  10  422.74   21.49
   4  -4 -10   20.53    3.36
   4  -4 -10   24.13    2.75
  -4   4  10   23.90    2.96
  -4   4  10   24.51    3.01
   3  -4 -10   99.89    6.87
   3  -4 -10  114.89    7.63
  -3   4  10  125.77    7.42
  -3   4  10  107.93    7.14
  -3   4  10  116.74    6.86
   2  -4 -10    6.51    1.95
   2  -4 -10    7.16    1.73
  -2   4  10    5.57    1.56
  -2   4  10    7.79    1.69
   1  -4 -10   33.50    3.25
   1  -4 -10   35.50    4.25
   1  -4 -10   31.25    3.82
  -1   4  10   28.14    3.33
  -1   4  10   29.19    3.30
  -1   4  10   31.17    3.88
   0  -4 -10  243.13   14.12
   0  -4 -10  256.28   13.55
   0  -4 -10  232.11   14.23
   0   4  10  219.12   13.66
   0   4  10  266.49   14.32
   0   4  10  246.47   13.73
  -1  -4 -10   46.49    5.47
  -1  -4 -10   53.02    5.69
  -1  -4 -10   56.58    4.64
   1   4  10   59.49    5.27
   1   4  10   56.52    4.99
   1   4  10   61.37    5.59
   8  -5 -10   68.98    4.14
   8  -5 -10   77.59    6.13
   7  -5 -10   35.46    4.45
   7  -5 -10   38.58    3.00
  -7   5  10   46.80    3.35
  -7   5  10   40.74    3.24
   6  -5 -10   38.28    3.06
   6  -5 -10   39.94    4.43
  -6   5  10   42.09    3.58
  -6   5  10   33.08    3.49
   5  -5 -10   20.47    2.47
   5  -5 -10   14.27    2.52
  -5   5  10   17.86    2.92
  -5   5  10   16.24    2.42
   4  -5 -10   77.76    5.01
   4  -5 -10   67.54    4.92
   4  -5 -10   63.91    5.63
  -4   5  10   82.79    5.49
  -4   5  10   69.08    5.35
   3  -5 -10    1.70    1.51
   3  -5 -10    1.25    1.74
   3  -5 -10    6.13    1.47
  -3   5  10    0.21    1.31
  -3   5  10    2.71    1.56
   2  -5 -10   33.66    4.51
   2  -5 -10   36.80    3.96
   2  -5 -10   34.37    3.38
  -2   5  10   39.21    4.32
  -2   5  10   42.69    3.73
  -2   5  10   36.12    3.99
   1  -5 -10   -3.00    2.04
   1  -5 -10   -0.71    1.33
   1  -5 -10   -0.95    1.77
  -1   5  10    2.40    2.04
  -1   5  10    0.12    1.69
   0  -5 -10   75.65    6.37
   0  -5 -10   73.10    5.24
   0  -5 -10   64.06    6.23
   0   5  10   63.28    5.66
   0   5  10   75.48    6.11
   0   5  10   65.88    5.59
   8  -6 -10    2.53    2.48
   8  -6 -10    3.37    1.73
   7  -6 -10    3.28    0.97
   7  -6 -10   -1.90    2.08
   7  -6 -10    1.20    1.48
  -7   6  10    1.92    1.41
  -7   6  10    3.34    1.49
   6  -6 -10  191.25   10.62
   6  -6 -10  200.91   11.03
   6  -6 -10  183.89   11.89
  -6   6  10  193.30   11.30
  -6   6  10  207.31   11.26
   5  -6 -10   86.74    6.80
   5  -6 -10   84.22    5.69
   5  -6 -10   96.50    5.96
  -5   6  10   91.05    6.30
  -5   6  10   91.99    6.39
   4  -6 -10   55.08    4.19
   4  -6 -10   55.39    4.01
   4  -6 -10   37.40    5.04
  -4   6  10   62.99    5.01
  -4   6  10   44.76    3.85
  -4   6  10   48.11    4.73
   3  -6 -10   31.83    3.60
   3  -6 -10   22.63    3.49
   3  -6 -10   26.49    3.21
  -3   6  10   28.99    4.14
  -3   6  10   35.10    3.38
  -3   6  10   27.90    4.02
   2  -6 -10  129.32    9.34
   2  -6 -10  122.44    8.58
   2  -6 -10  144.88    8.28
  -2   6  10  135.54    8.26
  -2   6  10  133.45    8.84
  -2   6  10  139.82    9.04
   1  -6 -10   33.42    3.70
   1  -6 -10   30.88    4.79
   1  -6 -10   31.50    5.14
  -1   6  10   31.65    4.74
  -1   6  10   36.95    4.20
   7  -7 -10   96.26    7.43
   7  -7 -10   96.40    6.10
  -7   7  10   73.84    5.82
  -7   7  10   88.36    6.14
   6  -7 -10   87.90    5.58
   6  -7 -10   63.35    6.58
  -6   7  10   72.24    5.69
  -6   7  10   77.73    5.98
   5  -7 -10  219.95   11.43
   5  -7 -10  179.48   12.23
   5  -7 -10  185.54   11.09
  -5   7  10  211.05   11.84
  -5   7  10  196.40   11.91
   4  -7 -10   83.40    5.59
   4  -7 -10   74.48    5.73
   4  -7 -10   68.23    6.58
  -4   7  10   83.31    6.48
  -4   7  10   84.17    5.40
  -4   7  10   80.06    6.37
   3  -7 -10   -2.21    1.84
   3  -7 -10    1.89    2.52
  -3   7  10   -1.35    2.13
  -3   7  10    0.36    1.72
  -3   7  10    1.54    2.17
   2  -7 -10   62.02    5.71
   2  -7 -10   61.13    4.94
   2  -7 -10   46.47    6.56
  -2   7  10   67.80    6.22
  -2   7  10   62.89    5.20
  -2   7  10   53.07    6.19
   1  10 -11   -6.13    2.70
   1  10 -11   -2.25    2.14
  -1 -10  11   -2.07    1.55
  -1 -10  11    0.09    2.48
   0  10 -11   53.58    5.73
   0  10 -11   43.49    4.80
   0  10 -11   64.64    6.27
   0 -10  11   52.92    4.49
  -1  10 -11   79.88    5.87
  -1  10 -11   72.43    6.81
  -1  10 -11   71.67    6.48
   1 -10  11   75.79    5.66
   1 -10  11   88.95    7.33
  -2  10 -11  108.41    7.55
  -2  10 -11  102.46    7.25
  -2  10 -11  106.26    8.12
   2 -10  11  109.99    8.64
   2 -10  11   79.87    6.70
   3   9 -11   18.85    3.52
   3   9 -11   21.37    3.56
  -3  -9  11   22.43    2.82
   2   9 -11   15.29    2.81
   2   9 -11   23.98    3.59
   2   9 -11   15.21    3.05
  -2  -9  11   17.58    2.74
  -2  -9  11   20.19    3.15
   1   9 -11   42.24    4.96
   1   9 -11   31.62    4.75
   1   9 -11   38.86    4.45
  -1  -9  11   48.13    5.28
  -1  -9  11   38.40    3.58
   0   9 -11   10.18    2.70
   0   9 -11   12.11    2.73
   0   9 -11   12.86    2.38
   0  -9  11   18.65    3.11
   0  -9  11    9.48    1.91
  -1   9 -11  118.52    8.40
  -1   9 -11  119.30    7.81
  -1   9 -11  117.80    8.13
   1  -9  11  122.33    8.81
   1  -9  11  108.79    7.34
  -2   9 -11  150.25    9.82
  -2   9 -11  166.58   10.34
  -2   9 -11  155.27    9.59
   2  -9  11  146.37    9.21
   2  -9  11  165.25   10.77
  -3   9 -11    0.27    1.91
  -3   9 -11    4.91    2.53
  -3   9 -11    0.00    1.98
   3  -9  11   -0.50    1.72
   3  -9  11   -1.14    2.64
   4   8 -11   70.85    6.54
   4   8 -11   66.84    6.67
  -4  -8  11   79.93    5.74
  -4  -8  11   78.57    4.77
   3   8 -11    0.90    2.16
   3   8 -11   -3.15    1.91
   3   8 -11    1.96    2.15
  -3  -8  11    1.37    2.02
  -3  -8  11    1.10    1.15
   2   8 -11   26.37    4.04
   2   8 -11   34.63    4.50
   2   8 -11   24.24    3.28
  -2  -8  11   26.86    2.89
   1   8 -11    0.06    2.11
   1   8 -11    1.22    1.84
   1   8 -11   -2.06    1.65
  -1  -8  11   -1.41    2.10
  -1  -8  11    2.89    1.37
   0   8 -11    0.73    1.75
   0   8 -11    1.97    2.07
   0   8 -11   -0.58    1.58
   0  -8  11   -1.30    2.07
   0  -8  11   -0.56    1.25
  -1   8 -11    1.60    1.88
  -1   8 -11    2.92    1.75
  -1   8 -11    3.49    2.03
   1  -8  11    4.11    2.55
   1  -8  11    3.94    1.44
  -2   8 -11    2.58    1.81
  -2   8 -11    2.41    1.77
  -2   8 -11    0.75    2.18
   2  -8  11   -1.64    2.46
   2  -8  11    4.97    1.61
  -3   8 -11   16.46    2.67
  -3   8 -11   18.67    3.18
  -3   8 -11   15.36    2.70
   3  -8  11   20.31    3.47
  -4   8 -11  103.71    7.70
  -4   8 -11  104.59    7.99
  -4   8 -11  109.28    7.43
   4  -8  11   96.70    7.41
   4  -8  11  117.97    8.62
   5   7 -11   14.78    3.00
   5   7 -11   13.59    2.90
  -5  -7  11   16.69    2.60
  -5  -7  11   16.42    1.73
   4   7 -11   17.41    2.66
   4   7 -11   15.74    2.90
  -4  -7  11    9.14    2.10
  -4  -7  11   13.48    1.57
   3   7 -11   38.47    4.41
   3   7 -11   41.09    4.24
   3   7 -11   45.72    4.68
  -3  -7  11   32.13    4.22
  -3  -7  11   37.59    3.15
   2   7 -11  188.03   11.51
   2   7 -11  181.21   11.21
   2   7 -11  190.88   11.58
  -2  -7  11  203.63   11.70
  -2  -7  11  202.02   10.72
   1   7 -11   52.69    4.38
   1   7 -11   50.98    4.69
   1   7 -11   53.32    4.86
  -1  -7  11   45.80    3.74
   0   7 -11   44.24    4.54
   0   7 -11   42.05    4.20
   0   7 -11   36.74    3.66
   0  -7  11   38.22    3.40
  -1   7 -11   52.02    4.68
  -1   7 -11   52.61    4.57
  -1   7 -11   53.14    4.93
   1  -7  11   51.51    4.04
   1  -7  11   53.47    5.25
  -2   7 -11   28.60    3.74
  -2   7 -11   34.50    4.28
  -2   7 -11   30.34    3.66
   2  -7  11   29.80    3.17
   2  -7  11   27.39    3.72
  -3   7 -11   20.08    2.82
  -3   7 -11   17.14    2.47
  -3   7 -11   15.56    2.72
   3  -7  11   18.27    2.90
   3  -7  11   14.96    3.21
  -4   7 -11    1.87    2.13
  -4   7 -11    0.03    2.17
   4  -7  11   -2.11    1.60
   4  -7  11    0.55    2.62
   5   6 -11    0.58    1.92
   5   6 -11    2.07    2.07
  -5  -6  11    0.08    0.73
  -5  -6  11    0.97    1.31
   4   6 -11    4.45    1.99
   4   6 -11    5.06    1.97
   4   6 -11    4.57    1.93
  -4  -6  11    5.82    1.69
  -4  -6  11    5.17    1.09
   3   6 -11   54.81    4.74
   3   6 -11   61.43    5.12
  -3  -6  11   66.72    4.18
  -3  -6  11   63.98    5.12
   2   6 -11  398.83   22.63
   2   6 -11  384.28   22.74
   2   6 -11  473.78   23.15
  -2  -6  11  448.26   23.07
  -2  -6  11  423.24   22.18
   1   6 -11  150.94    9.33
   1   6 -11  152.27    9.11
  -1  -6  11  165.49    9.79
  -1  -6  11  146.72    8.67
   0   6 -11   26.48    3.20
   0   6 -11   30.44    3.38
   0  -6  11   24.05    2.64
  -1   6 -11   36.54    3.73
  -1   6 -11   38.17    3.83
   1  -6  11   40.20    4.63
   1  -6  11   32.47    3.15
  -2   6 -11  101.63    6.74
  -2   6 -11   97.79    6.79
   2  -6  11  100.52    7.33
   2  -6  11   96.64    6.21
  -3   6 -11   -0.55    1.92
  -3   6 -11    0.46    1.71
   3  -6  11    2.42    1.37
   3  -6  11   -3.04    2.04
  -4   6 -11   48.09    4.56
  -4   6 -11   39.52    4.91
   4  -6  11   48.61    4.16
   4  -6  11   44.66    5.86
   6   5 -11    1.77    2.10
   6   5 -11    4.03    2.12
   4   5 -11    6.38    1.73
   4   5 -11    2.71    1.62
   4   5 -11    4.94    1.79
  -4  -5  11    3.79    0.93
  -4  -5  11    3.91    1.60
   3   5 -11   37.81    3.68
   3   5 -11   39.13    3.82
   3   5 -11   40.73    3.88
  -3  -5  11   42.48    4.00
  -3  -5  11   35.00    2.87
   2   5 -11  334.66   18.71
   2   5 -11  326.85   18.49
   2   5 -11  370.78   18.82
  -2  -5  11  364.44   18.97
  -2  -5  11  324.57   18.04
   1   5 -11   43.12    3.84
   1   5 -11   39.12    3.54
   1   5 -11   40.52    3.92
  -1  -5  11   44.61    4.32
  -1  -5  11   36.46    3.11
   0   5 -11    0.37    1.26
   0   5 -11    4.24    1.63
   0   5 -11   -0.91    1.38
   0  -5  11    2.05    1.11
   0  -5  11    0.02    1.82
  -1   5 -11   79.80    5.54
  -1   5 -11   74.90    5.53
  -1   5 -11   70.16    5.31
   1  -5  11   70.89    4.93
  -2   5 -11   21.28    3.09
  -2   5 -11   19.56    2.63
   2  -5  11   15.19    2.16
   2  -5  11   21.16    3.05
  -3   5 -11   26.42    3.90
  -3   5 -11   35.02    3.79
   3  -5  11   26.95    3.20
   3  -5  11   33.61    4.66
  -4   5 -11   10.08    2.32
  -4   5 -11    9.52    2.79
   4  -5  11    9.36    2.66
   4  -5  11   15.29    2.86
   4  -5  11   10.65    2.07
   7   4 -11   -3.79    1.89
   6   4 -11   55.78    5.08
   6   4 -11   65.36    5.06
   5   4 -11  239.55   13.45
   5   4 -11  231.23   13.35
   5   4 -11  258.89   13.44
  -5  -4  11  231.95   12.39
  -5  -4  11  223.76   12.79
   4   4 -11  173.22   10.08
   4   4 -11  168.63    9.97
   4   4 -11  182.50   10.25
  -4  -4  11  165.36    9.26
  -4  -4  11  168.40    9.95
   3   4 -11   81.38    6.05
   3   4 -11   81.55    5.88
   3   4 -11   96.06    6.10
  -3  -4  11   98.17    6.25
  -3  -4  11   86.97    5.29
   2   4 -11  203.39   11.08
   2   4 -11  185.36   10.84
   2   4 -11  189.35   11.07
  -2  -4  11  195.57   11.27
  -2  -4  11  181.41   10.38
   1   4 -11  234.61   13.55
   1   4 -11  240.05   13.58
   1   4 -11  229.69   13.42
  -1  -4  11  264.29   14.00
  -1  -4  11  246.04   13.10
   0   4 -11    3.68    1.46
   0   4 -11    1.52    1.37
   0   4 -11    2.57    1.48
   0  -4  11    1.84    1.03
   0  -4  11    2.47    1.74
  -1   4 -11  160.38    9.41
  -1   4 -11  156.42    9.31
  -1   4 -11  159.54    9.38
   1  -4  11  144.20    8.78
  -2   4 -11   24.52    3.38
  -2   4 -11   23.96    3.48
  -2   4 -11   20.20    3.17
   2  -4  11   21.07    3.23
   2  -4  11   21.32    2.68
  -3   4 -11    3.51    1.90
  -3   4 -11    5.01    2.03
  -3   4 -11    4.70    1.84
   3  -4  11    3.20    1.51
   3  -4  11    4.39    2.30
   3  -4  11   -0.44    1.88
  -4   4 -11  172.43   10.17
  -4   4 -11  160.69   10.06
  -4   4 -11  151.46   10.50
   4  -4  11  159.72    9.66
   4  -4  11  196.35   11.25
   4  -4  11  158.91   10.39
   7   3 -11   -2.06    1.65
   7   3 -11    0.59    1.84
   6   3 -11   33.99    3.86
   6   3 -11   34.31    3.76
   6   3 -11   35.79    3.80
   5   3 -11   15.52    2.28
   5   3 -11   20.71    2.86
   5   3 -11   17.07    2.41
  -5  -3  11   13.80    1.90
  -5  -3  11   15.58    1.69
   4   3 -11  396.58   20.90
   4   3 -11  406.08   20.93
   4   3 -11  382.35   20.99
  -4  -3  11  377.31   20.84
  -4  -3  11  396.11   20.29
   3   3 -11   39.16    3.40
   3   3 -11   43.96    3.72
   3   3 -11   45.48    3.92
  -3  -3  11   30.46    3.65
  -3  -3  11   42.23    2.98
   2   3 -11   38.29    3.55
   2   3 -11   34.28    3.56
   2   3 -11   39.85    3.44
  -2  -3  11   32.81    3.69
  -2  -3  11   35.62    2.83
   1   3 -11   68.16    4.92
   1   3 -11   72.68    5.20
   1   3 -11   70.88    5.18
  -1  -3  11   72.47    4.62
  -1  -3  11   73.81    5.48
   0   3 -11  109.25    7.32
   0   3 -11  112.94    7.22
   0   3 -11  121.60    7.39
   0  -3  11  113.10    6.77
   0  -3  11  121.80    7.70
  -1   3 -11  141.19    8.35
  -1   3 -11  121.03    8.14
  -1   3 -11  134.97    8.24
   1  -3  11  130.95    7.68
  -2   3 -11   30.29    3.56
  -2   3 -11   25.34    3.43
  -2   3 -11   30.60    3.64
   2  -3  11   30.09    3.47
   2  -3  11   27.91    3.92
   2  -3  11   22.69    2.79
  -3   3 -11    0.39    1.77
  -3   3 -11    0.22    1.75
  -3   3 -11    1.53    2.08
   3  -3  11    0.34    1.91
   3  -3  11    0.74    1.29
   3  -3  11    2.23    2.22
  -4   3 -11  123.62    8.14
  -4   3 -11  115.84    8.67
  -4   3 -11  126.90    8.24
   4  -3  11  116.27    8.40
   4  -3  11  136.55    9.15
   4  -3  11  124.01    7.70
   7   2 -11   36.15    4.23
   7   2 -11   39.24    4.09
   7   2 -11   43.53    4.02
   6   2 -11  281.68   15.65
   6   2 -11  306.36   15.58
   6   2 -11  279.73   15.53
  -6  -2  11  284.17   14.64
  -6  -2  11  268.66   14.52
   5   2 -11    1.52    1.36
   5   2 -11   -1.16    1.29
   5   2 -11    3.23    1.40
  -5  -2  11   -0.38    0.80
  -5  -2  11   -1.31    1.18
   4   2 -11   41.37    3.56
   4   2 -11   41.15    3.83
  -4  -2  11   45.76    3.06
  -4  -2  11   39.63    3.81
   3   2 -11   -1.20    1.18
   3   2 -11   -2.02    1.20
  -3  -2  11    0.04    0.81
  -3  -2  11   -1.23    1.28
   2   2 -11  247.30   14.48
   2   2 -11  283.39   14.77
   2   2 -11  269.38   14.79
  -2  -2  11  260.66   14.87
  -2  -2  11  273.09   14.23
   1   2 -11    1.77    1.38
   1   2 -11    1.53    1.36
   1   2 -11    0.41    1.30
  -1  -2  11    0.14    0.92
  -1  -2  11    2.12    1.53
   0   2 -11   14.20    2.32
   0   2 -11   19.82    2.87
   0   2 -11   17.18    2.58
   0  -2  11   13.73    2.47
   0  -2  11   16.58    2.08
  -1   2 -11  100.20    6.83
  -1   2 -11  107.79    6.83
  -1   2 -11   96.75    6.74
   1  -2  11   99.80    6.17
  -2   2 -11   58.23    4.82
  -2   2 -11   55.51    4.92
  -2   2 -11   56.88    4.91
   2  -2  11   59.37    5.39
   2  -2  11   54.36    4.17
   2  -2  11   63.97    5.04
  -3   2 -11   70.85    6.46
  -3   2 -11   75.66    6.04
  -3   2 -11   85.96    5.97
   3  -2  11   78.18    6.53
   3  -2  11   81.03    6.13
   3  -2  11   76.13    5.35
   4  -2  11   22.59    3.28
   4  -2  11   15.07    4.57
   8   1 -11  108.74    6.72
   8   1 -11   96.53    6.61
   8   1 -11   87.99    6.71
   7   1 -11  198.85   11.44
   7   1 -11  196.46   11.29
   6   1 -11   37.24    3.72
   6   1 -11   37.97    3.52
   6   1 -11   31.51    3.17
  -6  -1  11   36.51    2.51
  -6  -1  11   38.89    2.79
   5   1 -11  188.78   10.73
   5   1 -11  204.07   11.17
   5   1 -11  189.95   10.80
  -5  -1  11  189.82   10.40
  -5  -1  11  193.97   10.81
   4   1 -11   79.68    5.21
   4   1 -11   80.23    5.56
   4   1 -11   77.28    5.22
  -4  -1  11   76.88    5.53
  -4  -1  11   83.65    4.90
   3   1 -11   16.94    2.40
   3   1 -11   20.55    2.40
   3   1 -11   16.78    2.37
  -3  -1  11   17.68    2.44
  -3  -1  11   18.63    2.04
   2   1 -11  352.79   19.44
   2   1 -11  364.00   19.59
   2   1 -11  350.98   19.77
  -2  -1  11  385.77   19.30
  -2  -1  11  382.56   19.96
   1   1 -11  165.42    9.76
   1   1 -11  172.84   10.01
  -1  -1  11  158.97    9.28
  -1  -1  11  171.49   10.12
   0   1 -11   21.56    2.98
   0   1 -11   21.96    3.18
   0   1 -11   28.68    3.28
   0  -1  11   24.41    3.05
   0  -1  11   20.94    2.46
   0  -1  11   24.04    3.20
  -1   1 -11   46.33    4.05
  -1   1 -11   44.42    4.24
  -1   1 -11   44.33    4.15
   1  -1  11   36.66    3.35
   1  -1  11   43.62    4.22
   1  -1  11   49.74    4.57
  -2   1 -11   -2.36    1.62
  -2   1 -11   -0.53    1.90
   2  -1  11   -0.91    1.86
   2  -1  11    1.52    1.75
   2  -1  11    0.72    1.26
  -3   1 -11   36.34    4.49
  -3   1 -11   33.53    4.44
   3  -1  11   26.36    3.71
   3  -1  11   33.03    4.35
   3  -1  11   31.89    3.42
   8   0 -11   21.89    2.89
   8   0 -11   29.24    3.49
   8   0 -11   26.24    3.09
   7   0 -11  278.68   14.79
   7   0 -11  272.73   15.17
   7   0 -11  270.68   14.89
   6   0 -11   41.11    3.48
   6   0 -11   45.52    3.47
   6   0 -11   39.78    3.80
  -6   0  11   38.82    2.82
  -6   0  11   36.75    3.03
   5   0 -11    0.34    1.15
   5   0 -11    1.41    1.45
   5   0 -11    1.33    1.18
  -5   0  11    0.69    1.25
  -5   0  11    0.98    0.94
   4   0 -11  254.94   14.57
   4   0 -11  269.11   14.26
   4   0 -11  265.09   14.27
  -4   0  11  259.22   14.04
  -4   0  11  266.13   14.53
   3   0 -11    9.83    1.76
   3   0 -11    8.07    1.86
   3   0 -11    8.62    1.68
  -3   0  11    9.47    1.95
  -3   0  11   11.34    1.84
   2   0 -11    0.01    1.21
   2   0 -11   -1.85    1.04
   2   0 -11    2.50    1.43
  -2   0  11   -2.68    1.35
  -2   0  11   -0.88    0.91
   1   0 -11  217.58   12.52
   1   0 -11  208.54   12.24
   1   0 -11  215.54   12.06
  -1   0  11  233.86   11.97
  -1   0  11  215.31   12.26
  -1   0  11  209.85   12.46
   0   0 -11   28.45    3.61
   0   0 -11   25.20    3.32
   0   0  11   29.63    2.82
   0   0  11   36.35    3.50
  -1   0 -11   65.04    5.28
  -1   0 -11   64.82    5.42
   1   0  11   60.99    4.52
   1   0  11   69.44    5.63
   1   0  11   69.83    5.35
  -2   0 -11   -2.30    2.11
  -2   0 -11   -1.23    1.94
   2   0  11    0.76    1.97
   2   0  11    0.03    1.90
   2   0  11    0.28    1.34
  -3   0 -11  105.54    7.47
   3   0  11   93.05    7.32
   3   0  11  104.24    6.72
   3   0  11   94.63    7.68
   8  -1 -11   35.58    3.95
   8  -1 -11   33.75    3.39
   8  -1 -11   36.14    3.53
   7  -1 -11    5.04    1.42
   7  -1 -11    6.38    1.77
   7  -1 -11    6.46    1.59
   6  -1 -11    2.74    1.22
   6  -1 -11   -2.47    1.31
   6  -1 -11    1.15    1.19
  -6   1  11   -0.58    1.02
   5  -1 -11  202.26   12.33
   5  -1 -11  245.03   12.50
   5  -1 -11  234.93   12.93
  -5   1  11  225.63   12.33
  -5   1  11  229.41   12.63
   4  -1 -11  185.36    9.67
   4  -1 -11  158.92    9.96
   4  -1 -11  170.81    9.59
  -4   1  11  168.44    9.90
  -4   1  11  160.12    9.45
   3  -1 -11    0.92    1.10
   3  -1 -11    1.76    1.49
   3  -1 -11    1.95    1.29
  -3   1  11    1.67    1.40
  -3   1  11    1.57    1.10
   2  -1 -11   58.94    4.88
   2  -1 -11   61.57    4.28
   2  -1 -11   58.43    4.52
  -2   1  11   62.08    4.90
  -2   1  11   55.55    4.12
   1  -1 -11   53.08    3.95
   1  -1 -11   35.20    4.07
   1  -1 -11   43.38    4.16
  -1   1  11   53.80    4.58
  -1   1  11   44.43    3.85
  -1   1  11   41.80    3.51
   0  -1 -11   -0.29    1.67
   0  -1 -11   -0.72    1.60
   0   1  11    0.97    1.69
   0   1  11   -0.44    1.18
  -1  -1 -11   10.31    2.53
  -1  -1 -11   11.39    2.46
   1   1  11    6.87    1.66
   1   1  11    5.93    2.16
   1   1  11    6.46    2.09
  -2  -1 -11    3.52    2.00
  -2  -1 -11    3.72    2.53
  -2  -1 -11    3.16    2.28
   2   1  11    3.86    2.21
   2   1  11   -0.69    2.15
   2   1  11    1.75    1.50
   8  -2 -11  103.84    7.11
   8  -2 -11  106.42    6.44
   8  -2 -11  101.16    6.37
   7  -2 -11   -0.11    1.14
   7  -2 -11   -0.95    1.54
   6  -2 -11    4.29    1.40
   6  -2 -11    7.06    1.46
   6  -2 -11    2.33    1.65
  -6   2  11    3.90    1.50
  -6   2  11    6.73    1.28
   5  -2 -11  133.22    7.58
   5  -2 -11  136.72    7.62
   5  -2 -11  116.97    8.01
  -5   2  11  124.90    7.83
  -5   2  11  128.59    7.59
   4  -2 -11  166.53   10.22
   4  -2 -11  168.60    9.66
   4  -2 -11  179.16    9.82
  -4   2  11  165.93    9.71
  -4   2  11  175.00   10.09
   3  -2 -11    7.41    1.64
   3  -2 -11    7.29    1.96
  -3   2  11    8.55    1.60
  -3   2  11    7.64    1.81
   2  -2 -11  108.75    7.08
   2  -2 -11   99.60    7.38
  -2   2  11  126.28    7.48
  -2   2  11  112.49    7.03
  -2   2  11  107.96    6.86
   1  -2 -11   25.49    3.83
   1  -2 -11   29.79    3.44
   1  -2 -11   35.45    3.35
  -1   2  11   28.23    3.74
  -1   2  11   30.53    3.41
  -1   2  11   24.08    3.10
   0  -2 -11  101.62    6.53
   0  -2 -11   98.72    7.18
   0  -2 -11   96.11    6.95
   0   2  11  103.78    7.17
   0   2  11  101.14    6.79
   0   2  11   94.58    6.42
  -1  -2 -11   29.76    4.51
  -1  -2 -11   26.78    4.22
  -1  -2 -11   28.80    3.56
   1   2  11   38.31    4.24
   1   2  11   30.40    4.49
   1   2  11   27.45    3.32
  -2  -2 -11    0.94    4.14
  -2  -2 -11    0.99    2.58
   2   2  11    7.24    2.58
   2   2  11    0.18    2.34
   8  -3 -11    8.95    2.33
   8  -3 -11   10.46    1.66
   7  -3 -11   26.05    3.69
   7  -3 -11   18.56    2.61
  -7   3  11   21.25    2.15
  -7   3  11   21.70    2.21
   6  -3 -11   97.18    6.61
   6  -3 -11   86.82    5.76
  -6   3  11   89.89    5.79
  -6   3  11   96.78    5.97
   5  -3 -11   17.30    2.59
   5  -3 -11   20.30    2.85
  -5   3  11   18.65    2.79
  -5   3  11   19.36    3.01
   4  -3 -11    6.23    1.62
   4  -3 -11    8.80    1.65
   4  -3 -11    3.16    1.78
  -4   3  11    7.15    1.71
  -4   3  11   10.58    2.08
   3  -3 -11    1.84    1.68
   3  -3 -11    2.05    1.49
   3  -3 -11    1.51    1.27
  -3   3  11    4.05    1.45
  -3   3  11    0.47    1.44
   2  -3 -11    0.66    1.53
   2  -3 -11    0.18    1.67
   2  -3 -11    1.28    1.30
  -2   3  11   -2.33    1.54
  -2   3  11   -0.68    1.51
  -2   3  11    0.00    1.40
   1  -3 -11   20.27    2.83
   1  -3 -11   16.99    2.80
   1  -3 -11   17.67    2.97
  -1   3  11   13.64    2.63
  -1   3  11   19.45    3.06
   0  -3 -11   57.47    4.52
   0  -3 -11   53.89    5.04
   0  -3 -11   50.16    5.49
   0   3  11   53.95    4.65
   0   3  11   58.06    5.39
   0   3  11   44.74    4.59
  -1  -3 -11   35.08    5.12
  -1  -3 -11   39.07    5.19
  -1  -3 -11   23.22    3.70
   1   3  11   29.39    4.01
   1   3  11   34.90    4.20
   1   3  11   26.53    3.78
   8  -4 -11  115.81    6.99
   8  -4 -11  109.39    7.85
   8  -4 -11  106.92    6.46
   7  -4 -11   29.73    3.21
   7  -4 -11   22.35    2.91
   7  -4 -11   30.90    4.18
  -7   4  11   30.05    2.87
   6  -4 -11   38.24    3.43
   6  -4 -11   38.55    3.55
   6  -4 -11   42.45    4.50
  -6   4  11   38.90    3.60
  -6   4  11   37.55    3.79
   5  -4 -11  295.34   15.91
   5  -4 -11  318.95   16.02
   5  -4 -11  278.90   16.61
  -5   4  11  300.46   16.28
  -5   4  11  281.74   16.12
   4  -4 -11   81.92    5.45
   4  -4 -11   83.46    5.58
   4  -4 -11   71.52    6.17
  -4   4  11   81.27    5.95
  -4   4  11   80.63    5.72
   3  -4 -11   87.69    5.98
   3  -4 -11   83.57    5.65
   3  -4 -11   85.42    6.60
  -3   4  11   71.78    5.92
  -3   4  11   88.15    5.76
  -3   4  11   86.84    6.26
   2  -4 -11   -1.15    1.29
   2  -4 -11   -3.61    1.91
   2  -4 -11    0.53    1.80
  -2   4  11    1.48    1.90
  -2   4  11    2.74    1.79
  -2   4  11    0.27    1.57
   1  -4 -11    5.25    2.54
   1  -4 -11   10.12    1.93
   1  -4 -11    5.52    2.22
  -1   4  11    9.28    2.27
  -1   4  11    5.05    2.05
  -1   4  11    7.10    2.32
   0  -4 -11   18.16    3.40
   0  -4 -11   14.51    2.30
   0  -4 -11   19.82    3.12
   0   4  11   16.91    2.86
   0   4  11   29.00    4.59
   0   4  11   13.28    2.74
   7  -5 -11  322.92   18.62
   7  -5 -11  321.16   17.71
   7  -5 -11  332.70   17.35
  -7   5  11  325.04   17.58
  -7   5  11  348.20   17.61
   6  -5 -11   32.34    3.33
   6  -5 -11   29.43    3.44
   6  -5 -11   36.57    4.74
  -6   5  11   37.48    3.86
  -6   5  11   33.45    3.81
   5  -5 -11   15.19    2.15
   5  -5 -11   16.06    3.04
   5  -5 -11   16.42    2.26
  -5   5  11   11.50    2.25
  -5   5  11   14.66    2.34
   4  -5 -11   28.82    4.38
   4  -5 -11   25.08    3.49
   4  -5 -11   28.06    3.20
  -4   5  11   26.96    3.78
  -4   5  11   23.12    3.80
   3  -5 -11    8.19    2.56
   3  -5 -11    9.64    2.12
   3  -5 -11    8.01    1.81
  -3   5  11    5.42    2.12
  -3   5  11   10.17    2.02
   2  -5 -11   10.57    2.02
   2  -5 -11   13.58    2.70
   2  -5 -11    8.46    2.72
  -2   5  11    9.59    2.46
  -2   5  11   11.12    2.57
   1  -5 -11    3.48    2.78
   1  -5 -11    4.31    1.67
   1  -5 -11    3.81    2.61
  -1   5  11    1.67    2.04
  -1   5  11    3.25    2.67
  -1   5  11    0.52    2.34
   7  -6 -11   39.19    3.93
   6  -6 -11   97.81    7.86
   6  -6 -11  116.68    6.82
   6  -6 -11   96.40    6.45
  -6   6  11  105.73    7.16
  -6   6  11  100.29    7.16
   5  -6 -11    2.11    1.71
   5  -6 -11    1.43    1.65
   5  -6 -11    3.26    2.64
  -5   6  11    6.07    2.19
  -5   6  11    0.35    1.91
   4  -6 -11    8.35    2.80
   4  -6 -11   12.31    2.32
   4  -6 -11   12.41    2.18
  -4   6  11    8.86    2.36
  -4   6  11    9.35    2.00
  -4   6  11    7.46    2.40
   3  -6 -11   16.44    2.46
   3  -6 -11   20.77    3.59
   3  -6 -11   21.90    2.97
  -3   6  11   18.68    3.05
  -3   6  11   17.07    2.98
   1   9 -12   40.26    5.78
   1   9 -12   34.56    5.08
  -1  -9  12   43.12    5.89
  -1  -9  12   40.96    3.89
   0   9 -12    5.29    2.50
   0   9 -12    4.54    2.37
   0   9 -12    3.19    2.69
   0  -9  12    1.03    2.75
   0  -9  12    2.98    1.76
  -1   9 -12    2.35    2.54
  -1   9 -12    5.57    2.56
  -1   9 -12   10.11    2.93
   1  -9  12    5.47    1.97
   1  -9  12    6.31    2.86
   3   8 -12  213.78   12.93
   3   8 -12  198.65   12.70
  -3  -8  12  210.83   11.50
   2   8 -12    4.92    2.31
   2   8 -12    2.48    2.47
   2   8 -12    3.20    2.28
  -2  -8  12    2.10    2.39
  -2  -8  12    4.12    1.43
   1   8 -12   -1.07    2.01
   1   8 -12   -1.58    2.20
   1   8 -12    3.44    2.10
  -1  -8  12   -1.68    1.34
  -1  -8  12   -1.74    2.30
   0   8 -12    6.09    2.72
   0   8 -12    7.91    2.53
   0   8 -12    7.91    2.16
   0  -8  12    6.96    1.73
   0  -8  12    9.20    3.04
  -1   8 -12   -2.73    2.14
  -1   8 -12    3.01    2.38
  -1   8 -12   -0.65    1.88
   1  -8  12    1.51    1.53
   1  -8  12    1.33    2.63
  -2   8 -12   23.20    3.23
  -2   8 -12   29.05    3.92
  -2   8 -12   23.58    3.33
   2  -8  12   39.46    5.80
   2  -8  12   25.01    3.60
   4   7 -12    0.46    2.35
   4   7 -12   -0.30    2.29
   4   7 -12   -0.94    2.36
  -4  -7  12   -0.29    1.11
  -4  -7  12    3.71    2.11
   3   7 -12    5.74    2.35
   3   7 -12    2.06    2.08
   3   7 -12   -1.05    2.04
  -3  -7  12   -0.24    1.17
  -3  -7  12    4.01    2.16
   2   7 -12   11.87    2.50
   2   7 -12   11.95    2.73
   2   7 -12   12.36    2.35
  -2  -7  12   11.21    1.74
   1   7 -12   66.92    5.21
   1   7 -12   60.15    5.32
   1   7 -12   64.84    5.67
  -1  -7  12   58.67    5.88
  -1  -7  12   60.98    4.46
   0   7 -12   79.13    6.42
   0   7 -12   73.74    6.03
   0   7 -12   77.51    5.80
   0  -7  12   67.77    5.03
   0  -7  12   74.80    6.72
  -1   7 -12   -0.23    1.86
  -1   7 -12    1.75    2.29
  -1   7 -12    5.76    2.19
   1  -7  12    2.14    1.51
   1  -7  12    7.05    2.69
  -2   7 -12   14.56    2.73
  -2   7 -12    7.54    2.51
  -2   7 -12   13.11    2.49
   2  -7  12    9.04    3.06
   2  -7  12    8.28    1.81
  -3   7 -12   18.86    3.44
  -3   7 -12   14.30    3.08
  -3   7 -12   24.17    3.21
   3  -7  12   13.71    3.47
   5   6 -12  179.75   11.16
   5   6 -12  180.91   11.17
   5   6 -12  166.54   10.78
  -5  -6  12  177.28    9.50
  -5  -6  12  180.62   10.10
   4   6 -12   14.86    2.58
   4   6 -12   11.62    2.72
   4   6 -12   10.51    2.58
  -4  -6  12    9.76    2.19
  -4  -6  12   12.01    1.59
   3   6 -12   19.08    2.88
   3   6 -12   21.72    3.37
   3   6 -12   24.63    4.03
  -3  -6  12   23.52    2.49
  -3  -6  12   22.73    3.05
   2   6 -12   -0.95    1.83
   2   6 -12    2.34    1.94
   2   6 -12    5.94    1.83
  -2  -6  12    4.21    1.27
   1   6 -12   32.81    4.36
   1   6 -12   41.04    3.93
   1   6 -12   30.31    4.12
  -1  -6  12   41.27    4.76
  -1  -6  12   35.46    3.24
   0   6 -12  369.64   20.66
   0   6 -12  401.83   21.09
   0   6 -12  369.69   20.79
   0  -6  12  387.14   21.28
   0  -6  12  382.71   20.27
  -1   6 -12   27.50    3.56
  -1   6 -12   35.85    4.06
  -1   6 -12   22.19    3.33
   1  -6  12   32.64    4.73
   1  -6  12   24.00    3.09
  -2   6 -12   98.12    6.91
  -2   6 -12   97.99    7.32
  -2   6 -12   91.50    6.87
   2  -6  12   97.81    7.65
   2  -6  12   91.73    6.24
  -3   6 -12   16.74    3.25
  -3   6 -12   16.65    3.38
  -3   6 -12   21.64    3.12
   3  -6  12   17.00    3.54
   3  -6  12   20.72    3.35
   6   5 -12   43.33    5.16
   5   5 -12   -1.04    1.90
   5   5 -12    4.93    2.20
   5   5 -12    1.48    2.10
  -5  -5  12    0.88    0.88
  -5  -5  12    0.89    1.56
   4   5 -12  182.47   10.59
   4   5 -12  175.35   10.71
   4   5 -12  170.87   10.72
  -4  -5  12  175.39    9.65
  -4  -5  12  178.12   10.48
   3   5 -12   -1.61    1.76
   3   5 -12    4.01    1.79
   3   5 -12    1.09    1.69
  -3  -5  12   -2.12    1.75
  -3  -5  12   -0.42    0.95
   2   5 -12   42.40    4.29
   2   5 -12   38.21    3.88
   2   5 -12   40.59    4.18
  -2  -5  12   45.71    4.71
  -2  -5  12   40.70    3.29
   1   5 -12   63.12    5.11
   1   5 -12   68.35    5.31
   1   5 -12   66.23    5.26
  -1  -5  12   64.99    4.50
   0   5 -12    4.25    1.81
   0   5 -12    6.29    2.18
   0   5 -12    4.02    1.68
   0  -5  12    2.28    2.12
   0  -5  12    1.29    1.27
  -1   5 -12  223.93   13.05
  -1   5 -12  218.17   12.90
  -1   5 -12  219.75   12.86
   1  -5  12  212.80   12.32
   1  -5  12  240.70   13.48
  -2   5 -12    0.45    2.00
  -2   5 -12   -2.18    1.69
  -2   5 -12    1.95    2.11
   2  -5  12    1.01    2.32
   2  -5  12    2.15    1.40
  -3   5 -12   32.65    4.58
  -3   5 -12   31.38    4.28
  -3   5 -12   18.69    3.30
   3  -5  12   21.06    3.48
   3  -5  12   26.25    3.35
   6   4 -12   44.72    5.04
   6   4 -12   59.17    5.15
   6   4 -12   52.53    4.97
  -6  -4  12   45.29    2.85
   5   4 -12  155.77    9.88
   5   4 -12  164.86   10.23
   5   4 -12  180.76   10.23
  -5  -4  12  166.65    9.64
  -5  -4  12  165.86    9.04
   4   4 -12  205.55   11.88
   4   4 -12  197.68   11.95
   4   4 -12  199.23   11.76
  -4  -4  12  213.15   11.04
  -4  -4  12  201.60   11.76
   3   4 -12   22.14    3.10
   3   4 -12   22.08    3.40
   3   4 -12   24.01    3.52
  -3  -4  12   18.41    2.77
  -3  -4  12   20.22    2.30
   2   4 -12   18.53    2.87
   2   4 -12   20.90    3.37
   2   4 -12   23.55    3.34
  -2  -4  12   23.93    3.73
  -2  -4  12   21.47    2.40
   0   4 -12   76.18    5.76
   0   4 -12   85.11    6.13
   0   4 -12   84.46    6.01
   0  -4  12   84.02    6.52
   0  -4  12   71.99    5.17
  -1   4 -12    5.00    2.08
  -1   4 -12    7.68    2.12
  -1   4 -12    5.17    1.88
   1  -4  12    8.88    2.51
   1  -4  12    9.04    1.72
  -2   4 -12    3.74    2.01
  -2   4 -12    6.47    2.18
  -2   4 -12    1.74    1.81
   2  -4  12    5.91    2.40
   2  -4  12    1.22    1.43
  -3   4 -12    3.40    2.54
  -3   4 -12    1.19    2.16
  -3   4 -12   -0.19    2.27
   3  -4  12   -0.68    2.37
   3  -4  12   -0.79    1.61
   7   3 -12  157.08    9.85
   6   3 -12   -0.81    1.73
   6   3 -12    0.80    1.83
   6   3 -12   -0.80    1.72
  -6  -3  12    1.30    1.04
  -6  -3  12    0.81    0.77
   5   3 -12    3.19    1.67
   5   3 -12   -0.61    1.67
  -5  -3  12    1.20    1.44
  -5  -3  12    1.08    0.91
   4   3 -12   92.23    6.51
   4   3 -12   91.46    6.24
  -4  -3  12   98.43    5.66
  -4  -3  12   94.23    6.51
   3   3 -12  330.46   19.30
   3   3 -12  318.91   19.00
   3   3 -12  403.58   19.50
  -3  -3  12  370.03   19.53
  -3  -3  12  356.55   18.67
   2   3 -12   26.88    3.26
   2   3 -12   23.16    3.07
   2   3 -12   32.86    3.65
  -2  -3  12   22.73    3.73
  -2  -3  12   26.19    2.53
   1   3 -12  221.94   13.48
   1   3 -12  262.36   13.88
   1   3 -12  227.97   13.74
  -1  -3  12  260.38   14.17
  -1  -3  12  240.47   13.15
   0   3 -12   87.64    6.04
   0   3 -12   78.88    6.24
   0   3 -12   95.62    6.34
   0  -3  12   81.75    5.54
   0  -3  12   89.94    6.71
  -1   3 -12  126.72    8.61
  -1   3 -12  126.71    8.67
  -1   3 -12  160.02    8.86
   1  -3  12  133.69    9.12
   1  -3  12  130.29    7.97
  -2   3 -12   27.07    4.23
  -2   3 -12   30.09    4.15
  -2   3 -12   21.17    3.00
   2  -3  12   28.10    3.73
   2  -3  12   23.77    3.07
   2  -3  12   32.48    4.22
  -3   3 -12    4.72    2.39
  -3   3 -12   -0.47    2.22
  -3   3 -12   -0.99    4.06
   3  -3  12   -2.47    2.53
   3  -3  12    3.29    2.38
   3  -3  12   -0.58    1.73
   7   2 -12   59.67    5.07
   7   2 -12   55.13    5.03
   7   2 -12   52.59    5.16
   6   2 -12  182.33   10.70
   6   2 -12  189.41   10.96
  -6  -2  12  181.13    9.94
  -6  -2  12  178.39    9.71
   4   2 -12   80.30    5.37
   4   2 -12   74.75    5.67
  -4  -2  12   77.72    4.86
  -4  -2  12   76.25    5.75
   3   2 -12   43.06    4.20
   3   2 -12   50.94    4.06
  -3  -2  12   49.44    3.50
  -3  -2  12   39.42    4.45
   2   2 -12    4.67    1.66
   2   2 -12    4.98    1.69
  -2  -2  12    3.56    1.73
  -2  -2  12    4.81    1.19
   1   2 -12   29.28    3.67
   1   2 -12   25.05    3.21
   1   2 -12   30.62    3.70
  -1  -2  12   32.32    2.92
   0   2 -12    9.40    2.09
   0   2 -12    7.16    2.08
   0   2 -12    6.97    2.13
   0  -2  12    8.46    1.53
   0  -2  12    4.71    2.08
  -1   2 -12   -0.71    1.73
  -1   2 -12   -3.44    1.82
  -1   2 -12    0.37    1.94
   1  -2  12   -0.71    1.23
   1  -2  12    0.02    2.18
   1  -2  12    0.12    1.89
  -2   2 -12    4.91    2.13
  -2   2 -12    7.71    2.49
  -2   2 -12    1.03    2.04
   2  -2  12    6.54    2.75
   2  -2  12    6.28    1.71
   2  -2  12    7.00    2.39
   7   1 -12    2.05    1.80
   7   1 -12    2.85    1.97
   6   1 -12  121.82    7.48
   6   1 -12  117.45    7.11
  -6  -1  12   94.51    6.24
  -6  -1  12  114.37    6.59
   5   1 -12   28.88    3.13
   5   1 -12   25.80    3.49
  -5  -1  12   21.20    2.43
  -5  -1  12   21.88    3.24
   4   1 -12   17.46    2.57
   4   1 -12   25.50    2.95
  -4  -1  12   20.67    2.32
  -4  -1  12   19.36    2.68
   3   1 -12    1.66    1.60
   3   1 -12    1.87    1.38
  -3  -1  12    3.82    1.17
  -3  -1  12    2.13    1.71
   2   1 -12   -0.54    1.38
   2   1 -12   -1.24    1.48
  -2  -1  12    0.33    1.75
  -2  -1  12   -0.09    0.99
   1   1 -12  183.40   10.93
   1   1 -12  187.42   11.12
  -1  -1  12  181.39   10.41
  -1  -1  12  192.35   11.30
   0   1 -12  153.00    9.47
   0   1 -12  150.93    9.39
   0  -1  12  163.91    9.81
   0  -1  12  143.95    9.27
   0  -1  12  140.51    8.68
  -1   1 -12   66.86    5.52
  -1   1 -12   64.60    5.83
  -1   1 -12   69.71    5.70
   1  -1  12   68.82    5.75
   1  -1  12   60.54    4.67
   1  -1  12   65.95    5.93
  -2   1 -12   21.39    3.34
  -2   1 -12   19.93    2.83
   2  -1  12   14.18    2.97
   2  -1  12   18.53    3.06
   2  -1  12   19.58    3.17
   7   0 -12   89.22    6.15
   7   0 -12   90.71    6.68
   7   0 -12   96.11    6.10
   6   0 -12  243.10   12.22
   6   0 -12  204.18   12.09
   6   0 -12  219.17   12.55
  -6   0  12  213.72   11.90
  -6   0  12  203.68   11.62
   5   0 -12  161.82    8.58
   5   0 -12  143.05    8.83
   5   0 -12  141.47    8.44
  -5   0  12  128.81    8.04
  -5   0  12  133.55    8.55
   4   0 -12    1.72    1.19
   4   0 -12    1.25    1.33
   4   0 -12   -0.27    1.60
  -4   0  12   -0.17    1.07
  -4   0  12    1.80    1.63
   3   0 -12   97.49    6.33
   3   0 -12   98.83    6.20
   3   0 -12   94.05    6.60
  -3   0  12   89.83    5.89
  -3   0  12   97.55    6.77
   2   0 -12   29.38    3.95
   2   0 -12   34.60    3.71
   2   0 -12   38.82    3.47
  -2   0  12   38.22    3.24
   1   0 -12    2.13    1.74
   1   0 -12    2.67    1.73
   1   0 -12    3.58    1.59
  -1   0  12    4.64    1.93
  -1   0  12    1.06    1.29
  -1   0  12    2.05    1.67
   0   0 -12   59.67    5.47
   0   0 -12   54.64    5.34
   0   0  12   66.27    5.13
   0   0  12   62.66    5.54
   0   0  12   63.45    4.60
  -1   0 -12   63.59    5.76
  -1   0 -12   64.96    5.98
  -1   0 -12   75.73    5.68
   1   0  12   60.94    5.80
   1   0  12   62.74    5.53
   1   0  12   58.53    4.74
  -2   0 -12    2.96    2.70
  -2   0 -12    4.79    2.29
   2   0  12    2.05    2.55
   2   0  12    2.40    2.70
   7  -1 -12   -2.17    1.43
   7  -1 -12    0.22    1.78
   7  -1 -12    2.14    1.57
   6  -1 -12   61.17    4.66
   6  -1 -12   68.76    4.78
   6  -1 -12   60.26    5.23
  -6   1  12   58.84    4.26
  -6   1  12   65.86    4.67
   5  -1 -12   32.29    3.95
   5  -1 -12   34.35    3.40
   5  -1 -12   35.48    3.49
  -5   1  12   34.22    3.87
  -5   1  12   34.41    3.27
   4  -1 -12    2.26    1.46
   4  -1 -12    0.07    1.64
   4  -1 -12    0.53    1.36
  -4   1  12   -1.61    1.58
  -4   1  12   -1.11    1.20
   3  -1 -12   11.76    2.17
   3  -1 -12    7.95    2.14
   3  -1 -12   11.62    1.88
  -3   1  12   11.34    2.39
  -3   1  12   11.07    1.82
   2  -1 -12    4.04    1.75
   2  -1 -12    2.77    1.35
   2  -1 -12    2.09    1.80
  -2   1  12    0.52    1.85
  -2   1  12    0.64    1.25
   1  -1 -12   12.15    2.11
   1  -1 -12   13.68    2.76
   1  -1 -12   13.36    2.56
  -1   1  12   11.88    2.36
  -1   1  12   15.13    2.64
  -1   1  12   13.00    2.08
   0  -1 -12    0.05    1.55
   0  -1 -12    2.36    2.31
   0  -1 -12   -0.16    2.15
   0   1  12    0.87    2.08
   0   1  12    2.72    1.54
   0   1  12   -3.35    1.79
  -1  -1 -12   -2.83    2.40
  -1  -1 -12    0.46    2.42
   1   1  12   -0.27    1.73
   1   1  12   -0.03    2.04
   1   1  12    0.66    2.29
   7  -2 -12   72.33    5.96
   7  -2 -12   79.99    5.20
   7  -2 -12   73.10    5.15
  -7   2  12   64.24    4.31
   6  -2 -12   56.74    4.23
   6  -2 -12   53.37    4.98
   6  -2 -12   49.20    4.14
  -6   2  12   52.71    4.37
  -6   2  12   43.75    3.88
   5  -2 -12    2.25    1.53
   5  -2 -12    5.24    1.92
   5  -2 -12    2.41    1.47
  -5   2  12   -0.25    1.38
  -5   2  12    2.49    1.75
   4  -2 -12   77.42    5.15
   4  -2 -12   59.63    5.69
   4  -2 -12   69.52    5.18
  -4   2  12   78.96    5.64
  -4   2  12   63.18    4.99
   3  -2 -12   92.58    7.13
   3  -2 -12  102.29    6.72
   3  -2 -12  101.49    6.51
  -3   2  12  105.08    7.12
  -3   2  12   94.24    6.45
   2  -2 -12   22.12    3.07
   2  -2 -12   16.21    2.62
   2  -2 -12   17.53    2.97
  -2   2  12   17.46    2.75
  -2   2  12   21.18    3.08
   1  -2 -12   -0.04    2.12
   1  -2 -12   -0.51    1.45
   1  -2 -12    1.75    2.04
  -1   2  12   -1.74    1.98
  -1   2  12   -0.24    1.83
  -1   2  12    0.61    1.59
   0  -2 -12   -1.96    2.50
   0  -2 -12    0.70    1.62
   0  -2 -12    1.75    2.49
   0   2  12   -2.31    2.18
   0   2  12   -2.00    1.65
   7  -3 -12   55.41    4.75
   7  -3 -12   60.77    5.82
   7  -3 -12   58.12    4.71
  -7   3  12   64.91    4.45
  -7   3  12   73.02    4.40
   6  -3 -12   -0.43    2.06
   6  -3 -12    0.87    1.48
   6  -3 -12    2.71    1.68
  -6   3  12   -0.07    1.40
  -6   3  12   -0.19    1.59
   5  -3 -12    2.23    1.68
   5  -3 -12    2.23    1.49
   5  -3 -12    3.33    2.30
  -5   3  12    0.20    1.85
  -5   3  12    1.56    1.63
   4  -3 -12   44.25    4.84
   4  -3 -12   46.31    4.01
   4  -3 -12   47.74    4.24
  -4   3  12   40.02    4.24
   3  -3 -12   54.26    5.33
   3  -3 -12   55.82    4.85
   3  -3 -12   59.62    4.55
  -3   3  12   43.11    4.42
  -3   3  12   55.91    5.19
   2  -3 -12  118.90    7.13
   2  -3 -12  102.20    7.38
   2  -3 -12  102.70    7.89
  -2   3  12  111.97    7.72
  -2   3  12   99.24    7.18
  -2   3  12  111.33    7.29
   1  -3 -12   -2.78    2.38
   1  -3 -12    1.46    2.31
   1  -3 -12    3.73    1.79
  -1   3  12    1.28    1.94
  -1   3  12   -0.75    2.26
  -1   3  12    4.03    1.91
   7  -4 -12    3.78    1.71
   7  -4 -12    6.86    2.45
   7  -4 -12    1.90    1.64
  -7   4  12    2.27    1.53
  -7   4  12    3.32    1.69
   6  -4 -12   23.26    3.39
   6  -4 -12   29.69    3.46
   6  -4 -12   22.73    3.47
  -6   4  12   34.95    3.68
  -6   4  12   24.80    3.14
   5  -4 -12   38.85    4.87
   5  -4 -12   27.66    3.72
   5  -4 -12   37.24    3.59
  -5   4  12   27.79    3.84
   4  -4 -12   13.66    2.34
   4  -4 -12    8.41    2.58
   4  -4 -12   14.74    2.43
  -4   4  12   13.89    2.53
  -4   4  12   14.81    2.49
   2  -4 -12   60.69    4.82
   2  -4 -12   45.05    5.56
   2  -4 -12   63.73    6.25
  -2   4  12   63.22    5.24
  -2   4  12   55.73    5.22
  -2   4  12   48.56    5.65
   5  -5 -12   46.04    6.24
   5  -5 -12   52.09    4.54
   5  -5 -12   52.15    4.80
  -5   5  12   51.04    5.27
  -5   5  12   53.53    5.10
   4  -5 -12   96.37    6.64
   4  -5 -12   93.26    6.93
  -4   5  12   99.56    7.21
  -4   5  12   95.70    7.34
   3   7 -13   -2.68    2.57
  -3  -7  13    3.42    2.60
   2   7 -13    9.42    2.77
   2   7 -13    7.30    2.51
   2   7 -13    4.72    2.60
  -2  -7  13   11.81    3.11
  -2  -7  13   12.98    2.00
   1   7 -13   41.47    5.26
   1   7 -13   40.35    5.06
   1   7 -13   33.77    4.43
  -1  -7  13   39.71    3.78
  -1  -7  13   43.60    5.82
   0   7 -13   -1.13    2.47
   0   7 -13   -4.68    2.26
   0   7 -13   -2.00    2.30
   0  -7  13    4.06    1.66
   0  -7  13    1.34    2.82
  -1   7 -13   40.36    5.10
  -1   7 -13   41.11    5.54
   1  -7  13   47.01    6.37
   1  -7  13   33.95    4.19
   4   6 -13   69.13    6.41
   4   6 -13   58.89    5.90
   4   6 -13   71.08    6.30
  -4  -6  13   69.61    4.56
  -4  -6  13   65.82    5.96
   3   6 -13    2.72    2.09
   3   6 -13    1.18    2.31
   3   6 -13    4.12    2.39
  -3  -6  13    2.96    1.31
  -3  -6  13    5.90    2.52
   2   6 -13    3.70    2.10
   2   6 -13    1.87    2.29
   2   6 -13    4.27    2.45
  -2  -6  13    0.97    1.32
  -2  -6  13    2.64    2.58
   1   6 -13    5.69    2.45
   1   6 -13    7.46    2.21
   1   6 -13    4.40    2.19
  -1  -6  13    8.36    1.79
  -1  -6  13    6.42    2.82
   0   6 -13   29.61    3.81
   0   6 -13   18.93    2.96
   0   6 -13   23.01    3.27
   0  -6  13   20.32    3.15
  -1   6 -13  329.46   18.49
  -1   6 -13  317.30   18.18
  -1   6 -13  321.13   18.20
   1  -6  13  302.28   17.52
   1  -6  13  356.75   19.00
   5   5 -13    4.14    2.43
   4   5 -13  123.86    8.41
   4   5 -13  125.32    8.40
   4   5 -13  111.90    8.05
  -4  -5  13  124.81    8.28
  -4  -5  13  122.59    7.12
   3   5 -13   46.15    4.78
   3   5 -13   33.15    4.21
   3   5 -13   35.91    4.65
  -3  -5  13   35.15    3.21
   2   5 -13   41.40    4.52
   2   5 -13   46.28    4.66
   2   5 -13   48.60    4.94
  -2  -5  13   45.12    3.64
  -2  -5  13   37.39    5.22
   1   5 -13   31.64    4.29
   1   5 -13   36.80    4.63
   1   5 -13   39.53    4.18
  -1  -5  13   31.17    5.03
  -1  -5  13   36.55    3.34
   0   5 -13    9.66    2.42
   0   5 -13   11.76    2.74
   0   5 -13   10.16    2.66
   0  -5  13   13.08    2.10
   0  -5  13    9.06    2.88
  -1   5 -13    0.47    2.15
  -1   5 -13   -4.79    2.36
  -1   5 -13   -2.26    2.07
   1  -5  13    0.74    1.51
   1  -5  13    2.86    2.68
   5   4 -13   30.21    4.56
   5   4 -13   21.38    3.15
  -5  -4  13   25.17    2.52
  -5  -4  13   22.11    2.75
   4   4 -13    1.90    2.14
   4   4 -13    2.65    2.03
   4   4 -13    1.75    1.97
  -4  -4  13    2.31    1.99
  -4  -4  13    0.19    1.13
   3   4 -13    1.75    1.79
   3   4 -13    4.03    2.19
   3   4 -13    4.35    1.97
  -3  -4  13    2.07    1.27
   2   4 -13    6.78    2.23
   2   4 -13    8.27    2.29
   2   4 -13   10.81    2.26
  -2  -4  13    9.79    2.66
  -2  -4  13   10.57    1.63
   1   4 -13   -3.53    1.74
   1   4 -13    1.93    2.04
   1   4 -13   -0.01    1.68
  -1  -4  13   -1.86    2.29
  -1  -4  13   -1.22    1.22
   0   4 -13   18.44    2.98
   0   4 -13   23.34    3.21
   0   4 -13   20.64    2.94
   0  -4  13   20.98    3.26
   0  -4  13   22.32    3.00
  -1   4 -13   13.17    2.69
  -1   4 -13   17.24    2.85
  -1   4 -13   12.16    2.73
   1  -4  13   17.08    2.78
   1  -4  13   10.62    2.96
   6   3 -13   17.02    2.99
   6   3 -13   23.84    3.18
   6   3 -13   18.51    3.01
  -6  -3  13   15.88    2.61
   5   3 -13   50.44    4.95
   5   3 -13   38.75    4.39
   5   3 -13   53.13    4.81
  -5  -3  13   34.61    3.25
  -5  -3  13   48.25    4.45
   4   3 -13   88.00    7.00
   4   3 -13   96.16    6.63
   4   3 -13   93.99    6.90
  -4  -3  13  109.02    7.19
  -4  -3  13   97.99    5.95
   3   3 -13    7.79    1.97
   3   3 -13    5.19    2.01
   3   3 -13    3.43    2.03
  -3  -3  13    5.85    1.40
   2   3 -13  147.31    9.50
   2   3 -13  169.24    9.99
   2   3 -13  170.48    9.97
  -2  -3  13  164.26   10.26
  -2  -3  13  146.56    9.03
   1   3 -13   47.33    4.79
   1   3 -13   40.27    4.75
   1   3 -13   48.71    4.63
  -1  -3  13   47.46    3.84
  -1  -3  13   58.14    5.51
   0   3 -13   13.48    2.82
   0   3 -13   15.30    2.63
   0   3 -13   11.51    2.65
   0  -3  13   18.12    3.11
   0  -3  13   13.70    2.04
  -1   3 -13   -0.01    2.22
  -1   3 -13   -0.62    2.10
  -1   3 -13   -0.53    2.17
   1  -3  13    2.96    2.58
   1  -3  13   -0.17    1.58
   6   2 -13    2.60    1.90
   6   2 -13   -0.73    1.89
   6   2 -13   -1.32    2.07
  -6  -2  13    2.64    1.56
  -6  -2  13    1.58    1.14
   5   2 -13    0.77    1.81
   5   2 -13    3.50    1.81
   5   2 -13    4.57    2.09
  -5  -2  13    1.33    1.79
  -5  -2  13    2.30    1.24
   4   2 -13  360.45   18.77
   4   2 -13  323.28   18.76
   4   2 -13  316.53   18.43
  -4  -2  13  347.82   18.03
  -4  -2  13  352.19   18.83
   2   2 -13   -0.16    1.66
   2   2 -13    1.16    1.87
   2   2 -13    0.94    1.85
  -2  -2  13    6.07    2.32
  -2  -2  13    2.69    1.39
   1   2 -13  110.55    7.58
   1   2 -13   95.44    7.50
   1   2 -13  121.10    7.84
  -1  -2  13  114.96    6.97
  -1  -2  13  115.72    8.11
   0   2 -13   10.58    2.50
   0   2 -13   12.48    2.59
   0   2 -13   11.84    2.64
   0  -2  13   12.56    3.31
   0  -2  13   15.00    2.16
  -1   2 -13   -1.06    2.36
  -1   2 -13   -3.21    2.39
   1  -2  13   -3.33    2.48
   1  -2  13    0.38    1.59
   6   1 -13    4.71    2.39
   6   1 -13    5.32    2.06
  -6  -1  13    8.15    1.78
  -6  -1  13    8.11    1.51
   5   1 -13   72.13    5.52
   5   1 -13   72.73    6.06
  -5  -1  13   66.91    4.88
  -5  -1  13   79.66    5.78
   4   1 -13   48.79    4.36
   4   1 -13   44.07    4.75
  -4  -1  13   48.80    3.88
  -4  -1  13   57.28    5.07
   3   1 -13    4.50    1.85
   3   1 -13    2.50    1.91
  -3  -1  13    1.28    1.28
   2   1 -13   -1.62    1.79
   2   1 -13    2.45    2.04
  -2  -1  13    0.12    1.16
  -2  -1  13    0.00    2.06
   1   1 -13    1.04    2.10
   1   1 -13   -1.71    1.94
   1   1 -13    0.57    2.02
  -1  -1  13   -3.09    2.09
  -1  -1  13    0.27    1.36
   0   1 -13   -1.94    2.22
   0   1 -13   -0.07    2.15
   0   1 -13    1.18    2.30
   0  -1  13    1.67    2.53
   0  -1  13    1.86    1.46
  -1   1 -13  136.27    8.71
  -1   1 -13  126.61    8.84
   1  -1  13  106.52   11.43
   1  -1  13  118.77    8.50
   6   0 -13   -0.45    1.77
   6   0 -13   -0.67    1.59
   6   0 -13   -2.65    2.05
  -6   0  13   -0.16    1.30
  -6   0  13   -0.37    1.70
   5   0 -13   20.34    3.13
   5   0 -13   12.40    2.31
   5   0 -13   12.38    2.65
  -5   0  13   12.88    1.96
  -5   0  13    9.61    2.44
   4   0 -13  250.75   13.00
   4   0 -13  230.56   12.94
   4   0 -13  217.72   13.30
  -4   0  13  216.62   13.19
  -4   0  13  221.65   12.59
   3   0 -13   73.17    5.51
   3   0 -13   76.66    5.32
   3   0 -13   61.64    5.71
  -3   0  13   66.52    4.90
  -3   0  13   64.56    5.94
   2   0 -13   29.34    4.47
   2   0 -13   28.09    3.66
   2   0 -13   26.39    3.40
  -2   0  13   33.00    3.30
  -2   0  13   22.20    3.52
   1   0 -13    6.12    2.32
   1   0 -13    0.50    2.20
  -1   0  13    3.93    1.60
  -1   0  13   -4.07    2.16
   0   0 -13   14.09    2.77
   0   0 -13   15.41    2.89
   0   0 -13   18.17    3.24
   0   0  13   12.74    2.66
   0   0  13   15.17    3.04
   6  -1 -13   -1.65    1.52
   6  -1 -13   -2.21    1.72
   6  -1 -13   -0.78    2.24
  -6   1  13    1.30    1.75
  -6   1  13   -1.43    1.41
   5  -1 -13   43.28    4.08
   5  -1 -13   42.04    4.22
   5  -1 -13   33.21    4.79
  -5   1  13   38.23    4.62
  -5   1  13   41.11    3.89
   4  -1 -13    5.45    2.04
   4  -1 -13    5.58    2.53
   4  -1 -13    9.32    2.08
  -4   1  13    7.99    1.73
   3  -1 -13   17.50    2.82
   3  -1 -13   15.90    2.99
   3  -1 -13   15.72    2.32
  -3   1  13   14.65    2.79
  -3   1  13   14.26    2.17
   2  -1 -13   -1.02    2.27
   2  -1 -13   -1.42    1.58
   2  -1 -13   -0.44    2.14
  -2   1  13    1.85    2.22
  -2   1  13   -0.78    1.60
   1  -1 -13   -1.32    2.28
   1  -1 -13    0.31    2.35
   1  -1 -13    1.29    1.74
  -1   1  13   -0.05    2.26
  -1   1  13    2.07    2.41
  -1   1  13    1.78    1.66
   6  -2 -13    3.96    2.51
   6  -2 -13    3.64    1.79
   6  -2 -13    6.64    2.13
  -6   2  13    3.59    1.73
  -6   2  13    8.71    2.15
   5  -2 -13    1.59    2.31
   5  -2 -13    2.95    2.02
   5  -2 -13   -0.52    1.55
  -5   2  13   -0.21    1.71
  -5   2  13   -2.33    1.96
   4  -2 -13   38.08    4.32
   4  -2 -13   40.62    4.04
   4  -2 -13   41.04    5.03
  -4   2  13   40.01    4.11
  -4   2  13   41.77    4.92
   3  -2 -13   47.68    4.85
   3  -2 -13   45.12    4.34
   3  -2 -13   40.14    5.16
  -3   2  13   47.55    4.42
  -3   2  13   38.95    5.17
   2  -2 -13   32.83    5.05
   2  -2 -13   28.69    3.76
   2  -2 -13   26.77    3.79
  -2   2  13   29.85    4.85
  -2   2  13   31.62    3.83
   5  -3 -13    6.98    2.31
   5  -3 -13    3.88    2.66
   5  -3 -13    6.88    1.95
  -5   3  13    4.59    2.48
  -5   3  13    8.01    2.22
   4  -3 -13    2.83    2.19
   4  -3 -13   10.06    2.05
   4  -3 -13    4.02    2.95
  -4   3  13    8.05    2.33
  -4   3  13    7.48    2.37
   3  -3 -13    1.23    1.78
   3  -3 -13    2.84    2.35
  -3   3  13    2.44    1.96
  -3   3  13    4.92    2.57
   2   5 -14    5.13    2.77
   2   5 -14    4.42    2.51
  -2  -5  14    4.00    1.65
  -2  -5  14    5.90    2.96
   1   5 -14  139.64   10.52
  -1  -5  14  162.57   10.60
  -1  -5  14  150.42    9.00
   3   4 -14    0.71    2.34
   3   4 -14    3.63    2.51
   3   4 -14    3.73    2.20
  -3  -4  14    3.03    1.44
  -3  -4  14    2.54    2.68
   2   4 -14    0.92    2.29
   2   4 -14    0.02    2.21
   2   4 -14   -3.92    2.23
  -2  -4  14   -2.29    2.66
  -2  -4  14   -0.80    1.47
   1   4 -14    3.98    2.94
   1   4 -14   10.26    2.85
   1   4 -14    4.22    2.38
  -1  -4  14    3.48    1.57
  -1  -4  14   -1.33    2.66
   4   3 -14   15.41    3.04
   4   3 -14   21.64    3.18
   4   3 -14   19.23    3.20
  -4  -3  14   18.66    2.82
   3   3 -14   18.25    2.88
   3   3 -14   19.73    3.27
   3   3 -14   19.35    3.14
  -3  -3  14   23.65    3.60
  -3  -3  14   26.17    3.04
   2   3 -14    3.37    2.41
   2   3 -14    1.95    2.30
   2   3 -14    1.65    2.07
  -2  -3  14    6.72    1.67
  -2  -3  14    4.34    2.67
   1   3 -14   12.03    2.81
   1   3 -14   13.36    2.86
   1   3 -14    9.98    2.94
  -1  -3  14   10.19    3.18
  -1  -3  14   11.64    1.94
   4   2 -14   -1.13    2.27
   4   2 -14    0.03    2.13
   4   2 -14   -0.83    2.11
  -4  -2  14    3.00    2.48
  -4  -2  14    2.62    1.48
   3   2 -14  231.95   14.06
   3   2 -14  258.86   14.39
   3   2 -14  245.45   14.46
  -3  -2  14  256.87   14.70
  -3  -2  14  237.12   13.52
   2   2 -14   18.33    2.99
   2   2 -14   21.47    3.26
   2   2 -14   15.21    3.33
  -2  -2  14   17.96    2.41
  -2  -2  14   21.47    3.56
   1   2 -14   17.24    3.08
   1   2 -14    7.28    3.09
   1   2 -14   12.43    2.89
  -1  -2  14   11.41    2.12
  -1  -2  14    8.71    3.02
   4   1 -14    1.89    2.57
   4   1 -14   -2.34    2.12
  -4  -1  14   -3.52    2.37
  -4  -1  14   -1.67    1.56
   3   1 -14   21.57    3.39
  -3  -1  14   18.58    3.30
   2   1 -14   19.14    3.11
   2   1 -14   26.75    3.63
   2   1 -14   16.61    3.57
  -2  -1  14   34.94    5.16
  -2  -1  14   23.06    3.34
   4   0 -14    6.97    3.92
   4   0 -14   15.48    2.82
   4   0 -14   14.45    2.50
  -4   0  14   12.69    2.28
  -4   0  14   11.01    2.98
   3   0 -14   20.14    3.23
  -3   0  14   17.71    3.23
  -3   0  14   21.30    2.76
   0   0   0    0.00    0.00

_computing_structure_solution     'SHELXT 2018/2 (Sheldrick, 2018)'
;
_shelx_hkl_checksum              53246
loop_
_space_group_symop_operation_xyz
'x, y, z'
'-x, -y, -z'
loop_
_atom_site_label
_atom_site_type_symbol
_atom_site_fract_x
_atom_site_fract_y
_atom_site_fract_z
_atom_site_U_iso_or_equiv
_atom_site_adp_type
_atom_site_occupancy
_atom_site_site_symmetry_order
_atom_site_calc_flag
_atom_site_refinement_flags_posn
_atom_site_refinement_flags_adp
C1 C 0.89662(17) 0.42091(13) 0.19242(12) 0.0218(3) Uani 1 1 d . .
C2 C 0.86716(18) 0.40229(13) 0.30741(12) 0.0225(3) Uani 1 1 d . .
H2 H 0.899144 0.336267 0.345049 0.027 Uiso 1 1 calc R U
C3 C 0.78963(17) 0.48290(14) 0.36589(12) 0.0219(3) Uani 1 1 d . .
H3 H 0.764909 0.469815 0.443376 0.026 Uiso 1 1 calc R U
C4 C 0.74726(16) 0.58285(13) 0.31300(11) 0.0184(2) Uani 1 1 d . .
C5 C 0.78378(16) 0.60492(12) 0.19893(11) 0.0177(2) Uani 1 1 d . .
C6 C 0.85553(17) 0.51950(13) 0.13781(11) 0.0208(2) Uani 1 1 d . .
H6 H 0.876251 0.529053 0.058431 0.025 Uiso 1 1 calc R U
C7 C 0.75126(16) 0.71529(12) 0.14172(11) 0.0177(2) Uani 1 1 d . .
C8 C 0.65434(17) 0.67846(13) 0.00761(11) 0.0215(3) Uani 1 1 d . .
H8 H 0.607300 0.582539 -0.045706 0.026 Uiso 1 1 calc R U
C9 C 0.62611(19) 0.78014(15) -0.04839(13) 0.0275(3) Uani 1 1 d . .
H9 H 0.558290 0.753473 -0.139221 0.033 Uiso 1 1 calc R U
C10 C 0.6972(2) 0.92113(15) 0.02861(14) 0.0295(3) Uani 1 1 d . .
H10 H 0.678241 0.991027 -0.009559 0.035 Uiso 1 1 calc R U
C11 C 0.7962(2) 0.95981(14) 0.16159(13) 0.0272(3) Uani 1 1 d . .
H11 H 0.846074 1.056444 0.213952 0.033 Uiso 1 1 calc R U
C12 C 0.82239(18) 0.85773(13) 0.21808(12) 0.0219(3) Uani 1 1 d . .
H12 H 0.889006 0.884706 0.309167 0.026 Uiso 1 1 calc R U
N13 N 0.66535(14) 0.66071(11) 0.37683(9) 0.0195(2) Uani 1 1 d . .
C14 C 0.47327(17) 0.64330(15) 0.31926(12) 0.0249(3) Uani 1 1 d . .
H14A H 0.382437 0.542681 0.296638 0.030 Uiso 1 1 calc R U
H14B H 0.457075 0.675366 0.240002 0.030 Uiso 1 1 calc R U
C15 C 0.45343(17) 0.73884(13) 0.42878(12) 0.0217(3) Uani 1 1 d . .
C16 C 0.30423(18) 0.77095(15) 0.43460(14) 0.0276(3) Uani 1 1 d . .
H16 H 0.190971 0.729501 0.362198 0.033 Uiso 1 1 calc R U
C17 C 0.32554(19) 0.86566(15) 0.54967(15) 0.0294(3) Uani 1 1 d . .
H17 H 0.225253 0.889280 0.555293 0.035 Uiso 1 1 calc R U
C18 C 0.4908(2) 0.92659(15) 0.65682(14) 0.0293(3) Uani 1 1 d . .
H18 H 0.501317 0.990615 0.734219 0.035 Uiso 1 1 calc R U
C19 C 0.64015(19) 0.89452(14) 0.65143(13) 0.0255(3) Uani 1 1 d . .
H19 H 0.753220 0.935218 0.723929 0.031 Uiso 1 1 calc R U
C20 C 0.61764(17) 0.80055(13) 0.53579(12) 0.0197(2) Uani 1 1 d . .
C21 C 0.75333(17) 0.75066(13) 0.50287(11) 0.0191(2) Uani 1 1 d . .
O22 O 0.91352(13) 0.78221(11) 0.57059(9) 0.0293(2) Uani 1 1 d . .
Cl1 Cl 0.99043(5) 0.31918(4) 0.11506(4) 0.03283(13) Uani 1 1 d . .
loop_
_atom_site_aniso_label
_atom_site_aniso_U_11
_atom_site_aniso_U_22
_atom_site_aniso_U_33
_atom_site_aniso_U_23
_atom_site_aniso_U_13
_atom_site_aniso_U_12
C1 0.0241(6) 0.0194(6) 0.0242(6) 0.0063(5) 0.0113(5) 0.0099(5)
C2 0.0243(6) 0.0221(6) 0.0242(6) 0.0107(5) 0.0086(5) 0.0110(5)
C3 0.0237(6) 0.0266(6) 0.0178(5) 0.0100(5) 0.0081(5) 0.0110(5)
C4 0.0172(5) 0.0212(6) 0.0158(5) 0.0045(4) 0.0049(4) 0.0080(5)
C5 0.0170(5) 0.0171(5) 0.0157(5) 0.0041(4) 0.0036(4) 0.0052(4)
C6 0.0254(6) 0.0193(6) 0.0183(5) 0.0059(4) 0.0103(5) 0.0082(5)
C7 0.0181(5) 0.0188(5) 0.0163(5) 0.0058(4) 0.0064(4) 0.0074(4)
C8 0.0231(6) 0.0186(6) 0.0166(5) 0.0033(4) 0.0041(4) 0.0048(5)
C9 0.0285(7) 0.0280(7) 0.0197(6) 0.0090(5) 0.0022(5) 0.0083(5)
C10 0.0351(7) 0.0252(6) 0.0305(7) 0.0138(5) 0.0084(6) 0.0147(6)
C11 0.0336(7) 0.0183(6) 0.0270(6) 0.0047(5) 0.0090(5) 0.0098(5)
C12 0.0239(6) 0.0206(6) 0.0172(5) 0.0036(4) 0.0050(4) 0.0075(5)
N13 0.0170(5) 0.0269(5) 0.0157(5) 0.0056(4) 0.0047(4) 0.0115(4)
C14 0.0174(6) 0.0339(7) 0.0221(6) 0.0066(5) 0.0035(5) 0.0127(5)
C15 0.0196(6) 0.0248(6) 0.0251(6) 0.0126(5) 0.0101(5) 0.0101(5)
C16 0.0193(6) 0.0336(7) 0.0362(7) 0.0167(6) 0.0114(5) 0.0138(5)
C17 0.0274(7) 0.0338(7) 0.0453(8) 0.0224(6) 0.0240(6) 0.0201(6)
C18 0.0363(7) 0.0315(7) 0.0336(7) 0.0135(6) 0.0228(6) 0.0201(6)
C19 0.0274(6) 0.0292(7) 0.0248(6) 0.0091(5) 0.0125(5) 0.0146(5)
C20 0.0189(5) 0.0242(6) 0.0221(6) 0.0114(5) 0.0102(5) 0.0115(5)
C21 0.0200(5) 0.0231(6) 0.0171(5) 0.0074(4) 0.0076(4) 0.0106(5)
O22 0.0211(5) 0.0407(6) 0.0222(4) -0.0001(4) 0.0013(4) 0.0175(4)
Cl1 0.0489(2) 0.02748(19) 0.0411(2) 0.01595(14) 0.02977(17) 0.02444(16)
loop_
_atom_type_symbol
_atom_type_description
_atom_type_scat_dispersion_real
_atom_type_scat_dispersion_imag
_atom_type_scat_source
C C 0.0033 0.0016 'International Tables Vol C Tables 4.2.6.8 and 6.1.1.4'
H H 0.0000 0.0000 'International Tables Vol C Tables 4.2.6.8 and 6.1.1.4'
Cl Cl 0.1484 0.1585 'International Tables Vol C Tables 4.2.6.8 and 6.1.1.4'
N N 0.0061 0.0033 'International Tables Vol C Tables 4.2.6.8 and 6.1.1.4'
O O 0.0106 0.0060 'International Tables Vol C Tables 4.2.6.8 and 6.1.1.4'
loop_
_geom_angle_atom_site_label_1
_geom_angle_atom_site_label_2
_geom_angle_atom_site_label_3
_geom_angle
C2 C1 C6 121.86(11)
C2 C1 Cl1 119.16(10)
C6 C1 Cl1 118.97(10)
C1 C2 C3 118.02(11)
C1 C2 H2 121.0
C3 C2 H2 121.0
C2 C3 C4 121.20(11)
C2 C3 H3 119.4
C4 C3 H3 119.4
C3 C4 C5 120.47(11)
C3 C4 N13 118.39(10)
C5 C4 N13 121.14(10)
C6 C5 C4 117.97(11)
C6 C5 C7 118.97(10)
C4 C5 C7 123.06(11)
C1 C6 C5 120.39(11)
C1 C6 H6 119.8
C5 C6 H6 119.8
C12 C7 C8 118.66(11)
C12 C7 C5 121.45(10)
C8 C7 C5 119.84(10)
C9 C8 C7 120.86(11)
C9 C8 H8 119.6
C7 C8 H8 119.6
C8 C9 C10 119.87(12)
C8 C9 H9 120.1
C10 C9 H9 120.1
C9 C10 C11 119.94(12)
C9 C10 H10 120.0
C11 C10 H10 120.0
C12 C11 C10 120.23(12)
C12 C11 H11 119.9
C10 C11 H11 119.9
C11 C12 C7 120.42(11)
C11 C12 H12 119.8
C7 C12 H12 119.8
C21 N13 C4 122.99(10)
C21 N13 C14 113.25(10)
C4 N13 C14 123.54(10)
N13 C14 C15 101.96(10)
N13 C14 H14A 111.4
C15 C14 H14A 111.4
N13 C14 H14B 111.4
C15 C14 H14B 111.4
H14A C14 H14B 109.2
C20 C15 C16 120.01(12)
C20 C15 C14 109.64(10)
C16 C15 C14 130.34(12)
C15 C16 C17 118.06(12)
C15 C16 H16 121.0
C17 C16 H16 121.0
C16 C17 C18 121.48(12)
C16 C17 H17 119.3
C18 C17 H17 119.3
C19 C18 C17 120.61(13)
C19 C18 H18 119.7
C17 C18 H18 119.7
C18 C19 C20 117.39(12)
C18 C19 H19 121.3
C20 C19 H19 121.3
C15 C20 C19 122.45(11)
C15 C20 C21 108.92(11)
C19 C20 C21 128.63(11)
O22 C21 N13 125.22(11)
O22 C21 C20 128.55(11)
N13 C21 C20 106.23(10)
loop_
_geom_bond_atom_site_label_1
_geom_bond_atom_site_label_2
_geom_bond_distance
C1 C2 1.3860(18)
C1 C6 1.3872(17)
C1 Cl1 1.7429(13)
C2 C3 1.3867(18)
C2 H2 0.9500
C3 C4 1.3950(17)
C3 H3 0.9500
C4 C5 1.4060(16)
C4 N13 1.4246(15)
C5 C6 1.3986(17)
C5 C7 1.4891(16)
C6 H6 0.9500
C7 C12 1.3997(16)
C7 C8 1.4001(16)
C8 C9 1.3865(18)
C8 H8 0.9500
C9 C10 1.3896(19)
C9 H9 0.9500
C10 C11 1.3908(19)
C10 H10 0.9500
C11 C12 1.3878(18)
C11 H11 0.9500
C12 H12 0.9500
N13 C21 1.3726(15)
N13 C14 1.4691(15)
C14 C15 1.5058(18)
C14 H14A 0.9900
C14 H14B 0.9900
C15 C20 1.3884(17)
C15 C16 1.3892(17)
C16 C17 1.393(2)
C16 H16 0.9500
C17 C18 1.395(2)
C17 H17 0.9500
C18 C19 1.3893(18)
C18 H18 0.9500
C19 C20 1.3902(17)
C19 H19 0.9500
C20 C21 1.4777(16)
C21 O22 1.2229(15)
loop_
_geom_torsion_atom_site_label_1
_geom_torsion_atom_site_label_2
_geom_torsion_atom_site_label_3
_geom_torsion_atom_site_label_4
_geom_torsion
C6 C1 C2 C3 1.76(19)
Cl1 C1 C2 C3 -178.99(9)
C1 C2 C3 C4 -1.81(19)
C2 C3 C4 C5 -0.46(19)
C2 C3 C4 N13 179.12(11)
C3 C4 C5 C6 2.78(17)
N13 C4 C5 C6 -176.79(10)
C3 C4 C5 C7 -176.63(11)
N13 C4 C5 C7 3.80(17)
C2 C1 C6 C5 0.59(19)
Cl1 C1 C6 C5 -178.66(9)
C4 C5 C6 C1 -2.84(18)
C7 C5 C6 C1 176.60(11)
C6 C5 C7 C12 -128.26(13)
C4 C5 C7 C12 51.14(17)
C6 C5 C7 C8 49.01(16)
C4 C5 C7 C8 -131.58(13)
C12 C7 C8 C9 -1.16(19)
C5 C7 C8 C9 -178.51(12)
C7 C8 C9 C10 1.1(2)
C8 C9 C10 C11 -0.1(2)
C9 C10 C11 C12 -0.8(2)
C10 C11 C12 C7 0.7(2)
C8 C7 C12 C11 0.29(19)
C5 C7 C12 C11 177.60(12)
C3 C4 N13 C21 62.04(16)
C5 C4 N13 C21 -118.38(13)
C3 C4 N13 C14 -112.32(13)
C5 C4 N13 C14 67.26(16)
C21 N13 C14 C15 0.79(14)
C4 N13 C14 C15 175.64(10)
N13 C14 C15 C20 -0.70(14)
N13 C14 C15 C16 178.63(13)
C20 C15 C16 C17 0.05(19)
C14 C15 C16 C17 -179.22(13)
C15 C16 C17 C18 -0.3(2)
C16 C17 C18 C19 0.2(2)
C17 C18 C19 C20 0.2(2)
C16 C15 C20 C19 0.36(19)
C14 C15 C20 C19 179.77(11)
C16 C15 C20 C21 -179.00(11)
C14 C15 C20 C21 0.40(14)
C18 C19 C20 C15 -0.47(19)
C18 C19 C20 C21 178.76(12)
C4 N13 C21 O22 5.52(19)
C14 N13 C21 O22 -179.60(12)
C4 N13 C21 C20 -175.46(10)
C14 N13 C21 C20 -0.57(13)
C15 C20 C21 O22 179.07(13)
C19 C20 C21 O22 -0.2(2)
C15 C20 C21 N13 0.09(13)
C19 C20 C21 N13 -179.22(12)
