#------------------------------------------------------------------------------
#$Date: 2019-11-11 15:39:01 +0200 (Mon, 11 Nov 2019) $
#$Revision: 226407 $
#$URL: file:///home/coder/svn-repositories/cod/cif/4/03/48/4034892.cif $
#------------------------------------------------------------------------------
#
# This file is available in the Crystallography Open Database (COD),
# http://www.crystallography.net/
#
# All data on this site have been placed in the public domain by the
# contributors.
#
data_4034892
loop_
_publ_author_name
'Chang, Meng-Yang'
'Hsiao, Yu-Ting'
'Lai, Kai-Hsiang'
_publ_section_title
;
 mCPBA-Mediated Intramolecular Oxidative Annulation of ortho-Crotyl or
 Cinnamyl Arylaldehydes: Synthesis of Benzofused Five-, Six-, and
 Seven-Membered Oxacycles.
;
_journal_issue                   22
_journal_name_full               'The Journal of organic chemistry'
_journal_page_first              14110
_journal_page_last               14119
_journal_paper_doi               10.1021/acs.joc.8b02146
_journal_volume                  83
_journal_year                    2018
_chemical_formula_sum            'C18 H16 O5'
_chemical_formula_weight         312.31
_space_group_crystal_system      triclinic
_space_group_IT_number           2
_space_group_name_Hall           '-P 1'
_space_group_name_H-M_alt        'P -1'
_atom_sites_solution_hydrogens   geom
_audit_creation_method           SHELXL-2014/6
_cell_angle_alpha                93.465(4)
_cell_angle_beta                 104.206(3)
_cell_angle_gamma                116.505(3)
_cell_formula_units_Z            2
_cell_length_a                   7.5282(6)
_cell_length_b                   8.2601(7)
_cell_length_c                   13.8286(12)
_cell_measurement_reflns_used    6417
_cell_measurement_temperature    100(2)
_cell_measurement_theta_max      26.4060
_cell_measurement_theta_min      2.8101
_cell_volume                     731.54(11)
_computing_cell_refinement       'SAINT V8.34A (Bruker AXS Inc., 2013)'
_computing_data_collection       'Bruker APEX2'
_computing_data_reduction        'SAINT V8.34A (Bruker AXS Inc., 2013)'
_computing_molecular_graphics    'Bruker SHELXTL'
_computing_publication_material  'Bruker SHELXTL'
_computing_structure_refinement  'SHELXL-2014/6 (Sheldrick, 2014)'
_diffrn_ambient_temperature      100(2)
_diffrn_detector_area_resol_mean 8.3333
_diffrn_measured_fraction_theta_full 0.986
_diffrn_measured_fraction_theta_max 0.980
_diffrn_measurement_device_type  'Bruker APEX-II CCD'
_diffrn_measurement_method       '\f and \w scans'
_diffrn_radiation_type           MoK\a
_diffrn_radiation_wavelength     0.71073
_diffrn_reflns_av_R_equivalents  0.0274
_diffrn_reflns_av_unetI/netI     0.0285
_diffrn_reflns_Laue_measured_fraction_full 0.986
_diffrn_reflns_Laue_measured_fraction_max 0.980
_diffrn_reflns_limit_h_max       9
_diffrn_reflns_limit_h_min       -9
_diffrn_reflns_limit_k_max       10
_diffrn_reflns_limit_k_min       -10
_diffrn_reflns_limit_l_max       16
_diffrn_reflns_limit_l_min       -17
_diffrn_reflns_number            12026
_diffrn_reflns_point_group_measured_fraction_full 0.986
_diffrn_reflns_point_group_measured_fraction_max 0.980
_diffrn_reflns_theta_full        25.242
_diffrn_reflns_theta_max         26.406
_diffrn_reflns_theta_min         2.810
_exptl_absorpt_coefficient_mu    0.104
_exptl_absorpt_correction_T_max  0.9485
_exptl_absorpt_correction_T_min  0.8738
_exptl_absorpt_correction_type   multi-scan
_exptl_absorpt_process_details   'SADABS V2014/4 (Bruker AXS Inc.)'
_exptl_crystal_colour            Colorless
_exptl_crystal_density_diffrn    1.418
_exptl_crystal_density_meas      ?
_exptl_crystal_density_method    'not measured'
_exptl_crystal_description       Lump
_exptl_crystal_F_000             328
_exptl_crystal_size_max          0.15
_exptl_crystal_size_mid          0.15
_exptl_crystal_size_min          0.13
_refine_diff_density_max         0.321
_refine_diff_density_min         -0.247
_refine_diff_density_rms         0.048
_refine_ls_extinction_method     none
_refine_ls_goodness_of_fit_ref   1.134
_refine_ls_hydrogen_treatment    constr
_refine_ls_matrix_type           full
_refine_ls_number_parameters     210
_refine_ls_number_reflns         2958
_refine_ls_number_restraints     0
_refine_ls_restrained_S_all      1.134
_refine_ls_R_factor_all          0.0427
_refine_ls_R_factor_gt           0.0392
_refine_ls_shift/su_max          0.000
_refine_ls_shift/su_mean         0.000
_refine_ls_structure_factor_coef Fsqd
_refine_ls_weighting_details
'w=1/[\s^2^(Fo^2^)+(0.0442P)^2^+0.3419P] where P=(Fo^2^+2Fc^2^)/3'
_refine_ls_weighting_scheme      calc
_refine_ls_wR_factor_gt          0.1054
_refine_ls_wR_factor_ref         0.1079
_reflns_Friedel_coverage         0.000
_reflns_number_gt                2663
_reflns_number_total             2958
_reflns_threshold_expression     'I > 2\s(I)'
_cod_data_source_file            jo8b02146_si_002.cif
_cod_data_source_block           180506LT_0m
_cod_depositor_comments
;
The following automatic conversions were performed:

data item '_exptl_crystal_density_meas' value 'not measured' was
changed to '?' -- the value is perceived as not measured.

Automatic conversion script
Id: cif_fix_values 6909 2019-04-08 15:41:33Z antanas 
;
_cod_database_code               4034892
_shelx_space_group_comment
;
The symmetry employed for this shelxl refinement is uniquely defined
by the following loop, which should always be used as a source of
symmetry information in preference to the above space-group names.
They are only intended as comments.
;
_shelxl_version_number           2014/6
_shelx_res_file
;
TITL 180506LT_0m in P-1
CELL 0.71073 7.5282 8.2601 13.8286 93.465 104.206 116.505
ZERR 2.00 0.0006 0.0007 0.0012 0.004 0.003 0.003
LATT 1
SFAC C H O
UNIT 36 32 10
TEMP -173.000
ACTA
L.S. 4
FMAP 2
PLAN 5
BOND $H
CONF
WGHT    0.044200    0.341900
FVAR       1.50890
O1    3   -0.132396    0.210533    0.791385    11.00000    0.01644    0.01755 =
         0.01362    0.00222    0.00282    0.00503
O2    3    0.458924    0.483012    1.223952    11.00000    0.02164    0.01455 =
         0.01306    0.00368    0.00190    0.00505
O3    3   -0.106114    0.475174    0.622097    11.00000    0.04071    0.02498 =
         0.02142    0.00508    0.00062    0.01749
O4    3   -0.193952    0.066495    0.917408    11.00000    0.01939    0.01526 =
         0.01844    0.00262    0.00564    0.00500
O5    3    0.623972    0.792567    1.168683    11.00000    0.01736    0.01159 =
         0.01564    0.00152    0.00128    0.00413
C1    1   -0.337388   -0.145253    0.420351    11.00000    0.02172    0.02845 =
         0.02114   -0.00639    0.00866    0.00440
AFIX  43
H1    2   -0.395224   -0.253267    0.369817    11.00000   -1.20000
AFIX   0
C2    1   -0.356502    0.006922    0.394919    11.00000    0.01863    0.03893 =
         0.01474   -0.00029    0.00347    0.00854
AFIX  43
H16   2   -0.426955    0.002984    0.326929    11.00000   -1.20000
AFIX   0
C3    1   -0.273643    0.164755    0.467898    11.00000    0.01827    0.03004 =
         0.01724    0.00537    0.00532    0.01018
AFIX  43
H15   2   -0.285947    0.269276    0.449826    11.00000   -1.20000
AFIX   0
C4    1   -0.171989    0.170376    0.568061    11.00000    0.01555    0.02293 =
         0.01400    0.00254    0.00502    0.00673
C5    1   -0.089651    0.341285    0.644251    11.00000    0.01838    0.02045 =
         0.01634    0.00416    0.00527    0.00872
C6    1    0.024318    0.348830    0.754145    11.00000    0.01683    0.01626 =
         0.01530    0.00362    0.00506    0.00739
AFIX  13
H12   2    0.135071    0.313332    0.754022    11.00000   -1.20000
AFIX   0
C7    1   -0.078292    0.200592    0.891009    11.00000    0.01718    0.01526 =
         0.01488    0.00155    0.00570    0.00991
C8    1    0.113859    0.356718    0.959999    11.00000    0.01508    0.01495 =
         0.01398    0.00071    0.00492    0.00800
C9    1    0.191719    0.336950    1.059160    11.00000    0.01666    0.01281 =
         0.01575    0.00345    0.00700    0.00733
AFIX  43
H11   2    0.125831    0.222513    1.079634    11.00000   -1.20000
AFIX   0
C10   1    0.364112    0.484314    1.126603    11.00000    0.01720    0.01677 =
         0.01218    0.00298    0.00520    0.00983
C11   1    0.362461    0.319078    1.262349    11.00000    0.02551    0.01806 =
         0.01792    0.00803    0.00505    0.00794
AFIX 137
H3    2    0.222795    0.295815    1.262119    11.00000   -1.50000
H2    2    0.446755    0.334529    1.332039    11.00000   -1.50000
H4    2    0.351669    0.214446    1.219227    11.00000   -1.50000
AFIX   0
C12   1    0.458138    0.655036    1.095960    11.00000    0.01386    0.01301 =
         0.01590    0.00006    0.00435    0.00726
C13   1    0.709020    0.972744    1.144908    11.00000    0.02125    0.01233 =
         0.02102    0.00327    0.00284    0.00183
AFIX 137
H5    2    0.763324    0.971414    1.087473    11.00000   -1.50000
H6    2    0.822259    1.060979    1.204204    11.00000   -1.50000
H7    2    0.599761    1.009314    1.126755    11.00000   -1.50000
AFIX   0
C14   1    0.381801    0.671867    0.997614    11.00000    0.01773    0.01276 =
         0.01653    0.00371    0.00636    0.00806
AFIX  43
H8    2    0.447469    0.786152    0.976959    11.00000   -1.20000
AFIX   0
C15   1    0.209220    0.522420    0.928541    11.00000    0.01589    0.01537 =
         0.01443    0.00292    0.00582    0.00896
C16   1    0.122336    0.535961    0.821106    11.00000    0.01884    0.01578 =
         0.01552    0.00387    0.00432    0.00827
AFIX  23
H9    2    0.235191    0.626686    0.797956    11.00000   -1.20000
H10   2    0.016717    0.577660    0.817412    11.00000   -1.20000
AFIX   0
C17   1   -0.152174    0.016847    0.592907    11.00000    0.02025    0.02350 =
         0.01610    0.00312    0.00709    0.00975
AFIX  43
H14   2   -0.081929    0.020204    0.660824    11.00000   -1.20000
AFIX   0
C18   1   -0.234127   -0.140809    0.519329    11.00000    0.02530    0.02247 =
         0.02487    0.00200    0.01275    0.00892
AFIX  43
H13   2   -0.219644   -0.244812    0.536590    11.00000   -1.20000
AFIX   0
HKLF 4 1 1 0 0 0 1 0 0 0 1

REM  180506LT_0m in P-1
REM R1 =  0.0392 for    2663 Fo > 4sig(Fo)  and  0.0427 for all    2958 data
REM    210 parameters refined using      0 restraints

END

WGHT      0.0428      0.3452

REM Highest difference peak  0.321,  deepest hole -0.247,  1-sigma level  0.048
Q1    1   0.0258  0.2885  0.9250  11.00000  0.05    0.32
Q2    1   0.3830  0.5798  1.1189  11.00000  0.05    0.28
Q3    1   0.0957  0.4475  0.7875  11.00000  0.05    0.27
Q4    1   0.1217  0.4458  0.9518  11.00000  0.05    0.26
Q5    1   0.3042  0.4031  1.0889  11.00000  0.05    0.26
;
_shelx_res_checksum              85872
_shelx_hkl_file
;
  -1   0   0 487.063 19.0847   6
  -1   0   0 523.798 19.0077   2
  -1   0   0 499.095 19.1543   1
  -1   0   0 490.224 19.0171   1
  -1   0   0 510.305 19.1288   2
  -1   0   0 490.947 19.2648   6
   1   0   0 500.706 19.3167   1
   1   0   0 510.045 19.1287   1
   1   0   0 515.572 19.0950   2
   1   0   0 505.281 19.4206   6
   1   0   0 486.429 19.1921   6
  -2   0   0 1480.83 56.5602   1
  -2   0   0 1527.56 56.4396   1
  -2   0   0 1516.37 56.6076   6
  -2   0   0 1497.45 56.4269   2
  -2   0   0 1463.22 56.5578   2
   2   0   0 1499.91 56.8230   2
   2   0   0 1531.07 57.5364   6
   2   0   0 1509.01 57.2981   1
   2   0   0 1504.44 56.9312   1
   2   0   0 1480.86 58.6683   5
   2   0   0 1525.76 57.0878   6
   3   0   0 846.948 36.4137   5
   3   0   0 889.337 33.9277   2
   3   0   0 869.911 34.5444   1
   3   0   0 888.143 34.0750   1
   3   0   0 883.237 34.8939   6
   3   0   0 880.290 34.3336   6
   4   0   0 2424.72 95.1911   6
   4   0   0 2606.69 95.5687   1
   4   0   0 2500.16 94.9287   1
   4   0   0 2398.00 94.5780   2
   4   0   0 2539.84 95.9907   6
   4   0   0 2490.13 98.1439   5
   5   0   0 9.50104 2.11011   6
   5   0   0 14.2711 2.61665   6
   5   0   0 9.88120 2.95120   5
   5   0   0 11.8249 2.19609   1
   5   0   0 10.1782 2.05129   1
   5   0   0 10.3481 1.89187   2
   6   0   0 33.0713 6.10169   5
   6   0   0 42.3158 5.20428   6
   6   0   0 34.4729 4.62073   1
   7   0   0 109.882 7.99363   6
   7   0   0 97.6074 11.7054   5
   7   0   0 104.016 7.62935   1
   8   0   0 85.9301 7.76317   6
   8   0   0 76.8660 8.36110   1
   8  -1   0 71.5071 6.60374   6
   8  -1   0 65.6696 10.2303   5
   8  -1   0 76.1211 7.52806   1
   7  -1   0 35.4109 6.67735   5
   7  -1   0 31.2928 4.37879   6
   7  -1   0 40.2579 4.67055   1
   6  -1   0 916.304 36.4503   2
   6  -1   0 922.751 37.2008   1
   6  -1   0 941.245 41.6614   5
   6  -1   0 884.415 37.5252   6
   5  -1   0 0.93977 0.91346   6
   5  -1   0 0.82295 1.47273   5
   5  -1   0 1.28928 0.70553   2
   5  -1   0 1.76283 0.75933   1
   5  -1   0 0.93680 0.73790   6
   5  -1   0 4.25525 1.16210   1
   4  -1   0 200.840 8.83592   6
   4  -1   0 204.696 9.02220   1
   4  -1   0 194.788 8.60534   1
   4  -1   0 196.318 9.23200   6
   4  -1   0 201.644 8.50674   2
   3  -1   0 13.3037 1.31941   6
   3  -1   0 15.5426 1.25095   1
   3  -1   0 15.7776 1.13114   1
   3  -1   0 15.3795 1.09143   2
   3  -1   0 15.6080 1.20589   6
   1  -1   0 115.662 5.29929   6
   1  -1   0 117.339 5.03146   1
   1  -1   0 115.849 5.69270   3
   1  -1   0 117.961 5.12001   6
   1  -1   0 120.312 5.22220   1
  -1   1   0 114.655 4.93133   1
  -1   1   0 117.548 5.02452   6
  -1   1   0 112.953 5.66916   3
   0  -1   0 589.561 23.5105   6
   0  -1   0 609.191 23.7137   6
   0  -1   0 602.643 23.4126   1
   0   1   0 605.170 23.5642   6
   0   1   0 604.491 23.4263   1
   0   1   0 589.909 23.6559   6
  -1  -1   0 6.56825 1.25216   6
  -1  -1   0 6.02406 1.49950   5
  -1  -1   0 6.80818 1.26548   6
  -1  -1   0 5.75340 1.24537   1
   1   1   0 5.67527 1.35970   5
   1   1   0 7.15163 1.30609   1
   1   1   0 6.48924 1.37860   6
   1   1   0 5.58391 1.27163   1
   1   1   0 4.37924 1.26991   6
  -2  -1   0 125.757 5.92752   1
  -2  -1   0 122.627 7.44779   5
  -2  -1   0 118.673 5.75532   2
   2   1   0 126.535 6.42139   1
   2   1   0 129.233 7.46310   5
   2   1   0 124.946 6.60713   6
   2   1   0 130.462 6.81093   1
   2   1   0 126.366 7.03550   6
  -3  -1   0 514.467 20.7812   2
  -3  -1   0 539.388 21.2581   6
  -3  -1   0 520.902 20.9302   1
   3   1   0 519.749 22.0530   1
   3   1   0 530.140 22.4129   6
   3   1   0 539.666 22.6634   1
   3   1   0 521.985 22.9853   6
   3   1   0 517.922 23.9498   5
  -4  -1   0 1.49436 0.55550   1
   4   1   0 1.11105 1.20510   1
   4   1   0 2.78836 1.79298   5
   4   1   0 5.54081 1.63339   1
   4   1   0 0.61266 0.76450   6
   4   1   0 0.64344 0.92170   6
   5   1   0 121.841 9.90663   5
   5   1   0 113.792 8.20126   1
   5   1   0 141.688 8.79177   6
   6   1   0 55.3283 7.20581   6
   6   1   0 94.3523 6.52350   1
   6   1   0 71.6614 9.62070   5
   7   1   0 10.5590 3.18419   1
   7   1   0 10.8364 3.07966   6
   7   1   0 3.29952 2.78690   5
   8  -2   0 193.705 14.9662   5
   8  -2   0 188.864 10.5373   1
   8  -2   0 198.190 10.9983   6
   7  -2   0 89.9468 6.05025   6
   7  -2   0 95.0497 9.20020   5
   7  -2   0 88.2239 5.33810   2
   7  -2   0 86.4622 5.71087   1
   6  -2   0 27.0841 2.58581   6
   6  -2   0 30.5764 2.42275   2
   6  -2   0 28.3218 2.71716   1
   6  -2   0 28.6053 2.87189   6
   5  -2   0 21.4935 1.95578   1
   5  -2   0 21.4335 1.95442   6
   5  -2   0 25.2106 1.85150   2
   5  -2   0 20.3447 2.36809   6
   5  -2   0 21.8550 1.85883   1
   4  -2   0 554.479 21.7178   1
   4  -2   0 551.355 21.6731   2
   4  -2   0 553.482 21.7935   1
   4  -2   0 545.720 21.9458   6
   4  -2   0 573.406 21.9793   6
  -4   2   0 546.462 24.2395   3
   3  -2   0 292.266 11.6617   6
   3  -2   0 294.413 11.4725   1
   3  -2   0 271.328 11.6055   2
   3  -2   0 281.744 11.9520   6
   3  -2   0 288.518 11.7759   1
  -3   2   0 290.864 13.5265   3
   2  -2   0 4281.59 162.426   6
   2  -2   0 4300.75 161.942   1
  -2   2   0 4254.64 163.395   3
  -2   2   0 4342.26 161.475   1
  -2   2   0 4359.65 161.729   6
   1  -2   0 467.630 19.6670   1
   1  -2   0 472.433 20.1108   6
   1  -2   0 487.055 19.9695   6
   1  -2   0 484.226 19.9065   1
  -1   2   0 496.122 19.8078   1
  -1   2   0 474.802 19.5228   1
  -1   2   0 480.965 20.0457   6
   0  -2   0 358.970 15.4856   1
   0  -2   0 362.989 15.4696   6
   0  -2   0 354.266 15.2040   1
   0   2   0 357.131 15.2515   1
   0   2   0 330.624 15.5806   6
   0   2   0 351.239 15.3900   1
  -1  -2   0 140.684 6.92986   1
  -1  -2   0 126.492 6.98374   6
  -1  -2   0 121.353 7.21025   5
   1   2   0 120.692 6.90122   1
   1   2   0 126.807 7.53996   6
   1   2   0 120.931 7.11097   1
   1   2   0 116.782 7.03607   6
  -2  -2   0 981.755 40.7961   5
  -2  -2   0 968.889 38.7588   1
  -2  -2   0 963.344 39.1535   6
   2   2   0 1014.02 40.1396   1
   2   2   0 964.536 40.5816   5
   2   2   0 993.779 40.5888   6
   2   2   0 978.640 39.5183   1
   2   2   0 955.679 39.9788   6
  -3  -2   0 385.789 16.5997   1
  -3  -2   0 397.158 16.4421   2
   3   2   0 387.177 18.9317   6
   3   2   0 381.093 17.8580   1
   3   2   0 402.940 18.5709   1
   3   2   0 365.953 19.1062   5
   3   2   0 374.048 18.3627   6
  -4  -2   0 2.73591 1.02570   1
   4   2   0 2.50693 2.34121   1
   4   2   0 3.58973 1.91776   5
   4   2   0 4.35617 1.65989   1
   5   2   0 54.9765 7.88566   5
   5   2   0 49.5701 6.54725   1
   6   2   0 47.3467 6.54576   1
   6   2   0 51.8667 8.44939   5
   7   2   0 245.344 11.0547   6
   7   2   0 168.514 10.0719   1
   8  -3   0 -2.2346 2.07599   5
   8  -3   0 0.77684 1.17610   6
   8  -3   0 1.68799 1.29710   1
   7  -3   0 4.18207 1.38438   1
   7  -3   0 5.85439 1.29492   2
   7  -3   0 4.98575 1.52268   6
   6  -3   0 47.7409 3.39267   6
   6  -3   0 41.5265 3.06928   1
   6  -3   0 44.2105 2.99901   2
   6  -3   0 45.2421 3.15357   1
   6  -3   0 46.6236 3.32404   6
   5  -3   0 409.130 17.8032   6
   5  -3   0 427.907 17.6266   6
   5  -3   0 443.640 17.3744   1
   5  -3   0 434.252 17.4895   2
   5  -3   0 417.977 17.6581   1
  -5   3   0 424.448 20.4478   3
   4  -3   0 473.344 19.9506   6
   4  -3   0 448.256 19.5841   1
   4  -3   0 482.751 19.5040   2
   4  -3   0 481.000 19.4501   6
   4  -3   0 491.525 19.1750   1
  -4   3   0 487.784 21.8691   3
   3  -3   0 268.267 12.5381   6
   3  -3   0 257.443 12.1682   1
   3  -3   0 276.767 12.1069   6
   3  -3   0 265.186 11.7693   1
  -3   3   0 289.046 11.1147   1
  -3   3   0 275.007 11.4651   6
  -3   3   0 279.915 13.5123   3
  -3   3   0 276.647 11.0172   1
   2  -3   0 114.229 5.95225   1
   2  -3   0 106.945 6.09062   1
   2  -3   0 99.3874 6.24389   6
   2  -3   0 108.304 6.12833   6
  -2   3   0 101.064 6.00341   6
  -2   3   0 96.6785 5.63372   1
   1  -3   0 283.590 13.4323   6
   1  -3   0 282.434 13.0394   1
   1  -3   0 274.541 13.2457   1
  -1   3   0 299.743 13.6995   6
  -1   3   0 265.551 13.0207   1
   0  -3   0 142.360 8.57260   6
   0  -3   0 145.547 8.35844   1
   0   3   0 146.692 8.98340   6
   0   3   0 145.149 8.60053   1
  -1  -3   0 180.505 10.5013   5
  -1  -3   0 195.266 10.0841   1
  -1  -3   0 198.885 10.5596   6
   1   3   0 184.068 11.0121   6
   1   3   0 195.491 10.7542   1
  -2  -3   0 131.469 7.21535   1
  -2  -3   0 129.178 7.27275   1
  -2  -3   0 127.733 7.57863   6
  -2  -3   0 91.4532 6.23990   2
   2   3   0 95.1585 7.46042   1
   2   3   0 95.3584 7.84392   6
  -3  -3   0 79.9463 5.42336   1
  -3  -3   0 79.3255 5.16939   2
  -3  -3   0 72.5330 5.63338   6
   3   3   0 69.6011 6.88782   5
   3   3   0 65.9705 6.26189   1
   3   3   0 66.7513 6.75143   6
   4   3   0 84.9238 8.43726   5
   4   3   0 75.3777 8.47027   1
   4   3   0 87.2566 8.20755   6
   5   3   0 0.63174 2.28999   5
   5   3   0 -2.7454 1.56522   1
   6   3   0 443.136 19.8767   6
   9  -4   0 23.5353 3.27085   1
   9  -4   0 22.7158 3.62374   6
   9  -4   0 17.5484 5.94468   5
   8  -4   0 184.015 9.18667   1
   8  -4   0 173.463 9.47256   6
   7  -4   0 7.94194 1.62083   2
   7  -4   0 9.61061 1.99401   6
   7  -4   0 9.93222 1.89863   1
   6  -4   0 184.120 9.09727   6
   6  -4   0 181.435 9.41108   6
   6  -4   0 182.442 8.78998   1
   6  -4   0 192.330 9.02558   2
   6  -4   0 183.286 9.19737   1
  -6   4   0 180.166 11.7967   3
   5  -4   0 52.7138 3.83601   2
   5  -4   0 48.5240 3.75238   6
   5  -4   0 50.4841 4.16003   6
   5  -4   0 49.6726 3.93447   1
   5  -4   0 56.7528 3.69442   1
  -5   4   0 47.5108 6.16437   3
   4  -4   0 165.230 9.02604   1
   4  -4   0 165.224 8.71756   2
   4  -4   0 171.084 8.59550   1
   4  -4   0 162.398 9.29834   6
   4  -4   0 179.233 8.99917   6
  -4   4   0 184.989 10.5500   3
   3  -4   0 170.034 9.23707   1
   3  -4   0 175.730 8.98792   1
   3  -4   0 168.593 9.59503   6
   3  -4   0 162.914 9.12321   6
   3  -4   0 182.334 7.31571   4
  -3   4   0 183.223 10.0673   3
  -3   4   0 132.981 8.01933   1
   2  -4   0 3023.78 119.047   1
   2  -4   0 3148.09 119.352   6
   2  -4   0 3236.77 119.027   1
  -2   4   0 2813.34 115.950   4
  -2   4   0 3167.07 118.736   1
  -2   4   0 3215.83 119.412   6
   1  -4   0 5.91646 1.99578   6
   1  -4   0 5.75537 1.83961   1
  -1   4   0 5.70611 1.95234   1
  -1   4   0 5.66042 1.93366   6
   0  -4   0 651.199 29.7408   1
   0  -4   0 707.274 30.6482   6
   0  -4   0 735.153 30.5266   5
   0   4   0 705.549 31.1651   6
   0   4   0 672.844 30.3386   1
  -1  -4   0 362.896 18.3321   6
  -1  -4   0 376.240 17.8877   1
   1   4   0 358.609 19.2267   6
   1   4   0 379.357 18.8218   1
  -2  -4   0 899.483 39.5334   6
  -2  -4   0 912.386 38.8912   1
  -2  -4   0 919.568 39.6930   6
  -2  -4   0 921.984 39.0684   1
   2   4   0 977.714 41.8742   6
   2   4   0 970.855 40.9535   1
  -3  -4   0 0.54708 1.04012   1
   3   4   0 0.71048 1.74487   1
   3   4   0 1.95796 2.23663   6
   4   4   0 472.334 24.7535   1
   4   4   0 470.523 25.7392   6
   5   4   0 4.84930 3.47662   6
   5   4   0 2.33252 3.10987   1
   9  -5   0 97.3347 6.68919   1
   9  -5   0 102.350 7.10109   6
   8  -5   0 72.6827 5.46540   6
   8  -5   0 65.1086 5.07126   1
   7  -5   0 150.838 8.80523   6
   7  -5   0 155.935 9.09829   2
   7  -5   0 161.349 8.55879   1
  -7   5   0 148.817 11.3083   3
   6  -5   0 87.0412 6.11511   6
   6  -5   0 92.3021 5.90290   1
   6  -5   0 89.0370 5.93566   2
  -6   5   0 89.5601 7.93979   3
   5  -5   0 50.2103 4.55059   1
   5  -5   0 41.1110 4.05227   4
   5  -5   0 54.9289 4.40718   2
   5  -5   0 49.9428 4.76067   6
   5  -5   0 48.7478 4.14270   1
  -5   5   0 44.3195 6.06133   3
   4  -5   0 85.9369 6.41932   1
   4  -5   0 84.0126 6.37329   6
   4  -5   0 81.7574 6.03167   1
   4  -5   0 79.4111 6.50267   6
   4  -5   0 83.8776 6.00186   2
   4  -5   0 89.1954 4.47511   4
  -4   5   0 82.1785 5.09921   1
  -4   5   0 75.2966 5.38484   6
  -4   5   0 97.8812 7.41105   3
   3  -5   0 148.217 9.37746   1
   3  -5   0 148.364 9.46539   6
   3  -5   0 153.771 9.19709   1
  -3   5   0 151.553 8.70215   1
  -3   5   0 143.594 9.05693   6
   2  -5   0 2236.91 90.2236   6
   2  -5   0 2197.94 89.5176   1
  -2   5   0 2302.18 89.4818   1
  -2   5   0 2380.20 90.4601   6
   1  -5   0 104.020 8.07935   6
   1  -5   0 116.038 8.00010   1
  -1   5   0 107.284 7.92802   1
  -1   5   0 107.932 8.41954   6
   0  -5   0 0.95520 1.08574   1
   0  -5   0 0.36679 1.23969   6
   0   5   0 0.48882 1.32078   1
   0   5   0 0.02839 1.22599   6
  -1  -5   0 699.927 31.5454   1
  -1  -5   0 699.699 32.2281   6
   1   5   0 703.944 33.5166   6
   1   5   0 709.466 32.6567   1
  -2  -5   0 485.500 23.6705   1
  -2  -5   0 490.460 24.4423   6
  -2  -5   0 494.101 24.4089   6
  -2  -5   0 509.100 23.7447   1
   2   5   0 498.483 26.5202   6
   2   5   0 515.315 25.6812   1
   3   5   0 4.91534 2.81274   1
   3   5   0 4.43683 2.90430   6
   4   5   0 88.3496 10.5761   1
   4   5   0 81.2634 11.2652   6
   9  -6   0 2.68042 1.77304   6
   9  -6   0 2.02182 1.77725   1
   8  -6   0 159.486 10.3951   6
   8  -6   0 187.944 10.2808   1
  -8   6   0 179.952 13.4728   3
   7  -6   0 308.753 14.6414   1
   7  -6   0 321.629 15.3718   6
   7  -6   0 236.457 15.0958   4
  -7   6   0 287.050 17.4956   3
   6  -6   0 5.07965 1.68244   4
  -6   6   0 5.85510 2.77149   3
   5  -6   0 39.2457 5.05272   2
   5  -6   0 26.9423 4.25264   1
  -5   6   0 33.1078 5.54377   3
   4  -6   0 36.0135 5.38607   1
   4  -6   0 47.4894 5.75638   2
   4  -6   0 42.0385 5.55046   1
   4  -6   0 56.2097 5.07567   6
  -4   6   0 37.7687 5.67273   3
  -4   6   0 39.0625 4.55395   1
   3  -6   0 0.64424 1.38471   6
   3  -6   0 0.10683 1.08995   2
   3  -6   0 0.63601 1.27289   1
  -3   6   0 -0.0158 1.09829   1
  -3   6   0 1.37377 1.44434   6
   2  -6   0 -0.7663 0.89999   1
   2  -6   0 -0.0993 1.27214   6
  -2   6   0 -0.3765 1.07307   6
  -2   6   0 -0.5856 0.86677   1
   1  -6   0 85.4317 7.52004   1
   1  -6   0 91.3554 8.11987   6
  -1   6   0 78.9296 7.39207   1
  -1   6   0 87.9516 8.15869   6
   0  -6   0 4078.17 156.315   1
   0  -6   0 4058.88 157.307   6
   0   6   0 3834.09 157.036   1
   0   6   0 4128.56 158.760   6
  -1  -6   0 0.96038 1.80780   6
  -1  -6   0 2.72651 2.05500   1
   1   6   0 0.75943 2.16617   6
   1   6   0 2.04362 2.30046   1
  -2  -6   0 3.90200 3.14707   1
  -2  -6   0 0.47396 1.78841   1
   2   6   0 1.28633 2.43890   6
   2   6   0 2.76465 2.47180   1
   3   6   0 7.84933 3.68843   1
   3   6   0 6.99012 3.97183   6
   4   6   0 169.556 14.2919   1
   8  -7   0 7.16757 1.75056   6
   8  -7   0 3.91001 1.87734   1
  -8   7   0 1.87708 2.43209   3
   7  -7   0 348.933 17.6191   6
   7  -7   0 302.329 16.5228   1
  -7   7   0 280.410 18.5223   3
   6  -7   0 116.445 8.82543   6
   6  -7   0 124.832 8.81945   1
  -6   7   0 108.495 9.94453   3
   5  -7   0 3.00283 1.78695   1
  -5   7   0 1.85937 2.06864   3
   4  -7   0 352.468 19.9416   6
   4  -7   0 344.780 19.0619   1
  -4   7   0 398.196 20.3401   3
  -4   7   0 361.259 18.1021   1
   3  -7   0 38.6500 5.97174   1
   3  -7   0 48.7088 7.35051   6
  -3   7   0 46.2747 6.69921   6
  -3   7   0 45.5431 6.05485   1
   2  -7   0 1897.30 77.8653   6
   2  -7   0 1915.16 77.1230   1
  -2   7   0 1769.89 76.3960   1
  -2   7   0 1895.66 78.0642   6
   1  -7   0 339.371 20.3439   6
   1  -7   0 355.575 19.5933   1
  -1   7   0 365.648 20.1423   1
  -1   7   0 337.843 20.6879   6
   0  -7   0 1053.16 47.6396   6
   0  -7   0 1023.97 46.5429   1
   0   7   0 1082.43 49.2435   6
   0   7   0 1048.38 47.7180   1
  -1  -7   0 3.78371 2.79793   6
  -1  -7   0 4.10983 2.58991   1
  -1  -7   0 1.15536 2.23144   6
   1   7   0 1.04780 2.59749   6
   1   7   0 1.45578 2.21502   1
   2   7   0 25.6845 6.65409   6
   2   7   0 19.1840 5.08413   1
   8  -8   0 128.293 9.32315   6
   8  -8   0 93.3074 8.36251   1
  -8   8   0 69.8631 10.5525   3
   6  -8   0 171.490 12.2136   1
  -6   8   0 172.735 13.2578   3
   5  -8   0 5.83009 2.51782   1
   5  -8   0 -0.4020 1.99406   6
  -5   8   0 0.07288 1.82666   3
   4  -8   0 169.458 13.0069   6
   4  -8   0 172.976 12.5008   1
   3  -8   0 19.2623 4.80509   1
   3  -8   0 11.5158 4.23937   6
  -3   8   0 16.9251 4.03271   1
   2  -8   0 259.833 16.6220   1
   2  -8   0 250.730 17.2881   6
  -2   8   0 248.819 17.2864   6
  -2   8   0 252.968 16.3202   1
   1  -8   0 2.83164 2.58639   6
   1  -8   0 4.33020 2.57701   1
  -1   8   0 1.88923 2.62295   1
  -1   8   0 5.30671 3.32488   6
   0  -8   0 11.7714 4.38754   6
   0  -8   0 14.3795 4.69960   1
   0   8   0 14.4333 5.14760   6
   0   8   0 7.58392 3.79338   1
   1   8   0 53.0590 9.60638   6
   1   8   0 60.7319 9.66951   1
   7  -9   0 13.6345 4.13244   1
  -7   9   0 8.25499 4.25855   3
   6  -9   0 6.97350 4.43042   6
  -6   9   0 0.60633 2.03857   3
   5  -9   0 34.3753 6.51509   1
   5  -9   0 42.5262 8.05717   6
  -5   9   0 41.3639 7.48534   3
   4  -9   0 141.654 11.9000   1
   4  -9   0 133.287 12.4980   6
   3  -9   0 -0.5543 1.87779   1
   3  -9   0 -0.5524 2.50108   6
   2  -9   0 51.3078 8.68766   6
   2  -9   0 61.3622 9.19769   1
  -2   9   0 54.6152 8.35032   1
   1  -9   0 66.8353 10.3716   6
   1  -9   0 61.8768 9.47056   1
  -1   9   0 67.3119 11.1108   6
  -1   9   0 61.3464 9.25858   1
   0   9   0 171.461 14.7491   1
   0   9   0 181.848 16.4792   6
   6 -10   0 45.6973 10.5414   6
   6 -10   0 43.7781 7.89899   1
  -6  10   0 37.8804 7.98840   3
   5 -10   0 0.92848 3.14619   6
   5 -10   0 0.48831 2.46066   1
  -5  10   0 0.41201 2.43411   3
   4 -10   0 136.742 13.6841   6
   4 -10   0 146.534 13.1362   1
   3 -10   0 66.3993 11.0437   6
   3 -10   0 69.3193 10.2593   1
   3 -10   1 7.92927 4.31591   1
   3 -10   1 3.13899 3.47882   6
  -4  10  -1 71.2557 10.0348   3
   4 -10   1 89.4580 11.3203   1
   4 -10   1 75.4538 11.3159   6
  -5  10  -1 19.3811 5.43971   3
   5 -10   1 14.2511 5.45679   6
   5 -10   1 14.7843 5.30109   1
  -6  10  -1 16.2402 5.42340   3
   6 -10   1 22.1220 5.76785   1
   6 -10   1 21.4591 7.45069   6
   0   9  -1 169.758 14.8176   1
   0   9  -1 169.194 16.0332   6
   0  -9   1 181.258 21.4386   1
  -1   9  -1 0.85315 3.00427   6
  -1   9  -1 5.48196 3.23519   1
   1  -9   1 3.57601 2.96754   6
   1  -9   1 0.38006 2.23221   1
  -2   9  -1 5.96251 3.44721   1
   2  -9   1 0.72565 2.83984   6
   2  -9   1 -1.5790 2.04624   1
   3  -9   1 3.38677 2.72186   1
   3  -9   1 2.80811 3.03817   6
  -4   9  -1 -0.0959 1.62647   3
   4  -9   1 0.53333 2.49859   6
   4  -9   1 1.19902 2.26312   1
  -5   9  -1 0.10368 2.02186   3
   5  -9   1 -1.6885 1.89122   6
   5  -9   1 0.94873 1.86605   1
  -6   9  -1 6.32035 3.33655   3
   6  -9   1 9.47511 4.79034   6
   6  -9   1 10.7908 3.85230   1
   1   8  -1 -1.0173 2.34457   6
   1   8  -1 3.04368 2.66816   1
   0   8  -1 43.8919 7.76524   1
   0   8  -1 40.3141 8.27622   6
   0  -8   1 37.7465 6.99472   1
   0  -8   1 39.6959 7.34277   6
  -1   8  -1 275.216 19.0518   6
  -1   8  -1 290.663 18.2722   1
   1  -8   1 269.105 18.4119   6
   1  -8   1 280.209 17.6067   1
  -2   8  -1 261.612 17.4706   6
  -2   8  -1 259.441 16.4572   1
   2  -8   1 242.217 16.2183   1
   2  -8   1 245.646 16.9756   6
  -3   8  -1 18.3799 4.27226   1
   3  -8   1 13.6355 4.01715   1
   3  -8   1 9.24002 3.63920   6
  -4   8  -1 15.6246 4.08766   3
   4  -8   1 8.91461 3.49821   6
   4  -8   1 15.3633 4.02714   1
  -5   8  -1 38.7573 6.68121   3
   5  -8   1 35.5312 6.80476   6
   5  -8   1 35.2062 6.15445   1
  -7   8  -1 208.605 15.1813   3
   7  -8   1 196.861 13.1559   1
  -8   8  -1 102.440 12.4194   3
   8  -8   1 159.483 10.9817   1
   3   7  -1 12.1153 5.04533   1
   3   7  -1 15.6399 5.84221   6
   2   7  -1 2.23278 2.79308   1
   2   7  -1 2.46668 3.18643   6
   1   7  -1 533.240 28.6823   1
   1   7  -1 546.166 30.0556   6
  -1  -7   1 538.255 27.3934   1
  -1  -7   1 537.839 28.2402   6
   0   7  -1 1351.32 62.4280   6
   0   7  -1 1472.97 61.8470   1
   0  -7   1 1403.29 61.4806   6
   0  -7   1 1444.89 60.3829   1
  -1   7  -1 104.383 11.8190   6
  -1   7  -1 80.0764 9.54784   1
   1  -7   1 74.9779 9.25342   6
   1  -7   1 94.4456 8.62741   1
  -2   7  -1 573.776 28.5078   6
  -2   7  -1 548.696 27.2261   1
   2  -7   1 542.757 27.2088   1
   2  -7   1 541.112 27.8331   6
  -3   7  -1 190.974 13.1075   6
  -3   7  -1 217.314 12.9031   1
   3  -7   1 185.326 13.2298   6
   3  -7   1 189.487 12.6545   1
  -4   7  -1 61.2870 7.94478   3
  -4   7  -1 60.2830 5.76582   1
   4  -7   1 58.7278 7.25147   1
   4  -7   1 66.2592 8.56240   6
  -5   7  -1 20.1081 4.52459   3
   5  -7   1 26.0307 4.71793   1
  -6   7  -1 386.297 21.7485   3
   6  -7   1 388.289 19.8324   1
   6  -7   1 382.007 19.9518   6
  -7   7  -1 52.2497 7.91589   3
   7  -7   1 50.1597 6.19030   1
  -8   7  -1 7.57631 3.63431   3
   8  -7   1 13.4707 3.80676   6
   8  -7   1 11.0709 3.04558   1
   4   6  -1 3.47885 4.25561   6
   4   6  -1 -0.3052 2.42461   1
   3   6  -1 285.402 18.9225   1
   3   6  -1 306.441 20.4209   6
   2   6  -1 74.2245 9.75247   1
   2   6  -1 61.9399 9.22960   6
  -2  -6   1 92.6038 7.90882   1
   1   6  -1 310.351 19.4572   6
   1   6  -1 311.225 18.5861   1
  -1  -6   1 321.291 17.5727   1
  -1  -6   1 311.389 18.2385   6
   0   6  -1 1557.86 66.3317   6
   0   6  -1 1553.24 65.2651   1
   0  -6   1 1523.67 65.2775   6
   0  -6   1 1574.08 64.3867   1
  -1   6  -1 43.6483 6.13207   1
  -1   6  -1 42.0830 6.59639   6
   1  -6   1 38.0281 5.78529   1
   1  -6   1 30.9228 5.26000   6
  -2   6  -1 28.7406 5.04470   6
   2  -6   1 22.2502 4.50178   6
   2  -6   1 33.2929 5.05584   1
  -3   6  -1 353.799 17.4902   1
  -3   6  -1 330.267 17.9275   6
   3  -6   1 339.775 18.3091   6
   3  -6   1 347.241 17.5709   2
   3  -6   1 333.049 17.6814   1
  -4   6  -1 303.560 16.4898   3
  -4   6  -1 297.344 14.7072   1
   4  -6   1 294.995 15.5560   1
   4  -6   1 279.851 15.2689   2
   4  -6   1 298.133 16.2826   6
  -5   6  -1 2.52314 2.18625   3
   5  -6   1 4.74850 1.99987   1
   5  -6   1 2.24228 1.61911   2
  -6   6  -1 18.2586 4.48082   3
   6  -6   1 12.4470 2.81432   4
   6  -6   1 19.6535 2.86485   1
  -7   6  -1 96.5809 9.07596   3
   7  -6   1 100.419 7.54497   6
   7  -6   1 95.2645 7.00399   1
   8  -6   1 18.5594 3.98970   6
   8  -6   1 9.59322 2.95758   1
   5   5  -1 249.160 18.7307   6
   5   5  -1 224.186 16.3685   1
   4   5  -1 17.1819 5.25810   6
   4   5  -1 31.8435 6.42781   1
   3   5  -1 18.8897 5.18668   6
   3   5  -1 13.8321 4.10641   1
   2   5  -1 5700.24 221.896   1
   2   5  -1 5791.46 223.177   6
  -2  -5   1 5878.80 220.867   6
  -2  -5   1 5742.95 220.559   6
  -2  -5   1 5649.25 219.573   1
   1   5  -1 14.3151 3.87927   1
   1   5  -1 9.34114 3.17041   6
  -1  -5   1 13.2701 3.19724   1
  -1  -5   1 12.0692 3.23104   6
   0   5  -1 -0.6959 1.00168   1
   0   5  -1 1.16274 1.44333   6
   0  -5   1 -0.0857 1.02964   6
   0  -5   1 0.66471 1.17961   1
  -1   5  -1 240.889 14.4122   6
  -1   5  -1 251.883 13.9682   1
   1  -5   1 263.667 13.9638   1
   1  -5   1 246.719 14.1882   6
  -2   5  -1 1934.67 73.6926   1
  -2   5  -1 1832.79 74.2453   6
   2  -5   1 1850.86 74.1090   6
   2  -5   1 1728.81 73.0261   2
   2  -5   1 1883.79 73.6233   1
  -3   5  -1 958.128 39.7851   6
  -3   5  -1 926.536 39.0060   1
  -3   5  -1 965.315 40.1106   3
   3  -5   1 911.234 39.6654   1
   3  -5   1 972.943 40.1591   6
   3  -5   1 935.460 39.2541   2
   3  -5   1 940.604 39.2956   1
  -4   5  -1 193.706 9.56212   1
  -4   5  -1 188.873 11.4774   3
  -4   5  -1 201.974 10.2066   6
   4  -5   1 180.184 8.32157   4
   4  -5   1 180.570 10.2373   1
   4  -5   1 185.593 10.6616   6
   4  -5   1 194.746 10.5032   2
   4  -5   1 196.595 10.8908   1
   4  -5   1 179.947 10.9986   6
  -5   5  -1 309.159 16.8856   3
   5  -5   1 305.619 15.6932   6
   5  -5   1 310.958 14.7419   1
   5  -5   1 319.239 15.1517   6
   5  -5   1 288.571 15.0950   1
   5  -5   1 323.007 15.0472   2
  -6   5  -1 20.9558 4.33566   3
   6  -5   1 18.3658 3.08285   1
   6  -5   1 21.2455 3.11767   6
   6  -5   1 23.3204 3.30613   2
  -7   5  -1 -0.3612 1.79838   3
   7  -5   1 2.21721 1.35543   6
   7  -5   1 0.52886 1.10997   1
   8  -5   1 55.9028 5.14425   6
   8  -5   1 53.8411 4.79986   1
   5   4  -1 10.2915 3.60174   1
   5   4  -1 5.45001 3.41005   6
   4   4  -1 271.973 17.8026   6
   4   4  -1 297.297 17.3674   1
   3   4  -1 553.928 26.9688   1
   3   4  -1 542.571 27.6903   6
  -3  -4   1 549.977 24.5745   1
   2   4  -1 538.761 27.0321   6
   2   4  -1 559.167 26.5057   1
  -2  -4   1 541.675 24.8052   1
  -2  -4   1 552.746 25.4190   6
  -2  -4   1 585.332 25.7685   6
   1   4  -1 35.2322 5.05119   1
   1   4  -1 23.6838 4.34600   6
  -1  -4   1 29.8229 4.47865   6
  -1  -4   1 30.9384 4.10461   1
   0   4  -1 130.580 8.61902   1
   0   4  -1 136.076 9.15592   6
   0  -4   1 132.129 8.29457   1
   0  -4   1 129.508 8.63873   6
  -1   4  -1 420.146 19.4648   6
  -1   4  -1 395.071 18.7826   1
   1  -4   1 399.372 18.4441   2
   1  -4   1 404.292 19.0875   6
   1  -4   1 389.807 18.4844   1
  -2   4  -1 302.548 13.9887   1
  -2   4  -1 299.006 14.4169   6
   2  -4   1 273.987 14.0289   1
   2  -4   1 277.824 13.6669   1
   2  -4   1 276.405 14.1616   6
   2  -4   1 272.962 13.6096   2
  -3   4  -1 23.6108 3.65454   3
  -3   4  -1 21.9468 2.92383   1
   3  -4   1 24.4950 3.47179   1
   3  -4   1 23.0618 1.65256   4
   3  -4   1 21.5508 2.99708   2
   3  -4   1 22.6850 3.53518   6
   3  -4   1 22.8490 3.10471   1
   3  -4   1 18.9488 2.95456   6
  -4   4  -1 1.18821 0.51624   1
   4  -4   1 -0.0883 0.65055   6
   4  -4   1 3.78943 1.50350   6
   4  -4   1 -0.0806 0.71269   2
   4  -4   1 -1.6867 1.09137   1
   4  -4   1 1.86292 1.08172   1
  -5   4  -1 72.7528 6.39312   3
   5  -4   1 75.1934 5.07198   6
   5  -4   1 78.2791 4.71782   1
   5  -4   1 75.1245 5.36855   6
   5  -4   1 72.9926 5.10310   1
   5  -4   1 75.8332 4.95308   2
  -6   4  -1 2.00672 1.85484   3
   6  -4   1 2.05314 1.19484   6
   6  -4   1 2.62679 1.09378   1
   6  -4   1 1.17740 0.97441   1
   6  -4   1 2.50120 1.03994   2
   6  -4   1 1.43233 0.95059   6
   7  -4   1 308.098 14.6150   6
   7  -4   1 308.180 14.1504   1
   8  -4   1 26.5394 3.47984   1
   8  -4   1 17.1604 3.08614   6
   6   3  -1 344.063 16.3918   6
   4   3  -1 181.177 12.5842   1
   4   3  -1 238.546 12.8588   6
   3   3  -1 702.076 32.5049   6
   3   3  -1 717.374 31.9091   1
  -3  -3   1 698.331 30.1865   6
  -3  -3   1 718.214 29.7091   1
  -3  -3   1 722.963 29.3925   2
   2   3  -1 618.443 26.3648   1
   2   3  -1 577.817 26.7388   6
  -2  -3   1 583.353 25.3530   6
  -2  -3   1 587.756 26.7548   5
  -2  -3   1 551.961 24.6594   1
  -2  -3   1 561.691 25.1630   6
   1   3  -1 -1.5467 0.84840   1
   1   3  -1 0.00035 1.27123   6
  -1  -3   1 1.10727 1.29658   5
  -1  -3   1 -1.3688 0.74623   6
  -1  -3   1 -0.6097 0.83067   1
   0   3  -1 2205.15 85.4349   6
   0   3  -1 2229.72 85.0376   1
   0  -3   1 2263.50 84.7087   1
   0  -3   1 2137.80 84.3863   2
   0  -3   1 2089.54 84.8560   6
  -1   3  -1 181.522 9.70138   6
  -1   3  -1 182.327 9.38300   1
   1  -3   1 178.486 9.47930   6
   1  -3   1 171.040 9.08842   1
   1  -3   1 183.406 9.45021   1
   1  -3   1 178.351 9.08173   2
  -2   3  -1 4.17304 1.21133   1
  -2   3  -1 2.38885 1.18995   3
  -2   3  -1 4.47037 1.28323   6
   2  -3   1 3.23955 1.09241   2
   2  -3   1 3.30493 1.19407   6
   2  -3   1 1.92173 0.95452   1
   2  -3   1 4.49596 1.21427   1
   2  -3   1 4.67695 0.43132   4
   2  -3   1 5.95178 1.54101   6
  -3   3  -1 228.249 11.3684   3
  -3   3  -1 214.794 9.49249   1
  -3   3  -1 215.136 9.84197   6
   3  -3   1 212.356 10.4921   6
   3  -3   1 216.376 10.0336   2
   3  -3   1 211.266 10.2153   1
   3  -3   1 207.893 9.97276   6
   3  -3   1 220.795 9.76132   1
   4  -3   1 497.905 21.4431   6
   4  -3   1 506.426 21.2507   1
   4  -3   1 514.488 21.1142   6
   4  -3   1 500.299 20.9660   2
   4  -3   1 537.268 20.8447   1
  -5   3  -1 40.2302 5.47961   3
   5  -3   1 43.9118 3.36775   6
   5  -3   1 47.5421 3.22686   1
   5  -3   1 40.0844 3.15878   1
   5  -3   1 41.9404 3.36529   6
   5  -3   1 47.9717 3.19465   2
   6  -3   1 552.451 22.5686   2
   6  -3   1 549.576 22.8720   1
   6  -3   1 553.443 23.1367   6
   6  -3   1 558.519 23.2970   6
   6  -3   1 545.465 22.8008   1
   7  -3   1 55.1622 4.47705   6
   7  -3   1 53.3392 4.20724   1
   8  -3   1 86.4431 6.41178   6
   8  -3   1 76.5052 10.4277   5
   8  -3   1 97.2241 6.35407   1
   7   2  -1 108.823 7.45289   6
   6   2  -1 23.8796 4.37894   6
   6   2  -1 19.1747 5.10416   5
   6   2  -1 14.0707 4.08502   1
   5   2  -1 37.6517 2.97086   6
   5   2  -1 7.63273 3.06756   5
   4   2  -1 938.674 38.2227   6
   4   2  -1 828.927 37.3124   6
   4   2  -1 854.157 37.3951   1
   4   2  -1 908.235 39.3923   5
   4   2  -1 852.385 36.9260   1
  -4  -2   1 885.716 36.6286   6
  -4  -2   1 869.757 34.4139   1
   3   2  -1 104.385 7.27514   6
   3   2  -1 84.8058 6.34897   6
   3   2  -1 87.2066 6.45531   1
   3   2  -1 93.6464 6.29838   1
   3   2  -1 93.8242 7.21803   5
  -3  -2   1 78.7758 5.30414   6
  -3  -2   1 99.7140 5.17442   2
   2   2  -1 30.7645 3.81985   6
   2   2  -1 28.2350 3.66598   1
   2   2  -1 30.7181 4.07312   6
   2   2  -1 30.7873 3.56506   1
  -2  -2   1 22.2035 3.43685   5
  -2  -2   1 27.1520 2.74154   6
  -2  -2   1 34.5093 2.76949   1
  -2  -2   1 29.3945 2.81471   6
   1   2  -1 144.728 8.10683   6
   1   2  -1 155.005 8.20527   1
   1   2  -1 151.754 8.46311   6
   1   2  -1 145.661 7.85553   1
  -1  -2   1 151.894 8.31829   5
  -1  -2   1 155.494 8.07443   6
  -1  -2   1 162.755 7.80588   1
   0   2  -1 1178.02 49.1553   6
   0   2  -1 1256.28 48.6681   1
   0   2  -1 1219.16 49.6447   6
   0   2  -1 1261.53 48.9398   1
   0  -2   1 1268.62 48.8977   1
   0  -2   1 1249.35 48.6758   1
   0  -2   1 1274.94 49.0258   6
   0  -2   1 1269.42 48.6238   2
  -1   2  -1 75.7529 4.45991   1
  -1   2  -1 72.9856 4.60243   6
  -1   2  -1 74.8994 4.11885   1
   1  -2   1 73.7498 4.41522   6
   1  -2   1 83.3890 4.59201   1
   1  -2   1 84.3547 4.43112   2
   1  -2   1 68.3219 4.13527   1
   1  -2   1 76.1089 4.67969   6
  -2   2  -1 744.447 29.3676   1
  -2   2  -1 757.865 30.8107   3
   2  -2   1 774.070 29.6537   1
   2  -2   1 760.505 30.3017   6
   2  -2   1 758.343 29.8729   6
   2  -2   1 769.090 30.0862   1
   2  -2   1 782.682 29.9291   2
   3  -2   1 65.5390 3.81904   1
   3  -2   1 70.2627 3.69728   1
   3  -2   1 67.1033 3.99509   6
   3  -2   1 70.4733 3.77793   2
   3  -2   1 70.1916 3.89041   6
   4  -2   1 2735.04 104.505   1
   4  -2   1 2716.18 104.523   1
   4  -2   1 2666.55 104.692   6
   4  -2   1 2859.52 104.406   2
   4  -2   1 2854.96 104.909   6
   5  -2   1 18.5294 2.20202   1
   5  -2   1 18.9197 2.11723   2
   5  -2   1 17.8245 2.31290   6
   5  -2   1 17.2336 2.32679   1
   5  -2   1 17.6505 2.48243   6
   6  -2   1 268.375 12.4322   6
   6  -2   1 247.359 11.9348   1
   6  -2   1 236.976 11.3344   2
   7  -2   1 9.23030 2.05769   6
   7  -2   1 4.57395 2.68104   5
   7  -2   1 4.55289 1.77486   1
   8  -2   1 34.2373 4.53509   1
   8  -2   1 36.2825 4.94045   6
   8  -2   1 28.3012 6.65997   5
   7   1  -1 3.97383 1.73696   1
   7   1  -1 1.41062 2.50311   5
   7   1  -1 -0.1677 1.57829   6
   6   1  -1 -1.6716 1.26540   1
   6   1  -1 1.91612 2.04773   5
   5   1  -1 0.86894 1.54553   5
   4   1  -1 178.017 10.1092   6
   4   1  -1 165.405 9.07478   1
   4   1  -1 170.108 10.9488   5
   4   1  -1 193.018 9.91118   1
   4   1  -1 175.371 9.51750   6
   3   1  -1 45.9021 3.60399   6
   3   1  -1 43.7146 3.35137   1
   3   1  -1 37.9399 3.49264   1
   3   1  -1 46.4050 4.43419   5
   3   1  -1 46.4484 3.95304   6
  -3  -1   1 44.8397 2.56077   1
  -3  -1   1 42.6677 2.74040   6
  -3  -1   1 43.4636 2.49216   2
  -3  -1   1 43.5820 4.40626   5
   2   1  -1 1107.62 43.5293   1
   2   1  -1 1100.32 43.8873   1
   2   1  -1 1136.33 44.2899   6
   2   1  -1 1106.54 43.8766   6
   2   1  -1 1147.29 44.8897   5
  -2  -1   1 1091.56 43.1737   6
  -2  -1   1 1116.34 44.8857   5
  -2  -1   1 1150.18 42.8524   2
  -2  -1   1 1137.79 43.8352   1
   1   1  -1 1212.37 46.9251   6
   1   1  -1 1258.97 46.7611   2
   1   1  -1 1255.53 46.9630   1
   1   1  -1 1271.80 47.2162   6
   1   1  -1 1183.19 46.7116   1
  -1  -1   1 1186.62 46.5490   2
  -1  -1   1 1218.00 46.8046   6
  -1  -1   1 1159.17 46.4937   1
  -1  -1   1 1253.17 46.7580   1
  -1  -1   1 1170.54 47.2134   5
  -1   1  -1 204.035 8.75912   6
  -1   1  -1 206.772 8.86802   1
  -1   1  -1 219.675 8.67143   1
   1  -1   1 214.584 8.82408   6
   1  -1   1 215.575 8.69250   1
   1  -1   1 216.988 9.02549   6
   1  -1   1 206.261 8.75644   2
   1  -1   1 219.224 8.91910   1
   1  -1   1 200.924 9.13674   3
  -2   1  -1 2288.42 84.8161   1
  -2   1  -1 2222.02 84.8296   1
  -2   1  -1 2230.30 84.6827   2
  -2   1  -1 2280.76 85.0406   6
   2  -1   1 2242.83 85.0832   2
   2  -1   1 2268.09 85.5545   6
   2  -1   1 2317.87 85.1851   1
   2  -1   1 2229.78 85.2606   1
   2  -1   1 2241.34 85.2284   6
   3  -1   1 435.171 17.7645   2
   3  -1   1 443.245 18.0524   6
   3  -1   1 454.450 17.9290   1
   3  -1   1 452.376 18.4216   6
   3  -1   1 456.755 18.1892   1
   4  -1   1 1501.84 56.3365   1
   4  -1   1 1473.83 55.7071   2
   4  -1   1 1439.27 56.6185   6
   4  -1   1 1421.85 55.8694   1
   4  -1   1 1436.60 56.1021   6
   5  -1   1 40.0401 3.43445   6
   5  -1   1 39.9466 3.72768   6
   5  -1   1 39.7344 3.09133   2
   5  -1   1 45.2406 3.41773   1
   5  -1   1 42.8537 6.22889   5
   5  -1   1 41.1240 3.28080   1
   6  -1   1 278.444 16.9866   5
   6  -1   1 257.910 12.6088   2
   6  -1   1 272.648 13.8086   6
   6  -1   1 273.840 13.4293   1
   7  -1   1 -0.1728 1.66045   5
   7  -1   1 -0.0595 1.24826   6
   7  -1   1 -1.6129 0.97915   1
   8  -1   1 88.2041 7.70856   6
   8  -1   1 97.7484 7.51534   1
   8   0  -1 118.731 9.45216   6
   8   0  -1 133.208 9.37575   1
   7   0  -1 11.7610 2.99705   1
   7   0  -1 16.9855 3.58850   6
   7   0  -1 13.3857 4.05502   5
   6   0  -1 159.227 9.27545   1
   6   0  -1 152.117 11.6273   5
   6   0  -1 161.678 9.65429   6
   5   0  -1 283.268 15.7135   5
   5   0  -1 291.932 13.6503   6
   5   0  -1 258.583 12.4955   1
   5   0  -1 269.604 13.1481   1
   5   0  -1 276.798 13.0672   6
   5   0  -1 277.421 13.0344   6
   4   0  -1 923.589 35.7899   1
   4   0  -1 917.447 38.2538   5
   4   0  -1 912.212 36.1458   6
   4   0  -1 841.771 35.0574   1
   4   0  -1 884.208 35.1776   1
   4   0  -1 918.148 35.0155   2
   4   0  -1 889.702 35.4594   6
   3   0  -1 163.512 7.87084   6
   3   0  -1 174.302 7.22214   2
   3   0  -1 168.431 7.67010   1
   3   0  -1 159.021 9.12607   5
   3   0  -1 167.171 7.50630   6
   3   0  -1 169.693 7.30868   1
   2   0  -1 4080.50 153.237   5
   2   0  -1 4020.02 152.489   3
   1   0  -1 134.045 5.14930   1
   1   0  -1 133.860 5.21582   6
   1   0  -1 130.022 5.63312   3
   1   0  -1 129.991 5.18425   1
   1   0  -1 133.024 5.26814   6
   1   0  -1 138.518 5.91276   5
   1   0  -1 132.676 5.13495   2
  -1   0   1 135.708 5.91466   5
  -1   0   1 134.978 5.61661   3
  -1   0  -1 1510.41 61.2133   6
  -1   0  -1 1660.82 61.0291   1
  -1   0  -1 1637.15 61.3454   1
  -1   0  -1 1573.95 61.3359   6
   1   0   1 1573.87 61.3458   6
   1   0   1 1664.72 61.2254   2
   1   0   1 1640.19 61.1034   1
   1   0   1 1647.01 61.2319   1
   1   0   1 1647.46 61.2738   6
  -2   0  -1 842.368 31.5505   2
  -2   0  -1 818.346 32.0519   1
  -2   0  -1 820.663 31.7611   6
   2   0   1 843.501 32.6406   6
   2   0   1 818.088 31.7857   2
   2   0   1 796.707 32.0809   6
   2   0   1 827.362 31.9497   1
   2   0   1 825.225 32.3293   1
  -3   0  -1 2184.00 82.5191   2
  -3   0  -1 2167.25 82.8242   6
  -3   0  -1 2169.70 82.5695   1
   3   0   1 2276.14 83.2998   2
   3   0   1 2130.24 85.9150   5
   3   0   1 2205.36 83.7446   6
   3   0   1 2156.59 83.3997   1
   3   0   1 2238.13 84.4250   6
   3   0   1 2211.73 83.9984   1
   4   0   1 187.573 8.99813   2
   4   0   1 183.252 11.5985   5
   4   0   1 193.927 9.29665   1
   4   0   1 188.257 10.0871   6
   4   0   1 183.253 9.65550   1
   4   0   1 182.396 9.52058   6
   5   0   1 198.856 10.6596   6
   5   0   1 192.054 12.7636   5
   5   0   1 186.833 9.65743   2
   5   0   1 201.613 10.5613   1
   5   0   1 182.245 10.3731   6
   5   0   1 175.424 9.79743   1
   6   0   1 67.1805 9.05981   5
   6   0   1 73.2773 5.96606   1
   6   0   1 75.4639 6.19334   6
   7   0   1 114.425 8.41561   1
   7   0   1 92.8130 11.7205   5
   7   0   1 120.718 8.67305   6
   8  -1  -1 115.130 8.24504   6
   8  -1  -1 122.417 8.06096   1
   8  -1  -1 115.683 11.2745   5
   7  -1  -1 15.7095 4.29373   5
   7  -1  -1 13.2264 2.80617   6
   7  -1  -1 12.3370 2.59230   1
   6  -1  -1 84.9571 5.44404   6
   6  -1  -1 97.0718 5.70148   1
   6  -1  -1 91.3299 5.92311   6
   6  -1  -1 94.7302 5.15062   2
   6  -1  -1 87.8935 7.97921   5
   6  -1  -1 81.2096 5.13103   1
   5  -1  -1 853.073 34.0442   6
   5  -1  -1 860.811 34.2684   1
   5  -1  -1 894.030 34.6869   6
   5  -1  -1 851.463 33.7773   1
   5  -1  -1 880.232 33.6428   2
   5  -1  -1 882.411 37.9454   5
   4  -1  -1 272.964 10.9089   1
   4  -1  -1 284.583 14.1503   5
   4  -1  -1 272.094 11.2144   1
   4  -1  -1 272.441 11.0897   6
   4  -1  -1 270.297 10.8309   2
   4  -1  -1 279.147 11.4968   6
  -3   1   1 1130.65 44.6597   3
   1  -1  -1 2299.36 82.5797   1
  -1   1   1 2086.65 83.1752   4
   0  -1  -1 5.25419 1.04338   6
   0  -1  -1 8.56160 1.35991   1
   0  -1  -1 4.18643 0.97389   6
   0  -1  -1 6.11749 1.07757   1
   0  -1  -1 4.37532 0.92310   5
   0  -1  -1 5.06516 1.15999   6
   0   1   1 5.99755 1.03923   5
   0   1   1 3.75413 0.91573   1
   0   1   1 3.74118 0.97030   6
   0   1   1 5.56914 1.10491   6
   0   1   1 7.29368 1.25613   1
  -1  -1  -1 4377.92 157.374   2
  -1  -1  -1 4312.97 158.944   5
  -1  -1  -1 4126.61 157.117   1
  -1  -1  -1 4164.35 157.595   6
  -1  -1  -1 4072.36 157.867   1
   1   1   1 3973.50 157.179   6
   1   1   1 4274.26 158.490   6
   1   1   1 4061.89 157.779   1
   1   1   1 4215.72 158.571   5
   1   1   1 4151.46 157.754   1
  -2  -1  -1 1989.98 74.7191   6
  -2  -1  -1 1991.11 74.2574   2
  -2  -1  -1 2086.35 74.5312   1
   2   1   1 1976.66 76.4570   5
   2   1   1 1870.05 75.1986   6
   2   1   1 1858.79 75.2037   6
   2   1   1 1970.72 75.0211   1
   2   1   1 1950.07 75.4326   1
   2   1   1 1910.39 75.8399   6
   2   1   1 1942.62 74.9180   1
  -3  -1  -1 322.782 13.8900   6
  -3  -1  -1 307.261 13.3502   2
   3   1   1 307.049 14.7969   6
   3   1   1 322.642 16.3442   5
   3   1   1 314.793 14.4421   1
   3   1   1 336.104 14.6834   1
   3   1   1 309.478 15.3945   6
   3   1   1 318.425 14.9850   1
   3   1   1 319.818 14.9148   6
  -4  -1  -1 19.2928 1.85014   1
  -4  -1  -1 21.4347 2.43453   6
   4   1   1 21.2406 3.40641   6
   4   1   1 22.1106 3.22793   1
   4   1   1 20.3530 3.37606   6
   4   1   1 19.4364 3.27543   1
   4   1   1 30.8187 5.14518   5
   5   1   1 6.89070 3.03254   5
   5   1   1 6.55744 2.17678   1
   6   1   1 33.1352 6.70484   5
   6   1   1 40.0044 5.36913   1
   7   1   1 88.3883 6.84635   6
   8  -2  -1 47.1690 4.20143   1
   8  -2  -1 53.3400 4.59823   6
   8  -2  -1 58.1875 8.62752   5
   7  -2  -1 0.59951 1.55678   5
   7  -2  -1 0.39761 0.89127   6
   7  -2  -1 1.73068 0.83447   2
   7  -2  -1 0.65356 1.00237   1
   6  -2  -1 119.134 6.47556   6
   6  -2  -1 126.896 5.91646   2
   6  -2  -1 131.540 9.71985   5
   6  -2  -1 126.795 6.25184   6
   6  -2  -1 127.729 6.07824   1
   6  -2  -1 135.263 6.41976   1
   5  -2  -1 682.751 27.0888   6
   5  -2  -1 704.483 27.3195   6
   5  -2  -1 689.249 26.9325   1
   5  -2  -1 703.011 26.8625   2
   5  -2  -1 724.499 27.1125   1
  -4   2   1 26.3321 3.57927   3
   3  -2  -1 13.6450 0.92534   1
   3  -2  -1 13.5846 1.09225   6
   3  -2  -1 12.6560 0.94584   6
  -3   2   1 12.3934 2.36918   3
   1  -2  -1 4262.28 160.761   1
   1  -2  -1 4076.97 160.217   6
   1  -2  -1 4363.96 160.782   6
   1  -2  -1 4109.20 160.053   1
  -1   2   1 4377.68 160.367   1
  -1   2   1 4252.91 160.435   1
  -1   2   1 4297.28 160.141   6
   0  -2  -1 1060.89 41.6268   1
   0  -2  -1 1075.91 41.1951   1
   0  -2  -1 1017.58 41.1466   5
   0  -2  -1 1048.22 41.4440   6
   0   2   1 1073.68 41.9341   6
   0   2   1 1019.15 41.2848   1
  -1  -2  -1 58.0647 4.20125   6
  -1  -2  -1 63.1380 4.16909   1
  -1  -2  -1 58.5996 4.01207   1
  -1  -2  -1 69.9798 4.90479   5
  -1  -2  -1 61.4724 4.31275   6
   1   2   1 58.0753 4.48440   5
   1   2   1 54.3288 4.11373   1
   1   2   1 62.5014 4.84291   6
   1   2   1 64.4905 4.60880   1
  -2  -2  -1 13.9937 2.14030   1
  -2  -2  -1 7.50604 1.79078   6
  -2  -2  -1 11.6012 2.78507   5
   2   2   1 9.72231 2.25373   1
   2   2   1 9.30412 2.26881   6
   2   2   1 12.8872 2.40999   1
   2   2   1 10.7734 2.58209   5
  -3  -2  -1 171.193 8.87499   1
  -3  -2  -1 182.185 9.34171   6
  -3  -2  -1 182.891 8.78661   2
   3   2   1 162.076 9.82096   1
   3   2   1 181.484 11.0052   6
   3   2   1 194.600 10.7079   1
   3   2   1 170.001 11.0162   5
  -4  -2  -1 286.090 14.1028   1
   4   2   1 280.117 17.2547   5
   4   2   1 366.150 17.1439   6
   4   2   1 322.468 16.4867   1
   5   2   1 4.63731 2.59193   5
   5   2   1 6.41446 2.46918   1
   6   2   1 26.5996 5.19922   1
   6   2   1 38.8694 7.58386   5
   9  -3  -1 23.9499 6.50037   5
   9  -3  -1 20.4233 3.24445   1
   9  -3  -1 24.7425 3.43599   6
   8  -3  -1 123.317 7.01455   6
   8  -3  -1 125.856 6.86055   1
   8  -3  -1 137.867 11.4241   5
   7  -3  -1 2.65157 2.34927   5
   7  -3  -1 2.35555 0.77016   2
   7  -3  -1 4.94662 1.19688   1
   7  -3  -1 1.73151 0.87331   6
   6  -3  -1 0.26559 0.57694   6
   6  -3  -1 0.25660 0.57144   1
   6  -3  -1 -0.3223 0.45568   6
   6  -3  -1 0.27916 0.54086   1
   6  -3  -1 -0.0145 0.37789   2
  -6   3   1 2.44189 1.72794   3
   5  -3  -1 84.3805 4.00818   1
   5  -3  -1 85.0648 4.38866   1
   5  -3  -1 79.8302 4.19801   2
   5  -3  -1 83.3366 4.21008   6
   5  -3  -1 79.2539 4.50756   6
  -5   3   1 74.8977 6.28666   3
   4  -3  -1 1787.41 70.3332   1
   4  -3  -1 1852.32 69.8940   1
   4  -3  -1 1895.11 70.2014   6
   4  -3  -1 1805.72 70.6439   6
  -4   3   1 1902.48 73.1648   3
   3  -3  -1 2.06312 1.09243   4
   3  -3  -1 4.34298 1.16609   6
   3  -3  -1 2.77751 1.09614   6
   3  -3  -1 4.14088 1.12224   1
   3  -3  -1 7.46397 1.34992   1
  -3   3   1 4.10083 0.76849   6
  -3   3   1 3.02580 1.43709   3
   2  -3  -1 1721.55 64.1148   6
   2  -3  -1 1732.11 63.8233   1
   2  -3  -1 1656.61 64.2746   6
   2  -3  -1 1617.99 63.8189   1
  -2   3   1 1640.18 63.3270   1
  -2   3   1 1621.81 63.7267   6
  -2   3   1 1539.13 62.7177   4
   1  -3  -1 145.243 7.89419   1
   1  -3  -1 144.296 8.09617   1
   1  -3  -1 139.264 8.08350   6
  -1   3   1 142.910 7.88345   1
  -1   3   1 142.202 8.23539   6
   0  -3  -1 259.838 13.6267   1
   0  -3  -1 313.356 14.4895   6
   0  -3  -1 285.873 14.0269   5
   0   3   1 317.493 15.1068   6
   0   3   1 307.249 14.4886   1
  -1  -3  -1 158.614 9.23945   6
  -1  -3  -1 155.499 9.15058   6
  -1  -3  -1 157.831 9.54593   5
  -1  -3  -1 173.366 8.98598   1
   1   3   1 159.164 9.97467   6
   1   3   1 160.125 9.51022   1
  -2  -3  -1 442.336 20.0064   6
  -2  -3  -1 416.292 18.9672   2
  -2  -3  -1 432.970 19.4214   1
   2   3   1 431.396 21.2015   5
   2   3   1 438.472 21.5225   6
   2   3   1 437.281 20.8317   1
  -3  -3  -1 60.5489 4.69611   1
  -3  -3  -1 53.7745 4.79498   6
  -3  -3  -1 56.6253 4.41495   2
   3   3   1 49.1823 6.64905   5
   3   3   1 58.8228 7.53949   6
   3   3   1 50.8943 6.21244   1
   4   3   1 157.891 12.2920   5
   4   3   1 174.397 11.6693   1
   4   3   1 172.647 12.2212   6
   5   3   1 44.9177 7.93705   5
   5   3   1 50.1635 7.30572   1
   9  -4  -1 35.8126 3.54880   6
   9  -4  -1 35.3680 6.98866   5
   9  -4  -1 37.2631 3.81001   1
   8  -4  -1 129.843 6.85659   1
   8  -4  -1 142.948 11.4789   5
   8  -4  -1 131.932 7.20283   6
   7  -4  -1 7.67960 1.49841   1
   7  -4  -1 8.65498 1.74893   6
   7  -4  -1 8.45207 1.49426   2
  -7   4   1 10.4144 3.20949   3
   6  -4  -1 372.619 15.8532   6
   6  -4  -1 373.230 15.7796   2
   6  -4  -1 367.286 16.2640   6
   6  -4  -1 367.425 15.4766   1
   6  -4  -1 358.452 15.9405   1
  -6   4   1 371.271 19.2409   3
   5  -4  -1 35.9008 3.00337   6
   5  -4  -1 32.9453 3.20517   6
   5  -4  -1 33.5325 3.08950   1
   5  -4  -1 35.2085 2.79529   1
   5  -4  -1 30.2563 3.22085   2
  -5   4   1 36.0744 5.31541   3
   4  -4  -1 3536.52 142.951   4
   4  -4  -1 3793.76 142.540   1
   4  -4  -1 3808.74 143.503   6
   4  -4  -1 3908.13 143.082   6
   4  -4  -1 3728.56 143.003   1
  -4   4   1 3807.41 145.035   3
   3  -4  -1 419.244 19.1453   6
   3  -4  -1 435.028 18.8657   1
   3  -4  -1 410.835 18.8261   6
   3  -4  -1 402.818 18.4324   1
   2  -4  -1 685.936 28.2766   1
   2  -4  -1 611.048 28.2073   1
   2  -4  -1 662.441 28.5862   6
  -2   4   1 674.120 26.0633   4
  -2   4   1 669.737 28.4917   6
  -2   4   1 666.990 27.8743   1
   1  -4  -1 85.0068 6.55796   6
   1  -4  -1 83.1826 6.22871   1
  -1   4   1 81.3182 6.19034   1
  -1   4   1 86.3483 6.75485   6
   0  -4  -1 28.5736 4.18589   5
   0  -4  -1 36.4301 4.44778   1
   0  -4  -1 33.3547 4.59854   6
   0   4   1 32.8177 4.44752   1
   0   4   1 39.2340 5.44962   6
  -1  -4  -1 10.6840 2.67737   6
  -1  -4  -1 7.01367 2.00028   1
  -1  -4  -1 7.94361 2.33983   6
   1   4   1 7.99021 2.58248   6
   1   4   1 9.69312 2.75303   1
  -2  -4  -1 971.057 39.7381   1
  -2  -4  -1 944.710 39.0927   2
  -2  -4  -1 923.435 40.2129   6
   2   4   1 960.898 41.3779   1
   2   4   1 917.104 42.1206   6
  -3  -4  -1 21.1791 3.61367   1
   3   4   1 18.3622 4.29221   1
   3   4   1 11.7253 3.95491   6
   4   4   1 153.286 11.8845   1
   4   4   1 169.213 13.0056   6
   5   4   1 14.3300 5.50671   6
   5   4   1 6.78372 3.49579   1
   9  -5  -1 11.4329 2.56605   1
   9  -5  -1 6.05856 3.25159   5
   9  -5  -1 14.2937 2.69589   6
   8  -5  -1 39.1481 3.73149   1
   8  -5  -1 36.2623 4.19129   6
  -8   5   1 33.8414 6.60835   3
   7  -5  -1 1.00254 1.02675   2
   7  -5  -1 -2.0228 0.66359   1
   7  -5  -1 0.69096 0.88406   6
  -7   5   1 -0.5697 1.61045   3
   6  -5  -1 846.578 34.0092   2
   6  -5  -1 823.944 34.8814   6
   6  -5  -1 861.893 33.9018   1
   6  -5  -1 714.400 35.5016   4
   6  -5  -1 885.318 34.5730   6
   6  -5  -1 833.039 34.5107   1
  -6   5   1 838.475 37.5424   3
   5  -5  -1 360.629 16.8986   4
   5  -5  -1 352.098 16.7039   1
   5  -5  -1 353.221 17.1588   1
   5  -5  -1 394.178 17.4305   6
   5  -5  -1 353.293 17.5814   6
  -5   5   1 382.383 19.3225   3
   4  -5  -1 45.5993 5.57366   6
   4  -5  -1 48.8368 4.67760   6
   4  -5  -1 48.1326 4.42938   1
   4  -5  -1 47.8161 5.36660   1
  -4   5   1 47.4941 3.41863   1
  -4   5   1 41.1845 5.53597   3
  -4   5   1 47.3215 3.80919   6
   3  -5  -1 128.538 8.90058   1
   3  -5  -1 142.669 9.30135   6
   3  -5  -1 158.605 9.15600   1
  -3   5   1 147.636 8.93568   6
  -3   5   1 145.473 8.39655   1
   2  -5  -1 16.2706 3.46213   6
   2  -5  -1 14.9647 3.18735   1
  -2   5   1 16.7827 3.25785   1
  -2   5   1 13.9067 3.10435   6
   1  -5  -1 153.386 9.95346   1
   1  -5  -1 158.270 10.5017   6
  -1   5   1 159.411 10.6923   6
  -1   5   1 161.989 10.1709   1
   0  -5  -1 224.557 12.9453   1
   0  -5  -1 237.057 13.6238   6
   0   5   1 230.511 13.5643   1
   0   5   1 215.308 13.9438   6
  -1  -5  -1 374.848 19.9901   6
  -1  -5  -1 375.334 19.9272   6
  -1  -5  -1 392.968 19.4107   1
   1   5   1 397.900 21.5667   6
   1   5   1 394.870 20.5561   1
  -2  -5  -1 68.5245 6.17873   1
  -2  -5  -1 62.1120 7.60437   6
   2   5   1 63.3390 9.12850   6
   2   5   1 45.1118 6.75244   1
   3   5   1 20.0425 4.82080   1
   3   5   1 17.2484 4.83883   6
   4   5   1 36.7221 7.74836   6
   4   5   1 29.9965 6.25211   1
   9  -6  -1 52.4444 6.26129   6
   9  -6  -1 51.7978 4.77181   1
   8  -6  -1 0.77232 1.49089   6
   8  -6  -1 0.08783 1.19931   1
   8  -6  -1 0.75764 2.68820   4
  -8   6   1 3.22852 2.50944   3
   7  -6  -1 61.9257 5.09387   1
   7  -6  -1 54.7207 5.10252   6
   7  -6  -1 49.0523 5.50121   4
  -7   6   1 47.5518 7.20205   3
   6  -6  -1 28.0367 3.93185   6
   6  -6  -1 22.1527 4.08123   2
   6  -6  -1 24.4475 3.55618   4
  -6   6   1 30.6670 5.76009   3
   5  -6  -1 1.72745 1.29250   2
   5  -6  -1 0.33961 1.07923   1
  -5   6   1 1.39252 1.74057   3
   4  -6  -1 426.056 20.2030   6
   4  -6  -1 364.387 19.7107   1
   4  -6  -1 407.426 19.7235   1
  -4   6   1 402.497 18.3601   1
   3  -6  -1 49.6268 6.05879   1
   3  -6  -1 38.6959 5.68279   6
  -3   6   1 54.0785 5.97587   1
  -3   6   1 51.1016 6.30682   6
   2  -6  -1 32.0246 5.21347   6
   2  -6  -1 43.3293 5.97871   1
  -2   6   1 33.7166 5.28658   6
  -2   6   1 29.5177 4.73973   1
   1  -6  -1 20.3652 4.22812   6
   1  -6  -1 24.0166 4.48859   1
  -1   6   1 19.5656 3.99461   1
  -1   6   1 27.3557 5.18486   6
   0  -6  -1 1112.91 47.4435   1
   0  -6  -1 1098.04 48.3226   6
   0   6   1 1070.70 47.9797   1
   0   6   1 1112.82 49.4617   6
  -1  -6  -1 469.230 22.7345   1
  -1  -6  -1 457.606 23.6071   6
  -1  -6  -1 425.241 23.1443   6
   1   6   1 456.821 24.0329   1
   1   6   1 409.239 24.4266   6
   2   6   1 162.742 13.5838   6
   2   6   1 155.056 12.3659   1
   3   6   1 47.0358 8.59527   6
   3   6   1 49.7110 8.56787   1
   8  -7  -1 118.816 8.70999   6
   8  -7  -1 72.7871 7.16817   1
  -8   7   1 99.8670 11.4475   3
   7  -7  -1 180.825 11.5887   1
   7  -7  -1 199.270 12.1997   6
  -7   7   1 186.479 13.9054   3
   6  -7  -1 1.56287 1.94749   1
  -6   7   1 2.81739 2.16816   3
   5  -7  -1 435.155 22.7272   1
   5  -7  -1 522.011 23.5933   6
  -5   7   1 444.637 24.2578   3
   4  -7  -1 176.403 12.6835   6
   4  -7  -1 192.842 12.4729   1
  -4   7   1 196.566 11.5934   1
   3  -7  -1 20.1805 4.61193   6
   3  -7  -1 16.6830 4.02664   1
  -3   7   1 16.3554 3.74708   1
  -3   7   1 21.7249 4.86256   6
   2  -7  -1 181.097 13.0433   6
   2  -7  -1 178.855 12.3301   1
  -2   7   1 161.695 12.4696   6
  -2   7   1 173.381 11.8858   1
   1  -7  -1 129.923 10.6720   6
   1  -7  -1 123.426 9.83910   1
  -1   7   1 111.016 10.5248   6
  -1   7   1 130.179 10.3400   1
   0  -7  -1 1092.57 49.3058   1
   0  -7  -1 1115.79 50.2730   6
   0   7   1 1131.56 50.2850   1
   0   7   1 1136.36 51.7612   6
  -1  -7  -1 159.829 11.8433   1
  -1  -7  -1 149.041 11.3928   1
  -1  -7  -1 150.995 12.4870   6
  -1  -7  -1 153.216 12.4326   6
   1   7   1 150.134 12.4433   1
   1   7   1 153.904 13.5964   6
   2   7   1 60.5572 9.61580   1
   2   7   1 65.8413 10.4548   6
   8  -8  -1 29.8863 5.86330   6
   8  -8  -1 30.2897 4.17977   1
  -8   8   1 21.8449 5.97613   3
   7  -8  -1 182.283 10.8038   1
  -7   8   1 128.107 12.1202   3
   5  -8  -1 21.1006 4.52901   1
   5  -8  -1 17.2452 4.90056   6
  -5   8   1 23.6219 5.56412   3
   4  -8  -1 -1.4342 1.40295   1
   4  -8  -1 0.04347 1.70604   6
   3  -8  -1 15.1052 4.05192   1
   3  -8  -1 13.7254 4.44753   6
  -3   8   1 22.0736 4.78064   1
   2  -8  -1 168.846 13.4577   6
   2  -8  -1 151.370 12.1883   1
  -2   8   1 167.795 12.4913   1
  -2   8   1 175.758 13.6546   6
   1  -8  -1 177.671 13.0364   1
   1  -8  -1 152.283 13.1287   6
  -1   8   1 179.253 14.4129   6
  -1   8   1 164.059 12.9155   1
   0  -8  -1 161.266 13.2901   6
   0  -8  -1 159.126 13.1263   6
   0  -8  -1 152.574 12.2761   1
   0   8   1 149.827 12.8682   1
   0   8   1 156.284 14.2321   6
   1   8   1 49.2656 8.86757   1
   1   8   1 48.7156 9.32045   6
  -7   9   1 8.65017 3.88406   3
   6  -9  -1 162.128 13.2796   6
   6  -9  -1 126.250 11.0598   1
  -6   9   1 134.094 12.1546   3
   5  -9  -1 104.130 9.91610   1
   5  -9  -1 110.499 13.6188   6
  -5   9   1 94.3584 11.7552   3
   4  -9  -1 149.195 12.4800   1
   4  -9  -1 155.056 13.3337   6
   3  -9  -1 270.915 17.4222   1
   3  -9  -1 232.322 17.5810   6
   2  -9  -1 170.176 14.5147   6
   2  -9  -1 215.496 14.8604   1
  -2   9   1 176.884 21.8788   1
   1  -9  -1 27.5798 6.23754   1
   1  -9  -1 24.6124 6.04081   6
  -1   9   1 27.6938 7.07672   6
  -1   9   1 27.9602 6.31456   1
   6 -10  -1 68.7979 12.2558   6
   6 -10  -1 63.0506 9.62961   1
  -6  10   1 61.0778 10.2799   3
   5 -10  -1 60.0496 11.1609   6
   5 -10  -1 44.2895 8.19990   1
  -5  10   1 41.2244 8.09890   3
   4 -10  -1 3.19768 3.72228   6
   4 -10  -1 0.26133 2.96316   1
   3 -10  -1 12.6005 5.00840   1
   3 -10  -1 16.0625 5.52033   6
   2 -10   2 40.8357 8.00441   1
   2 -10   2 38.9746 8.67166   6
   3 -10   2 161.342 14.6526   6
   3 -10   2 141.851 13.3512   1
  -4  10  -2 80.0125 10.8763   3
   4 -10   2 92.1644 12.2485   1
   4 -10   2 87.0501 12.2921   6
  -5  10  -2 134.185 12.1402   3
   5 -10   2 145.659 16.8048   6
   5 -10   2 134.850 12.5027   1
   0   9  -2 131.103 14.8478   1
   0   9  -2 144.678 16.9605   6
   0  -9   2 138.136 16.1645   1
  -1   9  -2 79.7137 12.0408   6
  -1   9  -2 90.6921 11.4408   1
   1  -9   2 81.3015 10.4388   1
   1  -9   2 79.4040 10.9828   6
  -2   9  -2 1.19582 1.92455   1
   2  -9   2 0.05474 2.21758   1
   2  -9   2 2.26416 2.78743   6
   3  -9   2 12.7420 4.60633   6
   3  -9   2 17.3129 4.89528   1
  -4   9  -2 38.3705 6.93326   3
   4  -9   2 45.5815 8.23476   6
   4  -9   2 45.9989 7.93693   1
  -5   9  -2 93.6475 11.4261   3
   5  -9   2 93.2623 12.0941   6
   5  -9   2 82.5842 10.3137   1
  -6   9  -2 15.4663 4.90746   3
   6  -9   2 11.6394 4.24040   1
   6  -9   2 17.4461 5.71966   6
  -7   9  -2 885.104 42.7987   3
   7  -9   2 864.278 41.2611   1
   1   8  -2 19.3626 6.26419   6
   1   8  -2 11.7508 4.53964   1
   0   8  -2 7.83808 3.59162   1
   0   8  -2 6.93912 3.92636   6
   0  -8   2 11.7689 4.31428   6
   0  -8   2 11.3326 4.01577   1
  -1   8  -2 -1.1779 2.10970   6
  -1   8  -2 1.27690 2.26126   1
   1  -8   2 -0.7131 1.93976   6
   1  -8   2 -2.1005 1.66129   1
  -2   8  -2 5.06656 3.19434   6
  -2   8  -2 7.19991 3.26012   1
   2  -8   2 6.80127 3.53304   6
   2  -8   2 9.31822 3.62223   1
  -3   8  -2 2.33437 2.14690   1
   3  -8   2 2.58203 2.22361   1
   3  -8   2 3.70333 2.71108   6
  -4   8  -2 277.487 16.7092   3
   4  -8   2 269.364 16.6773   1
   4  -8   2 253.527 17.0389   6
  -5   8  -2 342.648 19.6406   3
   5  -8   2 335.486 19.8848   6
   5  -8   2 310.441 18.8538   1
  -6   8  -2 299.424 18.5696   3
   6  -8   2 281.341 17.0793   1
  -7   8  -2 67.2436 9.39500   3
   7  -8   2 54.6147 7.60246   1
  -8   8  -2 -1.0624 2.53503   3
   8  -8   2 0.60459 1.99505   1
   3   7  -2 -1.4089 2.82079   6
   3   7  -2 -0.1151 2.41570   1
   2   7  -2 269.482 18.2807   1
   2   7  -2 259.403 19.0640   6
   1   7  -2 211.928 15.2214   1
   1   7  -2 205.121 15.9413   6
  -1  -7   2 184.502 13.2913   1
  -1  -7   2 209.662 14.5362   6
   0   7  -2 450.309 24.7960   1
   0   7  -2 445.552 25.6864   6
   0  -7   2 459.481 24.9969   6
   0  -7   2 450.554 23.8774   1
  -1   7  -2 0.88048 2.11454   6
  -1   7  -2 2.15245 2.20809   1
   1  -7   2 0.71647 1.96742   6
   1  -7   2 1.50742 1.88236   1
  -2   7  -2 668.490 32.5110   1
  -2   7  -2 682.745 33.6248   6
   2  -7   2 691.460 33.4801   6
   2  -7   2 715.739 32.8741   1
  -3   7  -2 234.255 14.1926   1
  -3   7  -2 220.095 14.6395   6
  -3   7  -2 227.948 13.9120   3
   3  -7   2 242.020 15.1627   6
   3  -7   2 229.665 14.3418   1
  -4   7  -2 388.267 19.8260   1
  -4   7  -2 383.505 20.7777   3
   4  -7   2 395.980 21.4633   6
   4  -7   2 414.703 21.0093   1
  -5   7  -2 3.24651 2.33766   3
   5  -7   2 7.22163 2.60465   1
   5  -7   2 18.2280 3.52985   6
  -7   7  -2 152.527 13.3520   3
   7  -7   2 236.625 11.9683   1
   7  -7   2 217.367 12.5725   6
  -8   7  -2 102.782 12.5128   3
   8  -7   2 134.319 10.0363   6
   8  -7   2 134.077 9.04978   1
   4   6  -2 80.9226 10.7295   1
   4   6  -2 100.609 13.6538   6
   3   6  -2 62.9990 9.11190   1
   3   6  -2 56.4466 9.11347   6
   2   6  -2 1314.32 58.3948   6
   2   6  -2 1266.15 56.8288   1
  -2  -6   2 1287.99 54.7283   1
   1   6  -2 42.6309 6.78266   1
   1   6  -2 30.8139 6.18304   6
  -1  -6   2 49.8655 6.64237   1
  -1  -6   2 36.5961 6.21428   6
   0   6  -2 866.439 41.5625   6
   0   6  -2 907.789 40.8593   1
   0  -6   2 877.174 40.6560   6
   0  -6   2 956.707 40.4739   1
  -1   6  -2 116.966 9.32993   1
  -1   6  -2 126.984 10.2218   6
   1  -6   2 137.172 9.73930   1
   1  -6   2 128.768 9.99227   6
  -2   6  -2 446.244 22.8479   6
  -2   6  -2 453.721 22.1637   1
   2  -6   2 435.059 21.8962   1
   2  -6   2 435.595 22.5268   6
  -3   6  -2 1.37913 1.46639   3
  -3   6  -2 -0.0556 1.08443   1
  -3   6  -2 0.53065 1.41836   6
   3  -6   2 0.12475 1.17729   2
   3  -6   2 0.91853 1.24099   1
   3  -6   2 0.08331 1.38258   6
  -4   6  -2 34.6205 5.12892   6
  -4   6  -2 36.4753 4.71525   1
  -4   6  -2 24.5160 4.42706   3
   4  -6   2 30.1963 4.87937   6
   4  -6   2 31.3428 4.59357   2
   4  -6   2 23.2819 4.09242   1
  -5   6  -2 12.3259 3.44129   3
   5  -6   2 9.28297 1.55831   4
   5  -6   2 6.39426 2.17435   1
  -6   6  -2 111.045 9.53783   3
   6  -6   2 137.315 8.76781   6
   6  -6   2 117.246 8.22073   1
  -7   6  -2 3.85605 2.49446   3
   7  -6   2 8.88398 2.35737   1
   7  -6   2 9.50838 2.70683   6
   8  -6   2 5.20590 2.27134   6
   5   5  -2 19.9233 6.95255   6
   5   5  -2 -1.4633 3.65522   1
   4   5  -2 29.4245 6.22315   1
   4   5  -2 20.8761 5.61286   6
   3   5  -2 47.9033 7.32772   1
   3   5  -2 52.3200 8.12662   6
   2   5  -2 1771.90 73.0673   6
   2   5  -2 1742.31 71.8011   1
  -2  -5   2 1672.64 70.5220   6
  -2  -5   2 1711.80 69.8411   1
   1   5  -2 52.1310 6.76798   1
   1   5  -2 57.9557 7.66157   6
  -1  -5   2 50.4727 5.93309   1
  -1  -5   2 46.4429 6.28217   6
   0   5  -2 0.59213 1.27529   6
   0   5  -2 -0.1241 0.94254   1
   0  -5   2 0.57007 1.06712   1
   0  -5   2 1.25181 1.27500   6
  -1   5  -2 110.911 8.65514   6
  -1   5  -2 107.864 8.21035   1
   1  -5   2 124.785 8.36408   1
   1  -5   2 117.639 8.59868   6
  -2   5  -2 3.69967 1.63522   1
  -2   5  -2 3.26038 1.80257   6
   2  -5   2 2.61178 1.69708   1
   2  -5   2 6.57202 2.14218   2
   2  -5   2 2.44334 1.59892   6
  -3   5  -2 81.2712 6.12031   1
  -3   5  -2 81.4560 6.48901   6
  -3   5  -2 83.5602 6.57001   3
   3  -5   2 85.1861 6.64321   6
   3  -5   2 81.4050 6.14847   1
   3  -5   2 83.0010 7.26762   1
   3  -5   2 77.7997 6.07369   2
  -4   5  -2 13.8122 2.80960   6
  -4   5  -2 15.7242 3.54983   3
   4  -5   2 11.0932 2.84198   6
   4  -5   2 12.3715 2.46267   1
   4  -5   2 13.3565 2.96538   1
   4  -5   2 7.04748 1.97183   2
  -5   5  -2 878.474 37.8793   3
   5  -5   2 866.819 35.5498   2
   5  -5   2 853.201 35.9888   1
   5  -5   2 843.439 36.9745   6
   5  -5   2 867.029 36.0259   6
   5  -5   2 815.992 35.3195   1
  -6   5  -2 -0.1136 1.60191   3
   6  -5   2 1.49109 1.17759   2
   7  -5   2 276.237 13.7756   1
   7  -5   2 275.851 14.2262   6
   8  -5   2 797.262 33.1089   1
   8  -5   2 758.152 33.5420   6
   4   4  -2 54.8541 7.75073   1
   4   4  -2 39.7546 6.97244   6
   3   4  -2 981.998 44.7182   6
   3   4  -2 1002.00 43.8882   1
  -3  -4   2 993.929 41.2765   1
  -3  -4   2 1012.13 41.4925   1
   2   4  -2 34.4323 5.27272   1
   2   4  -2 38.1561 5.81274   6
  -2  -4   2 31.7218 4.26404   1
  -2  -4   2 37.7011 5.02767   6
   1   4  -2 147.934 10.1840   6
   1   4  -2 138.141 9.53937   1
  -1  -4   2 155.148 9.31736   1
  -1  -4   2 149.287 9.59232   6
   0   4  -2 2854.88 108.934   1
   0   4  -2 2658.91 109.232   6
   0  -4   2 2765.54 108.217   1
   0  -4   2 2883.57 109.006   6
  -1   4  -2 876.033 37.3237   6
  -1   4  -2 867.765 36.7354   1
   1  -4   2 914.920 37.1196   6
   1  -4   2 846.826 36.1421   2
   1  -4   2 860.342 36.4573   1
  -2   4  -2 879.550 36.4072   6
  -2   4  -2 852.506 35.7816   1
  -2   4  -2 874.497 35.6335   3
   2  -4   2 872.903 35.5370   2
   2  -4   2 811.221 35.7845   6
   2  -4   2 860.616 35.9026   1
   2  -4   2 874.939 35.5405   1
  -3   4  -2 108.255 6.34958   1
  -3   4  -2 87.8821 6.28580   6
   3  -4   2 101.493 6.13877   1
   3  -4   2 90.9239 6.62310   6
   3  -4   2 100.023 6.23070   2
   3  -4   2 86.4200 6.22485   1
   3  -4   2 100.638 6.41735   6
  -4   4  -2 111.322 7.64961   3
  -4   4  -2 101.375 6.01480   6
  -4   4  -2 102.446 5.56070   1
   4  -4   2 104.461 6.13843   1
   4  -4   2 109.677 6.57698   6
   4  -4   2 104.280 6.59235   1
   4  -4   2 91.2312 6.05452   2
   4  -4   2 93.0515 6.59301   6
  -5   4  -2 394.498 19.4301   3
   5  -4   2 370.479 16.8817   2
   5  -4   2 385.557 17.3186   1
   5  -4   2 351.593 17.3628   6
   5  -4   2 391.197 16.9448   1
   5  -4   2 398.182 17.3119   6
   6  -4   2 305.887 14.1266   1
   6  -4   2 309.784 14.5738   6
   6  -4   2 296.393 13.9166   2
   7  -4   2 3.48046 1.47073   1
   8  -4   2 0.30611 1.55780   1
   8  -4   2 2.54502 1.62463   6
   4   3  -2 3608.69 141.324   6
   4   3  -2 3597.36 140.494   1
   3   3  -2 459.948 23.6158   1
   3   3  -2 511.276 24.6921   6
   3   3  -2 546.485 24.4110   1
  -3  -3   2 494.712 21.9113   1
  -3  -3   2 531.542 22.1904   1
  -3  -3   2 515.681 22.5826   6
  -3  -3   2 507.575 21.6933   2
   2   3  -2 1732.21 69.1250   6
   2   3  -2 1642.97 67.7876   1
   2   3  -2 1721.38 68.5318   1
  -2  -3   2 1738.48 67.1669   1
  -2  -3   2 1697.86 68.9193   5
  -2  -3   2 1735.40 67.6391   6
   1   3  -2 86.0810 6.38713   6
   1   3  -2 69.6183 5.39270   1
   1   3  -2 69.2911 5.56384   1
  -1  -3   2 69.5500 5.43680   6
  -1  -3   2 77.0728 5.38938   1
   0   3  -2 1033.10 42.7321   6
   0   3  -2 1062.66 42.3178   1
   0  -3   2 1052.62 42.3260   6
   0  -3   2 1001.04 41.7799   1
   0  -3   2 1046.02 41.7230   2
  -1   3  -2 35.8869 3.38267   1
  -1   3  -2 39.4203 1.98512   4
  -1   3  -2 36.9809 3.27154   2
  -1   3  -2 35.7126 3.59054   6
   1  -3   2 34.7198 3.30678   1
   1  -3   2 35.2016 3.37793   6
   1  -3   2 31.3674 3.05567   1
   1  -3   2 33.7528 3.12181   2
  -2   3  -2 315.036 14.9067   6
  -2   3  -2 322.131 14.5861   1
  -2   3  -2 311.115 14.6523   3
   2  -3   2 316.820 14.9410   6
   2  -3   2 332.796 14.7303   1
   2  -3   2 325.498 14.2298   1
   2  -3   2 328.450 14.4129   2
   2  -3   2 322.620 14.5800   6
  -3   3  -2 205.860 10.0772   6
  -3   3  -2 211.153 10.9471   3
   3  -3   2 205.507 10.0825   1
   3  -3   2 212.101 10.0107   6
   3  -3   2 206.206 9.67365   1
   3  -3   2 203.861 9.81416   2
   3  -3   2 201.135 10.2984   6
  -4   3  -2 101.757 6.98195   3
   4  -3   2 94.2239 5.37212   2
   4  -3   2 87.6624 5.50512   6
   4  -3   2 96.4193 5.39129   1
   4  -3   2 90.8082 5.73881   6
   4  -3   2 96.9164 5.63755   1
   5  -3   2 152.737 7.33324   1
   5  -3   2 126.709 7.42924   6
   5  -3   2 137.245 7.58991   6
   5  -3   2 142.134 7.42016   1
   5  -3   2 135.186 7.13840   2
   6  -3   2 90.9139 5.87539   1
   6  -3   2 93.2788 5.60442   2
   6  -3   2 99.2627 6.21941   6
   7  -3   2 144.651 8.69067   6
   7  -3   2 140.925 8.30956   1
   8  -3   2 148.862 13.3078   5
   8  -3   2 141.624 9.41781   6
   8  -3   2 158.036 9.22928   1
   7   2  -2 -2.9922 2.18030   1
   6   2  -2 578.572 31.9549   5
   6   2  -2 627.052 29.8958   6
   6   2  -2 677.026 29.6163   1
   5   2  -2 15.7058 4.28839   5
   5   2  -2 11.4179 3.40761   1
   4   2  -2 344.833 16.5477   6
   4   2  -2 294.391 15.3763   1
   4   2  -2 313.301 17.3898   5
   4   2  -2 280.761 15.5663   6
   4   2  -2 316.291 16.0320   1
  -4  -2   2 325.152 13.2226   1
   3   2  -2 0.40927 0.76431   1
   3   2  -2 3.17286 1.45527   1
   3   2  -2 0.43773 0.99963   6
   3   2  -2 1.00369 1.08119   6
  -3  -2   2 1.89903 0.98014   6
  -3  -2   2 1.61270 0.75716   2
  -3  -2   2 0.21804 0.25691   1
  -3  -2   2 1.55567 1.22992   5
   2   2  -2 566.418 25.5098   6
   2   2  -2 604.208 26.0997   6
   2   2  -2 584.884 25.2240   1
   2   2  -2 584.950 25.4873   1
  -2  -2   2 605.528 24.9427   6
  -2  -2   2 614.631 24.6224   1
  -2  -2   2 619.476 26.2555   5
   1   2  -2 569.743 23.8411   6
   1   2  -2 577.629 23.4108   2
   1   2  -2 572.334 23.7345   1
   1   2  -2 557.310 24.0254   6
   1   2  -2 514.568 23.3222   1
  -1  -2   2 564.629 23.5774   6
  -1  -2   2 577.754 23.3587   1
   0   2  -2 1911.12 73.0320   6
   0   2  -2 1801.46 72.2361   2
   0   2  -2 1923.79 72.6765   1
   0   2  -2 1911.69 72.3328   1
   0  -2   2 1808.83 72.3991   1
   0  -2   2 1917.75 72.7643   6
   0  -2   2 1840.88 72.3114   1
   0  -2   2 1932.12 72.2887   2
  -1   2  -2 130.891 6.47296   3
  -1   2  -2 131.307 6.34065   1
  -1   2  -2 131.031 6.78404   1
  -1   2  -2 129.434 6.58438   2
  -1   2  -2 136.165 7.07884   6
   1  -2   2 128.889 6.45765   1
   1  -2   2 134.218 6.76899   1
   1  -2   2 135.767 6.72510   6
   1  -2   2 125.792 6.47169   2
   1  -2   2 125.171 6.85994   6
   1  -2   2 131.787 6.52666   3
  -2   2  -2 1202.11 51.9812   6
  -2   2  -2 1362.69 52.4723   3
  -2   2  -2 1341.09 51.8967   1
  -2   2  -2 1289.11 51.6327   2
  -2   2  -2 1439.74 51.8963   1
   2  -2   2 1360.56 51.7029   2
   2  -2   2 1373.03 52.1779   6
   2  -2   2 1365.18 51.8834   6
   2  -2   2 1355.33 51.5712   1
   2  -2   2 1344.82 51.8934   1
  -3   2  -2 516.292 20.3530   6
  -3   2  -2 510.650 19.9673   1
  -3   2  -2 486.018 19.7691   2
   3  -2   2 516.667 20.5819   6
   3  -2   2 461.681 20.4138   6
   3  -2   2 488.747 20.1017   2
   3  -2   2 504.131 20.2284   1
   3  -2   2 487.933 20.2720   1
   4  -2   2 -0.3254 0.49637   1
   4  -2   2 0.51248 0.60761   1
   4  -2   2 0.19118 0.72555   6
   4  -2   2 0.04317 0.54116   6
   4  -2   2 -0.1764 0.44612   2
   5  -2   2 439.944 18.6522   1
   5  -2   2 453.858 19.1665   6
   5  -2   2 426.951 18.8404   6
   5  -2   2 427.811 18.2294   2
   5  -2   2 421.526 18.4610   1
   6  -2   2 13.2019 2.24413   2
   6  -2   2 1.80999 1.24042   1
   7  -2   2 7.57791 2.35691   6
   7  -2   2 6.21856 3.18615   5
   7  -2   2 11.5934 2.57358   1
   8  -2   2 25.6875 4.54311   6
   8  -2   2 20.3710 3.86239   1
   7   1  -2 14.7705 2.64722   6
   7   1  -2 20.4338 2.54481   1
   7   1  -2 6.27062 3.42212   5
   6   1  -2 711.676 35.0473   5
   6   1  -2 747.729 32.8827   6
   6   1  -2 730.437 32.1704   1
   5   1  -2 0.66420 1.25830   6
   5   1  -2 0.63093 1.44560   5
   5   1  -2 2.42599 1.28533   1
   4   1  -2 409.123 18.9064   1
   4   1  -2 448.913 20.9087   5
   4   1  -2 408.926 18.4800   1
   4   1  -2 441.300 19.4885   6
   4   1  -2 408.324 18.8264   6
   3   1  -2 161.888 8.52845   6
   3   1  -2 141.848 7.91209   6
   3   1  -2 152.697 8.06133   1
   3   1  -2 165.763 9.37354   5
   3   1  -2 151.685 7.81062   1
  -3  -1   2 152.737 6.79344   6
  -3  -1   2 149.253 6.43750   2
  -3  -1   2 150.200 9.23379   5
  -3  -1   2 157.294 6.50884   1
   2   1  -2 169.019 8.08336   2
   2   1  -2 171.465 8.56384   6
   2   1  -2 168.444 8.36032   6
   2   1  -2 177.735 8.34011   1
   2   1  -2 174.295 8.21246   1
  -2  -1   2 180.265 7.89531   6
  -2  -1   2 170.065 9.06709   5
  -2  -1   2 174.856 7.67046   1
   1   1  -2 2080.46 79.1137   1
   1   1  -2 2133.22 79.0055   2
   1   1  -2 2054.64 79.1272   1
   1   1  -2 2033.75 79.3540   6
   1   1  -2 2030.80 79.3300   6
  -1  -1   2 2074.59 79.2268   6
  -1  -1   2 2082.34 79.0026   1
  -1  -1   2 2074.67 78.8683   1
  -1  -1   2 2104.10 78.7531   2
   0   1  -2 590.011 24.9637   6
   0   1  -2 632.871 25.0318   1
   0   1  -2 660.780 24.8793   4
   0   1  -2 636.734 24.8955   1
   0   1  -2 640.518 25.2192   6
   0   1  -2 642.358 24.9165   2
   0   1  -2 656.341 24.2971   3
   0  -1   2 606.813 24.9391   4
   0  -1   2 624.783 25.0981   6
   0  -1   2 665.380 25.2005   6
   0  -1   2 638.788 24.9291   1
   0  -1   2 642.292 24.3357   3
   0  -1   2 650.509 24.9927   1
   0  -1   2 597.799 24.7588   2
  -1   1  -2 424.869 17.3329   1
  -1   1  -2 442.637 17.5412   6
  -1   1  -2 436.798 17.2028   1
  -1   1  -2 408.006 17.1510   2
   1  -1   2 425.849 17.1454   2
   1  -1   2 437.503 17.4556   6
   1  -1   2 423.148 17.3880   6
   1  -1   2 438.438 17.2249   1
   1  -1   2 430.612 17.4677   3
   1  -1   2 436.228 17.2910   1
  -2   1  -2 43.3433 2.80716   1
  -2   1  -2 46.9989 2.76270   2
   2  -1   2 43.1157 2.80291   1
   2  -1   2 50.5758 3.02281   1
   2  -1   2 46.5706 2.99822   6
   2  -1   2 45.4099 2.74661   2
   2  -1   2 47.3320 3.11859   6
  -3   1  -2 883.956 33.6479   1
  -3   1  -2 820.579 33.4484   2
  -3   1  -2 890.026 33.9420   6
   3  -1   2 880.346 34.6981   6
   3  -1   2 871.211 34.3324   6
   3  -1   2 877.518 33.8945   2
   3  -1   2 881.461 34.3759   1
   3  -1   2 841.933 34.0290   1
   4  -1   2 1.65383 0.97083   1
   4  -1   2 2.12890 1.01160   6
   4  -1   2 3.08824 1.21324   6
   4  -1   2 1.66121 0.81833   2
   4  -1   2 2.10994 0.93416   1
   5  -1   2 2.23607 1.01395   1
   5  -1   2 2.65114 1.04623   2
   5  -1   2 1.11276 0.96064   6
   5  -1   2 0.69513 0.62116   1
   6  -1   2 22.9340 5.30466   5
   6  -1   2 28.2404 4.04859   1
   6  -1   2 26.8622 4.06177   6
   7  -1   2 23.1780 4.23272   6
   7  -1   2 31.2221 4.63264   1
   7  -1   2 18.2619 4.90332   5
   8  -1   2 -1.4436 1.56785   1
   8   0  -2 259.908 14.3078   6
   8   0  -2 226.266 13.3002   1
   8   0  -2 217.229 18.2157   5
   7   0  -2 35.8971 6.81257   5
   7   0  -2 54.3702 5.07216   1
   7   0  -2 42.3914 5.54228   6
   6   0  -2 27.2647 5.19492   5
   6   0  -2 29.4858 4.14617   6
   6   0  -2 29.1956 3.77721   1
   5   0  -2 233.911 13.2341   5
   5   0  -2 213.514 10.2255   1
   5   0  -2 221.534 11.1016   6
   5   0  -2 214.006 10.4861   6
   5   0  -2 204.432 10.5508   1
   4   0  -2 12.2420 2.80751   5
   4   0  -2 15.2893 2.03866   6
   4   0  -2 13.3573 2.09802   6
   4   0  -2 14.7684 1.85058   1
   4   0  -2 14.4410 1.97203   1
   3   0  -2 626.916 24.1895   1
   3   0  -2 631.385 24.0663   1
   3   0  -2 626.745 26.2496   5
   3   0  -2 628.472 24.4562   6
   3   0  -2 600.646 24.2403   6
   3   0  -2 603.004 24.0605   2
   1   0  -2 93.9847 4.17754   1
   1   0  -2 101.724 4.15863   2
   1   0  -2 96.3418 4.29169   1
   1   0  -2 97.1217 4.27856   6
   1   0  -2 100.712 4.40645   6
   1   0  -2 85.0484 5.11837   4
  -1   0   2 94.0441 4.06265   2
  -1   0   2 95.2317 4.19037   6
  -1   0   2 97.8511 4.12756   1
   0   0  -2 486.781 19.2562   1
   0   0  -2 518.080 19.3365   6
   0   0  -2 477.510 19.3888   6
   0   0  -2 490.930 19.1723   1
   0   0   2 478.134 19.2081   1
   0   0   2 495.256 19.2874   6
   0   0   2 483.904 19.0672   2
   0   0   2 507.934 19.3990   6
   0   0   2 477.255 19.1486   1
  -1   0  -2 467.601 18.2843   1
  -1   0  -2 466.883 18.6301   1
  -1   0  -2 454.886 18.4393   6
  -1   0  -2 456.305 18.1342   2
   1   0   2 460.293 18.5172   6
   1   0   2 446.205 18.1874   2
   1   0   2 486.717 18.6658   1
   1   0   2 438.745 18.3054   1
   1   0   2 447.183 18.8012   6
  -2   0  -2 146.150 6.55454   1
  -2   0  -2 147.051 6.44826   2
  -2   0  -2 129.520 6.57496   6
   2   0   2 150.465 7.07781   6
   2   0   2 135.285 6.73685   1
   2   0   2 142.311 7.36868   6
   2   0   2 132.224 6.98015   1
   2   0   2 140.074 6.60969   2
  -3   0  -2 73.2228 3.85225   2
  -3   0  -2 66.8318 4.07964   6
  -3   0  -2 63.6470 3.80654   1
   3   0   2 74.5878 4.49116   1
   3   0   2 70.2904 5.00594   6
   3   0   2 70.7564 4.24259   2
   3   0   2 67.3705 4.58264   6
   3   0   2 73.7208 4.80547   1
  -4   0  -2 238.375 9.91686   1
   4   0   2 219.745 11.1583   1
   4   0   2 227.508 13.7087   5
   4   0   2 236.076 12.1680   6
   4   0   2 225.958 11.6263   1
   4   0   2 222.519 10.9027   2
   4   0   2 228.932 11.6326   6
   5   0   2 33.1036 3.99430   2
   5   0   2 27.9633 4.09364   1
   5   0   2 37.0019 6.32831   5
   5   0   2 45.7365 3.81715   6
   6   0   2 100.150 8.02327   6
   6   0   2 125.995 7.73921   1
   6   0   2 93.4832 9.52191   5
   7   0   2 408.316 20.5526   1
   7   0   2 381.407 23.9387   5
   7   0   2 413.635 21.1675   6
   8  -1  -2 169.526 10.0012   6
   8  -1  -2 160.470 9.52226   1
   8  -1  -2 158.313 13.0675   5
   7  -1  -2 97.6157 6.17353   1
   7  -1  -2 89.7129 6.27096   6
   7  -1  -2 86.6407 10.0997   5
   6  -1  -2 173.309 8.50125   1
   6  -1  -2 169.836 8.05400   1
   6  -1  -2 166.781 8.72679   6
   6  -1  -2 166.930 8.30196   6
   6  -1  -2 163.618 8.26647   6
   6  -1  -2 172.640 11.5198   5
   5  -1  -2 142.347 6.60772   1
   5  -1  -2 142.516 6.13869   2
   5  -1  -2 138.728 6.43554   6
   5  -1  -2 141.864 6.84446   6
   5  -1  -2 139.663 6.20147   1
   5  -1  -2 136.882 9.23022   5
   4  -1  -2 484.462 21.6807   5
  -4   1   2 485.253 21.1869   3
   3  -1  -2 8.77145 1.72216   5
  -3   1   2 10.5725 1.89648   3
   1  -1  -2 102.652 4.90590   6
   1  -1  -2 107.786 4.80109   1
   1  -1  -2 102.817 4.80859   1
   1  -1  -2 99.5223 4.85823   6
   1  -1  -2 103.041 4.92513   6
  -1   1   2 96.9854 4.83200   6
  -1   1   2 101.585 4.73902   1
  -1   1   2 98.1130 4.63927   1
  -1   1   2 106.359 5.25617   4
   0  -1  -2 4890.45 183.865   2
   0  -1  -2 4879.73 184.889   6
   0   1   2 4899.83 184.672   6
   0   1   2 4903.97 184.710   6
   0   1   2 4868.99 184.150   1
   0   1   2 4885.96 184.191   1
  -1  -1  -2 799.937 31.0476   1
  -1  -1  -2 805.661 32.2165   1
  -1  -1  -2 760.433 31.2429   6
  -1  -1  -2 811.882 30.8885   2
   1   1   2 788.469 31.9834   5
   1   1   2 826.952 31.6877   6
   1   1   2 774.057 31.0184   2
   1   1   2 742.988 31.4779   1
   1   1   2 795.285 31.9779   6
   1   1   2 771.488 31.2174   1
   1   1   2 791.544 31.3079   1
  -2  -1  -2 4401.27 166.490   6
  -2  -1  -2 4448.46 165.860   1
   2   1   2 4435.66 167.982   5
   2   1   2 4413.21 166.105   2
   2   1   2 4400.30 166.821   6
   2   1   2 4187.17 166.755   1
   2   1   2 4463.77 166.468   1
   2   1   2 4464.22 167.449   6
  -3  -1  -2 4.91107 1.24618   1
  -3  -1  -2 3.40219 0.97121   2
   3   1   2 18.3740 2.84154   1
   3   1   2 2.26681 1.39840   5
   3   1   2 3.57038 1.26260   2
   3   1   2 3.43749 1.41310   6
   3   1   2 3.96436 1.46418   1
   3   1   2 4.39303 1.49246   1
   3   1   2 5.32926 1.93983   6
  -4  -1  -2 0.91749 0.74404   2
  -4  -1  -2 0.48537 0.72767   6
  -4  -1  -2 0.29017 0.62034   1
   4   1   2 -0.3415 0.78750   1
   4   1   2 1.16696 1.56078   5
   4   1   2 -0.5349 0.74167   1
   4   1   2 0.01018 0.99154   6
   4   1   2 0.27098 0.90891   1
   4   1   2 0.17699 0.77224   6
   5   1   2 25.9511 4.25011   1
   5   1   2 16.3094 4.45546   5
   6   1   2 11.0386 3.59159   1
   6   1   2 19.9606 5.26530   5
   7   1   2 228.305 13.6875   1
   7   1   2 315.369 14.8265   6
   8  -2  -2 3.34239 2.29126   5
   8  -2  -2 1.36807 1.15192   1
   8  -2  -2 1.72266 1.22695   6
   7  -2  -2 91.8111 8.59929   5
   7  -2  -2 94.3297 5.42632   1
   7  -2  -2 103.873 5.12365   2
   7  -2  -2 98.9588 6.12509   6
   7  -2  -2 105.646 5.78503   6
   6  -2  -2 879.702 34.0252   6
   6  -2  -2 899.760 38.9672   5
   6  -2  -2 877.936 33.7967   1
   6  -2  -2 890.239 33.7259   2
   6  -2  -2 878.195 34.1013   1
   6  -2  -2 889.995 34.3806   6
   5  -2  -2 92.6100 6.91423   5
  -5   2   2 100.374 6.99842   3
  -4   2   2 880.801 36.3951   3
   3  -2  -2 226.207 8.90956   6
   3  -2  -2 221.539 8.87297   6
  -3   2   2 219.491 10.9768   3
   1  -2  -2 825.506 32.4505   1
   1  -2  -2 826.467 33.0424   6
   1  -2  -2 815.948 32.6231   1
   1  -2  -2 858.367 32.8127   6
  -1   2   2 793.001 32.4413   1
  -1   2   2 801.861 32.6939   6
  -1   2   2 836.575 32.4833   1
   0  -2  -2 948.811 37.7668   5
   0  -2  -2 912.071 38.1656   1
   0  -2  -2 977.982 38.1532   6
   0  -2  -2 985.501 38.1824   6
   0  -2  -2 978.588 37.7688   1
   0   2   2 932.594 38.0745   1
   0   2   2 946.630 37.8396   1
   0   2   2 977.256 38.6265   6
   0   2   2 925.392 37.6800   5
  -1  -2  -2 3575.64 137.287   5
  -1  -2  -2 3634.78 135.921   2
  -1  -2  -2 3585.21 136.627   6
  -1  -2  -2 3734.92 136.287   1
   1   2   2 3569.41 136.984   1
   1   2   2 3602.20 137.539   6
   1   2   2 3488.20 136.968   5
   1   2   2 3532.28 136.615   1
  -2  -2  -2 1940.18 75.5964   1
  -2  -2  -2 1953.52 75.3282   2
  -2  -2  -2 1998.87 76.1276   6
   2   2   2 2005.19 77.7041   6
   2   2   2 1945.81 76.9406   1
   2   2   2 1919.24 76.5479   1
   2   2   2 1939.17 77.5389   5
  -3  -2  -2 26.8662 3.59878   6
  -3  -2  -2 28.4169 3.18689   2
  -3  -2  -2 31.2480 3.60086   1
   3   2   2 32.4149 5.06583   5
   3   2   2 25.7878 4.03721   1
   3   2   2 25.3896 4.40048   6
   4   2   2 135.868 8.70052   6
   4   2   2 106.986 8.39579   1
   4   2   2 104.703 9.25333   5
   5   2   2 95.8227 8.25632   1
   5   2   2 97.1442 9.52472   5
   6   2   2 635.616 34.3939   5
   6   2   2 648.401 31.1078   1
   9  -3  -2 1.39222 1.06147   6
   9  -3  -2 5.94208 3.06075   5
   8  -3  -2 95.8074 5.36849   6
   8  -3  -2 92.7849 5.19229   1
   8  -3  -2 107.426 9.61324   5
   8  -3  -2 93.9886 4.89448   2
   7  -3  -2 21.5536 1.71959   1
   7  -3  -2 20.9766 1.89501   6
   7  -3  -2 15.5437 1.74527   2
   7  -3  -2 22.8632 4.69641   5
   7  -3  -2 21.9210 1.83811   6
   7  -3  -2 20.1136 1.79265   1
   6  -3  -2 483.090 19.0486   2
   6  -3  -2 497.335 18.9062   1
   6  -3  -2 492.823 19.1088   6
   6  -3  -2 475.303 19.3086   6
  -6   3   2 486.938 23.3204   3
   5  -3  -2 0.58693 0.53109   6
   5  -3  -2 1.15243 0.42443   1
   5  -3  -2 0.77557 0.52361   1
   5  -3  -2 1.00697 0.48162   6
  -5   3   2 1.46173 1.44261   3
   4  -3  -2 987.990 36.9058   1
   4  -3  -2 968.458 36.6728   1
   4  -3  -2 967.578 37.0099   6
   4  -3  -2 980.597 37.2258   6
   4  -3  -2 813.210 39.0409   4
  -4   3   2 1006.52 39.8838   3
   3  -3  -2 1682.01 65.5819   6
   3  -3  -2 1698.91 65.3043   1
   3  -3  -2 1658.17 65.6437   6
   3  -3  -2 1656.30 65.8036   4
   3  -3  -2 1760.05 65.3868   1
  -3   3   2 1716.55 63.7796   1
  -3   3   2 1716.53 63.7556   1
  -3   3   2 1722.18 64.1736   6
   2  -3  -2 7.28298 1.82150   1
   2  -3  -2 1.82004 1.28014   1
   2  -3  -2 3.47730 1.60890   6
   2  -3  -2 4.19546 1.62945   6
  -2   3   2 4.60382 1.43915   1
  -2   3   2 4.82289 1.65305   6
  -2   3   2 3.96716 1.36768   4
   1  -3  -2 549.974 24.4817   6
   1  -3  -2 576.559 24.6183   1
   1  -3  -2 583.879 24.2312   1
  -1   3   2 559.060 24.2039   1
  -1   3   2 598.084 24.8504   6
   0  -3  -2 236.845 11.6891   1
   0  -3  -2 227.936 11.8566   6
   0  -3  -2 220.274 11.5717   5
   0   3   2 242.642 12.0612   1
   0   3   2 238.142 12.5332   6
  -1  -3  -2 481.306 21.6100   1
  -1  -3  -2 470.125 21.2170   2
  -1  -3  -2 507.957 22.2596   6
  -1  -3  -2 509.969 22.8820   5
  -1  -3  -2 513.564 21.8718   1
   1   3   2 478.191 23.0859   6
   1   3   2 496.934 22.5414   1
   1   3   2 487.625 22.5258   5
  -2  -3  -2 239.971 11.9914   2
  -2  -3  -2 248.735 12.3999   1
  -2  -3  -2 248.042 12.9136   6
   2   3   2 228.811 13.3048   1
   2   3   2 254.833 14.3002   6
   2   3   2 239.375 13.8764   5
  -3  -3  -2 329.815 15.7497   2
  -3  -3  -2 330.927 16.0778   1
  -3  -3  -2 320.102 16.4751   6
   3   3   2 341.753 18.9530   5
   3   3   2 368.187 19.2096   6
   3   3   2 358.659 18.2687   1
   4   3   2 95.3386 10.0669   1
   4   3   2 87.9374 8.63918   6
   4   3   2 75.2131 9.50281   5
   5   3   2 9.60158 3.61534   1
   5   3   2 16.0395 5.02962   5
   5   3   2 14.7686 4.58035   6
   9  -4  -2 5.91029 1.59216   6
   9  -4  -2 6.62705 3.10644   5
   9  -4  -2 4.33367 1.28951   1
   8  -4  -2 170.741 12.4069   5
   8  -4  -2 155.024 7.38619   1
   8  -4  -2 152.697 7.22768   2
   8  -4  -2 157.785 7.66775   6
   7  -4  -2 5.27246 1.15479   2
   7  -4  -2 4.89275 1.22834   1
   7  -4  -2 6.43347 1.42646   6
   7  -4  -2 4.68848 1.23842   6
  -7   4   2 6.08455 2.69306   3
   6  -4  -2 428.206 17.2612   1
   6  -4  -2 415.958 17.5083   6
   6  -4  -2 417.351 17.9850   6
   6  -4  -2 421.488 17.7126   1
  -6   4   2 405.715 21.0830   3
   5  -4  -2 529.071 26.2629   4
   5  -4  -2 604.939 24.5062   1
   5  -4  -2 607.307 24.8619   6
   5  -4  -2 599.735 24.1135   1
   5  -4  -2 596.450 24.4874   6
  -5   4   2 622.213 27.5011   3
   4  -4  -2 470.675 20.4226   1
   4  -4  -2 478.632 20.8133   6
   4  -4  -2 473.074 21.0235   6
   4  -4  -2 483.222 20.8486   4
   4  -4  -2 485.549 20.6674   1
  -4   4   2 491.113 22.6514   3
   3  -4  -2 11.6635 2.42766   6
   3  -4  -2 11.0328 2.22814   1
   3  -4  -2 13.8406 2.41564   1
   3  -4  -2 12.6606 2.65071   6
   2  -4  -2 247.758 12.5728   1
   2  -4  -2 232.469 12.4888   6
   2  -4  -2 229.786 12.1181   1
  -2   4   2 235.713 12.3723   6
  -2   4   2 253.192 12.0767   1
   1  -4  -2 210.615 11.0313   1
   1  -4  -2 197.257 10.5536   5
   1  -4  -2 201.714 11.3783   6
  -1   4   2 199.626 11.0139   1
  -1   4   2 194.300 11.4565   6
   0  -4  -2 321.526 15.6372   1
   0  -4  -2 300.994 15.7434   6
   0  -4  -2 322.545 15.7382   5
   0   4   2 303.642 15.7365   1
   0   4   2 292.521 16.2818   6
  -1  -4  -2 561.524 24.9742   2
  -1  -4  -2 551.205 25.4723   1
  -1  -4  -2 586.411 25.5785   1
  -1  -4  -2 602.802 26.3193   6
   1   4   2 577.195 26.5552   1
   1   4   2 540.049 27.1137   6
  -2  -4  -2 3.04968 1.75842   6
  -2  -4  -2 1.14082 1.11349   2
  -2  -4  -2 0.39331 1.10312   1
   2   4   2 -1.0207 1.05727   1
   2   4   2 2.16820 1.91169   6
   3   4   2 7.80818 3.37627   6
   3   4   2 8.41924 3.23184   1
   4   4   2 31.8370 5.87257   1
   4   4   2 59.8522 8.88767   6
   5   4   2 11.5163 5.04449   6
   5   4   2 5.66575 3.15089   1
   9  -5  -2 2.34537 2.81408   5
   9  -5  -2 4.17688 1.46615   6
   8  -5  -2 73.7449 4.88126   1
   8  -5  -2 77.3542 5.30575   6
  -8   5   2 73.8261 9.34656   3
   7  -5  -2 207.659 10.0995   2
   7  -5  -2 198.193 9.98414   1
   7  -5  -2 216.214 10.5671   6
   7  -5  -2 178.923 12.8265   4
  -7   5   2 203.330 13.5155   3
   6  -5  -2 -2.4554 0.77000   1
   6  -5  -2 -0.0173 0.94351   6
   6  -5  -2 1.21693 1.18108   1
   6  -5  -2 0.86714 1.64114   4
  -6   5   2 0.35700 1.63304   3
   5  -5  -2 11.2204 1.94991   1
   5  -5  -2 6.76563 1.98241   4
   5  -5  -2 4.75955 1.78031   1
   5  -5  -2 7.17541 2.12755   6
   5  -5  -2 10.8692 2.66077   6
  -5   5   2 16.6626 3.72866   3
   4  -5  -2 1198.07 50.7015   6
   4  -5  -2 1258.21 49.9865   1
   4  -5  -2 1238.06 50.5332   6
   4  -5  -2 1226.17 50.3077   1
  -4   5   2 1231.43 48.6160   6
  -4   5   2 1257.26 48.0559   1
   3  -5  -2 713.796 30.3079   1
   3  -5  -2 689.381 30.2017   6
   3  -5  -2 665.833 29.6452   1
  -3   5   2 721.821 29.0450   1
  -3   5   2 618.215 27.7650   4
  -3   5   2 708.251 29.6718   6
   2  -5  -2 85.5599 7.08444   6
   2  -5  -2 95.2372 7.02184   1
  -2   5   2 89.5379 6.63224   1
  -2   5   2 88.1032 6.97089   6
   1  -5  -2 290.539 15.2707   6
   1  -5  -2 266.331 14.3115   5
   1  -5  -2 240.495 14.0114   1
  -1   5   2 301.534 15.0791   1
  -1   5   2 258.291 15.2087   6
   0  -5  -2 8.86771 2.76525   6
   0  -5  -2 12.8333 3.10123   1
   0   5   2 13.3911 3.16898   1
   0   5   2 7.58133 2.88743   6
  -1  -5  -2 75.0576 6.93893   6
  -1  -5  -2 72.8026 6.48867   1
  -1  -5  -2 68.0607 6.62221   6
  -1  -5  -2 61.6109 6.95991   1
   1   5   2 80.4204 8.85942   1
   1   5   2 68.0751 8.84884   6
  -2  -5  -2 169.654 11.1340   6
  -2  -5  -2 144.185 9.95994   1
   2   5   2 132.235 10.8983   1
   2   5   2 151.102 12.1081   6
   3   5   2 26.3168 6.08107   6
   3   5   2 29.1449 6.07903   1
   4   5   2 79.1671 11.3445   6
   4   5   2 86.1183 10.6174   1
   9  -6  -2 84.6548 6.64980   6
   9  -6  -2 94.7364 6.42774   1
  -9   6   2 83.7706 10.7326   3
   8  -6  -2 5.57577 2.79679   4
   8  -6  -2 8.13824 2.55221   6
  -8   6   2 1.46790 2.21423   3
   7  -6  -2 16.5802 3.29226   1
   7  -6  -2 15.6175 3.65264   4
   7  -6  -2 23.0220 3.79563   6
  -7   6   2 21.0944 4.94216   3
   6  -6  -2 140.529 9.20830   1
   6  -6  -2 168.310 9.10157   4
   6  -6  -2 153.150 9.52545   6
  -6   6   2 137.973 11.0047   3
   5  -6  -2 12.5528 2.88339   1
  -5   6   2 11.2406 3.39982   3
   4  -6  -2 666.727 32.1508   1
   4  -6  -2 755.040 32.5374   6
   4  -6  -2 729.072 32.0395   1
  -4   6   2 732.436 30.3674   1
   3  -6  -2 2.83479 1.64527   1
   3  -6  -2 4.53283 2.23986   6
  -3   6   2 4.54467 1.30536   4
  -3   6   2 6.46275 2.24007   6
  -3   6   2 3.81568 1.62436   1
   2  -6  -2 1656.02 68.7015   6
   2  -6  -2 1649.47 67.6914   1
  -2   6   2 1637.28 67.4193   1
  -2   6   2 1685.72 68.4722   6
   1  -6  -2 37.0473 5.97396   6
   1  -6  -2 31.8233 5.03565   1
  -1   6   2 36.6631 5.71221   1
  -1   6   2 37.7943 6.34521   6
   0  -6  -2 1796.08 76.7358   6
   0  -6  -2 1871.14 77.1244   6
   0  -6  -2 1912.20 76.3396   1
   0   6   2 1860.53 78.2440   6
   0   6   2 1898.02 77.0672   1
  -1  -6  -2 96.3257 8.19511   1
  -1  -6  -2 79.3976 8.05543   6
  -1  -6  -2 82.1581 7.60845   1
   1   6   2 93.3990 10.6085   1
   1   6   2 88.1457 10.6449   6
   2   6   2 4.54898 3.14102   1
   2   6   2 6.84435 3.93372   6
   3   6   2 96.7837 12.7830   6
   3   6   2 96.6439 11.7189   1
   9  -7  -2 94.8536 7.56687   1
   9  -7  -2 95.3125 8.23400   6
  -9   7   2 120.707 13.5354   3
   8  -7  -2 -0.3700 1.63811   6
   8  -7  -2 -0.1815 1.43139   1
  -8   7   2 -0.4072 1.65799   3
   7  -7  -2 24.6636 4.46064   1
  -7   7   2 30.4289 6.26377   3
   6  -7  -2 12.4655 3.34736   1
  -6   7   2 7.95319 3.36048   3
   5  -7  -2 104.483 8.47007   1
  -5   7   2 118.872 9.95134   3
   4  -7  -2 1112.98 47.1314   1
   4  -7  -2 1061.04 47.6217   6
   3  -7  -2 446.938 24.4358   6
   3  -7  -2 479.449 24.1025   1
  -3   7   2 489.038 23.3625   1
  -3   7   2 467.977 24.0891   6
   2  -7  -2 33.6044 5.68310   1
   2  -7  -2 34.6338 6.00552   6
  -2   7   2 49.6997 6.58251   1
  -2   7   2 41.7963 6.60346   6
   1  -7  -2 939.406 41.7011   1
   1  -7  -2 924.786 42.6932   6
  -1   7   2 895.027 41.7218   1
  -1   7   2 912.298 42.8912   6
   0  -7  -2 2.98674 2.43944   6
   0  -7  -2 0.75609 2.04931   6
   0  -7  -2 2.38274 2.34542   1
   0   7   2 4.76802 3.04630   6
   0   7   2 1.52948 2.24657   1
  -1  -7  -2 14.9573 4.09762   1
  -1  -7  -2 14.5352 4.11299   1
   1   7   2 11.1202 4.39247   1
   1   7   2 9.27584 4.12983   6
   2   7   2 1.75194 2.81171   1
   2   7   2 5.16793 3.76034   6
  -8   8   2 9.41731 4.45152   3
  -7   8   2 -0.4532 1.60337   3
   6  -8  -2 140.731 10.8158   1
  -6   8   2 140.205 12.0453   3
   5  -8  -2 28.2650 6.04032   6
   5  -8  -2 23.0487 4.61977   1
   4  -8  -2 15.2108 4.23577   1
   4  -8  -2 13.7734 4.50840   6
   3  -8  -2 155.517 11.7822   1
   3  -8  -2 149.886 12.4805   6
  -3   8   2 151.715 12.2448   1
   2  -8  -2 2334.15 93.4349   1
   2  -8  -2 2356.57 94.7861   6
  -2   8   2 2170.32 92.9961   1
  -2   8   2 2246.78 94.6519   6
   1  -8  -2 4.71425 2.98194   6
   1  -8  -2 11.1013 3.99429   1
  -1   8   2 3.79144 2.97697   1
  -1   8   2 3.00279 2.71336   6
   0  -8  -2 19.7705 4.91111   1
   0  -8  -2 20.0749 5.39243   6
   0  -8  -2 16.0852 4.74281   1
   0  -8  -2 17.6719 5.13233   6
   0   8   2 25.1047 6.71943   6
   0   8   2 18.4728 5.61344   1
   1   8   2 111.177 13.0205   1
   1   8   2 108.502 14.4934   6
   7  -9  -2 13.9465 4.25263   1
  -7   9   2 9.58022 4.33250   3
   6  -9  -2 0.71587 2.95513   6
  -6   9   2 -1.8750 1.93305   3
   5  -9  -2 15.4875 4.67257   1
   5  -9  -2 26.4429 6.49703   6
   4  -9  -2 232.077 17.0529   6
   4  -9  -2 222.077 15.7954   1
   3  -9  -2 3.78518 2.90505   6
   3  -9  -2 -0.8101 1.70159   1
   2  -9  -2 48.5281 7.90660   1
   2  -9  -2 53.5896 9.07887   6
   1  -9  -2 93.9494 12.2008   6
   1  -9  -2 98.6232 12.5440   6
   1  -9  -2 110.489 12.3661   1
  -1   9   2 124.893 11.7305   1
   5 -10  -2 16.6573 5.10358   1
   5 -10  -2 21.3927 7.12074   6
   4 -10  -2 -0.4315 2.29500   1
   4 -10  -2 -1.1425 2.31802   6
   2 -10   3 1.45362 2.98245   1
   2 -10   3 2.10973 3.56319   6
  -3  10  -3 119.902 10.8762   3
   3 -10   3 99.3579 13.0046   6
   3 -10   3 112.189 13.5052   1
  -4  10  -3 22.7843 5.53709   3
   4 -10   3 21.2171 6.61083   6
   4 -10   3 30.3827 6.96599   1
  -5  10  -3 14.5040 4.81193   3
   5 -10   3 27.6402 6.53786   1
   5 -10   3 33.2105 8.31786   6
   0   9  -3 36.3454 8.32592   6
   0   9  -3 29.4958 7.04223   1
   0  -9   3 37.3555 8.69328   1
  -1   9  -3 17.3273 5.82867   6
  -1   9  -3 8.03982 3.76700   1
   1  -9   3 11.4164 4.28285   1
   1  -9   3 8.29093 4.40584   6
  -2   9  -3 114.361 12.8516   1
   2  -9   3 126.389 11.6293   1
   2  -9   3 134.149 12.5726   6
  -3   9  -3 164.190 12.4023   3
   3  -9   3 152.003 12.9351   1
   3  -9   3 168.357 14.2148   6
  -4   9  -3 16.6838 4.62875   3
   4  -9   3 15.5236 5.08198   6
   4  -9   3 20.3994 5.37347   1
  -5   9  -3 -0.5850 1.88841   3
   5  -9   3 -1.9362 2.12345   6
   5  -9   3 -0.1642 1.90029   1
  -6   9  -3 43.0951 7.88168   3
   6  -9   3 65.9602 10.9050   6
   6  -9   3 50.8289 8.20174   1
  -7   9  -3 636.586 33.7529   3
   7  -9   3 661.784 32.8858   1
   2   8  -3 271.848 19.8801   1
   2   8  -3 292.767 21.5227   6
   1   8  -3 17.2690 6.09542   6
   1   8  -3 21.7819 6.06692   1
   0   8  -3 -1.1517 2.23527   1
   0   8  -3 1.96811 2.76369   6
   0  -8   3 0.53738 2.18102   6
   0  -8   3 4.74489 2.85156   1
  -1   8  -3 32.5331 7.42606   6
  -1   8  -3 37.9501 7.24649   1
   1  -8   3 26.3303 6.24991   6
   1  -8   3 31.6305 6.31232   1
  -2   8  -3 67.9662 8.82314   1
  -2   8  -3 52.8754 8.68869   6
   2  -8   3 39.5490 7.25174   6
   2  -8   3 51.8608 7.88032   1
  -3   8  -3 2.07924 1.98278   3
  -3   8  -3 -0.2491 1.91883   1
   3  -8   3 1.05964 2.24390   6
   3  -8   3 0.67000 1.81725   1
  -4   8  -3 165.105 11.9744   3
   4  -8   3 154.043 12.7256   6
   4  -8   3 170.180 12.5562   1
  -5   8  -3 338.716 20.2582   3
   5  -8   3 376.078 20.4246   1
   5  -8   3 353.454 21.0519   6
  -6   8  -3 7.85407 3.76406   3
   6  -8   3 3.28324 2.53200   1
   3   7  -3 107.227 14.2548   6
   3   7  -3 89.3140 11.7167   1
   2   7  -3 1.88820 3.26157   6
   2   7  -3 6.33893 3.82556   1
   1   7  -3 121.834 11.9778   6
   1   7  -3 112.411 10.9068   1
  -1  -7   3 122.517 10.8138   6
  -1  -7   3 132.931 10.3629   1
   0   7  -3 146.934 12.8067   6
   0   7  -3 154.049 12.2619   1
   0  -7   3 148.366 11.5348   1
   0  -7   3 145.429 11.9667   6
  -1   7  -3 17.1588 4.82439   6
  -1   7  -3 25.8566 5.43233   1
  -1   7  -3 14.4544 2.64157   4
   1  -7   3 22.3893 5.06329   1
   1  -7   3 22.8289 5.00086   6
  -2   7  -3 24.1099 5.46475   6
  -2   7  -3 19.9378 4.49461   1
   2  -7   3 22.9117 5.04855   6
   2  -7   3 17.5917 4.23695   1
  -3   7  -3 29.7006 5.12988   3
  -3   7  -3 32.3521 5.85480   6
  -3   7  -3 26.5173 5.05999   1
   3  -7   3 34.4357 6.25684   6
   3  -7   3 28.2639 5.17832   1
  -4   7  -3 12.8084 3.73949   3
  -4   7  -3 9.64979 3.61099   1
   4  -7   3 10.7451 3.59091   6
   4  -7   3 9.71372 3.08469   1
  -5   7  -3 472.258 24.6480   3
   5  -7   3 482.206 24.6464   6
   5  -7   3 480.740 23.8606   1
  -6   7  -3 254.797 16.1554   3
   6  -7   3 252.138 14.8469   1
  -7   7  -3 31.4561 6.09650   3
   7  -7   3 27.4229 4.71094   1
   4   6  -3 137.416 13.8296   6
   4   6  -3 153.574 13.2985   1
   3   6  -3 103.533 12.6006   6
   3   6  -3 60.6369 9.11572   1
   2   6  -3 253.434 16.6012   1
   2   6  -3 228.897 17.0091   6
  -2  -6   3 255.922 15.0564   1
   1   6  -3 0.12918 1.73923   6
   1   6  -3 0.39773 2.01668   1
  -1  -6   3 0.61019 1.72442   6
  -1  -6   3 1.29965 1.88557   1
   0   6  -3 -1.0745 1.46626   6
   0   6  -3 1.73697 2.26723   1
   0  -6   3 4.17078 2.46062   6
   0  -6   3 0.45265 1.90795   1
  -1   6  -3 118.348 7.00695   4
  -1   6  -3 138.136 10.1734   1
  -1   6  -3 135.939 10.5633   6
   1  -6   3 133.708 10.2328   6
   1  -6   3 138.941 9.80284   1
  -2   6  -3 245.201 15.1751   6
  -2   6  -3 253.233 13.7782   3
  -2   6  -3 256.812 14.8363   1
   2  -6   3 239.517 14.9295   6
   2  -6   3 263.219 14.8171   1
  -3   6  -3 7.73362 2.75807   6
  -3   6  -3 5.46866 2.26449   3
  -3   6  -3 5.63483 2.22825   1
   3  -6   3 3.00612 1.58510   1
   3  -6   3 7.79439 2.41092   2
   3  -6   3 4.59711 2.23744   6
  -4   6  -3 682.069 31.4321   3
  -4   6  -3 655.298 30.7983   6
  -4   6  -3 704.638 30.3459   1
   4  -6   3 668.004 30.4036   2
   4  -6   3 713.596 30.9151   1
   4  -6   3 696.381 31.5850   6
  -5   6  -3 0.92658 1.88864   3
   5  -6   3 1.96347 1.34700   1
  -6   6  -3 6.79295 3.17797   3
   6  -6   3 13.2576 2.28132   1
   7  -6   3 56.0385 4.85516   6
   8  -6   3 18.3982 3.80683   1
   8  -6   3 22.9626 4.28276   6
   5   5  -3 -2.0311 2.53584   6
   5   5  -3 -4.0941 1.94276   1
   4   5  -3 71.0342 10.3861   6
   4   5  -3 63.8486 8.94122   1
   3   5  -3 1.34477 1.68841   1
   3   5  -3 1.56020 2.34216   6
   2   5  -3 -1.9255 1.59714   1
   2   5  -3 -1.6144 1.51686   6
  -2  -5   3 -1.8409 1.14518   1
  -2  -5   3 -0.7611 1.36436   6
   1   5  -3 223.972 14.5213   6
   1   5  -3 216.848 13.8016   1
  -1  -5   3 223.577 13.6908   6
  -1  -5   3 234.465 13.3764   1
   0   5  -3 748.962 33.8393   1
   0   5  -3 719.031 34.3559   6
   0  -5   3 749.767 33.8291   6
   0  -5   3 769.276 33.3004   1
  -1   5  -3 579.913 24.5523   4
  -1   5  -3 631.946 28.2212   1
  -1   5  -3 622.350 28.8283   6
   1  -5   3 606.091 27.6823   1
   1  -5   3 616.938 28.3176   6
  -2   5  -3 336.873 18.1649   6
  -2   5  -3 370.472 17.9612   1
  -2   5  -3 361.753 17.1072   3
   2  -5   3 354.786 18.0888   6
   2  -5   3 336.391 17.0971   2
   2  -5   3 344.589 17.3850   1
  -3   5  -3 20.5702 3.78470   6
  -3   5  -3 21.4154 3.81358   3
  -3   5  -3 23.5928 3.82632   1
   3  -5   3 20.2482 3.77532   6
   3  -5   3 18.9890 3.31189   1
   3  -5   3 25.0941 3.94228   2
  -4   5  -3 28.2711 3.81472   1
  -4   5  -3 31.1814 4.84927   3
   4  -5   3 30.9310 4.43655   1
   4  -5   3 37.7143 4.64337   2
   4  -5   3 31.5271 4.15970   1
  -5   5  -3 367.461 19.0675   3
   5  -5   3 325.252 16.7834   2
   5  -5   3 394.833 17.5833   6
   5  -5   3 357.697 17.1283   1
   6  -5   3 81.7316 6.05471   1
   6  -5   3 92.6856 6.51039   6
   7  -5   3 352.630 17.2970   1
   7  -5   3 364.653 17.8558   6
   8  -5   3 1.44842 1.46703   1
   8  -5   3 2.44598 1.90046   6
   4   4  -3 1331.61 57.1518   1
   4   4  -3 1330.72 58.2326   6
   3   4  -3 90.7342 8.00718   1
   3   4  -3 85.9928 8.32678   6
  -3  -4   3 89.3025 6.44333   1
   2   4  -3 723.805 33.4073   1
   2   4  -3 718.285 34.0466   6
  -2  -4   3 781.477 32.0944   1
  -2  -4   3 740.228 32.6996   6
   1   4  -3 110.879 8.51981   6
   1   4  -3 107.867 7.99323   1
  -1  -4   3 105.001 7.41619   1
  -1  -4   3 103.434 7.67659   6
   0   4  -3 1416.34 56.9424   6
   0   4  -3 1387.32 56.1343   1
   0  -4   3 1365.22 56.0838   6
   0  -4   3 1331.87 55.4049   1
  -1   4  -3 319.915 16.5830   1
  -1   4  -3 356.874 17.4971   6
  -1   4  -3 350.144 14.0242   4
   1  -4   3 340.885 16.1997   2
   1  -4   3 335.806 16.8664   6
   1  -4   3 337.551 16.3471   1
  -2   4  -3 272.086 13.8056   2
  -2   4  -3 288.718 14.8316   6
  -2   4  -3 286.350 13.8417   3
  -2   4  -3 283.547 14.2780   1
   2  -4   3 282.854 14.3202   6
   2  -4   3 289.422 13.9034   2
   2  -4   3 290.460 13.9277   1
  -3   4  -3 5.35511 1.92949   3
  -3   4  -3 4.42957 1.63937   6
  -3   4  -3 3.78886 1.42136   1
   3  -4   3 8.43849 2.18550   6
   3  -4   3 1.86061 1.08340   6
   3  -4   3 2.65854 1.22082   2
   3  -4   3 2.90393 1.28964   1
   3  -4   3 -1.2276 0.89489   1
  -4   4  -3 148.821 7.90719   1
  -4   4  -3 143.529 8.28228   6
  -4   4  -3 154.382 9.52138   3
   4  -4   3 139.294 8.00516   1
   4  -4   3 142.418 8.47426   6
   4  -4   3 151.977 8.50703   1
   4  -4   3 138.276 8.58221   6
   4  -4   3 143.511 8.10016   2
   5  -4   3 366.066 16.6269   2
   5  -4   3 350.225 17.2038   6
   5  -4   3 353.964 16.8561   1
   5  -4   3 385.983 17.2802   6
   5  -4   3 384.980 16.8773   1
   6  -4   3 254.055 12.5541   1
   6  -4   3 265.318 13.3228   6
   7  -4   3 271.363 14.1934   6
   7  -4   3 270.628 13.6495   1
   8  -4   3 321.943 16.2154   1
   8  -4   3 333.925 16.9788   6
   6   3  -3 214.931 14.3432   1
   5   3  -3 570.397 26.4273   6
   5   3  -3 484.373 25.6500   1
   4   3  -3 1034.05 44.6155   6
   4   3  -3 1015.08 44.1775   1
   3   3  -3 36.1318 5.23479   1
   3   3  -3 35.0524 4.89660   1
   3   3  -3 36.2974 5.37684   6
  -3  -3   3 40.4022 4.73401   6
  -3  -3   3 47.1859 3.82648   1
  -3  -3   3 42.7469 4.06367   6
   2   3  -3 444.017 21.3239   1
   2   3  -3 482.337 22.5637   6
   2   3  -3 454.137 21.6843   1
  -2  -3   3 501.971 22.5379   5
  -2  -3   3 442.737 20.5239   1
  -2  -3   3 480.206 21.4087   6
   1   3  -3 0.49916 0.88892   1
   1   3  -3 0.70903 0.99275   6
   1   3  -3 1.16129 1.00584   1
   1   3  -3 0.93599 0.87789   2
  -1  -3   3 4.87332 1.65629   6
  -1  -3   3 0.72630 0.85024   1
   0   3  -3 2400.99 88.2433   2
   0   3  -3 2260.05 89.0108   6
   0   3  -3 2354.55 88.6310   1
   0   3  -3 1995.30 87.0761   4
   0  -3   3 2406.00 88.8494   6
  -1   3  -3 802.415 34.0674   6
  -1   3  -3 840.540 32.6677   3
  -1   3  -3 839.593 33.3340   2
  -1   3  -3 821.061 33.6619   1
   1  -3   3 783.997 33.0564   1
   1  -3   3 807.720 33.0830   2
   1  -3   3 750.123 33.2386   1
   1  -3   3 862.191 33.7870   6
  -2   3  -3 275.013 13.0365   1
  -2   3  -3 273.051 13.4110   6
  -2   3  -3 271.234 12.6893   2
  -2   3  -3 288.260 13.0284   3
   2  -3   3 266.525 12.5556   2
   2  -3   3 261.817 12.7835   6
   2  -3   3 267.247 13.1418   6
   2  -3   3 274.818 12.6170   1
   2  -3   3 280.688 12.9615   1
  -3   3  -3 1708.01 66.4654   2
  -3   3  -3 1739.25 67.7722   3
  -3   3  -3 1717.71 66.7764   1
   3  -3   3 1774.95 66.9862   1
   3  -3   3 1701.62 66.9581   6
   3  -3   3 1675.31 66.4535   1
   3  -3   3 1807.70 66.6680   2
   3  -3   3 1636.04 67.0856   6
  -4   3  -3 8.07662 1.49619   1
  -4   3  -3 9.10339 1.85656   6
   4  -3   3 8.38027 1.70070   1
   4  -3   3 7.72070 1.79614   6
   4  -3   3 7.55854 1.79297   6
   4  -3   3 8.46480 1.66015   2
   4  -3   3 9.90279 1.99277   1
   5  -3   3 207.872 10.2654   6
   5  -3   3 186.814 9.74456   1
   5  -3   3 190.953 9.82544   1
   5  -3   3 187.639 10.0825   6
   5  -3   3 190.237 9.52760   2
   6  -3   3 17.5573 2.87518   6
   6  -3   3 18.0601 2.54789   1
   7  -3   3 1188.08 48.7295   1
   7  -3   3 1213.92 49.4518   6
   8  -3   3 138.264 9.23704   1
   8  -3   3 154.188 10.0161   6
   7   2  -3 13.8879 4.29218   1
   7   2  -3 26.8915 4.93991   6
   6   2  -3 302.667 15.7980   1
   6   2  -3 276.384 16.5099   6
   5   2  -3 1195.74 49.1215   6
   5   2  -3 1105.00 48.0780   1
   4   2  -3 158.838 9.72528   1
   4   2  -3 149.913 9.63143   6
   4   2  -3 163.608 9.88912   6
   4   2  -3 149.352 9.25385   1
  -4  -2   3 158.202 7.11813   1
   3   2  -3 68.9528 5.38313   1
   3   2  -3 58.6336 5.12877   6
   3   2  -3 65.4890 5.05135   1
   3   2  -3 66.5671 5.61804   6
  -3  -2   3 65.2059 5.81454   5
  -3  -2   3 67.4873 4.49874   6
  -3  -2   3 80.4857 4.78558   6
   2   2  -3 540.766 23.7709   6
   2   2  -3 541.462 24.0183   6
   2   2  -3 556.502 23.5305   1
   2   2  -3 537.554 23.2095   2
   2   2  -3 544.426 23.5983   1
  -2  -2   3 571.886 24.3913   5
  -2  -2   3 545.585 23.2362   6
  -2  -2   3 546.827 22.8385   1
   1   2  -3 114.136 6.61114   1
   1   2  -3 108.935 6.63880   6
   1   2  -3 113.304 6.91186   6
   1   2  -3 113.041 6.44997   1
   1   2  -3 121.400 6.51197   2
  -1  -2   3 113.383 6.64534   6
  -1  -2   3 114.976 6.42252   1
   0   2  -3 35.8860 2.18181   3
   0   2  -3 38.0880 3.09694   1
   0   2  -3 32.7378 2.72462   1
   0   2  -3 35.7616 3.21074   6
   0   2  -3 35.2731 2.87582   2
   0   2  -3 30.6466 2.52792   4
   0  -2   3 33.8842 2.82841   1
   0  -2   3 33.3473 2.67326   2
   0  -2   3 32.9672 2.81775   1
   0  -2   3 36.4939 3.08954   6
  -1   2  -3 680.109 28.3084   1
  -1   2  -3 688.548 28.0439   2
  -1   2  -3 725.036 28.7434   6
  -1   2  -3 675.896 27.7362   1
  -1   2  -3 705.588 27.7268   3
   1  -2   3 689.801 28.1372   1
   1  -2   3 722.873 28.5193   6
   1  -2   3 727.973 28.3250   6
   1  -2   3 656.141 27.8104   2
   1  -2   3 702.610 27.9379   1
  -2   2  -3 3.00055 0.97958   1
  -2   2  -3 2.85731 1.05361   6
   2  -2   3 1.92050 0.75445   2
   2  -2   3 2.08245 0.78785   1
   2  -2   3 1.93521 0.78124   1
   2  -2   3 2.82984 0.94623   6
   2  -2   3 1.75490 0.83107   6
  -3   2  -3 0.01518 0.27168   1
  -3   2  -3 0.47917 0.62121   2
  -3   2  -3 1.42324 0.83393   6
   3  -2   3 -0.0368 0.38437   1
   3  -2   3 -0.2889 0.40749   2
   3  -2   3 0.08636 0.54599   6
   3  -2   3 0.86454 0.65297   6
   3  -2   3 0.37903 0.58042   1
  -4   2  -3 159.574 8.80198   6
  -4   2  -3 158.019 7.24313   1
   4  -2   3 141.392 8.01567   6
   4  -2   3 149.508 8.33674   6
   4  -2   3 157.375 7.76877   2
   4  -2   3 141.381 7.78616   1
   4  -2   3 164.028 8.13205   1
   5  -2   3 22.2731 3.03554   1
   5  -2   3 21.7630 3.25548   6
   5  -2   3 25.1796 3.04607   2
   5  -2   3 26.0860 3.33662   1
   6  -2   3 203.168 11.1248   6
   6  -2   3 197.620 10.6163   1
   7  -2   3 174.634 10.1376   6
   7  -2   3 145.043 9.69390   1
   7  -2   3 160.973 13.4678   5
   8  -2   3 90.6399 7.62454   1
   8  -2   3 90.6430 7.55534   6
   7   1  -3 58.9142 9.04761   5
   7   1  -3 58.4677 6.75886   1
   7   1  -3 70.0942 6.43025   6
   6   1  -3 660.271 31.7475   5
   6   1  -3 639.703 29.2553   6
   6   1  -3 630.289 28.5956   1
   5   1  -3 213.894 11.4787   1
   5   1  -3 235.627 12.3307   6
   5   1  -3 212.732 11.7662   6
   5   1  -3 223.153 11.8756   1
   5   1  -3 247.394 14.2275   5
   4   1  -3 346.189 15.0374   1
   4   1  -3 328.956 16.8091   5
   4   1  -3 293.050 14.9733   6
   4   1  -3 326.988 15.6050   6
   4   1  -3 326.870 15.1767   1
  -4  -1   3 338.427 18.3734   5
   3   1  -3 60.9113 4.06764   2
   3   1  -3 66.3958 4.62855   6
   3   1  -3 63.4791 4.29217   1
   3   1  -3 53.3551 4.19450   6
   3   1  -3 58.7273 4.13066   1
  -3  -1   3 63.7477 2.98488   1
  -3  -1   3 55.6660 3.19985   6
  -3  -1   3 60.6515 5.07205   5
  -3  -1   3 62.1563 2.95920   2
   2   1  -3 85.8420 4.69703   1
   2   1  -3 79.5785 4.43410   2
   2   1  -3 79.7812 4.82501   6
   2   1  -3 81.1024 4.66087   1
   2   1  -3 76.2064 4.73690   6
   2   1  -3 76.6531 3.88471   3
  -2  -1   3 70.9542 4.98954   5
  -2  -1   3 78.6386 4.40144   6
   1   1  -3 27.4067 2.26893   6
   1   1  -3 21.5668 2.48093   4
   1   1  -3 32.9360 2.21009   2
   1   1  -3 25.3452 2.08892   1
   1   1  -3 22.6770 2.01274   1
   1   1  -3 25.6686 2.22244   6
  -1  -1   3 24.1055 2.18637   6
  -1  -1   3 27.2144 1.92315   2
  -1  -1   3 24.6210 2.07831   1
  -1  -1   3 27.6645 2.00463   1
   0   1  -3 4285.15 165.902   2
   0   1  -3 4401.11 166.234   1
   0   1  -3 4541.66 166.714   6
   0   1  -3 4369.75 166.072   1
   0   1  -3 4510.20 166.265   6
   0  -1   3 4427.08 165.811   2
   0  -1   3 4242.93 166.210   6
   0  -1   3 4459.05 166.178   1
  -1   1  -3 30.8250 2.58319   6
  -1   1  -3 38.8148 2.60857   1
  -1   1  -3 30.2336 2.41899   1
  -1   1  -3 33.4630 2.41838   2
   1  -1   3 33.6852 2.61702   6
   1  -1   3 32.6103 2.63153   6
   1  -1   3 33.5373 2.38236   2
   1  -1   3 30.1775 2.39586   1
   1  -1   3 36.7252 2.56793   1
  -2   1  -3 700.443 27.9730   6
  -2   1  -3 689.644 27.6701   1
   2  -1   3 693.934 27.9246   6
   2  -1   3 693.128 27.7048   1
   2  -1   3 721.346 27.9545   1
   2  -1   3 690.879 28.1881   6
   2  -1   3 680.132 27.5008   2
  -3   1  -3 37.6152 3.02969   6
  -3   1  -3 35.3222 2.68759   2
   3  -1   3 42.0405 3.36166   6
   3  -1   3 35.8006 3.38588   6
   3  -1   3 45.5816 3.42448   1
   3  -1   3 38.1573 2.91759   2
   3  -1   3 42.2866 3.18881   1
  -4   1  -3 1968.75 77.2073   6
  -4   1  -3 2051.59 76.8308   1
   4  -1   3 1928.96 78.0974   6
   4  -1   3 2092.12 78.3308   1
   4  -1   3 2009.14 78.7011   6
   4  -1   3 2028.96 77.5362   2
   4  -1   3 2037.66 77.8770   1
   5  -1   3 55.2824 4.26304   6
   5  -1   3 40.2261 3.87931   1
   5  -1   3 37.9623 4.20023   2
   6  -1   3 64.1640 9.05633   5
   6  -1   3 108.636 6.48592   1
   6  -1   3 92.1622 6.86809   6
   7  -1   3 77.2186 10.8545   5
   7  -1   3 73.4015 7.03717   6
   7  -1   3 69.9593 6.52342   1
   8   0  -3 1.42487 2.56429   5
   8   0  -3 -3.3222 1.89011   1
   8   0  -3 1.10965 1.73633   6
   7   0  -3 -0.0219 1.98890   5
   7   0  -3 -2.2662 1.62939   1
   7   0  -3 2.50786 1.82255   6
   6   0  -3 71.9690 7.15907   5
   6   0  -3 72.1129 5.60017   6
   6   0  -3 70.4269 5.31909   1
   5   0  -3 56.5572 3.78895   1
   5   0  -3 52.8964 4.04807   1
   5   0  -3 55.7461 4.32152   6
   5   0  -3 53.3627 3.98493   6
   5   0  -3 50.0532 6.09443   5
   4   0  -3 905.117 37.9642   5
   4   0  -3 885.029 35.3397   2
   4   0  -3 908.727 35.7084   6
   4   0  -3 911.357 35.4453   1
   4   0  -3 928.733 35.9212   6
   4   0  -3 907.389 35.5266   1
   3   0  -3 2.05338 0.88448   1
   3   0  -3 1.39995 0.98971   6
   3   0  -3 2.26257 0.99038   6
   3   0  -3 1.39594 1.34932   5
   3   0  -3 0.97151 0.86557   1
   3   0  -3 1.57828 0.81681   2
  -3   0   3 1.17699 1.46070   5
   1   0  -3 1037.39 38.4755   2
   1   0  -3 1005.58 39.6901   4
   1   0  -3 966.541 38.6839   6
   1   0  -3 982.064 38.5932   1
   1   0  -3 1013.85 38.5669   1
   1   0  -3 995.654 38.7900   6
  -1   0   3 936.397 39.8134   4
  -1   0   3 1052.44 38.6452   1
  -1   0   3 1027.57 38.4103   2
  -1   0   3 1023.81 38.5186   1
  -1   0   3 1052.57 38.8035   6
   0   0  -3 2669.68 98.2754   1
   0   0  -3 2581.34 97.7920   2
   0   0  -3 2478.12 98.1582   6
   0   0  -3 2641.19 98.2402   1
   0   0  -3 2652.92 98.5415   6
   0   0   3 2655.47 98.3956   1
   0   0   3 2618.92 98.2435   1
   0   0   3 2510.89 98.3465   6
   0   0   3 2568.85 98.3984   6
   0   0   3 2534.48 97.6459   2
  -1   0  -3 90.2117 5.11493   1
  -1   0  -3 95.0237 4.73340   2
  -1   0  -3 97.0743 5.08628   6
  -1   0  -3 88.4080 4.77951   1
   1   0   3 94.1728 4.78687   2
   1   0   3 90.1188 5.06585   6
   1   0   3 88.4907 5.26761   6
   1   0   3 101.813 5.02818   1
   1   0   3 90.1870 5.07040   1
  -2   0  -3 1987.75 75.6420   6
  -2   0  -3 2029.73 75.4262   1
   2   0   3 1990.56 75.4759   2
   2   0   3 1958.09 76.0043   6
   2   0   3 1994.20 75.7658   1
   2   0   3 1920.81 76.4689   6
   2   0   3 1947.56 76.0537   1
  -3   0  -3 170.414 8.10670   2
  -3   0  -3 167.572 8.24451   1
   3   0   3 176.804 9.21262   6
   3   0   3 172.038 8.83527   1
   3   0   3 172.159 8.57699   2
   3   0   3 178.057 9.27987   1
   3   0   3 171.926 9.57475   6
  -4   0  -3 41.1848 3.36089   6
  -4   0  -3 38.7418 2.97565   2
  -4   0  -3 43.9707 3.16042   1
   4   0   3 40.9330 3.62930   2
   4   0   3 43.3035 4.14130   1
   4   0   3 41.9319 4.89729   6
   4   0   3 43.4434 3.92067   1
   4   0   3 42.0926 6.21551   5
   5   0   3 6.59573 2.12208   1
   5   0   3 3.49222 2.39011   5
   6   0   3 84.6979 7.12360   1
   6   0   3 88.0365 10.7490   5
   7   0   3 342.460 16.8678   6
   7   0   3 281.586 16.0512   1
   8  -1  -3 8.25757 2.36493   6
   8  -1  -3 0.23872 2.08110   1
   8  -1  -3 9.04547 3.83644   5
   7  -1  -3 9.08908 2.10721   6
   7  -1  -3 9.82683 3.41219   5
   7  -1  -3 16.4078 2.38155   1
   6  -1  -3 35.9581 2.61738   1
   6  -1  -3 35.6843 3.04052   6
   6  -1  -3 33.7983 2.75394   6
   6  -1  -3 25.7237 4.85550   5
   6  -1  -3 32.9271 2.81334   1
   5  -1  -3 14.0720 1.41654   6
   5  -1  -3 15.4035 1.17813   1
   5  -1  -3 12.2870 1.17821   1
   5  -1  -3 17.7327 3.43642   5
   5  -1  -3 16.7643 1.29657   2
   5  -1  -3 13.5214 1.29998   6
   4  -1  -3 3799.21 144.216   5
  -4   1   3 3765.57 143.847   3
   3  -1  -3 790.241 32.1441   5
  -3   1   3 828.656 32.5909   3
   1  -1  -3 1339.36 50.2830   1
   1  -1  -3 1289.00 50.3226   1
   1  -1  -3 1313.04 50.4386   6
   1  -1  -3 1275.55 50.5225   6
   1  -1  -3 1335.71 50.0922   2
  -1   1   3 1411.15 51.0160   4
  -1   1   3 1275.90 50.0955   1
  -1   1   3 1299.15 50.3716   6
  -1   1   3 1287.93 50.1881   1
   0  -1  -3 1.80987 0.86603   6
   0  -1  -3 0.31185 0.50769   1
   0  -1  -3 0.19077 0.51174   2
   0  -1  -3 0.87597 0.69921   1
   0   1   3 1.18391 0.78800   6
   0   1   3 -0.4606 0.44109   1
   0   1   3 0.05351 0.54453   1
   0   1   3 0.71121 0.56216   2
  -1  -1  -3 1234.29 47.3353   2
  -1  -1  -3 1259.91 47.6268   1
  -1  -1  -3 1247.16 47.8784   6
   1   1   3 1212.79 48.5287   5
   1   1   3 1175.00 47.7340   1
   1   1   3 1194.26 48.4887   6
   1   1   3 1243.42 48.1455   1
   1   1   3 1204.40 47.5245   2
  -2  -1  -3 843.974 35.7451   6
  -2  -1  -3 926.116 35.6228   1
  -2  -1  -3 903.382 35.3130   2
   2   1   3 934.695 37.7725   5
   2   1   3 832.896 36.8058   6
   2   1   3 900.782 36.1214   1
   2   1   3 884.858 36.4927   1
   2   1   3 908.670 35.8174   2
  -3  -1  -3 183.519 8.82488   2
  -3  -1  -3 186.059 9.06782   1
  -3  -1  -3 180.286 9.36535   6
   3   1   3 180.678 10.2011   1
   3   1   3 183.701 9.59166   2
   3   1   3 174.578 9.79549   1
   3   1   3 173.217 10.5434   6
  -4  -1  -3 231.627 11.2613   2
   4   1   3 252.050 15.1803   5
   4   1   3 238.690 12.9468   1
   4   1   3 271.712 13.6187   6
   4   1   3 241.471 13.2621   1
   4   1   3 240.463 12.4680   2
   4   1   3 225.057 12.6591   1
   5   1   3 23.8638 5.47743   5
   5   1   3 23.7417 4.31264   1
   6   1   3 468.640 20.8177   6
   6   1   3 352.749 20.2453   1
   6   1   3 362.273 23.4607   5
   9  -2  -3 13.7536 4.41709   5
   9  -2  -3 10.2894 2.26971   6
   8  -2  -3 2.75989 0.97833   1
   8  -2  -3 -0.1594 0.84058   6
   8  -2  -3 -3.2057 1.55620   5
   7  -2  -3 451.592 23.0509   5
   7  -2  -3 446.350 17.9371   1
   7  -2  -3 448.100 17.7522   2
   7  -2  -3 451.276 18.1749   1
   7  -2  -3 451.270 18.4069   6
   7  -2  -3 435.472 18.0784   6
   6  -2  -3 105.261 7.98579   5
   5  -2  -3 -0.3360 0.76114   5
  -5   2   3 2.45322 1.41877   3
   4  -2  -3 234.606 11.3131   5
  -4   2   3 234.042 11.9967   3
   3  -2  -3 280.813 11.1714   1
   3  -2  -3 248.660 13.1971   4
   3  -2  -3 270.954 11.1616   6
   3  -2  -3 283.117 10.9683   1
   3  -2  -3 267.518 11.2831   6
  -3   2   3 263.505 12.9147   3
   2  -2  -3 19.7904 1.92422   6
   2  -2  -3 14.9330 2.00363   6
   2  -2  -3 24.3914 2.24296   4
   2  -2  -3 15.4817 1.91540   1
   2  -2  -3 19.8528 1.81305   1
  -2   2   3 17.8487 1.60095   6
  -2   2   3 15.6954 2.51292   4
  -2   2   3 15.6107 1.54838   1
   1  -2  -3 2303.25 89.4705   6
   1  -2  -3 2326.81 89.4813   6
   1  -2  -3 2232.06 89.7715   6
   1  -2  -3 2334.97 89.1543   1
   1  -2  -3 2351.14 88.5556   5
   1  -2  -3 2422.41 89.5402   1
  -1   2   3 2388.01 89.2313   1
  -1   2   3 2334.79 89.5226   6
   0  -2  -3 322.766 14.1778   1
   0  -2  -3 321.093 14.2158   5
   0  -2  -3 308.767 13.8198   2
   0  -2  -3 325.253 14.5095   6
   0   2   3 315.693 14.8437   6
   0   2   3 300.780 13.9399   5
   0   2   3 318.135 14.4698   1
  -1  -2  -3 879.002 35.3917   6
  -1  -2  -3 837.256 34.5624   2
  -1  -2  -3 859.082 34.9465   1
   1   2   3 877.503 35.7675   1
   1   2   3 845.354 35.7791   5
   1   2   3 886.744 36.3143   6
  -2  -2  -3 1306.83 51.8477   6
  -2  -2  -3 1276.76 50.9812   2
  -2  -2  -3 1272.56 51.3402   1
   2   2   3 1263.08 53.1679   6
   2   2   3 1321.46 52.7533   1
   2   2   3 1348.47 53.5336   5
  -3  -2  -3 91.6265 6.23539   6
  -3  -2  -3 90.5793 5.88503   1
  -3  -2  -3 78.0581 5.42131   2
   3   2   3 94.4130 7.61524   6
   3   2   3 97.4504 8.04625   5
   3   2   3 90.0631 7.02416   1
   4   2   3 94.7313 7.77822   1
   4   2   3 87.9758 8.13381   6
   4   2   3 98.5199 8.95164   5
   5   2   3 941.241 45.4500   5
   5   2   3 957.474 43.0077   1
   5   2   3 1026.90 43.8794   6
   6   2   3 213.551 14.3032   1
   9  -3  -3 15.7717 4.49876   5
   9  -3  -3 17.3155 2.11786   1
   9  -3  -3 14.2683 1.97376   6
   8  -3  -3 256.830 10.4262   2
   8  -3  -3 245.781 10.5970   1
   8  -3  -3 259.939 16.1227   5
   7  -3  -3 313.138 17.2908   5
   6  -3  -3 14.1428 3.01334   5
  -6   3   3 19.4945 3.65554   3
   5  -3  -3 187.936 7.52708   1
   5  -3  -3 182.219 7.81329   6
  -5   3   3 168.740 10.6468   3
   4  -3  -3 6299.48 232.816   1
   4  -3  -3 6267.21 233.308   1
   4  -3  -3 5763.65 236.833   4
   4  -3  -3 6318.77 233.587   6
   4  -3  -3 6264.90 233.252   6
  -4   3   3 6339.03 236.404   3
   3  -3  -3 1323.18 50.8789   4
   3  -3  -3 1306.93 50.3239   1
   3  -3  -3 1245.85 50.5510   6
   3  -3  -3 1318.59 50.3792   1
   3  -3  -3 1266.01 50.6379   6
  -3   3   3 1280.83 49.2876   6
  -3   3   3 1306.07 48.9544   1
   2  -3  -3 228.197 11.8397   6
   2  -3  -3 242.629 11.6657   1
   2  -3  -3 254.526 12.3498   6
   2  -3  -3 251.737 11.8640   1
  -2   3   3 258.159 11.5903   4
  -2   3   3 243.997 11.3295   1
  -2   3   3 258.062 11.8044   6
   1  -3  -3 11.6515 2.21111   1
   1  -3  -3 7.34979 1.90691   1
   1  -3  -3 10.7375 2.28065   6
   1  -3  -3 8.27299 1.61064   5
  -1   3   3 8.84743 2.11654   6
  -1   3   3 10.8203 2.14038   1
   0  -3  -3 8887.10 335.064   1
   0  -3  -3 8749.84 335.069   5
   0  -3  -3 8839.23 334.914   1
   0  -3  -3 8943.81 334.257   6
   0   3   3 9213.41 336.056   1
   0   3   3 8630.46 334.865   6
  -1  -3  -3 -0.2247 0.99102   5
  -1  -3  -3 1.48529 1.04329   1
  -1  -3  -3 0.35023 0.74308   2
  -1  -3  -3 0.40495 0.75359   6
   1   3   3 1.98281 1.25458   6
   1   3   3 1.92816 1.34830   5
   1   3   3 0.39356 0.83703   1
  -2  -3  -3 21.5186 3.33927   1
  -2  -3  -3 19.7293 3.35670   6
  -2  -3  -3 24.3823 3.37940   2
   2   3   3 22.9511 4.23353   5
   2   3   3 19.8964 4.17018   6
   2   3   3 18.0114 3.47808   1
  -3  -3  -3 170.045 9.79064   1
  -3  -3  -3 159.067 9.99586   6
   3   3   3 176.244 12.1097   6
   3   3   3 173.210 11.3752   1
   3   3   3 168.730 11.9915   5
   4   3   3 36.4424 6.68973   5
   4   3   3 29.5950 5.24512   1
   4   3   3 28.8969 5.97377   6
   5   3   3 63.7010 9.75789   5
   5   3   3 71.8370 8.83197   1
   5   3   3 75.0417 10.4877   6
   9  -4  -3 22.7214 5.56998   5
   8  -4  -3 4.41732 2.61487   5
   8  -4  -3 3.65224 1.06438   1
   8  -4  -3 3.64636 0.91631   2
   7  -4  -3 99.3852 5.35193   1
   7  -4  -3 103.946 5.10232   1
   7  -4  -3 105.059 5.34842   6
   7  -4  -3 102.195 5.19676   2
   7  -4  -3 101.366 5.52624   6
  -7   4   3 112.796 8.85195   3
   6  -4  -3 13.1086 2.12099   6
   6  -4  -3 18.7699 2.04689   1
   6  -4  -3 12.8791 1.89125   1
   6  -4  -3 11.6178 3.42542   4
   6  -4  -3 13.5241 2.01533   6
  -6   4   3 17.5650 3.86925   3
   5  -4  -3 114.549 6.22330   1
   5  -4  -3 104.876 7.73388   4
   5  -4  -3 104.744 6.46005   6
   5  -4  -3 121.986 6.35881   1
   5  -4  -3 113.378 6.46053   6
  -5   4   3 117.230 8.38546   3
   4  -4  -3 1190.08 46.3777   6
   4  -4  -3 1221.09 46.4144   4
   4  -4  -3 1098.50 46.3072   6
   4  -4  -3 1142.52 45.9183   1
   4  -4  -3 1129.92 45.9150   1
   3  -4  -3 31.1852 4.13223   6
   3  -4  -3 24.1355 3.25692   1
   3  -4  -3 25.5910 3.46094   1
   3  -4  -3 30.5635 4.09107   6
  -3   4   3 22.9602 2.80965   4
  -3   4   3 39.0078 2.91283   1
   2  -4  -3 1596.43 64.7792   1
   2  -4  -3 1574.43 64.7875   6
   2  -4  -3 1570.68 64.2388   1
  -2   4   3 1681.33 64.7183   6
  -2   4   3 1713.00 64.2014   1
   1  -4  -3 304.772 15.7768   6
   1  -4  -3 335.810 15.6818   1
   1  -4  -3 288.897 14.6406   5
  -1   4   3 312.436 15.4522   1
  -1   4   3 320.690 16.1665   6
   0  -4  -3 58.4977 5.05543   1
   0  -4  -3 62.9794 5.62009   6
   0  -4  -3 58.2293 5.34398   5
   0  -4  -3 65.0036 5.36369   1
   0  -4  -3 51.8223 5.18669   6
   0   4   3 60.2575 7.04071   6
   0   4   3 53.6845 5.21648   1
  -1  -4  -3 48.9751 5.33685   2
  -1  -4  -3 44.1355 5.64102   6
  -1  -4  -3 50.1548 5.70084   1
   1   4   3 47.6100 5.95357   1
   1   4   3 40.0715 6.03061   6
  -2  -4  -3 65.9936 5.38438   2
  -2  -4  -3 62.3643 5.94736   6
  -2  -4  -3 54.2982 5.29178   1
   2   4   3 60.6204 7.36659   1
   2   4   3 65.3489 8.34388   6
   3   4   3 47.0664 7.80760   5
   3   4   3 69.7085 8.73144   1
   3   4   3 62.1560 8.82778   6
   4   4   3 31.8252 5.97770   1
   4   4   3 33.6497 6.98348   6
   4   4   3 19.2728 5.18064   5
   5   4   3 302.693 20.1583   6
   5   4   3 249.466 17.5183   1
   9  -5  -3 4.98019 2.81549   4
   9  -5  -3 0.79594 1.06514   6
   9  -5  -3 2.05915 1.04280   1
   8  -5  -3 42.5958 7.52445   4
   8  -5  -3 58.1334 4.06602   1
   8  -5  -3 55.9187 4.27250   6
   8  -5  -3 54.0654 3.83319   2
  -8   5   3 53.9971 7.87832   3
   7  -5  -3 62.1492 4.82021   6
   7  -5  -3 73.8890 4.79555   1
   7  -5  -3 55.2887 6.46959   4
  -7   5   3 62.1757 8.26062   3
   6  -5  -3 162.188 10.4824   4
   6  -5  -3 167.343 9.22018   6
   6  -5  -3 162.803 9.11869   1
   6  -5  -3 163.724 8.89972   1
   6  -5  -3 161.293 9.42437   6
  -6   5   3 166.497 11.4964   3
   5  -5  -3 300.505 16.0423   6
   5  -5  -3 338.577 15.5665   1
   5  -5  -3 312.498 15.7113   1
   5  -5  -3 342.170 15.7690   4
   5  -5  -3 330.822 16.0783   6
  -5   5   3 365.687 18.4313   3
   4  -5  -3 563.733 27.4506   6
   4  -5  -3 577.214 26.9519   1
   4  -5  -3 657.415 27.4472   6
   4  -5  -3 634.642 27.0290   1
  -4   5   3 620.522 25.6179   6
  -4   5   3 636.568 25.0032   1
   3  -5  -3 65.5944 5.81690   6
   3  -5  -3 59.7554 5.34732   1
   3  -5  -3 61.8942 5.60699   1
  -3   5   3 64.3556 5.32992   6
  -3   5   3 60.9233 4.64121   4
  -3   5   3 66.6983 4.98135   1
   2  -5  -3 35.2023 4.95315   6
   2  -5  -3 36.0253 4.78708   1
   2  -5  -3 39.7553 3.91150   5
  -2   5   3 36.8076 5.27441   6
  -2   5   3 34.6137 4.52849   1
   1  -5  -3 4.31529 1.97039   6
   1  -5  -3 4.97307 2.14000   1
   1  -5  -3 6.12533 2.26340   5
  -1   5   3 6.92551 2.64583   6
  -1   5   3 3.24299 1.56067   1
   0  -5  -3 227.123 13.6647   6
   0  -5  -3 230.005 13.2361   1
   0  -5  -3 243.826 13.9610   6
   0  -5  -3 216.764 12.8672   1
   0   5   3 218.098 14.2295   6
   0   5   3 225.603 13.6639   1
  -1  -5  -3 234.639 14.3116   6
  -1  -5  -3 241.273 13.7548   1
  -1  -5  -3 239.866 13.2421   2
   1   5   3 233.978 14.6130   1
   1   5   3 229.716 15.3288   6
  -2  -5  -3 4.70064 2.20617   1
  -2  -5  -3 6.03553 2.54693   6
   2   5   3 6.07461 3.14707   6
   2   5   3 3.52270 2.29779   1
   3   5   3 123.568 11.9621   6
   3   5   3 139.478 11.5527   1
   4   5   3 334.340 21.1716   1
   4   5   3 358.228 22.6658   6
   9  -6  -3 -0.4114 1.34905   6
   9  -6  -3 2.98517 1.42523   1
  -9   6   3 0.73910 2.35524   3
   8  -6  -3 17.9729 4.54584   4
   8  -6  -3 29.0174 3.87444   1
   8  -6  -3 24.9072 3.94628   6
  -8   6   3 15.4543 4.52127   3
   7  -6  -3 110.661 7.68024   6
   7  -6  -3 113.712 8.47899   4
   7  -6  -3 111.051 7.47424   1
  -7   6   3 114.893 10.0532   3
   6  -6  -3 223.852 12.4633   1
   6  -6  -3 234.788 12.1680   4
   6  -6  -3 242.341 13.0380   6
  -6   6   3 224.336 14.8477   3
   5  -6  -3 170.734 10.7181   1
   5  -6  -3 184.901 10.9276   6
  -5   6   3 187.598 12.5018   3
   4  -6  -3 307.419 16.1906   6
   4  -6  -3 297.590 15.7243   1
  -4   6   3 278.775 14.0327   1
   3  -6  -3 4.86432 2.02966   1
   3  -6  -3 5.05954 2.20617   6
  -3   6   3 5.19907 1.74298   4
  -3   6   3 4.16550 1.96596   6
  -3   6   3 7.98781 2.29152   1
   2  -6  -3 844.201 33.7934   1
   2  -6  -3 719.496 32.3424   5
   2  -6  -3 673.779 33.4417   6
  -2   6   3 720.620 33.8682   6
  -2   6   3 738.529 33.0545   1
   1  -6  -3 130.423 10.0597   6
   1  -6  -3 116.205 9.23621   1
  -1   6   3 134.975 9.86663   1
  -1   6   3 121.151 10.1182   6
   0  -6  -3 33.8199 6.11537   6
   0  -6  -3 25.2041 4.80981   1
   0  -6  -3 26.8581 5.42398   6
   0  -6  -3 23.5058 4.76131   1
   0   6   3 28.1110 5.37837   1
   0   6   3 31.2074 6.29080   6
  -1  -6  -3 136.896 10.8485   6
  -1  -6  -3 134.250 10.0703   1
   1   6   3 121.529 10.6173   1
   1   6   3 130.885 11.6986   6
   2   6   3 532.601 30.0941   6
   2   6   3 557.730 29.1268   1
   3   6   3 197.425 15.9936   6
   3   6   3 167.183 14.1717   1
   9  -7  -3 -0.6341 1.74714   6
   9  -7  -3 0.85344 1.67539   1
  -9   7   3 1.59612 2.55686   3
   8  -7  -3 80.2868 7.41365   6
   8  -7  -3 99.3654 7.40172   1
  -8   7   3 72.5451 10.0190   3
   7  -7  -3 9.32506 2.80354   1
  -7   7   3 5.31855 2.95604   3
   6  -7  -3 151.553 10.7501   1
   6  -7  -3 196.162 11.0224   6
  -6   7   3 158.290 12.5900   3
   5  -7  -3 138.779 8.02064   6
   4  -7  -3 1090.38 47.8663   6
   4  -7  -3 1077.81 47.0098   1
   3  -7  -3 128.476 10.7943   6
   3  -7  -3 161.089 11.0264   1
  -3   7   3 140.549 9.97464   1
  -3   7   3 150.597 10.8964   6
   2  -7  -3 1168.21 49.8273   1
   2  -7  -3 1111.35 50.4860   6
  -2   7   3 1118.52 49.2426   1
  -2   7   3 1155.34 50.6587   6
   1  -7  -3 501.621 26.6604   6
   1  -7  -3 545.227 26.3861   1
   1  -7  -3 462.837 26.0705   6
  -1   7   3 526.755 26.4813   1
  -1   7   3 503.128 27.2448   6
   0  -7  -3 133.615 11.4824   6
   0  -7  -3 139.947 11.1199   1
   0  -7  -3 148.423 11.8511   6
   0  -7  -3 145.291 11.1113   1
   0   7   3 132.470 11.3774   1
   0   7   3 152.778 12.9154   6
  -1  -7  -3 0.19321 1.88717   1
   1   7   3 1.62301 2.78840   1
   1   7   3 1.39871 2.78287   6
   2   7   3 29.9502 6.66472   1
   2   7   3 17.0919 5.62170   6
   8  -8  -3 21.5771 4.35677   1
   8  -8  -3 34.8974 6.09101   6
  -8   8   3 29.9119 6.56531   3
   7  -8  -3 133.314 7.15135   6
   7  -8  -3 102.010 6.36242   1
   6  -8  -3 862.448 34.5835   6
   6  -8  -3 703.341 34.1102   1
  -6   8   3 633.540 35.5493   3
   5  -8  -3 52.3516 7.26821   1
   5  -8  -3 55.8584 8.24601   6
   4  -8  -3 4.72365 3.07960   6
   4  -8  -3 -0.1051 1.53601   1
   3  -8  -3 41.6082 7.14100   6
   3  -8  -3 51.1054 7.19802   1
   2  -8  -3 886.384 42.2879   1
   2  -8  -3 947.567 43.8752   6
  -2   8   3 899.357 43.3933   6
  -2   8   3 919.751 42.1853   1
   1  -8  -3 58.5139 8.26205   1
   1  -8  -3 47.2867 8.01263   6
   1  -8  -3 50.9114 8.37634   6
  -1   8   3 43.1668 7.96724   6
  -1   8   3 44.6176 7.82896   1
   0  -8  -3 14.6789 4.43441   1
   0  -8  -3 17.7578 4.97241   1
   0  -8  -3 9.12390 3.96437   6
   0   8   3 11.4862 4.81705   6
   0   8   3 11.1098 4.25561   1
   7  -9  -3 165.497 12.3591   1
  -7   9   3 161.399 14.0694   3
   6  -9  -3 73.4514 11.3293   6
   6  -9  -3 55.6034 8.05805   1
  -6   9   3 52.2366 9.26989   3
   5  -9  -3 60.0153 10.0299   6
   5  -9  -3 54.8346 8.38100   1
   4  -9  -3 91.6834 11.0697   1
   4  -9  -3 101.038 12.2014   6
   3  -9  -3 0.64379 2.28855   1
   3  -9  -3 -0.9698 2.14375   6
   2  -9  -3 2.42157 2.71455   1
   2  -9  -3 6.67716 3.76317   6
   1  -9  -3 165.801 14.3715   6
   1  -9  -3 173.264 14.5660   6
   1  -9  -3 171.448 13.5900   1
   1  -9  -3 146.383 13.0546   1
  -1   9   3 141.890 13.2212   1
   5 -10  -3 28.3989 7.93498   6
   5 -10  -3 21.0435 5.71767   1
   4 -10  -3 294.080 20.2349   1
   4 -10  -3 328.168 21.8871   6
  -3  10  -4 177.563 13.4728   3
   3 -10   4 188.547 15.4450   1
   3 -10   4 186.736 16.0505   6
  -4  10  -4 58.9916 8.75682   3
   4 -10   4 68.8242 11.0574   6
   4 -10   4 54.4105 9.31097   1
  -5  10  -4 76.5154 10.6103   3
   5 -10   4 68.8051 11.6717   6
   5 -10   4 65.0061 10.0861   1
   0   9  -4 19.2201 6.21539   1
   0   9  -4 16.7490 6.28210   6
  -1   9  -4 9.84878 4.84168   1
  -1   9  -4 10.3026 4.88170   6
   1  -9   4 10.9424 4.21031   1
   1  -9   4 14.1045 5.27307   6
  -2   9  -4 2.22324 2.81213   1
  -2   9  -4 2.67931 2.34592   3
   2  -9   4 0.02486 2.06679   1
   2  -9   4 5.18885 3.68908   6
  -3   9  -4 107.132 9.62576   3
   3  -9   4 125.742 14.2898   6
   3  -9   4 110.621 12.7066   1
  -4   9  -4 3.94479 2.75449   3
   4  -9   4 -0.8246 2.52061   6
   4  -9   4 -0.4651 2.07885   1
  -5   9  -4 356.472 21.0096   3
   5  -9   4 357.768 21.5086   1
   5  -9   4 326.996 21.8886   6
  -6   9  -4 8.55827 4.13884   3
   6  -9   4 11.3703 5.01084   6
   6  -9   4 10.4786 3.94153   1
   2   8  -4 220.092 18.4809   6
   2   8  -4 199.803 16.6934   1
   1   8  -4 8.09890 4.47452   6
   1   8  -4 5.30795 3.27417   1
   0   8  -4 3.57106 2.85039   1
   0   8  -4 0.35855 2.65698   6
   0  -8   4 0.55896 2.17425   1
   0  -8   4 0.93154 2.50952   6
  -1   8  -4 143.320 13.1421   6
  -1   8  -4 145.473 12.3355   1
   1  -8   4 142.276 11.7911   1
   1  -8   4 139.539 12.3072   6
  -2   8  -4 59.8386 8.47906   1
  -2   8  -4 47.9629 6.73451   3
  -2   8  -4 55.5820 9.22285   6
   2  -8   4 46.7673 7.71189   6
   2  -8   4 50.6291 7.87856   1
  -3   8  -4 355.908 19.3517   3
  -3   8  -4 338.957 20.0994   1
   3  -8   4 361.324 20.7294   1
   3  -8   4 345.341 21.1923   6
  -4   8  -4 41.2434 6.82194   3
   4  -8   4 28.0511 6.19999   6
   4  -8   4 31.0104 6.05330   1
  -5   8  -4 905.181 41.4882   3
   5  -8   4 888.927 41.2253   1
   5  -8   4 898.702 42.4180   6
  -6   8  -4 143.768 11.7450   3
   6  -8   4 150.654 12.5631   6
   6  -8   4 141.805 11.2422   1
  -7   8  -4 0.35748 2.51183   3
   7  -8   4 1.18216 1.98031   1
   3   7  -4 78.7013 11.3614   1
   3   7  -4 124.289 15.6478   6
   2   7  -4 671.876 35.1388   1
   2   7  -4 692.776 36.7436   6
   1   7  -4 11.0525 4.12465   1
   1   7  -4 16.3224 5.15463   6
  -1  -7   4 10.6712 3.55313   1
  -1  -7   4 10.0858 3.81371   6
   0   7  -4 61.2637 8.79525   1
   0   7  -4 53.0030 8.38220   6
   0  -7   4 56.6110 8.43046   6
   0  -7   4 61.3934 8.31808   1
  -1   7  -4 68.4014 4.73006   4
  -1   7  -4 64.8976 8.57816   1
  -1   7  -4 62.3728 8.84850   6
   1  -7   4 61.1325 8.60082   6
   1  -7   4 57.2892 7.74713   1
  -2   7  -4 3.34092 2.41989   6
  -2   7  -4 4.02642 2.07755   3
  -2   7  -4 1.88667 1.99836   1
   2  -7   4 -0.3287 1.67327   1
   2  -7   4 4.96245 2.69787   6
  -3   7  -4 113.410 9.82125   6
  -3   7  -4 111.348 8.70129   3
  -3   7  -4 108.146 9.20370   1
   3  -7   4 111.947 9.25172   1
   3  -7   4 122.809 10.2033   6
  -4   7  -4 180.764 12.4488   3
   4  -7   4 201.899 12.9486   1
   4  -7   4 193.740 13.3419   6
  -5   7  -4 317.431 18.2959   3
   5  -7   4 326.809 17.7812   1
   5  -7   4 307.147 18.3464   6
  -6   7  -4 28.4538 5.95982   3
   6  -7   4 31.5453 5.30205   1
   8  -7   4 232.764 14.4067   1
   4   6  -4 44.3138 8.22552   1
   4   6  -4 44.8274 9.50187   6
   3   6  -4 7.72178 4.00826   6
   3   6  -4 5.26923 3.17727   1
   2   6  -4 111.533 10.4913   1
   2   6  -4 110.343 10.9909   6
  -2  -6   4 131.888 9.72902   1
   1   6  -4 3.00775 2.51010   6
   1   6  -4 -0.0572 1.72974   1
  -1  -6   4 -0.7656 1.41135   6
  -1  -6   4 1.43207 1.98499   1
   0   6  -4 83.0207 9.36332   1
   0   6  -4 91.8164 10.7341   6
   0  -6   4 91.0152 8.00322   1
   0  -6   4 80.8862 8.09141   6
  -1   6  -4 206.547 9.90273   4
  -1   6  -4 230.732 14.6317   6
  -1   6  -4 203.720 13.4320   1
   1  -6   4 196.564 13.3967   6
   1  -6   4 202.456 12.9691   1
  -2   6  -4 278.855 16.4083   1
  -2   6  -4 287.840 17.2190   6
  -2   6  -4 294.407 15.2906   3
   2  -6   4 315.579 16.5880   1
   2  -6   4 290.409 16.9236   6
  -3   6  -4 1.21685 1.79531   6
  -3   6  -4 9.03748 2.84222   1
  -3   6  -4 10.3569 2.94233   3
   3  -6   4 7.58442 2.78010   6
   3  -6   4 6.47002 2.22210   2
   3  -6   4 7.75221 2.59685   1
  -4   6  -4 61.5890 5.77420   1
  -4   6  -4 67.4134 7.63518   3
  -4   6  -4 62.1536 7.96958   6
   4  -6   4 57.7295 6.71173   1
   4  -6   4 57.1171 7.11504   6
  -5   6  -4 60.5332 7.69130   3
   5  -6   4 63.4507 5.87450   1
  -6   6  -4 170.784 11.9872   3
   6  -6   4 145.333 10.0473   1
   7  -6   4 496.218 24.0494   1
   7  -6   4 546.689 24.7516   6
   8  -6   4 200.686 13.1928   1
   8  -6   4 273.674 14.1460   6
   5   5  -4 2.07531 2.63595   1
   5   5  -4 8.40166 4.80403   6
   4   5  -4 237.264 16.7679   6
   4   5  -4 207.752 15.0962   1
   3   5  -4 2.17762 2.16327   1
   3   5  -4 4.00624 2.78055   6
   2   5  -4 349.440 20.3293   6
   2   5  -4 363.908 19.8808   1
  -2  -5   4 344.075 18.0679   1
  -2  -5   4 339.280 18.8642   6
   1   5  -4 163.383 12.0257   6
   1   5  -4 160.592 11.3836   1
  -1  -5   4 163.086 10.7139   1
  -1  -5   4 167.872 11.2370   6
   0   5  -4 298.760 16.1328   4
   0   5  -4 356.024 19.3575   6
   0   5  -4 369.423 18.7125   1
   0  -5   4 370.434 18.7839   6
   0  -5   4 359.774 18.0103   1
  -1   5  -4 372.549 19.2262   1
  -1   5  -4 388.616 15.8423   4
  -1   5  -4 387.924 17.5090   3
  -1   5  -4 369.089 19.8511   6
   1  -5   4 362.649 18.7013   1
   1  -5   4 358.891 19.2229   6
  -2   5  -4 896.763 38.9556   1
  -2   5  -4 899.590 39.7518   6
  -2   5  -4 947.038 37.9167   3
   2  -5   4 910.564 39.2938   2
   2  -5   4 872.219 38.3574   1
   2  -5   4 899.498 39.1946   6
  -3   5  -4 57.9307 5.30163   3
  -3   5  -4 65.6352 5.99671   6
  -3   5  -4 55.2663 5.25002   1
   3  -5   4 52.5351 2.98313   4
   3  -5   4 51.8171 4.89227   1
   3  -5   4 52.7599 6.27785   6
   3  -5   4 51.5798 5.57833   2
  -4   5  -4 141.286 9.32657   3
  -4   5  -4 143.230 8.60917   1
  -4   5  -4 123.457 8.75469   6
   4  -5   4 133.475 8.94645   6
   4  -5   4 117.244 8.18219   1
   4  -5   4 132.341 8.34056   2
  -5   5  -4 1448.93 60.9144   3
   5  -5   4 1540.82 59.7253   6
   5  -5   4 1413.43 58.8622   1
   6  -5   4 612.529 28.2556   1
   6  -5   4 683.832 29.1634   6
   7  -5   4 129.348 8.63781   6
   7  -5   4 115.133 8.06197   1
   8  -5   4 231.862 12.8967   1
   8  -5   4 229.276 13.7813   6
   4   4  -4 778.685 36.1498   1
   4   4  -4 765.701 36.7861   6
   3   4  -4 43.2741 6.36335   1
   3   4  -4 44.7554 6.97508   6
  -3  -4   4 51.8611 5.70008   1
   2   4  -4 312.036 17.9628   6
   2   4  -4 319.298 17.3044   1
  -2  -4   4 329.930 16.4003   1
  -2  -4   4 324.712 16.9010   6
   1   4  -4 1269.28 52.2829   1
   1   4  -4 1275.44 53.0969   6
   1   4  -4 1276.94 51.7313   2
  -1  -4   4 1205.17 51.9141   6
  -1  -4   4 1250.97 51.4535   1
   0   4  -4 3678.15 137.303   1
   0   4  -4 3390.00 137.566   6
   0   4  -4 3712.26 136.662   2
   0   4  -4 3263.84 135.089   4
   0  -4   4 3549.12 136.681   1
   0  -4   4 3699.81 137.400   6
  -1   4  -4 30.6308 3.50009   3
  -1   4  -4 23.6274 3.61006   2
  -1   4  -4 24.8963 4.33988   6
  -1   4  -4 26.2213 3.99431   1
   1  -4   4 27.2086 4.06597   6
   1  -4   4 33.3649 4.38142   1
  -2   4  -4 483.065 21.7343   2
  -2   4  -4 511.030 22.3957   1
  -2   4  -4 495.932 21.5064   3
  -2   4  -4 499.239 22.8730   6
   2  -4   4 498.614 21.6127   2
   2  -4   4 475.552 19.6252   4
   2  -4   4 477.131 21.6341   1
   2  -4   4 452.095 21.8766   6
  -3   4  -4 110.070 7.64458   6
  -3   4  -4 104.795 7.19106   1
  -3   4  -4 116.013 7.48120   3
   3  -4   4 107.708 7.20585   6
   3  -4   4 113.476 7.25421   1
   3  -4   4 104.416 6.85084   1
   3  -4   4 112.019 6.95104   2
  -4   4  -4 124.536 7.27437   2
  -4   4  -4 126.133 7.97869   6
  -4   4  -4 112.837 8.27352   3
   4  -4   4 156.293 7.92727   6
   4  -4   4 120.460 7.65514   1
   4  -4   4 114.586 7.25665   2
   4  -4   4 126.475 7.60181   1
   4  -4   4 114.173 7.80916   6
   5  -4   4 253.716 12.6244   6
   5  -4   4 230.218 12.0991   1
   5  -4   4 231.018 11.8887   2
   6  -4   4 31.2657 2.65823   6
   6  -4   4 6.77065 2.23237   1
   7  -4   4 537.953 25.1272   1
   7  -4   4 590.623 25.9787   6
   8  -4   4 220.773 12.5897   6
   8  -4   4 193.945 11.7158   1
   6   3  -4 57.4712 7.61727   1
   5   3  -4 287.745 17.2506   1
   5   3  -4 332.051 17.1498   6
   4   3  -4 524.468 24.6459   6
   4   3  -4 471.642 24.0238   1
   3   3  -4 351.613 18.6178   6
   3   3  -4 388.658 18.4348   1
   3   3  -4 344.015 17.5808   1
  -3  -3   4 370.920 16.5054   1
  -3  -3   4 325.804 16.6601   6
   2   3  -4 69.3254 5.91882   1
   2   3  -4 66.2125 5.49771   1
   2   3  -4 73.0828 6.29336   6
   2   3  -4 75.0593 5.69955   2
  -2  -3   4 63.0324 5.81927   5
  -2  -3   4 72.0906 5.37688   1
  -2  -3   4 71.0064 5.62269   6
   1   3  -4 245.333 13.5618   6
   1   3  -4 259.045 12.8712   2
   1   3  -4 243.506 13.0774   1
  -1  -3   4 257.355 13.2410   6
  -1  -3   4 263.177 12.8947   1
   0   3  -4 1046.92 43.4615   6
   0   3  -4 1070.32 42.5644   2
   0   3  -4 1093.80 43.0529   1
   0   3  -4 1039.87 40.7022   3
   0   3  -4 1017.70 41.6606   4
   0  -3   4 1033.10 42.4863   1
   0  -3   4 1049.09 42.9701   6
  -1   3  -4 88.9371 6.08362   1
  -1   3  -4 86.6679 6.33342   6
  -1   3  -4 86.7974 5.80109   2
  -1   3  -4 93.3334 5.27912   3
   1  -3   4 90.8625 6.05796   6
   1  -3   4 90.4893 5.05148   4
   1  -3   4 92.8763 5.82462   1
   1  -3   4 83.5857 5.52617   2
  -2   3  -4 188.382 10.4564   6
  -2   3  -4 194.587 9.88089   2
  -2   3  -4 195.687 10.1897   1
  -2   3  -4 196.690 9.82794   3
   2  -3   4 192.357 10.0657   6
   2  -3   4 190.283 9.59363   2
   2  -3   4 187.891 9.60388   1
   2  -3   4 181.528 9.77296   1
  -3   3  -4 3986.45 151.145   2
  -3   3  -4 3891.90 151.934   6
  -3   3  -4 4109.23 151.595   1
   3  -3   4 3870.98 151.610   6
   3  -3   4 3986.84 151.109   1
   3  -3   4 4140.01 151.031   2
   3  -3   4 3911.24 151.532   6
   3  -3   4 3947.97 151.218   1
  -4   3  -4 0.02587 0.63581   1
  -4   3  -4 0.20074 0.77085   6
  -4   3  -4 0.37706 0.68535   2
   4  -3   4 -0.2186 0.57145   6
   4  -3   4 0.46068 0.74624   2
   4  -3   4 -0.4951 0.51161   1
   4  -3   4 0.89198 0.69398   1
   5  -3   4 5.50060 1.78569   1
   5  -3   4 7.01568 1.76756   2
   5  -3   4 5.78376 1.73026   1
   6  -3   4 50.2421 4.44821   1
   7  -3   4 820.630 35.2857   1
   7  -3   4 829.765 35.9796   6
   8  -3   4 62.8595 5.82395   1
   8  -3   4 80.4987 6.79869   6
   7   2  -4 63.2775 5.52470   6
   7   2  -4 16.8488 4.69988   1
   6   2  -4 467.227 24.1953   6
   6   2  -4 505.160 23.8975   1
   5   2  -4 614.912 27.8634   1
   5   2  -4 596.907 28.0389   6
   4   2  -4 123.876 8.42130   6
   4   2  -4 114.239 7.88365   1
   4   2  -4 111.290 8.17446   1
   4   2  -4 141.840 8.68763   6
  -4  -2   4 130.458 5.89187   1
   3   2  -4 40.3483 4.86741   6
   3   2  -4 39.6220 4.94931   6
   3   2  -4 42.9448 3.94243   1
   3   2  -4 36.1273 4.10211   2
   3   2  -4 36.8469 4.48323   1
  -3  -2   4 38.6296 3.35262   6
  -3  -2   4 42.7826 5.49040   5
   2   2  -4 6790.50 260.913   2
   2   2  -4 6822.62 260.269   1
   2   2  -4 7003.05 262.267   6
   2   2  -4 6841.23 261.140   6
   2   2  -4 7022.25 261.570   1
  -2  -2   4 6871.51 260.517   6
  -2  -2   4 6983.05 260.743   1
  -2  -2   4 6930.93 261.316   5
   1   2  -4 30.4446 3.77132   6
   1   2  -4 26.8342 3.10821   4
   1   2  -4 33.7707 3.77253   1
   1   2  -4 29.9416 2.79380   1
   1   2  -4 24.7482 3.03608   2
  -1  -2   4 32.3603 3.16944   6
  -1  -2   4 30.3785 2.86635   1
   0   2  -4 1861.77 70.0725   3
   0   2  -4 1761.31 71.6999   1
   0   2  -4 2029.29 71.6921   4
   0   2  -4 1878.92 72.2484   6
   0   2  -4 1927.16 71.5969   2
   0   2  -4 1843.62 71.3075   1
   0  -2   4 1811.01 71.4946   1
   0  -2   4 1669.40 71.4739   4
   0  -2   4 1865.32 71.1935   2
   0  -2   4 1859.68 70.2459   3
   0  -2   4 1890.29 71.9165   6
  -1   2  -4 808.756 33.3999   2
  -1   2  -4 894.090 34.2685   6
  -1   2  -4 801.842 33.6528   1
   1  -2   4 845.726 33.2774   2
   1  -2   4 823.342 33.4133   1
   1  -2   4 837.860 33.4956   1
   1  -2   4 831.213 33.7722   6
  -2   2  -4 585.539 24.6467   6
  -2   2  -4 581.839 24.0109   2
  -2   2  -4 580.135 24.2778   1
   2  -2   4 567.384 24.3205   6
   2  -2   4 576.118 23.9774   1
   2  -2   4 585.607 24.0662   1
   2  -2   4 570.679 23.7967   2
   2  -2   4 602.846 24.4736   6
  -3   2  -4 595.448 25.7316   6
  -3   2  -4 613.596 25.1481   2
  -3   2  -4 624.695 25.5068   1
   3  -2   4 591.367 24.9517   2
   3  -2   4 615.162 25.7363   6
   3  -2   4 600.238 25.3955   1
   3  -2   4 630.947 25.9748   6
   3  -2   4 617.573 25.3828   1
  -4   2  -4 369.621 15.6425   2
  -4   2  -4 355.564 16.2342   6
  -4   2  -4 364.930 15.8576   1
   4  -2   4 350.023 16.1751   1
   4  -2   4 357.302 16.5943   6
   4  -2   4 358.458 16.3472   1
   4  -2   4 350.807 15.8960   2
   4  -2   4 363.881 16.7296   6
   5  -2   4 79.4639 5.33509   6
   5  -2   4 57.0903 5.10593   1
   5  -2   4 57.1128 4.55360   2
   6  -2   4 252.954 13.5637   1
   6  -2   4 265.716 14.0099   6
   7  -2   4 21.7919 5.74881   5
   7  -2   4 31.6831 4.84340   6
   7  -2   4 29.6957 4.59082   1
   7   1  -4 52.6409 5.25280   6
   7   1  -4 47.1997 6.02444   1
   6   1  -4 111.555 7.88718   1
   6   1  -4 105.270 8.01900   6
   5   1  -4 -0.2507 1.18549   1
   5   1  -4 12.7550 1.86988   6
   5   1  -4 4.93067 1.63906   1
   5   1  -4 4.66615 1.82233   6
   4   1  -4 578.771 24.3981   1
   4   1  -4 568.397 24.2130   1
   4   1  -4 542.031 24.5034   6
   4   1  -4 586.951 24.9279   6
   4   1  -4 581.158 24.0813   2
  -4  -1   4 578.200 26.4289   5
   3   1  -4 686.370 27.9301   3
   3   1  -4 713.013 28.7067   1
   3   1  -4 694.352 28.6040   1
   3   1  -4 696.495 29.0287   6
   3   1  -4 723.269 29.0687   6
   3   1  -4 699.917 28.3379   2
  -3  -1   4 703.606 27.4549   6
  -3  -1   4 694.594 29.9390   5
  -3  -1   4 703.273 27.0441   1
   2   1  -4 5018.00 184.953   6
   2   1  -4 4790.60 183.802   2
   2   1  -4 4622.90 183.771   1
   2   1  -4 5142.75 184.555   1
   2   1  -4 4887.89 184.199   6
  -2  -1   4 4836.14 185.127   5
   1   1  -4 450.641 18.3304   1
   1   1  -4 462.315 18.6225   6
   1   1  -4 468.157 18.1772   2
   1   1  -4 458.718 18.3577   1
   1   1  -4 440.541 19.2968   4
   1   1  -4 435.901 18.5209   6
  -1  -1   4 440.251 18.2964   1
  -1  -1   4 454.673 18.5212   1
  -1  -1   4 381.699 19.2086   4
  -1  -1   4 433.376 18.5295   6
   0   1  -4 82.3026 4.53070   1
   0   1  -4 83.8324 4.50165   2
   0   1  -4 81.8535 4.78754   6
   0   1  -4 76.9834 4.50214   1
   0  -1   4 82.3418 4.77581   4
   0  -1   4 79.9259 4.75929   6
   0  -1   4 77.1876 4.50020   1
   0  -1   4 76.2432 4.42813   1
  -1   1  -4 34.1664 2.69480   1
  -1   1  -4 32.1111 2.51887   2
  -1   1  -4 30.8752 2.72695   6
   1  -1   4 35.0938 2.72234   1
   1  -1   4 35.2019 2.58231   2
   1  -1   4 33.7520 2.64254   1
   1  -1   4 33.7989 2.88564   6
  -2   1  -4 1782.51 70.4955   6
  -2   1  -4 1733.43 69.8880   2
  -2   1  -4 1885.44 70.2815   1
   2  -1   4 1785.42 70.5761   6
   2  -1   4 1795.32 70.8219   6
   2  -1   4 1875.37 70.0572   2
   2  -1   4 1849.66 70.4555   1
   2  -1   4 1891.20 70.3377   1
  -3   1  -4 142.486 7.66420   6
  -3   1  -4 142.422 7.36277   1
  -3   1  -4 137.792 7.13641   2
   3  -1   4 140.641 8.12925   6
   3  -1   4 138.699 7.31186   2
   3  -1   4 145.099 7.83507   1
   3  -1   4 131.415 7.47590   1
   3  -1   4 136.977 7.83503   6
  -4   1  -4 467.275 20.4185   6
  -4   1  -4 477.113 19.8094   2
  -4   1  -4 474.673 20.0532   1
   4  -1   4 461.082 21.1373   6
   4  -1   4 467.560 21.0414   1
   4  -1   4 519.674 21.6592   6
   4  -1   4 442.873 20.5856   1
   4  -1   4 476.951 20.4518   2
   5  -1   4 185.678 9.97790   6
   5  -1   4 152.331 9.66895   1
   6  -1   4 1.21251 1.97342   5
   6  -1   4 2.03966 1.74166   1
   7  -1   4 5.46266 4.11608   5
   8   0  -4 18.6074 3.84998   1
   8   0  -4 23.9022 4.44662   6
   8   0  -4 24.9671 6.03766   5
   7   0  -4 161.814 11.9697   5
   7   0  -4 140.913 9.22829   6
   7   0  -4 143.599 8.84853   1
   6   0  -4 122.048 9.60772   5
   6   0  -4 120.506 7.38414   1
   6   0  -4 130.512 7.92824   6
   5   0  -4 123.517 6.94091   1
   5   0  -4 126.691 6.73004   2
   5   0  -4 134.212 7.21145   6
   5   0  -4 145.095 9.32627   5
   5   0  -4 122.946 6.77675   1
   5   0  -4 131.641 7.32614   6
   4   0  -4 2587.84 94.7733   1
   4   0  -4 2506.19 94.9062   6
   4   0  -4 2457.11 94.3613   2
   4   0  -4 2432.31 95.0032   6
   4   0  -4 2518.47 97.0142   5
   4   0  -4 2473.44 94.5231   1
   3   0  -4 0.07412 0.51222   6
   3   0  -4 -0.0119 0.36121   2
   3   0  -4 1.24291 0.53780   1
   3   0  -4 3.79243 0.94551   1
   3   0  -4 -0.2349 0.32379   6
  -3   0   4 0.16811 0.60057   5
  -3   0   4 1.27825 0.65859   3
   2   0  -4 1444.19 55.1142   6
   2   0  -4 1404.92 55.2416   6
   2   0  -4 1483.35 55.1157   1
   2   0  -4 1344.79 57.2876   4
   2   0  -4 1475.40 54.9273   1
   2   0  -4 1465.84 54.8171   2
  -2   0   4 1454.08 54.8010   1
  -2   0   4 1448.23 54.5525   1
  -2   0   4 1473.64 54.9825   3
  -2   0   4 1439.36 55.0477   6
  -2   0   4 1436.39 55.5040   5
   1   0  -4 256.658 11.4420   6
   1   0  -4 283.681 12.2809   4
   1   0  -4 251.107 11.2812   1
   1   0  -4 272.121 11.1705   2
   1   0  -4 266.982 11.2821   1
   1   0  -4 262.257 11.6053   6
  -1   0   4 265.430 12.4400   4
  -1   0   4 262.194 11.0779   2
  -1   0   4 274.936 11.3544   1
  -1   0   4 254.147 11.2051   1
  -1   0   4 266.317 11.5426   6
   0   0  -4 970.530 39.3023   1
   0   0  -4 1025.46 38.9565   2
   0   0  -4 986.551 39.0840   1
   0   0  -4 1027.97 39.4253   6
   0   0   4 951.672 39.4392   6
   0   0   4 1028.34 38.9884   2
   0   0   4 1047.51 39.2222   1
   0   0   4 1004.47 39.2344   1
  -1   0  -4 1549.43 59.1488   2
  -1   0  -4 1545.79 59.6325   6
  -1   0  -4 1532.93 59.3518   1
   1   0   4 1554.96 59.2473   2
   1   0   4 1505.06 59.4557   1
   1   0   4 1566.11 60.1472   6
   1   0   4 1521.96 59.6385   1
  -2   0  -4 1390.00 54.0021   6
  -2   0  -4 1404.11 53.7093   1
  -2   0  -4 1386.03 53.4563   2
   2   0   4 1374.65 54.0588   1
   2   0   4 1394.15 54.8646   6
   2   0   4 1416.55 54.4410   1
   2   0   4 1299.51 53.6138   2
  -3   0  -4 3.12112 1.15701   6
  -3   0  -4 2.31137 1.02239   2
  -3   0  -4 3.49779 1.24446   1
   3   0   4 3.85277 1.41277   1
   3   0   4 1.82222 1.04838   1
   3   0   4 2.78634 1.10824   2
   3   0   4 1.77411 1.17753   6
  -4   0  -4 37.6954 3.55703   6
  -4   0  -4 38.9685 3.21276   2
   4   0   4 41.3939 4.94440   1
   4   0   4 44.0254 6.45597   5
   4   0   4 39.8060 4.34332   2
   4   0   4 44.7150 5.06679   1
   5   0   4 100.762 9.71383   5
   5   0   4 103.921 7.73967   1
   6   0   4 82.7410 10.9312   5
   6   0   4 112.825 8.42894   6
   6   0   4 98.2910 7.97220   1
   7   0   4 205.188 10.7065   6
   8  -1  -4 219.702 15.0512   5
   8  -1  -4 217.750 11.3648   6
   8  -1  -4 195.978 10.8302   1
   7  -1  -4 34.9349 5.78422   5
   7  -1  -4 39.8444 3.66128   6
   7  -1  -4 33.4196 3.78470   1
   6  -1  -4 363.654 15.6667   6
   6  -1  -4 367.022 15.3484   1
   6  -1  -4 374.778 15.2583   1
   6  -1  -4 362.782 15.1714   2
   6  -1  -4 384.406 19.0088   5
   6  -1  -4 349.722 15.3879   6
   5  -1  -4 15.7655 1.21452   1
   5  -1  -4 16.1190 1.52378   6
   5  -1  -4 14.1025 1.26272   1
   5  -1  -4 15.9770 2.95887   5
   5  -1  -4 14.7000 1.37455   6
   5  -1  -4 16.6489 1.21554   2
   4  -1  -4 1017.24 38.9688   1
   4  -1  -4 1029.55 38.9368   2
   4  -1  -4 1119.67 41.6919   5
   4  -1  -4 1017.17 39.1442   6
   4  -1  -4 1038.84 39.4358   6
   4  -1  -4 1023.69 39.1733   1
  -4   1   4 994.543 41.3591   3
   3  -1  -4 63.0966 3.99047   5
   3  -1  -4 61.9872 5.49510   4
   3  -1  -4 69.8267 3.34409   1
   3  -1  -4 70.7103 3.52101   6
   3  -1  -4 70.7752 3.39013   1
   3  -1  -4 69.4257 3.26895   2
   3  -1  -4 74.2417 3.50784   6
  -3   1   4 61.6262 4.32961   3
   2  -1  -4 356.066 14.4309   1
   2  -1  -4 366.262 14.3180   2
   2  -1  -4 337.665 14.5987   6
   2  -1  -4 351.690 14.5888   6
   2  -1  -4 351.402 14.4147   1
   2  -1  -4 354.004 16.0034   4
  -2   1   4 349.737 13.7945   5
  -2   1   4 378.444 14.1334   1
  -2   1   4 350.504 14.2719   6
  -2   1   4 330.599 14.1401   1
   1  -1  -4 3641.39 132.986   6
   1  -1  -4 3519.27 132.549   1
   1  -1  -4 3339.02 131.765   2
   1  -1  -4 3585.57 132.971   6
   1  -1  -4 3559.60 132.832   1
  -1   1   4 3419.10 132.305   1
  -1   1   4 3457.93 132.234   1
  -1   1   4 3415.09 132.583   6
  -1   1   4 3509.35 132.070   2
  -1   1   4 3571.79 132.106   1
   0  -1  -4 2076.12 80.3171   1
   0  -1  -4 2139.40 80.8646   1
   0  -1  -4 2108.02 80.0951   2
   0  -1  -4 2032.13 80.5561   6
   0   1   4 2123.40 80.2543   2
   0   1   4 2164.21 81.0904   6
   0   1   4 2056.20 80.6073   1
   0   1   4 2114.84 80.5582   1
  -1  -1  -4 4.44281 1.50346   6
  -1  -1  -4 2.93449 1.19880   1
  -1  -1  -4 4.21616 1.31562   2
   1   1   4 5.25558 1.84522   6
   1   1   4 4.58427 1.43785   2
   1   1   4 4.51219 1.64183   1
   1   1   4 4.54076 1.57939   1
  -2  -1  -4 1.68967 0.96345   1
  -2  -1  -4 0.81944 0.85486   6
  -2  -1  -4 0.89278 0.70839   2
   2   1   4 1.17704 0.81305   2
   2   1   4 -0.6579 0.66500   5
   2   1   4 0.05852 0.80422   6
   2   1   4 0.94654 0.98899   1
  -3  -1  -4 72.7653 4.96125   1
  -3  -1  -4 72.9036 5.26267   6
  -3  -1  -4 64.7577 4.58463   2
   3   1   4 74.1152 6.84092   5
   3   1   4 75.0078 5.91463   1
   3   1   4 71.7886 5.34923   2
   3   1   4 70.0865 6.17232   6
   4   1   4 106.068 9.23308   5
   4   1   4 111.107 8.03615   1
   4   1   4 103.412 8.24433   6
   5   1   4 942.757 39.9052   6
   5   1   4 888.179 42.1565   5
   5   1   4 843.237 38.9462   1
   6   1   4 724.807 33.7087   1
   6   1   4 718.861 37.2400   5
   9  -2  -4 42.5863 7.53571   5
   9  -2  -4 41.7372 3.75863   6
   9  -2  -4 54.2307 4.30494   1
   8  -2  -4 153.978 11.7630   5
   8  -2  -4 156.277 7.68681   1
   8  -2  -4 159.513 7.90741   6
   7  -2  -4 249.212 14.7921   5
   6  -2  -4 52.6685 5.18508   5
  -6   2   4 54.9787 5.21870   3
   5  -2  -4 2.86160 1.28714   5
  -5   2   4 2.38317 1.44592   3
   4  -2  -4 2383.93 87.1762   6
   4  -2  -4 2363.94 88.5938   5
   4  -2  -4 2350.72 86.9847   1
   4  -2  -4 2341.50 86.8417   1
   4  -2  -4 2355.96 87.0190   6
   4  -2  -4 2073.35 91.1138   4
  -4   2   4 2329.96 89.9134   3
   3  -2  -4 1574.43 59.8573   1
   3  -2  -4 1529.05 60.1311   6
   3  -2  -4 1635.93 59.5802   5
   3  -2  -4 1583.49 60.2005   6
   3  -2  -4 1522.00 62.1928   4
   3  -2  -4 1593.34 60.0351   1
   2  -2  -4 1555.14 58.5751   6
   2  -2  -4 1485.19 58.6448   6
   2  -2  -4 1551.52 58.5268   6
   2  -2  -4 1489.16 58.1714   1
   2  -2  -4 1466.28 58.2045   1
   2  -2  -4 1539.97 58.3728   1
  -2   2   4 1523.14 57.7943   1
  -2   2   4 1486.68 59.4427   4
   1  -2  -4 844.799 35.9361   1
   1  -2  -4 892.295 35.4314   2
   1  -2  -4 932.971 36.1440   6
   1  -2  -4 893.173 35.7212   1
  -1   2   4 881.783 36.1168   6
  -1   2   4 888.840 34.7307   5
  -1   2   4 934.829 35.8166   1
   0  -2  -4 5518.26 206.918   2
   0  -2  -4 5476.74 208.048   1
   0   2   4 5378.46 208.792   6
   0   2   4 5695.30 208.382   1
   0   2   4 5403.56 208.037   5
  -1  -2  -4 11.4471 1.96300   2
  -1  -2  -4 8.84783 1.86191   1
  -1  -2  -4 13.2361 2.53450   6
   1   2   4 16.5997 3.20834   6
   1   2   4 13.7099 2.63070   5
   1   2   4 10.4980 2.29266   1
  -2  -2  -4 92.3904 6.14781   1
  -2  -2  -4 97.2619 6.54594   6
  -2  -2  -4 99.2146 6.02169   2
   2   2   4 95.5637 7.40504   5
   2   2   4 87.1536 6.74122   1
   2   2   4 91.7361 7.30079   6
  -3  -2  -4 68.9485 5.46195   6
  -3  -2  -4 66.8958 5.15846   1
   3   2   4 67.4643 6.14808   1
   3   2   4 64.3635 7.81425   5
   3   2   4 61.1241 7.39177   6
   4   2   4 1193.61 51.4858   5
   4   2   4 1118.51 48.7569   1
   4   2   4 1125.66 49.7631   6
   5   2   4 262.182 16.1911   1
   5   2   4 268.973 17.2020   6
   5   2   4 289.812 18.6792   5
   6   2   4 115.631 10.1647   1
   9  -3  -4 2.29834 2.52462   5
   8  -3  -4 70.3254 8.38681   5
   7  -3  -4 12.1074 3.19917   5
  -7   3   4 20.7435 4.21494   3
   6  -3  -4 91.1440 6.65839   5
   6  -3  -4 84.3349 8.13595   4
  -6   3   4 90.7420 7.27067   3
   5  -3  -4 805.035 30.6756   6
   5  -3  -4 798.850 30.3704   1
   5  -3  -4 683.377 34.5455   4
   5  -3  -4 803.483 30.8254   6
   5  -3  -4 808.083 30.5539   1
   5  -3  -4 816.238 32.5759   5
  -5   3   4 789.237 34.1126   3
  -4   3   4 9999.99 376.697   3
   3  -3  -4 113.282 6.66770   6
   3  -3  -4 116.751 6.83278   6
   3  -3  -4 124.773 6.66169   1
   3  -3  -4 132.338 6.67787   1
  -3   3   4 115.091 5.87666   6
  -3   3   4 123.789 5.64594   1
   2  -3  -4 1543.96 64.9899   1
   2  -3  -4 1708.18 63.5641   5
   2  -3  -4 1718.52 65.5416   6
   2  -3  -4 1609.52 65.8608   6
   2  -3  -4 1625.53 65.3428   1
  -2   3   4 1785.62 65.3937   4
  -2   3   4 1680.48 65.2243   6
  -2   3   4 1686.68 64.7232   1
   1  -3  -4 3672.40 137.090   1
   1  -3  -4 3701.82 137.233   1
   1  -3  -4 3550.83 137.528   6
   1  -3  -4 3518.99 136.250   5
   1  -3  -4 3609.39 137.530   6
  -1   3   4 3539.13 137.167   1
  -1   3   4 3571.02 137.800   6
   0  -3  -4 1108.84 44.5969   2
   0  -3  -4 1150.80 45.1345   1
   0  -3  -4 1093.38 45.4889   6
   0   3   4 1127.68 45.0668   5
   0   3   4 1084.66 45.4752   1
   0   3   4 1108.88 46.2025   6
  -1  -3  -4 53.9058 4.44181   2
  -1  -3  -4 53.8747 4.64710   1
  -1  -3  -4 53.7780 4.96267   6
   1   3   4 51.7651 5.02815   5
   1   3   4 58.8850 5.38133   1
   1   3   4 52.7372 6.36626   6
  -2  -3  -4 112.764 7.21929   1
  -2  -3  -4 104.960 6.74931   2
  -2  -3  -4 94.6011 7.18758   6
   2   3   4 92.2881 7.87995   5
   2   3   4 94.4152 8.23824   6
   2   3   4 104.928 8.03451   1
  -3  -3  -4 34.4466 4.47045   1
   3   3   4 28.7305 5.37433   5
   3   3   4 31.7013 5.67502   6
   3   3   4 37.0685 5.72563   1
   4   3   4 3.32520 2.39189   1
   4   3   4 0.56916 1.86604   5
   4   3   4 3.16901 2.57753   6
   5   3   4 31.9157 6.05220   1
   5   3   4 28.0324 6.72822   6
   9  -4  -4 164.698 14.6889   4
   8  -4  -4 78.7795 9.29148   4
   8  -4  -4 111.332 8.80764   5
  -8   4   4 94.6025 8.57949   3
   7  -4  -4 103.038 7.83004   5
   7  -4  -4 98.2547 5.10118   1
   7  -4  -4 87.0001 8.87105   4
   7  -4  -4 96.4746 5.20339   6
   7  -4  -4 105.402 5.05972   1
   7  -4  -4 98.9287 5.30225   6
  -7   4   4 94.0544 8.31565   3
   6  -4  -4 198.967 9.18838   1
   6  -4  -4 188.583 9.47118   6
   6  -4  -4 202.561 9.21078   1
   6  -4  -4 199.740 9.49456   6
  -6   4   4 192.510 12.3487   3
   5  -4  -4 171.554 8.69134   1
   5  -4  -4 170.103 8.62118   1
   5  -4  -4 169.865 8.89399   6
   5  -4  -4 166.773 8.99914   6
   5  -4  -4 182.185 10.6356   4
  -5   4   4 177.498 11.1437   3
   4  -4  -4 185.628 10.1644   6
   4  -4  -4 183.008 9.81950   1
   4  -4  -4 202.563 10.0872   1
   4  -4  -4 209.610 10.4738   4
   4  -4  -4 188.898 10.3713   6
   3  -4  -4 760.705 31.4628   1
   3  -4  -4 741.960 31.6936   1
   3  -4  -4 727.656 32.2701   6
   3  -4  -4 774.123 31.9597   6
  -3   4   4 761.571 30.5340   1
   2  -4  -4 50.4361 3.68058   5
   2  -4  -4 46.7038 4.55680   6
   2  -4  -4 48.0325 4.41904   1
  -2   4   4 48.4881 4.54195   6
  -2   4   4 43.1742 4.01978   1
   1  -4  -4 124.819 8.05238   1
   1  -4  -4 130.030 8.58148   6
   1  -4  -4 125.447 8.52344   6
   1  -4  -4 124.925 7.71578   5
  -1   4   4 141.833 9.08893   6
  -1   4   4 128.570 8.32946   1
   0  -4  -4 172.408 9.53228   2
   0  -4  -4 160.751 10.1646   6
   0  -4  -4 156.547 9.58826   1
   0  -4  -4 165.127 9.81754   1
   0  -4  -4 153.817 9.85323   5
   0   4   4 149.218 10.4272   6
   0   4   4 152.007 9.99129   1
  -1  -4  -4 96.8953 7.62935   6
  -1  -4  -4 86.9058 6.61129   2
  -1  -4  -4 114.475 7.66541   1
   1   4   4 93.5064 8.22535   6
   1   4   4 90.4296 7.62296   5
   1   4   4 93.9193 7.79154   1
  -2  -4  -4 115.647 8.48453   2
  -2  -4  -4 113.945 8.63450   6
  -2  -4  -4 115.113 8.19214   1
   2   4   4 130.516 10.4018   6
   2   4   4 117.096 9.53670   5
   2   4   4 113.861 9.30346   1
   3   4   4 367.572 20.7007   1
   3   4   4 371.129 21.6970   6
   3   4   4 371.865 21.5282   5
   4   4   4 49.3549 8.71228   5
   4   4   4 31.2358 6.98790   6
   4   4   4 44.1693 7.18189   1
   9  -5  -4 3.60029 1.01195   1
   9  -5  -4 3.58049 3.50686   4
  -9   5   4 1.37847 2.54073   3
   8  -5  -4 113.816 6.46051   1
   8  -5  -4 117.837 10.6716   4
   8  -5  -4 113.271 9.16236   5
   8  -5  -4 118.735 6.81008   6
   8  -5  -4 124.756 6.49878   2
  -8   5   4 121.907 10.2864   3
   7  -5  -4 35.2807 3.27068   1
   7  -5  -4 35.6793 4.11370   6
   7  -5  -4 34.8548 6.05711   4
  -7   5   4 32.5863 6.27137   3
   6  -5  -4 641.527 28.9228   4
   6  -5  -4 684.665 27.4395   6
   6  -5  -4 621.978 30.4376   1
   6  -5  -4 606.320 27.8940   6
   6  -5  -4 628.518 26.8609   1
  -6   5   4 623.033 30.1900   3
   5  -5  -4 228.460 12.9365   6
   5  -5  -4 272.887 12.8902   4
   5  -5  -4 229.114 12.4393   1
   5  -5  -4 237.145 12.2897   1
   5  -5  -4 253.320 12.6849   6
  -5   5   4 225.684 14.2100   3
   4  -5  -4 -0.3959 0.95249   6
   4  -5  -4 1.16550 1.11509   1
  -4   5   4 1.26720 0.79858   1
  -4   5   4 1.31442 0.94031   6
   3  -5  -4 281.496 14.6208   1
   3  -5  -4 278.575 15.1054   6
  -3   5   4 294.981 14.7349   6
  -3   5   4 291.452 14.1063   1
   2  -5  -4 1221.76 48.8996   5
   2  -5  -4 1202.52 50.9254   6
   2  -5  -4 1227.20 50.3661   1
  -2   5   4 1194.15 49.8780   1
  -2   5   4 1231.33 50.8098   6
   1  -5  -4 99.1345 7.89982   6
   1  -5  -4 101.364 7.50024   1
   1  -5  -4 91.9099 7.74719   6
   1  -5  -4 93.8883 7.06891   5
  -1   5   4 88.7235 7.39130   1
  -1   5   4 93.6768 7.97232   6
   0  -5  -4 84.4006 7.36953   6
   0  -5  -4 69.2130 6.52005   1
   0  -5  -4 76.9439 6.46884   2
   0  -5  -4 79.6917 6.88710   1
   0   5   4 80.0681 7.25049   1
   0   5   4 85.9691 7.98986   6
  -1  -5  -4 235.295 14.2588   6
  -1  -5  -4 230.162 13.6266   1
  -1  -5  -4 222.029 12.9091   2
   1   5   4 231.736 15.3589   6
   1   5   4 227.681 14.5175   1
  -2  -5  -4 125.625 9.41531   1
   2   5   4 154.667 11.5946   1
   2   5   4 126.141 11.3485   6
   3   5   4 26.2056 5.62539   1
   3   5   4 38.0142 7.76588   6
   4   5   4 2.44089 2.51779   1
   9  -6  -4 -1.4045 1.19781   6
  -9   6   4 -1.6836 1.80867   3
   8  -6  -4 90.6977 8.35288   4
   8  -6  -4 68.1340 5.91004   1
   8  -6  -4 86.7647 6.36046   6
  -8   6   4 93.4051 10.9144   3
   7  -6  -4 20.0913 3.31208   6
   7  -6  -4 19.4292 3.90148   4
   7  -6  -4 19.6977 3.33900   1
  -7   6   4 19.2843 4.69384   3
   6  -6  -4 25.2861 4.21921   6
   6  -6  -4 18.8405 3.33105   1
  -6   6   4 17.6659 4.63269   3
   5  -6  -4 342.504 18.3017   1
   5  -6  -4 408.307 19.0230   6
   4  -6  -4 1913.29 76.7461   6
   4  -6  -4 1892.13 75.8574   1
  -4   6   4 1866.17 73.9255   1
   3  -6  -4 140.245 9.70198   1
   3  -6  -4 137.480 10.1942   6
   3  -6  -4 173.427 8.70601   5
  -3   6   4 132.095 9.65180   6
  -3   6   4 135.319 9.10363   1
   2  -6  -4 205.673 11.1767   5
   2  -6  -4 199.279 12.5027   1
   2  -6  -4 176.827 12.4766   6
  -2   6   4 190.675 12.0027   1
  -2   6   4 194.375 12.7035   6
   1  -6  -4 78.8736 7.71421   6
   1  -6  -4 74.1665 8.68828   6
   1  -6  -4 75.4477 6.99307   1
  -1   6   4 63.7145 8.18292   6
  -1   6   4 76.7361 7.32767   1
   0  -6  -4 49.7584 6.87403   1
   0  -6  -4 48.6333 6.81332   1
   0  -6  -4 54.0960 6.68517   2
   0  -6  -4 45.1221 6.90041   6
   0   6   4 39.0020 7.01551   6
   0   6   4 63.6776 8.18016   1
  -1  -6  -4 16.3096 4.18460   1
  -1  -6  -4 16.1670 4.22109   6
   1   6   4 13.2901 4.19669   1
   1   6   4 11.4898 4.14445   6
   2   6   4 27.5892 6.12440   1
   2   6   4 32.6397 7.03953   6
   3   6   4 27.5543 6.60597   1
   3   6   4 21.0902 6.39243   6
   9  -7  -4 67.1034 7.36762   6
   9  -7  -4 74.5977 6.10396   1
  -9   7   4 54.3365 9.04276   3
   8  -7  -4 97.8670 7.49400   1
   8  -7  -4 91.0414 7.72726   6
  -8   7   4 108.045 12.8667   3
   7  -7  -4 82.7826 7.44967   1
   7  -7  -4 116.294 7.76706   6
  -7   7   4 73.4274 9.80836   3
   6  -7  -4 1810.88 71.7736   6
   6  -7  -4 1688.30 70.8898   1
  -6   7   4 1738.85 74.1151   3
   5  -7  -4 171.780 11.6505   1
   4  -7  -4 127.327 9.70236   1
   4  -7  -4 128.664 10.3418   6
   3  -7  -4 247.010 15.2660   1
   3  -7  -4 256.870 16.1381   6
  -3   7   4 256.572 14.6999   1
  -3   7   4 251.521 16.7882   6
   2  -7  -4 444.874 23.4317   6
   2  -7  -4 414.290 22.4659   1
  -2   7   4 405.021 22.0119   1
  -2   7   4 427.465 23.1757   6
   1  -7  -4 3.68718 2.40055   1
   1  -7  -4 3.26534 2.51541   1
   1  -7  -4 4.17178 2.85785   6
   1  -7  -4 2.48017 2.43895   6
  -1   7   4 4.26784 2.70181   1
  -1   7   4 2.01805 2.29941   6
   0  -7  -4 6.29216 2.91035   1
   0  -7  -4 3.52051 2.42448   6
   0  -7  -4 3.77583 2.45204   1
   0   7   4 -0.0495 1.67825   1
   0   7   4 5.45039 3.21141   6
   1   7   4 6.28537 3.53459   1
   1   7   4 2.01689 3.02105   6
   8  -8  -4 20.4398 4.63315   1
  -8   8   4 25.9391 6.82052   3
   7  -8  -4 165.547 10.1881   1
   7  -8  -4 213.905 11.0277   6
   6  -8  -4 1.23447 2.84659   1
  -6   8   4 4.08056 3.32493   3
   5  -8  -4 37.4711 6.97401   6
   5  -8  -4 52.2795 6.98071   1
   4  -8  -4 220.216 14.9694   6
   4  -8  -4 198.032 13.7123   1
   3  -8  -4 184.958 13.7375   1
   3  -8  -4 213.566 15.2225   6
   2  -8  -4 334.692 21.0850   6
   2  -8  -4 370.401 20.8174   1
   2  -8  -4 324.431 20.7401   6
  -2   8   4 351.479 20.3322   1
   1  -8  -4 53.0434 8.05679   1
   1  -8  -4 62.0250 8.91591   6
   1  -8  -4 56.9408 8.72024   6
   1  -8  -4 59.8512 8.41089   1
  -1   8   4 60.4003 8.99749   1
  -1   8   4 46.6723 8.23547   6
   0  -8  -4 31.0872 6.11962   1
   0  -8  -4 38.1448 7.75583   6
   0   8   4 31.6346 7.75992   6
   0   8   4 40.2732 8.09392   1
   6  -9  -4 -0.6269 3.02398   6
   6  -9  -4 2.72585 2.25685   1
  -6   9   4 -1.6479 1.55394   3
   5  -9  -4 78.2187 9.99786   1
   5  -9  -4 78.9132 11.2776   6
   4  -9  -4 702.788 37.0786   6
   4  -9  -4 757.783 36.4337   1
   3  -9  -4 237.501 16.7803   1
   3  -9  -4 239.543 17.4389   6
   2  -9  -4 111.293 13.3789   6
   2  -9  -4 161.203 12.7113   1
   2  -9  -4 105.228 12.9719   6
  -3  10  -5 53.5391 8.18489   3
   3 -10   5 76.1232 11.1509   1
   3 -10   5 64.4784 10.8762   6
  -4  10  -5 16.3751 4.91587   3
   4 -10   5 14.6663 5.05030   1
   4 -10   5 19.6500 6.14693   6
   0   9  -5 58.6717 10.6948   6
   0   9  -5 50.8667 9.44875   1
  -1   9  -5 56.1677 9.16532   1
  -1   9  -5 64.0290 10.6879   6
   1  -9   5 60.0375 9.32550   1
   1  -9   5 53.6333 9.24554   6
  -2   9  -5 168.436 14.2347   1
  -2   9  -5 176.405 12.1853   3
   2  -9   5 174.150 14.1078   1
   2  -9   5 166.377 14.6399   6
  -3   9  -5 47.8586 7.27012   3
   3  -9   5 63.8900 9.51362   1
   3  -9   5 60.3446 9.95537   6
  -4   9  -5 10.7094 3.88620   3
   4  -9   5 12.0321 5.07017   6
   4  -9   5 17.0718 5.03921   1
  -5   9  -5 210.086 14.6210   3
   5  -9   5 200.233 15.9744   6
   5  -9   5 185.311 14.5983   1
  -6   9  -5 94.2900 11.5332   3
   6  -9   5 90.0679 11.0069   1
   6  -9   5 119.752 15.2244   6
   2   8  -5 -0.9441 2.81475   6
   2   8  -5 1.53381 3.13903   1
   1   8  -5 5.96729 3.67994   1
   1   8  -5 15.4708 5.44124   6
   0   8  -5 3.66993 3.11759   1
   0   8  -5 2.66784 2.74165   6
   0  -8   5 1.34702 2.44748   6
   0  -8   5 7.48886 3.33072   1
  -1   8  -5 263.739 18.8589   6
  -1   8  -5 267.288 18.1409   1
  -1   8  -5 261.798 15.1599   3
   1  -8   5 293.583 19.0023   6
   1  -8   5 263.294 17.4670   1
  -2   8  -5 41.0892 5.91686   3
  -2   8  -5 35.2379 7.21776   6
  -2   8  -5 29.4718 6.09497   1
   2  -8   5 34.2969 7.10095   6
   2  -8   5 28.5397 5.99253   1
  -3   8  -5 150.072 10.8983   3
  -3   8  -5 142.805 11.8355   1
   3  -8   5 163.275 12.5394   1
   3  -8   5 148.839 12.6674   6
  -4   8  -5 286.999 16.9440   3
   4  -8   5 265.377 18.1513   6
   4  -8   5 284.128 17.5270   1
  -5   8  -5 1325.63 59.0813   3
   5  -8   5 1432.06 60.0241   1
   5  -8   5 1376.34 60.7587   6
  -6   8  -5 50.1996 7.96841   3
   6  -8   5 57.1551 9.57792   6
   6  -8   5 44.1768 6.94691   1
   7  -8   5 -2.6726 1.55715   1
   3   7  -5 126.309 14.3812   1
   3   7  -5 136.186 16.3484   6
   2   7  -5 21.1338 5.79209   1
   2   7  -5 14.8239 5.24882   6
   1   7  -5 14.1102 4.35266   1
   1   7  -5 8.97733 3.83082   6
  -1  -7   5 11.2777 3.97513   6
  -1  -7   5 18.7366 4.69529   1
   0   7  -5 220.080 14.9837   1
   0   7  -5 172.100 11.1616   4
   0   7  -5 197.547 15.0292   6
   0  -7   5 196.448 14.2314   6
   0  -7   5 191.343 13.5312   1
  -1   7  -5 165.280 13.5263   6
  -1   7  -5 185.298 13.4007   1
  -1   7  -5 177.958 10.1013   4
  -1   7  -5 177.402 10.8681   3
   1  -7   5 166.726 13.0425   6
   1  -7   5 176.986 12.6122   1
  -2   7  -5 535.354 27.4561   1
  -2   7  -5 552.588 28.5864   6
  -2   7  -5 516.868 24.9577   3
   2  -7   5 518.135 26.9868   1
   2  -7   5 558.063 28.1368   6
  -3   7  -5 123.753 10.9874   6
  -3   7  -5 158.706 10.3888   3
  -3   7  -5 141.208 10.8592   1
   3  -7   5 132.958 10.4523   1
   3  -7   5 147.775 11.5776   6
  -4   7  -5 88.5960 7.98257   3
   4  -7   5 95.2712 8.37585   1
   4  -7   5 93.5694 8.90136   6
  -5   7  -5 281.937 16.8233   3
   5  -7   5 274.134 16.2818   1
   5  -7   5 284.258 17.3148   6
  -6   7  -5 0.06197 1.52119   3
   6  -7   5 -6.0315 1.60626   1
   7  -7   5 -3.1157 1.33464   1
   4   6  -5 803.832 40.8937   6
   4   6  -5 739.919 38.4898   1
   3   6  -5 11.0321 4.33299   1
   3   6  -5 12.8333 4.89818   6
   2   6  -5 53.6042 8.85993   6
   2   6  -5 57.6052 8.62209   1
  -2  -6   5 48.2711 9.18708   1
   1   6  -5 115.869 10.7506   6
   1   6  -5 110.548 9.97691   1
  -1  -6   5 110.101 9.18776   1
  -1  -6   5 119.658 9.92405   6
   0   6  -5 58.6723 8.12588   1
   0   6  -5 42.8563 4.54140   4
   0   6  -5 47.2313 7.37205   6
   0  -6   5 45.8644 6.97554   6
   0  -6   5 53.4445 7.02121   1
  -1   6  -5 1.21186 1.89420   6
  -1   6  -5 7.60206 1.52598   4
  -1   6  -5 7.03401 2.28984   3
  -1   6  -5 9.29350 2.99873   1
   1  -6   5 7.55042 2.88950   1
   1  -6   5 4.45692 2.56411   6
  -2   6  -5 76.0346 6.15721   3
  -2   6  -5 82.4432 7.45096   1
  -2   6  -5 83.7761 9.76890   6
   2  -6   5 67.3267 7.75964   1
   2  -6   5 66.0358 8.18257   6
  -3   6  -5 631.944 28.8054   3
  -3   6  -5 670.737 30.0431   1
  -3   6  -5 650.296 30.8745   6
   3  -6   5 617.586 29.3007   1
   3  -6   5 614.928 30.1809   6
  -4   6  -5 0.91277 1.42643   3
  -4   6  -5 0.82272 1.46048   1
   4  -6   5 0.21649 1.33723   6
   4  -6   5 0.85304 1.36096   1
  -5   6  -5 37.5452 5.88966   3
   5  -6   5 32.7550 5.44865   6
   5  -6   5 42.2340 5.57333   1
   6  -6   5 183.903 12.8051   1
   6  -6   5 281.560 13.1425   6
   7  -6   5 438.599 19.7637   6
   7  -6   5 332.020 19.0117   1
   5   5  -5 12.0999 4.50487   1
   5   5  -5 13.5984 5.56693   6
   4   5  -5 46.6665 7.69125   1
   4   5  -5 60.0313 9.27812   6
   3   5  -5 146.626 12.2787   6
   3   5  -5 152.801 11.8651   1
   2   5  -5 5.84548 3.08481   6
   2   5  -5 3.73434 2.43757   1
  -2  -5   5 5.36645 2.35636   1
  -2  -5   5 4.24743 2.44039   6
   1   5  -5 59.3033 7.53246   1
   1   5  -5 59.8161 8.09579   6
  -1  -5   5 51.7540 6.38530   1
  -1  -5   5 52.8137 6.88964   6
   0   5  -5 365.276 17.6842   4
   0   5  -5 390.192 17.0102   3
   0   5  -5 379.294 19.3463   2
   0   5  -5 399.277 20.1444   1
   0   5  -5 381.068 20.6673   6
   0  -5   5 330.005 18.8066   1
   0  -5   5 407.352 20.3429   6
  -1   5  -5 106.439 7.99176   2
  -1   5  -5 111.155 6.95378   3
  -1   5  -5 119.421 9.24610   6
  -1   5  -5 112.695 8.66172   1
   1  -5   5 118.895 8.37851   1
   1  -5   5 101.056 8.38251   6
  -2   5  -5 124.907 8.84746   1
  -2   5  -5 114.384 7.56497   3
  -2   5  -5 127.728 8.44369   2
  -2   5  -5 112.855 8.93378   6
   2  -5   5 127.202 9.00266   6
   2  -5   5 102.887 7.94882   1
  -3   5  -5 289.539 15.5717   2
  -3   5  -5 305.816 16.2973   1
  -3   5  -5 322.026 15.8662   3
  -3   5  -5 297.604 16.7553   6
   3  -5   5 306.135 13.3419   4
   3  -5   5 307.657 15.5952   2
   3  -5   5 317.749 15.9652   1
   3  -5   5 328.911 16.6520   6
  -4   5  -5 685.807 30.2600   1
  -4   5  -5 676.502 30.7297   3
  -4   5  -5 680.674 30.9966   6
   4  -5   5 700.381 30.2210   1
   4  -5   5 677.550 29.6400   2
   4  -5   5 686.303 30.7060   6
   5  -5   5 738.603 31.9960   6
   5  -5   5 707.823 31.4135   1
   6  -5   5 1092.08 47.0906   1
   6  -5   5 1178.24 47.9477   6
   7  -5   5 145.685 9.78635   1
   7  -5   5 198.989 10.3965   6
   8  -5   5 9.41439 2.90762   1
   6   4  -5 10.9196 3.87529   1
   4   4  -5 105.877 9.31041   1
   4   4  -5 113.418 10.2106   6
   3   4  -5 -0.9877 1.19919   1
   3   4  -5 -0.4228 1.68267   6
  -3  -4   5 0.01499 0.87353   1
   2   4  -5 1060.48 44.7228   2
   2   4  -5 1024.99 46.0267   6
   2   4  -5 1026.87 45.2373   1
  -2  -4   5 1026.29 44.6630   6
  -2  -4   5 1129.08 44.3872   1
   1   4  -5 31.0438 4.82740   1
   1   4  -5 26.0219 4.34569   4
   1   4  -5 20.0610 4.14689   6
   1   4  -5 22.6614 3.83395   2
  -1  -4   5 25.0283 4.45007   6
  -1  -4   5 28.4490 4.39693   1
   0   4  -5 485.275 20.0594   3
   0   4  -5 460.137 23.2622   6
   0   4  -5 474.747 21.0655   4
   0   4  -5 467.447 22.6823   1
   0   4  -5 488.863 22.3335   2
   0  -4   5 495.610 22.3880   1
   0  -4   5 493.115 23.0410   6
  -1   4  -5 30.3131 3.56028   3
  -1   4  -5 31.5113 4.41773   2
  -1   4  -5 32.4165 4.62199   1
  -1   4  -5 30.0363 4.75991   6
   1  -4   5 32.6073 4.31968   1
   1  -4   5 44.0505 5.50857   6
  -2   4  -5 1388.88 56.4283   2
  -2   4  -5 1456.84 57.8106   6
  -2   4  -5 1380.58 55.6516   3
  -2   4  -5 1377.77 56.8882   1
   2  -4   5 1407.35 54.4539   4
   2  -4   5 1453.29 56.1120   2
   2  -4   5 1423.06 56.3304   1
   2  -4   5 1337.54 56.7405   6
  -3   4  -5 1430.74 56.1128   1
  -3   4  -5 1373.27 56.6089   6
  -3   4  -5 1400.68 55.8275   3
   3  -4   5 1337.01 54.9521   2
   3  -4   5 1400.00 55.4114   1
   3  -4   5 1350.47 55.9107   6
  -4   4  -5 1354.70 53.4369   1
  -4   4  -5 1270.67 52.7668   2
   4  -4   5 1333.40 53.2546   1
   4  -4   5 1314.16 53.2944   1
   4  -4   5 1298.01 52.8099   2
   4  -4   5 1359.31 53.8917   6
   5  -4   5 292.419 15.4074   1
   5  -4   5 341.146 15.9153   6
   6  -4   5 81.8826 6.55987   1
   6  -4   5 103.090 7.05688   6
   7  -4   5 198.101 10.7456   1
   7  -4   5 189.913 11.1433   6
   8  -4   5 14.1014 3.39077   1
   6   3  -5 2.92398 2.30364   1
   5   3  -5 3.13118 2.20898   1
   4   3  -5 553.849 26.9289   1
   4   3  -5 593.191 27.5453   6
   3   3  -5 33.2289 4.53887   2
   3   3  -5 25.8093 4.53343   6
   3   3  -5 25.9724 4.26302   1
   3   3  -5 30.5573 4.42213   1
  -3  -3   5 22.5690 3.63340   6
  -3  -3   5 31.0284 3.81248   1
   2   3  -5 1688.16 68.7260   6
   2   3  -5 1659.85 67.4171   2
   2   3  -5 1684.29 68.0011   1
  -2  -3   5 1704.24 67.7520   6
  -2  -3   5 1749.41 67.3024   1
   1   3  -5 423.931 20.1265   1
   1   3  -5 448.204 19.9422   2
   1   3  -5 401.915 20.0619   4
   1   3  -5 440.973 20.8123   6
   1   3  -5 451.403 17.0606   3
  -1  -3   5 438.662 19.9145   1
  -1  -3   5 422.262 20.2569   6
   0   3  -5 965.413 39.4595   2
   0   3  -5 972.737 39.9282   1
   0   3  -5 999.185 38.6649   4
   0   3  -5 945.901 40.3842   6
   0   3  -5 965.072 37.3098   3
   0  -3   5 934.663 39.4004   1
   0  -3   5 950.411 39.9354   6
  -1   3  -5 0.37881 0.79513   2
  -1   3  -5 0.46395 0.72548   3
  -1   3  -5 1.18030 1.21624   6
  -1   3  -5 1.69143 1.14316   1
   1  -3   5 1.64486 1.00813   2
   1  -3   5 1.44323 1.01244   1
   1  -3   5 0.08340 0.78684   6
  -2   3  -5 39.5756 4.91571   6
  -2   3  -5 35.5352 4.11205   2
  -2   3  -5 34.6038 4.26764   1
   2  -3   5 28.1507 3.38225   2
   2  -3   5 32.4818 3.73904   1
   2  -3   5 35.9413 4.36606   6
  -3   3  -5 1164.51 48.2069   6
  -3   3  -5 1212.65 47.8266   1
   3  -3   5 1190.99 47.0399   2
   3  -3   5 1194.11 47.3564   1
   3  -3   5 1157.28 47.2537   1
   3  -3   5 1163.71 47.7984   6
  -4   3  -5 13.3396 2.78515   6
  -4   3  -5 28.3545 3.47275   2
  -4   3  -5 25.4086 3.55967   1
   4  -3   5 24.6524 3.44128   1
   4  -3   5 21.8631 3.15981   1
   4  -3   5 22.4180 3.07157   2
   4  -3   5 22.2145 5.24683   6
   5  -3   5 80.0360 4.89868   6
   6  -3   5 301.042 16.0956   6
   6  -3   5 320.690 15.8255   1
   7   2  -5 333.551 19.8739   6
   7   2  -5 375.128 19.7953   1
   6   2  -5 1628.87 66.8777   6
   6   2  -5 1592.03 66.2134   1
   5   2  -5 2.54020 1.69634   1
   4   2  -5 63.8966 5.80796   6
   4   2  -5 75.6212 5.74283   2
   4   2  -5 61.3691 5.39896   1
   4   2  -5 88.3298 6.08520   6
   4   2  -5 53.9187 6.10744   1
  -4  -2   5 76.1554 3.90771   1
   3   2  -5 11.6302 2.46378   2
   3   2  -5 8.86522 2.28406   6
   3   2  -5 10.4190 1.54052   3
   3   2  -5 7.96422 2.28619   6
   3   2  -5 10.8773 2.50496   1
   3   2  -5 7.64315 2.10401   1
  -3  -2   5 13.3311 3.02701   5
  -3  -2   5 8.77065 1.88607   6
   2   2  -5 2481.76 94.4558   6
   2   2  -5 2514.35 94.3250   1
   2   2  -5 2390.22 94.6177   6
   2   2  -5 2182.21 95.5627   4
   2   2  -5 2543.55 93.9051   2
   2   2  -5 2555.45 94.0377   1
  -2  -2   5 2412.32 94.0966   6
  -2  -2   5 2401.74 93.5901   1
   1   2  -5 295.396 14.2225   6
   1   2  -5 287.666 13.7610   1
   1   2  -5 299.286 13.5593   2
   1   2  -5 274.222 14.1355   4
   1   2  -5 282.563 13.4725   1
  -1  -2   5 302.624 14.1244   6
  -1  -2   5 301.995 13.7377   1
   0   2  -5 39.1684 3.47387   1
   0   2  -5 37.5860 3.26251   2
   0   2  -5 37.8045 3.62174   6
   0  -2   5 42.5802 3.47140   1
   0  -2   5 38.8053 2.57807   3
   0  -2   5 35.1261 3.37408   4
   0  -2   5 40.0488 3.56387   6
  -1   2  -5 1287.49 51.5062   6
  -1   2  -5 1279.06 51.0949   1
  -1   2  -5 1275.86 50.7602   2
   1  -2   5 1278.43 50.7936   1
   1  -2   5 1325.64 50.5605   2
   1  -2   5 1303.01 51.2950   6
  -2   2  -5 280.852 13.1502   6
  -2   2  -5 257.699 12.5837   1
  -2   2  -5 257.332 12.3082   2
   2  -2   5 255.486 12.7582   6
   2  -2   5 263.581 12.4026   1
   2  -2   5 251.932 12.0465   2
   2  -2   5 268.609 12.4267   1
  -3   2  -5 321.292 14.4418   2
  -3   2  -5 319.481 15.1141   6
  -3   2  -5 314.415 14.6833   1
   3  -2   5 295.397 14.9822   6
   3  -2   5 307.600 14.5150   1
   3  -2   5 309.171 14.2541   2
   3  -2   5 325.787 14.7376   1
  -4   2  -5 317.605 15.7390   6
  -4   2  -5 334.784 15.1519   2
   4  -2   5 321.218 16.3031   6
   4  -2   5 345.318 15.9249   1
   4  -2   5 328.580 15.6575   1
   4  -2   5 356.141 16.1993   6
   4  -2   5 330.001 15.3433   2
   5  -2   5 2128.64 85.0395   1
   5  -2   5 2211.20 85.7198   6
   6  -2   5 309.159 16.2370   1
   6  -2   5 333.162 16.8804   6
   7  -2   5 9.19944 4.22557   5
   7   1  -5 519.002 24.4088   1
   7   1  -5 505.327 24.8426   6
   6   1  -5 138.210 9.51615   6
   6   1  -5 155.989 9.42746   1
   5   1  -5 52.8565 4.45019   2
   5   1  -5 54.1679 4.59531   1
   5   1  -5 47.0369 4.57892   6
   5   1  -5 67.1984 5.07039   6
   5   1  -5 43.7490 5.06192   1
   4   1  -5 331.949 15.6744   6
   4   1  -5 336.585 15.0889   2
   4   1  -5 344.120 15.8812   6
   4   1  -5 325.054 15.2861   1
   4   1  -5 314.463 15.1560   1
  -4  -1   5 342.492 17.0778   5
   3   1  -5 671.198 28.4781   1
   3   1  -5 695.977 29.0398   6
   3   1  -5 699.042 28.3133   2
   3   1  -5 717.615 28.7320   1
   3   1  -5 688.198 28.9527   6
  -3  -1   5 699.733 29.7457   5
  -3  -1   5 704.212 27.8787   6
  -3  -1   5 709.532 27.4103   1
   2   1  -5 176.195 8.42793   1
   2   1  -5 171.465 8.63116   6
   2   1  -5 149.682 9.73261   4
   2   1  -5 167.481 8.58998   6
   2   1  -5 175.014 8.34484   1
  -2  -1   5 161.347 8.16642   1
   1   1  -5 4.42380 1.15991   1
   1   1  -5 5.19278 1.35402   6
   1   1  -5 3.31743 1.22487   4
   1   1  -5 3.43333 1.04664   6
   1   1  -5 2.87648 0.94437   2
   1   1  -5 3.29354 0.99501   1
  -1  -1   5 7.72095 1.96991   4
  -1  -1   5 3.26560 1.05101   6
  -1  -1   5 5.09364 1.23199   1
   0   1  -5 164.210 7.74410   2
   0   1  -5 146.096 7.97286   6
   0   1  -5 159.581 7.84177   1
   0   1  -5 148.216 7.71555   1
   0  -1   5 156.679 8.12459   6
   0  -1   5 168.147 8.31911   4
   0  -1   5 150.367 7.75210   1
   0  -1   5 150.365 7.51731   2
  -1   1  -5 7725.31 280.757   6
  -1   1  -5 7281.70 279.789   1
   1  -1   5 7501.25 280.997   6
   1  -1   5 7207.83 278.511   2
  -2   1  -5 3555.46 138.201   1
  -2   1  -5 3749.78 138.075   2
  -2   1  -5 3647.18 138.674   6
   2  -1   5 3480.15 138.267   1
   2  -1   5 3659.14 138.531   1
   2  -1   5 3747.76 139.064   6
   2  -1   5 3654.22 138.047   2
  -3   1  -5 618.306 26.2670   6
  -3   1  -5 622.326 25.8536   1
  -3   1  -5 626.561 25.6103   2
   3  -1   5 610.856 26.3589   1
   3  -1   5 613.670 25.7962   2
   3  -1   5 632.594 27.0069   6
   3  -1   5 594.578 26.0916   1
  -4   1  -5 70.0870 4.59008   2
  -4   1  -5 58.0017 4.75424   6
  -4   1  -5 52.3873 4.31658   1
   4  -1   5 62.5180 4.83140   2
   4  -1   5 61.5842 5.07211   1
   4  -1   5 78.4896 5.66356   1
   5  -1   5 594.810 28.0903   1
   5  -1   5 680.692 28.9775   6
   6  -1   5 17.0281 3.64328   1
   6  -1   5 7.53015 3.45619   5
   7  -1   5 12.9502 3.75951   1
   8   0  -5 357.827 19.1030   6
   8   0  -5 415.795 19.2171   1
   7   0  -5 452.911 21.4285   6
   7   0  -5 470.773 21.2016   1
   6   0  -5 259.434 12.9962   6
   6   0  -5 241.351 12.1179   2
   6   0  -5 269.534 12.6500   1
   5   0  -5 610.018 25.3938   6
   5   0  -5 581.407 25.3231   6
   5   0  -5 599.271 24.6995   2
   5   0  -5 609.541 25.0042   1
   5   0  -5 635.643 25.1931   1
   4   0  -5 8060.83 307.633   1
   4   0  -5 8236.54 308.172   6
  -4   0   5 8299.47 309.260   5
   3   0  -5 175.149 8.32124   6
   3   0  -5 164.886 7.69530   2
   3   0  -5 172.018 8.08017   1
   3   0  -5 177.578 7.89797   1
   3   0  -5 174.668 8.12091   6
   3   0  -5 168.939 10.4782   4
  -3   0   5 172.347 8.84524   5
  -3   0   5 169.452 8.00075   3
   2   0  -5 4.76138 1.22340   6
   2   0  -5 2.33489 0.76767   2
   2   0  -5 4.00670 1.63014   4
   2   0  -5 4.26279 1.09951   6
   2   0  -5 2.88272 0.93752   1
   2   0  -5 3.79290 1.00207   1
   1   0  -5 944.104 36.2933   1
   1   0  -5 920.886 36.3924   6
   1   0  -5 930.018 36.1823   1
   1   0  -5 892.569 36.5713   6
   1   0  -5 909.983 35.9496   2
  -1   0   5 886.524 36.3933   6
  -1   0   5 929.173 37.4860   4
  -1   0   5 956.183 36.2050   1
   0   0  -5 1662.41 63.7373   1
   0   0  -5 1664.99 63.2178   2
   0   0  -5 1594.44 63.6649   6
   0   0  -5 1689.07 63.4823   1
   0   0   5 1625.29 63.5204   1
   0   0   5 1625.31 63.1888   2
   0   0   5 1659.96 63.9819   6
  -1   0  -5 219.023 11.0503   6
  -1   0  -5 240.015 11.0051   1
  -1   0  -5 242.794 10.7851   2
   1   0   5 245.771 11.3760   1
   1   0   5 219.939 11.4964   6
   1   0   5 228.956 10.8065   2
  -2   0  -5 1217.72 49.0866   2
  -2   0  -5 1283.38 49.4842   1
  -2   0  -5 1231.73 49.7654   6
   2   0   5 1239.25 50.6403   6
   2   0   5 1255.59 50.0757   1
   2   0   5 1292.66 49.5239   2
  -3   0  -5 46.3157 3.76699   2
  -3   0  -5 51.5957 4.30675   6
  -3   0  -5 54.5124 4.12561   1
   3   0   5 50.1711 4.90178   6
   3   0   5 49.3491 4.14425   2
   3   0   5 49.0279 4.55817   1
  -4   0  -5 110.681 6.73772   1
   4   0   5 115.179 8.37385   6
   4   0   5 108.036 7.77433   1
   5   0   5 -0.4082 1.34802   1
   5   0   5 0.27511 1.61039   5
   8  -1  -5 35.6025 4.28299   1
   8  -1  -5 46.1675 7.44134   5
   8  -1  -5 36.9015 4.47721   6
   7  -1  -5 116.669 6.61375   1
   7  -1  -5 114.706 6.88136   6
   7  -1  -5 116.976 9.44510   5
   6  -1  -5 1554.50 58.5158   1
   6  -1  -5 1510.16 58.3063   2
   6  -1  -5 1511.87 62.3280   5
   6  -1  -5 1504.81 58.6056   1
   6  -1  -5 1517.26 58.8426   6
   6  -1  -5 1554.96 58.9305   6
   5  -1  -5 202.156 8.38693   1
   5  -1  -5 199.076 8.29623   2
   5  -1  -5 182.946 10.6799   5
   5  -1  -5 192.342 8.63773   1
   5  -1  -5 200.873 8.90940   6
   5  -1  -5 204.123 8.65490   6
  -5   1   5 182.676 10.2925   3
   4  -1  -5 10.4518 1.38810   6
   4  -1  -5 12.0141 1.48146   1
   4  -1  -5 12.0160 1.35717   1
   4  -1  -5 10.5342 1.22383   2
   4  -1  -5 10.2631 2.94677   4
   4  -1  -5 10.1348 1.43185   6
  -4   1   5 8.99732 2.12361   3
   3  -1  -5 82.3662 6.57716   4
   3  -1  -5 92.1448 4.51964   2
   3  -1  -5 92.1514 4.85817   6
   3  -1  -5 94.7072 4.83431   6
   3  -1  -5 92.9573 4.66229   1
   3  -1  -5 94.9939 4.69400   1
  -3   1   5 91.2518 4.86928   5
   2  -1  -5 32.9425 2.53421   1
   2  -1  -5 28.6340 2.56612   6
   2  -1  -5 33.5495 2.39012   2
   2  -1  -5 31.6889 2.44399   1
   2  -1  -5 30.7939 3.12086   4
   2  -1  -5 32.2444 2.59363   6
  -2   1   5 35.2098 2.36547   1
   1  -1  -5 826.777 33.1930   2
   1  -1  -5 805.166 33.3919   1
   1  -1  -5 859.658 33.8133   1
   1  -1  -5 841.089 34.8691   6
   1  -1  -5 862.782 33.8105   6
  -1   1   5 817.026 33.7123   6
  -1   1   5 879.704 33.5214   1
   0  -1  -5 1205.36 48.7133   6
   0  -1  -5 1292.90 48.2448   2
   0  -1  -5 1222.81 48.4144   1
   0   1   5 1175.69 48.2178   2
   0   1   5 1236.36 48.6990   1
   0   1   5 1274.30 49.2960   6
  -1  -1  -5 308.217 13.5725   1
  -1  -1  -5 291.983 13.7648   6
  -1  -1  -5 286.873 13.1401   2
   1   1   5 276.029 14.2450   6
   1   1   5 296.371 13.9999   1
   1   1   5 275.729 13.3283   2
  -2  -1  -5 33.3303 4.08079   6
  -2  -1  -5 29.8132 3.53493   1
  -2  -1  -5 29.5561 3.35128   2
   2   1   5 27.7483 4.05759   1
   2   1   5 33.2461 4.77467   5
   2   1   5 22.6803 3.21019   2
   2   1   5 29.3391 4.34242   6
  -3  -1  -5 -0.3075 0.36527   2
  -3  -1  -5 0.10637 0.74465   1
  -3  -1  -5 1.81727 1.20908   6
   3   1   5 -0.5814 1.03795   5
   3   1   5 0.00707 1.09129   6
   3   1   5 -0.6548 0.76234   2
   3   1   5 -0.6347 0.74746   1
   4   1   5 251.889 16.3231   5
   4   1   5 267.297 15.5171   6
   4   1   5 261.068 14.6798   1
   5   1   5 -0.9719 1.27470   1
   5   1   5 -0.1816 1.53008   6
   5   1   5 -0.0888 1.95210   5
   6   1   5 217.982 14.1811   1
   9  -2  -5 31.9091 6.67208   5
   8  -2  -5 115.358 9.71017   5
   8  -2  -5 123.008 6.23825   1
   7  -2  -5 52.0912 6.71285   5
   6  -2  -5 4.39323 1.84700   5
   6  -2  -5 4.22075 2.56986   4
  -6   2   5 3.73901 1.88470   3
   5  -2  -5 36.1335 2.05889   1
   5  -2  -5 37.3946 2.10887   1
   5  -2  -5 33.9250 5.78384   4
   5  -2  -5 38.6806 3.48367   5
   5  -2  -5 35.8150 2.21548   6
   5  -2  -5 36.8049 2.21683   6
   5  -2  -5 36.0012 2.02385   2
  -5   2   5 28.0393 4.08299   3
   4  -2  -5 307.784 16.8135   4
   4  -2  -5 321.315 13.6245   6
   4  -2  -5 324.591 13.4908   1
   4  -2  -5 352.816 14.1249   5
   4  -2  -5 325.833 13.4024   1
   4  -2  -5 334.890 13.7488   6
   4  -2  -5 323.589 13.3588   2
   4  -2  -5 323.114 13.5157   1
  -4   2   5 338.622 15.7905   3
   3  -2  -5 786.421 29.6337   1
   3  -2  -5 770.814 29.3922   2
   3  -2  -5 707.698 29.8277   6
   3  -2  -5 771.031 29.8824   6
   3  -2  -5 745.716 31.4782   4
   3  -2  -5 745.515 29.5759   1
   3  -2  -5 722.189 29.4923   1
  -3   2   5 732.765 28.4432   1
  -3   2   5 728.268 28.7374   6
   2  -2  -5 7.38705 1.44393   2
   2  -2  -5 6.79795 1.54978   6
   2  -2  -5 9.34471 1.92068   6
   2  -2  -5 7.95558 1.60825   1
  -2   2   5 10.5202 1.80753   6
  -2   2   5 9.04435 1.53960   1
   1  -2  -5 102.632 6.51664   1
   1  -2  -5 103.769 6.49533   6
   1  -2  -5 116.651 6.42893   1
   1  -2  -5 112.418 6.12535   2
  -1   2   5 111.781 6.39860   1
  -1   2   5 111.955 5.60689   5
  -1   2   5 96.8150 6.49189   6
   0  -2  -5 81.6637 5.62275   6
   0  -2  -5 72.5963 4.90994   2
   0  -2  -5 81.1000 5.30416   1
   0   2   5 71.9019 5.09852   5
   0   2   5 78.2081 5.55562   1
   0   2   5 76.3915 5.84097   6
  -1  -2  -5 0.73035 0.76294   1
  -1  -2  -5 0.14057 0.62524   2
  -1  -2  -5 6.69401 1.93299   6
   1   2   5 0.15765 0.87581   6
   1   2   5 0.11192 0.81348   5
   1   2   5 0.78717 1.07845   1
  -2  -2  -5 152.380 9.03184   6
  -2  -2  -5 142.701 8.52096   1
  -2  -2  -5 134.504 8.09143   2
   2   2   5 152.254 10.0881   6
   2   2   5 143.605 9.89931   5
   2   2   5 154.064 9.61434   1
  -3  -2  -5 256.407 13.6229   6
  -3  -2  -5 252.097 13.1084   1
   3   2   5 260.961 14.7063   1
   3   2   5 252.365 15.5633   5
   3   2   5 254.650 15.1993   6
   4   2   5 400.819 21.8697   6
   4   2   5 412.412 22.9175   5
   4   2   5 384.957 20.8417   1
   5   2   5 123.716 10.1434   1
   5   2   5 115.210 13.3581   5
   5   2   5 114.654 10.7343   6
   9  -3  -5 194.734 16.8864   4
   8  -3  -5 69.3216 7.90274   5
   8  -3  -5 52.7312 9.16492   4
   7  -3  -5 9.45110 3.74784   4
   7  -3  -5 4.50480 2.01792   5
  -7   3   5 7.27815 2.78533   3
   6  -3  -5 5.51277 0.88502   1
   6  -3  -5 6.93655 1.00577   1
   6  -3  -5 5.29030 0.98355   6
   6  -3  -5 5.47528 1.03671   6
   6  -3  -5 6.31546 2.90534   4
  -6   3   5 3.92208 2.01455   3
   5  -3  -5 124.778 6.92808   5
   5  -3  -5 120.449 9.18088   4
   5  -3  -5 130.837 6.19380   1
   5  -3  -5 134.252 6.57690   6
   5  -3  -5 127.299 6.43295   6
   5  -3  -5 131.797 6.26138   1
  -5   3   5 123.587 8.55261   3
   4  -3  -5 525.307 21.9688   6
   4  -3  -5 513.307 20.7074   5
   4  -3  -5 534.824 21.7243   1
   4  -3  -5 516.773 22.0391   6
   4  -3  -5 541.430 23.9023   4
   4  -3  -5 524.806 21.7254   1
   3  -3  -5 11.6843 2.40365   6
   3  -3  -5 14.1687 2.28813   1
   3  -3  -5 11.7784 2.27326   6
   3  -3  -5 8.18007 1.90428   6
   3  -3  -5 10.4883 1.99825   1
  -3   3   5 10.2463 1.71686   6
  -3   3   5 7.77360 1.31646   1
   2  -3  -5 1180.46 49.9139   1
   2  -3  -5 1215.77 49.5213   1
   2  -3  -5 1267.27 49.7378   1
   2  -3  -5 1267.44 50.0844   6
  -2   3   5 1292.01 49.3785   1
  -2   3   5 1268.85 49.8593   6
   1  -3  -5 507.283 22.5826   1
   1  -3  -5 515.771 23.0855   6
   1  -3  -5 522.699 22.2866   2
  -1   3   5 523.395 22.8295   1
  -1   3   5 513.365 23.3770   6
   0  -3  -5 5.22064 1.93726   6
   0  -3  -5 6.52914 1.77245   2
   0  -3  -5 6.26936 1.76882   1
   0   3   5 6.22228 1.80007   5
   0   3   5 5.70982 2.02218   6
   0   3   5 4.29311 1.66479   1
  -1  -3  -5 86.3417 5.89831   2
  -1  -3  -5 70.4367 6.11203   6
  -1  -3  -5 74.6480 5.84451   1
   1   3   5 79.7031 6.51765   5
   1   3   5 86.1831 6.80000   1
   1   3   5 84.5114 7.26412   6
  -2  -3  -5 0.28609 1.16975   6
  -2  -3  -5 1.59940 1.24360   2
  -2  -3  -5 -0.8995 0.73189   1
   2   3   5 -0.4860 1.25446   1
   2   3   5 0.60593 1.60861   6
   2   3   5 1.36460 1.41592   5
  -3  -3  -5 1222.94 54.6141   1
   3   3   5 1217.79 52.5550   6
   3   3   5 1142.47 52.1422   5
   3   3   5 1190.44 51.2792   1
   4   3   5 1.16058 1.94917   1
   4   3   5 1.81977 1.94430   5
   4   3   5 3.01357 2.64219   6
   5   3   5 160.856 14.0684   6
   5   3   5 175.268 13.3224   1
   9  -4  -5 129.366 12.9515   4
   8  -4  -5 152.771 13.4728   4
   8  -4  -5 193.492 11.7783   5
  -8   4   5 179.806 12.5265   3
   7  -4  -5 189.450 10.7932   5
   7  -4  -5 178.100 8.74246   1
   7  -4  -5 166.788 8.45055   6
   7  -4  -5 187.572 13.3909   4
   7  -4  -5 171.600 8.38471   6
   7  -4  -5 187.606 8.26490   1
  -7   4   5 178.031 12.0861   3
   6  -4  -5 1426.28 60.8667   4
   6  -4  -5 1449.01 56.8109   6
   6  -4  -5 1455.40 57.6223   5
   6  -4  -5 1460.05 56.4122   1
   6  -4  -5 1439.00 56.6848   6
   6  -4  -5 1478.04 56.3940   1
  -6   4   5 1481.02 60.6010   3
   5  -4  -5 15.0788 2.36667   1
   5  -4  -5 15.5359 2.53430   6
   5  -4  -5 18.2136 2.63319   1
   5  -4  -5 17.8817 3.41360   4
   5  -4  -5 14.2391 2.54530   6
  -5   4   5 14.1763 3.49991   3
   4  -4  -5 25.6839 3.56190   6
   4  -4  -5 23.7675 3.36349   1
   4  -4  -5 24.0244 3.17519   1
   4  -4  -5 23.0917 3.49941   6
  -4   4   5 26.8457 1.76229   1
   3  -4  -5 53.7478 3.17512   5
   3  -4  -5 53.1243 4.68580   1
   3  -4  -5 56.6833 4.84633   6
   3  -4  -5 51.9924 4.56640   1
   3  -4  -5 52.0883 4.98945   6
  -3   4   5 48.0969 3.82978   1
  -3   4   5 51.1147 4.22459   6
   2  -4  -5 1464.90 58.3906   6
   2  -4  -5 1443.18 57.6634   1
   2  -4  -5 1471.52 58.3869   6
   2  -4  -5 1412.72 56.0798   5
  -2   4   5 1433.54 58.1904   6
  -2   4   5 1423.20 57.4403   1
   1  -4  -5 5.93804 1.89141   5
   1  -4  -5 8.04325 2.26079   1
   1  -4  -5 4.87016 1.89216   6
   1  -4  -5 5.44158 1.89121   2
   1  -4  -5 5.50375 1.97212   1
  -1   4   5 3.74195 1.70831   1
  -1   4   5 5.37175 2.23601   6
   0  -4  -5 613.457 28.3653   6
   0  -4  -5 601.299 27.1634   2
   0  -4  -5 626.057 27.8698   1
   0   4   5 621.577 29.1953   6
   0   4   5 647.759 28.6088   1
  -1  -4  -5 76.3892 6.40338   1
  -1  -4  -5 73.8225 6.75033   6
  -1  -4  -5 76.5827 6.14154   2
   1   4   5 77.6855 7.11587   1
   1   4   5 75.1579 6.88945   5
   1   4   5 82.4022 9.32564   6
  -2  -4  -5 28.8796 4.87039   6
  -2  -4  -5 45.6394 5.86280   1
   2   4   5 44.8234 7.37622   6
   2   4   5 43.8802 6.51999   5
   2   4   5 50.2146 6.90494   1
   3   4   5 245.319 16.4079   1
   3   4   5 284.920 18.0529   6
   3   4   5 277.521 17.8193   5
   4   4   5 12.6880 5.04133   5
   4   4   5 14.1433 4.42734   1
   4   4   5 17.0036 5.23785   6
   9  -5  -5 128.612 12.2549   4
  -9   5   5 126.525 11.1529   3
   8  -5  -5 92.2309 5.31881   1
   8  -5  -5 81.0931 5.41794   6
   8  -5  -5 81.2174 8.76272   4
  -8   5   5 79.1494 9.81822   3
   7  -5  -5 183.483 10.4206   5
   7  -5  -5 179.755 9.52477   6
   7  -5  -5 174.754 9.15181   1
   7  -5  -5 173.892 12.1582   4
  -7   5   5 161.937 12.1888   3
   6  -5  -5 1640.37 66.2027   1
   6  -5  -5 1742.04 68.4558   4
   6  -5  -5 1684.09 66.7062   6
  -6   5   5 1678.84 70.0950   3
   5  -5  -5 249.665 12.5571   6
   5  -5  -5 220.955 12.8894   6
   5  -5  -5 219.343 12.3116   1
   5  -5  -5 259.777 12.5416   1
   4  -5  -5 674.837 26.2240   1
   4  -5  -5 539.948 25.9630   1
   4  -5  -5 536.671 26.6209   6
   4  -5  -5 618.874 26.1544   6
  -4   5   5 569.974 23.9463   1
  -4   5   5 553.639 24.4920   6
   3  -5  -5 352.999 18.2358   6
   3  -5  -5 392.770 15.8517   5
   3  -5  -5 346.699 17.7369   1
  -3   5   5 338.606 17.5004   6
  -3   5   5 356.427 17.0021   1
   2  -5  -5 1310.94 55.5868   6
   2  -5  -5 1327.22 53.4514   5
   2  -5  -5 1371.21 55.0612   1
   2  -5  -5 1334.76 55.7328   6
  -2   5   5 1350.41 55.6370   6
  -2   5   5 1335.10 54.7534   1
   1  -5  -5 104.730 7.55024   5
   1  -5  -5 81.7458 7.41187   6
   1  -5  -5 95.0218 7.37598   1
   1  -5  -5 92.3349 6.97729   2
   1  -5  -5 84.7150 7.16970   1
  -1   5   5 81.2908 7.65626   6
  -1   5   5 94.4106 7.54215   1
   0  -5  -5 56.5164 6.73358   1
   0  -5  -5 46.0953 6.55839   6
   0  -5  -5 57.3369 6.44624   2
   0   5   5 48.0691 6.40866   1
   0   5   5 37.1586 6.13027   6
  -1  -5  -5 51.1909 5.98179   2
  -1  -5  -5 42.6470 5.83025   1
  -1  -5  -5 53.9513 7.19212   6
   1   5   5 38.2967 6.42558   1
   1   5   5 45.7965 7.08900   6
  -2  -5  -5 146.858 13.8820   1
   2   5   5 174.530 13.9167   6
   2   5   5 187.616 13.2429   1
   3   5   5 2.21326 3.09236   6
   3   5   5 -0.7502 1.74229   1
   9  -6  -5 -0.1239 2.03345   6
   9  -6  -5 3.07270 2.93825   4
  -9   6   5 2.17188 2.74165   3
   8  -6  -5 2.28915 2.21455   4
   8  -6  -5 4.56655 1.90877   6
   8  -6  -5 1.00717 1.34345   1
  -8   6   5 1.73863 2.52709   3
   7  -6  -5 4.45287 2.07161   1
   7  -6  -5 4.74165 2.31825   4
   7  -6  -5 10.2024 2.38099   6
  -7   6   5 3.58616 2.56011   3
   6  -6  -5 277.500 14.2435   6
   6  -6  -5 239.931 13.3916   1
  -6   6   5 249.859 16.1500   3
   5  -6  -5 109.133 6.31815   6
   4  -6  -5 279.580 15.6828   6
   4  -6  -5 281.758 15.0899   1
  -4   6   5 264.430 13.5365   1
   3  -6  -5 348.576 14.0705   5
   3  -6  -5 287.178 16.6158   6
   3  -6  -5 271.863 15.9281   1
  -3   6   5 267.459 15.1346   1
  -3   6   5 269.650 15.8126   6
   2  -6  -5 29.6608 4.85396   1
   2  -6  -5 36.4296 5.92675   6
   2  -6  -5 29.0445 5.40077   6
  -2   6   5 34.1588 5.23475   1
  -2   6   5 30.4258 5.26611   6
   1  -6  -5 165.233 11.4702   1
   1  -6  -5 188.213 12.1173   1
   1  -6  -5 177.164 11.3222   2
   1  -6  -5 173.487 12.3607   6
  -1   6   5 174.081 11.9859   1
  -1   6   5 176.701 12.7730   6
   0  -6  -5 113.517 10.0711   6
   0  -6  -5 135.302 9.68733   2
   0  -6  -5 130.069 9.88811   1
   0   6   5 127.748 10.5319   1
   0   6   5 136.247 11.5061   6
  -1  -6  -5 32.9517 5.67822   1
  -1  -6  -5 35.1339 6.20902   6
   1   6   5 35.2190 7.22122   6
   1   6   5 33.1941 6.39408   1
   2   6   5 41.7625 7.33072   1
   2   6   5 31.8865 7.12757   6
   8  -7  -5 282.457 15.2262   1
   8  -7  -5 290.294 15.8942   6
  -8   7   5 288.330 19.0909   3
   7  -7  -5 2.75179 2.65289   1
  -7   7   5 6.16869 3.36341   3
   6  -7  -5 278.520 14.5653   6
   6  -7  -5 232.978 13.8649   1
  -6   7   5 220.696 15.8907   3
   5  -7  -5 1145.15 48.6279   6
   5  -7  -5 1116.70 48.1704   1
   4  -7  -5 21.5064 5.00888   6
   4  -7  -5 36.4022 5.67934   1
   3  -7  -5 18.5125 4.50793   6
   3  -7  -5 21.2118 4.74966   1
  -3   7   5 16.3193 3.79003   1
   2  -7  -5 106.852 9.70249   6
   2  -7  -5 99.5100 8.80719   1
   2  -7  -5 104.982 9.60848   6
  -2   7   5 102.456 8.86124   1
  -2   7   5 83.1577 10.1837   6
   1  -7  -5 13.0153 3.92133   1
   1  -7  -5 5.95352 2.72467   2
   1  -7  -5 1.68971 2.41305   6
   1  -7  -5 7.60801 3.09625   1
  -1   7   5 6.67520 2.90949   1
  -1   7   5 8.82669 3.98477   6
   0  -7  -5 65.0074 8.62897   1
   0  -7  -5 52.4727 8.19905   6
   0   7   5 37.5312 6.78092   1
   0   7   5 47.6220 8.10735   6
   1   7   5 30.1768 6.52941   1
   1   7   5 42.9879 8.44673   6
   8  -8  -5 107.422 9.24183   1
   8  -8  -5 153.662 9.90984   6
  -8   8   5 116.335 13.8728   3
   7  -8  -5 855.181 36.2590   6
   7  -8  -5 819.137 35.5564   1
  -7   8   5 665.760 38.1954   3
   5  -8  -5 1.12878 1.94945   1
   5  -8  -5 1.84377 2.27309   6
   4  -8  -5 35.4428 6.65658   6
   4  -8  -5 30.3339 5.91651   1
   3  -8  -5 152.294 11.9387   1
   3  -8  -5 144.493 12.2335   6
   3  -8  -5 144.644 12.2711   6
   2  -8  -5 2.42072 2.81463   6
   2  -8  -5 1.35983 2.38796   1
   2  -8  -5 0.78276 2.45810   1
   2  -8  -5 -0.0140 1.86574   6
  -2   8   5 3.85289 3.23008   1
   1  -8  -5 86.5926 10.3445   1
   1  -8  -5 76.4996 9.96900   1
   1  -8  -5 91.5734 11.7985   6
  -1   8   5 87.2187 11.9850   6
  -1   8   5 78.0079 9.91521   1
   0  -8  -5 59.6576 8.64009   1
   0   8   5 60.1924 9.41224   1
   0   8   5 50.6230 9.54616   6
   7  -9  -5 9.40335 3.27376   1
  -7   9   5 7.37179 4.22813   3
   6  -9  -5 34.4900 7.87505   6
   6  -9  -5 20.8711 5.07202   1
   5  -9  -5 9.41004 4.63087   6
   5  -9  -5 6.64117 3.32280   1
   4  -9  -5 859.613 40.9613   6
   4  -9  -5 773.639 39.3737   1
   3  -9  -5 76.6783 10.9690   6
   3  -9  -5 91.7228 11.2366   1
   3  -9  -5 77.9826 11.0191   6
   2  -9  -5 214.738 16.0313   1
   2  -9  -5 208.783 15.6660   1
   2  -9  -5 217.627 16.8497   6
   0   9  -6 13.1960 4.96411   1
   0   9  -6 4.95223 4.23067   6
  -1   9  -6 150.322 16.0128   1
  -1   9  -6 106.324 14.4284   6
   1  -9   6 123.278 11.8924   1
   1  -9   6 131.876 12.9000   6
  -2   9  -6 294.034 20.0178   1
  -2   9  -6 284.356 16.7187   3
   2  -9   6 305.656 19.8277   1
   2  -9   6 290.347 20.5299   6
  -3   9  -6 121.989 10.2149   3
   3  -9   6 129.881 14.8844   6
   3  -9   6 134.221 12.2418   1
  -4   9  -6 1.95476 2.21393   3
   4  -9   6 0.40090 2.37432   6
   4  -9   6 1.79637 2.52805   1
  -5   9  -6 230.807 15.6667   3
   5  -9   6 242.984 16.8532   1
   5  -9   6 228.205 17.7110   6
  -6   9  -6 3.16644 2.82627   3
   6  -9   6 3.56884 3.09515   1
   6  -9   6 5.59217 4.31899   6
   1   8  -6 16.3964 5.84367   6
   1   8  -6 15.5507 5.03816   1
   0   8  -6 13.2833 4.59937   1
   0   8  -6 11.4222 4.79162   6
   0  -8   6 18.3545 5.30822   6
   0  -8   6 15.5596 4.66596   1
  -1   8  -6 468.441 27.6669   6
  -1   8  -6 481.681 22.9077   3
  -1   8  -6 450.281 26.4541   1
   1  -8   6 453.701 25.8071   1
   1  -8   6 499.171 27.5113   6
  -2   8  -6 13.5717 4.68211   6
  -2   8  -6 9.28061 4.10680   1
  -2   8  -6 9.70326 3.21585   3
   2  -8   6 10.7830 4.07932   1
   2  -8   6 6.37664 3.55587   6
  -3   8  -6 5.61890 2.65994   3
  -3   8  -6 6.64018 5.05009   1
   3  -8   6 4.61780 2.78311   1
   3  -8   6 1.37028 2.52499   6
  -4   8  -6 131.545 10.3181   3
   4  -8   6 128.107 11.8470   6
   4  -8   6 131.834 11.1535   1
  -5   8  -6 241.016 15.1500   3
   5  -8   6 197.754 14.5563   1
   5  -8   6 224.942 16.2217   6
  -6   8  -6 2.31764 2.04147   3
   6  -8   6 2.21917 2.34307   1
   6  -8   6 1.56580 3.28399   6
   3   7  -6 60.7849 10.7797   6
   3   7  -6 55.4952 9.28126   1
   2   7  -6 83.8307 8.95568   4
   2   7  -6 69.9573 10.1229   1
   2   7  -6 109.466 13.4327   6
   1   7  -6 4.75313 2.58204   4
   1   7  -6 1.85121 2.78970   1
   1   7  -6 2.27257 3.05626   6
  -1  -7   6 5.33358 3.05333   1
   0   7  -6 74.7737 6.42491   4
   0   7  -6 94.1010 10.9798   1
   0   7  -6 83.5816 6.37471   3
   0   7  -6 81.3318 11.0011   6
   0  -7   6 88.6539 10.1460   1
   0  -7   6 87.9611 11.0367   6
  -1   7  -6 39.5794 5.12254   3
  -1   7  -6 32.1634 6.64270   6
  -1   7  -6 41.4643 7.07439   1
   1  -7   6 37.7947 7.18796   6
   1  -7   6 35.4152 6.30173   1
  -2   7  -6 138.418 11.7746   6
  -2   7  -6 115.628 10.3925   1
  -2   7  -6 124.327 8.86587   3
   2  -7   6 141.026 11.5192   6
   2  -7   6 130.391 10.4813   1
  -3   7  -6 836.540 38.9729   6
  -3   7  -6 788.997 35.6318   3
  -3   7  -6 786.279 37.4798   1
   3  -7   6 807.716 37.4005   1
   3  -7   6 807.206 38.3002   6
  -4   7  -6 326.980 18.1405   3
   4  -7   6 347.517 19.1212   1
   4  -7   6 324.543 19.6907   6
  -5   7  -6 64.8014 8.23948   3
   5  -7   6 70.1886 8.24701   1
   5  -7   6 55.5561 8.09157   6
   6  -7   6 0.58524 2.41218   6
   6  -7   6 1.44137 1.84355   1
   4   6  -6 13.1431 5.74348   6
   4   6  -6 7.07417 3.71517   1
   3   6  -6 2.19511 3.00569   6
   3   6  -6 -0.6919 1.83184   1
   2   6  -6 3.14830 3.03058   6
   2   6  -6 3.48526 2.75218   1
   1   6  -6 240.466 16.4123   6
   1   6  -6 205.444 13.4464   4
   1   6  -6 239.443 15.4348   1
  -1  -6   6 220.753 14.8242   6
  -1  -6   6 216.005 14.1153   1
   0   6  -6 97.2691 7.05742   4
   0   6  -6 98.9242 6.56861   3
   0   6  -6 112.307 9.56182   1
   0   6  -6 101.868 9.82977   6
   0  -6   6 110.855 9.53130   6
   0  -6   6 102.661 8.76883   1
  -1   6  -6 185.855 12.8016   1
  -1   6  -6 165.639 11.8908   2
  -1   6  -6 182.756 13.3889   6
  -1   6  -6 192.449 10.4072   3
   1  -6   6 174.063 12.0758   1
   1  -6   6 189.188 13.0127   6
  -2   6  -6 715.641 31.3195   3
  -2   6  -6 760.427 34.0722   1
  -2   6  -6 700.597 32.9251   2
  -2   6  -6 707.059 34.5520   6
   2  -6   6 699.148 33.0959   1
   2  -6   6 748.360 34.2603   6
  -3   6  -6 1167.11 48.3135   3
  -3   6  -6 1172.20 49.9879   1
  -3   6  -6 1139.54 50.7766   6
  -3   6  -6 1153.18 49.1900   2
   3  -6   6 1168.48 49.4757   1
   3  -6   6 1144.14 50.2743   6
  -4   6  -6 3.89272 2.11998   3
  -4   6  -6 8.07347 4.20309   1
   4  -6   6 6.16253 2.48180   1
   4  -6   6 7.32006 2.85298   6
   5  -6   6 652.091 30.5013   6
   5  -6   6 618.115 29.4313   1
   6  -6   6 134.222 9.64504   1
   7  -6   6 111.469 8.76533   1
   5   5  -6 23.5681 5.88753   1
   5   5  -6 18.8645 6.37890   6
   4   5  -6 13.2227 4.30428   1
   4   5  -6 27.1017 6.75579   6
   3   5  -6 2.46014 2.45686   1
   3   5  -6 1.16687 2.16711   6
   2   5  -6 12.9925 3.86762   1
   2   5  -6 12.9511 4.10626   6
  -2  -5   6 18.2221 3.88807   1
  -2  -5   6 14.7077 3.81586   6
   1   5  -6 603.445 29.8885   4
   1   5  -6 630.530 31.1929   1
   1   5  -6 681.932 26.9544   3
   1   5  -6 666.080 30.7428   2
   1   5  -6 675.249 32.3843   6
  -1  -5   6 634.605 31.0645   6
  -1  -5   6 745.935 31.0974   1
   0   5  -6 322.792 18.5222   1
   0   5  -6 344.798 15.3906   3
   0   5  -6 354.036 16.5342   4
   0   5  -6 349.023 19.5364   6
   0   5  -6 353.486 18.3334   2
   0  -5   6 361.191 18.4946   1
   0  -5   6 328.980 18.6705   6
  -1   5  -6 1.20162 1.30836   2
  -1   5  -6 5.81000 1.82028   3
  -1   5  -6 3.79230 1.89900   1
  -1   5  -6 2.16660 2.00663   6
   1  -5   6 3.69751 1.93518   1
   1  -5   6 4.13865 2.11046   6
  -2   5  -6 11.1470 2.65397   3
  -2   5  -6 13.1207 3.30094   1
  -2   5  -6 11.8721 3.37865   6
  -2   5  -6 14.9762 3.37876   2
   2  -5   6 17.1142 3.80914   6
   2  -5   6 12.2383 2.94997   1
  -3   5  -6 293.391 15.2992   3
  -3   5  -6 287.966 15.5724   2
  -3   5  -6 283.087 16.6315   6
  -3   5  -6 303.522 16.2573   1
   3  -5   6 295.799 15.6704   1
   3  -5   6 291.274 16.2594   6
   3  -5   6 274.380 14.9219   2
   3  -5   6 327.920 13.7393   4
  -4   5  -6 492.287 23.6451   1
   4  -5   6 506.790 24.1302   6
   4  -5   6 496.271 23.4715   1
   5  -5   6 -1.6049 1.07142   6
   5  -5   6 0.11503 1.09853   1
   6  -5   6 180.091 9.47756   6
   7  -5   6 8.17402 2.55206   1
   5   4  -6 -5.3147 2.05717   1
   4   4  -6 -1.5185 1.47630   6
   3   4  -6 714.736 32.8118   2
   3   4  -6 724.541 33.5781   1
   3   4  -6 705.693 34.3031   6
  -3  -4   6 740.395 31.5865   1
   2   4  -6 2.80557 2.18737   6
   2   4  -6 4.33647 2.18839   1
   2   4  -6 3.70929 2.00955   2
   2   4  -6 2.29467 1.80767   4
  -2  -4   6 2.40932 1.87736   6
  -2  -4   6 5.36162 2.05558   1
   1   4  -6 88.9739 7.48148   1
   1   4  -6 94.6424 4.73689   3
   1   4  -6 99.4864 7.42909   4
   1   4  -6 89.0485 7.15403   2
   1   4  -6 95.3662 8.08965   6
  -1  -4   6 92.2648 7.61682   6
  -1  -4   6 99.4447 7.44862   1
   0   4  -6 22.3967 3.16123   4
   0   4  -6 21.3089 2.46031   3
   0   4  -6 17.8086 3.71883   6
   0   4  -6 24.7090 4.37048   1
   0   4  -6 19.7650 3.45942   2
   0  -4   6 17.0185 3.29772   1
   0  -4   6 16.5854 3.49917   6
  -1   4  -6 326.356 16.8879   6
  -1   4  -6 303.553 15.5846   2
  -1   4  -6 316.617 16.1632   1
  -1   4  -6 322.170 14.0399   3
   1  -4   6 269.420 14.3688   4
   1  -4   6 294.836 15.3480   1
   1  -4   6 331.393 16.3302   6
  -2   4  -6 263.043 13.6399   2
  -2   4  -6 235.530 14.1984   6
  -2   4  -6 249.478 13.8766   1
   2  -4   6 254.620 13.7673   2
   2  -4   6 275.680 12.3563   4
   2  -4   6 258.703 13.9768   6
   2  -4   6 248.071 13.3822   1
  -3   4  -6 171.701 10.8571   6
  -3   4  -6 164.229 10.2321   1
  -3   4  -6 157.026 9.75307   2
   3  -4   6 178.710 9.98756   1
   3  -4   6 165.353 10.3135   6
   3  -4   6 163.292 9.49712   2
  -4   4  -6 0.81683 1.16403   2
  -4   4  -6 0.36797 1.20410   6
  -4   4  -6 0.85955 1.17862   1
   4  -4   6 0.63020 1.12838   1
   4  -4   6 -0.3902 1.14051   6
   4  -4   6 -0.3670 0.83472   2
   5  -4   6 0.40000 1.18311   1
   7  -4   6 449.031 19.4862   6
   7  -4   6 306.931 18.3353   1
   6   3  -6 126.846 10.3861   1
   5   3  -6 83.2779 7.84197   1
   4   3  -6 81.8725 7.03484   2
   4   3  -6 98.2133 7.98537   1
   3   3  -6 15.2317 3.15559   2
   3   3  -6 16.1220 3.67455   6
   3   3  -6 14.0265 3.44560   1
   3   3  -6 18.1982 1.57500   3
  -3  -3   6 17.4165 3.02185   1
  -3  -3   6 14.7463 3.05286   6
   2   3  -6 41.3966 5.55401   6
   2   3  -6 38.6373 5.86305   4
   2   3  -6 54.8876 5.89725   2
   2   3  -6 42.1547 5.47972   1
  -2  -3   6 42.5352 5.27719   6
  -2  -3   6 45.9662 5.19485   1
   1   3  -6 302.419 15.3187   6
   1   3  -6 278.535 14.1556   2
   1   3  -6 268.096 14.3249   4
   1   3  -6 281.374 14.5442   1
  -1  -3   6 286.813 14.2313   1
  -1  -3   6 272.649 14.5855   6
   0   3  -6 53.0524 4.76035   1
   0   3  -6 40.5452 5.11402   6
   0   3  -6 50.0093 5.31927   2
   0  -3   6 45.2027 4.20831   1
   0  -3   6 48.5793 4.60186   6
  -1   3  -6 0.01856 0.75857   1
  -1   3  -6 0.25263 0.66718   2
  -1   3  -6 0.15525 0.77746   6
   1  -3   6 0.55897 0.75880   1
   1  -3   6 -0.0247 0.65098   6
  -2   3  -6 13.4546 2.69498   1
  -2   3  -6 10.4125 2.24435   2
  -2   3  -6 11.4092 2.69142   6
   2  -3   6 13.8041 2.62660   1
   2  -3   6 12.4733 2.38632   2
   2  -3   6 12.8488 2.69039   6
  -3   3  -6 59.8757 5.11607   1
  -3   3  -6 56.9604 5.28122   6
   3  -3   6 60.7274 4.89250   1
   3  -3   6 52.8815 4.94569   6
   3  -3   6 54.5832 4.44314   2
  -4   3  -6 40.3551 4.91325   1
  -4   3  -6 44.6662 4.86383   2
  -4   3  -6 45.8591 5.43280   6
   4  -3   6 40.9156 4.67783   1
   4  -3   6 33.3086 4.06677   2
   4  -3   6 35.0544 4.70027   6
   6  -3   6 357.404 16.4685   6
   6  -3   6 277.604 15.9812   1
   7  -3   6 20.3702 3.99473   1
   7   2  -6 111.333 9.77769   6
   7   2  -6 119.636 9.48541   1
   6   2  -6 608.558 29.1454   1
   6   2  -6 641.461 29.8189   6
   5   2  -6 15.9299 2.79143   6
   5   2  -6 6.68602 2.63489   1
   5   2  -6 8.20706 2.35709   2
   4   2  -6 54.4368 4.96309   1
   4   2  -6 74.3569 5.38278   6
   4   2  -6 48.3709 5.41961   2
   4   2  -6 54.6077 6.09324   1
   4   2  -6 57.9636 5.57615   6
  -4  -2   6 56.7063 3.45455   1
   3   2  -6 339.445 15.6733   2
   3   2  -6 342.116 16.0603   1
   3   2  -6 334.006 16.4919   6
   3   2  -6 295.087 15.7280   6
   3   2  -6 355.684 15.8876   1
   3   2  -6 271.528 17.3910   4
  -3  -2   6 339.957 16.9017   5
  -3  -2   6 328.266 15.2731   6
   2   2  -6 46.8566 4.45162   6
   2   2  -6 37.0461 4.10460   2
   2   2  -6 45.5717 4.17108   1
   2   2  -6 38.3678 4.62162   4
   2   2  -6 50.1444 4.11861   1
  -2  -2   6 40.3629 4.03053   6
  -2  -2   6 61.0405 4.48267   1
   1   2  -6 81.2862 7.66437   1
   1   2  -6 81.1792 5.48179   2
   1   2  -6 85.8527 5.78574   1
   1   2  -6 82.8074 5.96042   4
   1   2  -6 87.5130 6.14100   6
  -1  -2   6 84.0575 5.96350   6
  -1  -2   6 85.9192 5.70244   1
   0   2  -6 469.585 19.9883   1
   0   2  -6 452.874 19.5365   2
   0   2  -6 450.537 20.2715   6
   0  -2   6 419.971 18.2065   3
   0  -2   6 448.852 19.6675   1
   0  -2   6 447.870 20.0171   6
  -1   2  -6 5202.27 199.788   1
  -1   2  -6 5207.14 200.255   6
  -1   2  -6 5330.85 199.461   2
   1  -2   6 5317.82 199.090   2
   1  -2   6 5224.25 200.747   6
   1  -2   6 5379.57 200.107   1
  -2   2  -6 1090.43 42.9071   1
  -2   2  -6 1067.68 42.4130   2
  -2   2  -6 1076.93 43.3133   6
   2  -2   6 952.024 41.9175   2
   2  -2   6 1055.20 43.1349   6
   2  -2   6 1085.33 42.6337   1
  -3   2  -6 157.011 8.87867   1
  -3   2  -6 148.983 9.05184   6
   3  -2   6 150.574 9.20549   6
   3  -2   6 149.019 8.73030   1
   3  -2   6 147.888 8.36329   2
  -4   2  -6 181.810 11.2584   6
  -4   2  -6 212.431 10.9875   2
  -4   2  -6 225.643 11.4390   1
   4  -2   6 211.438 12.1485   6
   4  -2   6 222.096 11.7135   1
   4  -2   6 226.052 11.2829   2
   5  -2   6 1719.28 68.4093   6
   5  -2   6 1661.21 67.7296   1
   6  -2   6 547.418 23.6166   6
   6  -2   6 431.512 22.9001   1
   7  -2   6 14.1655 3.51059   1
   7   1  -6 94.4750 7.62961   1
   7   1  -6 98.2853 8.17491   6
   6   1  -6 3.86244 1.89065   6
   6   1  -6 3.63766 1.68579   2
   6   1  -6 4.47217 2.17026   1
   5   1  -6 -1.1932 1.24000   1
   5   1  -6 3.16447 1.44645   6
   5   1  -6 4.52907 2.50755   1
   5   1  -6 1.87729 1.20671   2
   4   1  -6 3619.34 137.790   2
   4   1  -6 3729.25 138.241   1
   4   1  -6 3675.04 138.604   6
   4   1  -6 3526.08 138.578   6
   4   1  -6 3596.09 138.121   1
  -4  -1   6 3582.78 139.847   5
   3   1  -6 3.36223 1.34812   6
   3   1  -6 1.24123 0.96054   1
   3   1  -6 3.87819 1.38807   1
   3   1  -6 1.29857 1.05543   6
   3   1  -6 1.32105 1.42901   4
   3   1  -6 3.45745 1.21434   2
  -3  -1   6 3.12178 1.21601   6
  -3  -1   6 -0.2162 0.93125   5
  -3  -1   6 2.84717 1.03313   1
   2   1  -6 28.0932 3.19449   1
   2   1  -6 28.5280 3.25678   1
   2   1  -6 27.6704 3.47105   6
   2   1  -6 31.7248 3.68006   6
   2   1  -6 28.6080 3.13566   2
   2   1  -6 22.5068 3.68666   4
  -2  -1   6 29.5648 2.74142   1
  -2  -1   6 31.4735 3.04007   6
   1   1  -6 732.928 30.1297   1
   1   1  -6 710.729 29.8985   2
   1   1  -6 820.975 31.3370   4
   1   1  -6 749.534 30.6079   6
   1   1  -6 697.185 30.0616   1
  -1  -1   6 788.357 30.3684   1
  -1  -1   6 702.448 30.4069   6
   0   1  -6 730.630 30.6826   2
   0   1  -6 772.807 31.4149   6
   0   1  -6 762.558 31.0191   1
   0  -1   6 773.988 31.5079   6
   0  -1   6 768.330 31.0430   1
  -1   1  -6 1426.25 57.1987   1
  -1   1  -6 1473.29 57.0247   2
  -1   1  -6 1460.61 57.6978   6
   1  -1   6 1481.51 56.9657   2
   1  -1   6 1439.63 57.3174   1
   1  -1   6 1480.32 57.9138   6
  -2   1  -6 963.564 38.1382   1
  -2   1  -6 950.094 37.8325   2
  -2   1  -6 911.474 38.4093   6
   2  -1   6 914.864 38.2693   1
   2  -1   6 990.238 39.0722   6
   2  -1   6 904.016 37.7856   2
  -3   1  -6 138.870 8.31385   1
  -3   1  -6 150.652 8.85760   6
   3  -1   6 146.151 8.79456   1
   3  -1   6 148.428 9.31518   6
   3  -1   6 161.153 8.60902   2
  -4   1  -6 161.078 9.38017   1
   4  -1   6 181.538 10.4128   1
   4  -1   6 169.908 10.7256   6
   5  -1   6 465.713 21.2884   6
   5  -1   6 396.010 20.7595   1
   6  -1   6 2.93173 2.99335   5
   6  -1   6 3.72162 2.16997   1
   8   0  -6 658.178 29.5855   6
   8   0  -6 643.541 28.9583   1
   7   0  -6 99.9917 6.83957   1
   7   0  -6 92.2535 7.12919   6
   6   0  -6 2304.92 88.6241   6
   6   0  -6 2232.32 87.9672   1
   6   0  -6 2295.18 87.7290   2
   5   0  -6 84.6921 5.27145   1
   5   0  -6 83.3029 5.11553   2
   5   0  -6 88.1841 5.71259   6
   5   0  -6 91.9511 5.52578   1
   5   0  -6 89.3565 5.80067   6
   4   0  -6 105.995 6.26736   6
   4   0  -6 97.3426 8.68347   4
   4   0  -6 105.044 6.15103   6
   4   0  -6 115.315 6.14552   1
   4   0  -6 111.798 5.79875   2
   4   0  -6 109.891 5.83433   1
  -4   0   6 115.261 6.07639   3
  -4   0   6 109.104 7.12775   5
   3   0  -6 849.984 33.2296   2
   3   0  -6 835.256 33.8583   6
   3   0  -6 854.905 33.4170   1
   3   0  -6 794.523 36.6459   4
   3   0  -6 838.732 33.6956   6
   3   0  -6 852.814 33.5611   1
  -3   0   6 840.845 33.1357   6
  -3   0   6 838.603 33.2064   3
  -3   0   6 891.533 32.7567   1
  -3   0   6 839.706 34.1090   5
   2   0  -6 837.540 34.0535   4
   2   0  -6 810.273 31.8364   2
   2   0  -6 787.766 32.2905   6
   2   0  -6 789.339 32.4330   6
   2   0  -6 839.417 32.2099   1
   2   0  -6 806.238 32.0355   1
  -2   0   6 798.714 31.9792   1
  -2   0   6 769.215 32.1954   6
   1   0  -6 90.7315 5.43877   1
   1   0  -6 87.7533 5.44622   6
   1   0  -6 89.7614 5.30561   1
   1   0  -6 102.360 5.31510   2
  -1   0   6 87.9143 5.27830   1
  -1   0   6 89.8801 5.57557   6
   0   0  -6 2197.79 82.3972   2
   0   0  -6 2162.13 82.6614   1
   0   0  -6 2087.34 82.8559   6
   0   0   6 2143.65 83.2839   6
   0   0   6 2156.78 82.7692   1
  -1   0  -6 258.609 12.4898   6
  -1   0  -6 255.417 11.9446   2
  -1   0  -6 244.515 12.1139   1
   1   0   6 264.005 13.0339   6
   1   0   6 250.279 12.4049   1
   1   0   6 259.364 12.1148   2
  -2   0  -6 156.041 8.90010   6
  -2   0  -6 160.764 8.67479   1
  -2   0  -6 157.635 8.38002   2
   2   0   6 153.448 9.46512   6
   2   0   6 158.195 9.11119   1
   2   0   6 152.212 8.55803   2
  -3   0  -6 440.587 20.2417   1
  -3   0  -6 448.012 20.7820   6
   3   0   6 446.469 20.5428   2
   3   0   6 485.374 21.4880   1
   3   0   6 461.633 22.0201   6
   4   0   6 50.8523 6.12037   1
   4   0   6 56.8095 7.03551   6
   5   0   6 267.001 15.3889   1
   5   0   6 275.909 16.3455   6
   6   0   6 3.62235 3.77731   5
   6   0   6 3.48450 2.16080   1
   8  -1  -6 266.989 13.1543   1
   8  -1  -6 272.510 13.5068   6
   7  -1  -6 20.0571 2.78343   1
   7  -1  -6 25.2941 2.89730   2
   7  -1  -6 25.0596 3.38673   6
   6  -1  -6 339.730 21.6961   4
   6  -1  -6 377.061 15.8170   1
   6  -1  -6 390.742 15.7261   2
   6  -1  -6 377.142 16.1774   6
   6  -1  -6 383.501 16.1985   6
   6  -1  -6 375.034 15.9916   1
   5  -1  -6 247.348 10.6808   1
   5  -1  -6 244.174 11.0507   6
   5  -1  -6 210.156 15.0007   4
   5  -1  -6 256.048 10.5648   2
   5  -1  -6 250.252 10.9032   1
   5  -1  -6 262.513 11.0039   6
  -5   1   6 251.535 12.4028   3
   4  -1  -6 43.4303 2.71401   2
   4  -1  -6 42.6163 2.88507   1
   4  -1  -6 39.7508 5.95421   4
   4  -1  -6 39.4175 2.75732   1
   4  -1  -6 38.4494 2.96715   6
   4  -1  -6 42.6809 3.00619   6
  -4   1   6 40.8582 3.56347   3
   3  -1  -6 63.6024 3.91283   1
   3  -1  -6 56.8175 5.25572   4
   3  -1  -6 66.6965 3.77250   2
   3  -1  -6 62.2031 4.10940   6
   3  -1  -6 64.9369 3.88242   1
   3  -1  -6 69.5927 4.13965   6
  -3   1   6 66.9830 3.34995   1
  -3   1   6 58.3356 3.54203   5
  -3   1   6 59.1682 3.51888   6
   2  -1  -6 3.10272 1.07174   1
   2  -1  -6 0.92142 0.83697   6
   2  -1  -6 3.15431 1.10955   6
   2  -1  -6 1.27900 0.75927   2
   2  -1  -6 2.08331 0.90379   1
  -2   1   6 4.30540 1.21031   6
  -2   1   6 3.68204 1.05990   1
   1  -1  -6 12.3264 2.16664   1
   1  -1  -6 9.32479 2.09197   1
   1  -1  -6 10.4770 1.86683   2
   1  -1  -6 6.52485 1.81469   6
  -1   1   6 5.54276 1.58536   1
  -1   1   6 9.02940 2.05428   6
   0  -1  -6 248.464 11.8829   1
   0  -1  -6 239.024 12.1138   6
   0  -1  -6 256.796 11.6884   2
   0   1   6 243.473 12.5345   6
   0   1   6 251.368 12.2110   1
  -1  -1  -6 199.027 10.5921   6
  -1  -1  -6 188.909 9.84259   2
  -1  -1  -6 189.684 10.1678   1
   1   1   6 209.018 11.3769   6
   1   1   6 200.938 10.7367   1
  -2  -1  -6 32.9474 3.73518   2
  -2  -1  -6 27.8665 3.93112   6
  -2  -1  -6 35.7261 4.15838   1
   2   1   6 27.5289 3.74290   2
   2   1   6 23.1135 4.00642   6
   2   1   6 24.7804 3.94862   1
  -3  -1  -6 244.167 12.4382   2
  -3  -1  -6 249.951 13.2165   6
  -3  -1  -6 245.935 12.8078   1
   3   1   6 250.832 15.3431   5
   3   1   6 257.331 14.6939   6
   3   1   6 247.779 13.9206   1
   4   1   6 361.304 19.6783   6
   4   1   6 376.570 21.2439   5
   4   1   6 337.298 18.5809   1
   5   1   6 15.3911 4.95491   5
   5   1   6 16.3500 4.10440   1
   5   1   6 8.73591 3.63349   6
   6   1   6 47.2531 9.17897   6
   6   1   6 30.5964 5.74819   1
   9  -2  -6 21.5267 6.93207   4
   8  -2  -6 3.78602 3.23265   4
   8  -2  -6 3.17732 2.08662   5
   8  -2  -6 2.07430 1.00252   2
   7  -2  -6 195.514 15.4956   4
   7  -2  -6 209.193 9.25983   6
   7  -2  -6 233.556 12.9827   5
   7  -2  -6 208.009 9.33924   6
   7  -2  -6 212.531 8.97371   2
   7  -2  -6 214.624 9.07526   1
   6  -2  -6 137.382 11.4760   4
   6  -2  -6 140.013 6.13083   2
   6  -2  -6 137.032 6.40904   6
   6  -2  -6 137.213 6.28672   1
   6  -2  -6 143.422 6.26766   1
   6  -2  -6 143.906 8.67992   5
   6  -2  -6 132.590 6.44599   6
  -6   2   6 134.761 8.93268   3
   5  -2  -6 15.0971 3.91234   4
   5  -2  -6 16.1132 1.70161   2
   5  -2  -6 15.8896 1.77935   1
   5  -2  -6 14.1887 1.68348   1
   5  -2  -6 16.5598 1.95560   6
   5  -2  -6 17.3208 1.98690   6
  -5   2   6 18.0578 3.25935   3
   4  -2  -6 230.332 10.7379   6
   4  -2  -6 238.637 10.2941   2
   4  -2  -6 229.047 10.4215   1
   4  -2  -6 242.411 10.5021   1
   4  -2  -6 233.314 13.3740   4
   4  -2  -6 232.897 10.6442   6
   3  -2  -6 395.167 17.0950   1
   3  -2  -6 388.888 16.7345   2
   3  -2  -6 392.838 17.5104   6
   3  -2  -6 407.325 17.0548   1
   3  -2  -6 365.175 17.0872   6
   3  -2  -6 440.406 19.0130   4
  -3   2   6 413.398 16.2627   1
  -3   2   6 386.302 16.5106   6
   2  -2  -6 305.076 15.1499   6
   2  -2  -6 330.453 14.5473   1
   2  -2  -6 313.156 14.7721   1
   2  -2  -6 319.135 14.2017   2
   2  -2  -6 326.288 14.8049   6
  -2   2   6 310.874 14.4808   6
  -2   2   6 341.293 14.3141   1
   1  -2  -6 1135.27 43.9442   1
   1  -2  -6 1089.30 43.5009   2
   1  -2  -6 1056.44 44.1618   6
  -1   2   6 1047.46 44.3832   6
  -1   2   6 1122.04 43.9917   1
  -1   2   6 1124.87 42.9605   5
   0  -2  -6 372.630 17.0141   1
   0  -2  -6 372.248 16.6271   2
   0  -2  -6 355.512 17.2604   6
   0   2   6 351.317 16.8519   5
   0   2   6 383.890 17.5156   1
   0   2   6 373.973 17.9648   6
  -1  -2  -6 384.758 18.0202   6
  -1  -2  -6 353.452 17.3277   1
  -1  -2  -6 379.186 17.1415   2
   1   2   6 375.703 18.2532   1
   1   2   6 358.539 18.2239   5
   1   2   6 389.375 18.9986   6
  -2  -2  -6 247.324 12.8983   1
  -2  -2  -6 240.431 13.1662   6
  -2  -2  -6 238.582 12.3904   2
   2   2   6 246.794 14.4665   5
   2   2   6 250.898 14.6753   6
   2   2   6 250.662 13.9439   1
  -3  -2  -6 144.668 9.09785   1
  -3  -2  -6 154.896 13.5197   6
   3   2   6 142.631 10.9388   6
   3   2   6 144.218 10.2711   1
   3   2   6 150.581 11.3384   5
   4   2   6 332.910 19.6421   6
   4   2   6 319.266 20.1455   5
   4   2   6 351.472 19.0900   1
   5   2   6 113.388 10.9597   6
   5   2   6 87.2940 10.0258   1
   5   2   6 104.086 12.8177   5
   9  -3  -6 249.027 19.6013   4
   8  -3  -6 121.310 12.1566   4
   8  -3  -6 131.865 9.60354   5
   7  -3  -6 5.67767 0.89537   2
   7  -3  -6 6.73713 2.24247   5
   7  -3  -6 5.33140 3.18597   4
   7  -3  -6 5.90967 0.95649   1
   7  -3  -6 6.85956 1.04119   1
   7  -3  -6 6.50453 1.07794   6
  -7   3   6 5.94999 2.58625   3
   6  -3  -6 137.771 6.80047   1
   6  -3  -6 143.868 7.06293   6
   6  -3  -6 155.447 6.82329   2
   6  -3  -6 140.738 11.1419   4
   6  -3  -6 142.205 6.87481   1
   6  -3  -6 138.889 8.19389   5
   6  -3  -6 164.183 7.01720   1
   6  -3  -6 146.742 7.13974   6
  -6   3   6 156.440 10.1075   3
   5  -3  -6 203.718 9.13507   1
   5  -3  -6 202.691 9.01324   5
   5  -3  -6 193.666 9.31874   6
   5  -3  -6 187.234 9.05342   1
   5  -3  -6 181.413 9.30316   6
   5  -3  -6 174.379 11.7783   4
   5  -3  -6 200.394 9.15964   1
  -5   3   6 203.721 11.7236   3
   4  -3  -6 488.597 20.3909   1
   4  -3  -6 502.764 22.3142   4
   4  -3  -6 448.114 20.6239   6
   4  -3  -6 458.954 20.0982   1
   4  -3  -6 487.606 20.5807   6
   4  -3  -6 459.526 20.1765   1
   4  -3  -6 495.759 19.9805   2
   3  -3  -6 1105.16 43.9329   1
   3  -3  -6 1165.69 43.7561   1
   3  -3  -6 1064.11 44.3645   6
   3  -3  -6 1128.43 44.1389   6
   3  -3  -6 1092.86 43.2351   2
   3  -3  -6 1094.08 43.6352   1
  -3   3   6 993.315 42.4952   1
   2  -3  -6 493.054 21.5417   2
   2  -3  -6 516.594 22.0203   1
   2  -3  -6 506.684 22.4361   6
  -2   3   6 493.111 21.5995   1
  -2   3   6 495.426 22.1717   6
   1  -3  -6 186.241 10.7956   6
   1  -3  -6 201.489 10.5916   1
   1  -3  -6 198.946 10.2022   2
  -1   3   6 187.740 10.5244   1
  -1   3   6 184.804 9.58140   5
  -1   3   6 191.216 11.0592   6
   0  -3  -6 217.469 12.0597   1
   0  -3  -6 239.477 11.9928   2
   0  -3  -6 221.183 12.5453   6
   0   3   6 226.817 12.6794   1
   0   3   6 242.230 12.3161   5
   0   3   6 231.571 13.4191   6
  -1  -3  -6 6.26408 2.03229   1
  -1  -3  -6 2.85359 1.41583   2
  -1  -3  -6 10.9069 2.93853   6
   1   3   6 5.53214 2.16895   5
   1   3   6 5.60556 2.24003   1
   1   3   6 7.98601 2.83596   6
  -2  -3  -6 52.2744 6.25968   6
  -2  -3  -6 67.8610 5.76351   1
  -2  -3  -6 59.2470 5.16390   2
   2   3   6 54.4300 7.07260   5
   2   3   6 56.0145 7.00704   1
   2   3   6 58.2154 7.78187   6
   3   3   6 390.459 22.1381   5
   3   3   6 399.971 21.4848   1
   3   3   6 395.052 22.2588   6
   4   3   6 57.8411 8.77636   6
   4   3   6 42.8317 7.62105   5
   4   3   6 53.6312 7.61068   1
   9  -4  -6 33.4956 7.78351   4
   8  -4  -6 32.0146 2.24176   2
   8  -4  -6 35.7891 7.37183   4
  -8   4   6 34.2782 5.87145   3
   7  -4  -6 63.9553 5.24835   5
   7  -4  -6 62.0236 3.92119   1
   7  -4  -6 59.0038 3.97257   6
   7  -4  -6 60.0039 4.04991   6
   7  -4  -6 49.6528 7.81337   4
  -7   4   6 54.7103 7.32245   3
   6  -4  -6 1549.03 60.1082   1
   6  -4  -6 1596.29 64.6086   4
   6  -4  -6 1521.46 60.1331   1
   6  -4  -6 1478.44 60.5038   6
   6  -4  -6 1550.93 60.1726   5
   6  -4  -6 1583.47 60.3930   6
  -6   4   6 1554.93 64.1185   3
   5  -4  -6 142.982 8.39996   6
   5  -4  -6 165.643 10.1088   4
   5  -4  -6 151.236 8.61737   6
   5  -4  -6 165.323 6.76836   5
   5  -4  -6 139.807 8.64519   6
   5  -4  -6 138.962 8.26763   1
   5  -4  -6 167.044 8.37977   1
   4  -4  -6 342.453 16.3504   6
   4  -4  -6 332.193 16.7203   6
   4  -4  -6 341.067 16.2487   1
   4  -4  -6 349.993 16.0139   1
   4  -4  -6 335.510 16.2083   6
  -4   4   6 342.458 14.1368   1
  -4   4   6 336.922 14.7356   6
   3  -4  -6 107.979 7.21094   1
   3  -4  -6 103.765 7.44421   1
   3  -4  -6 119.027 7.76912   6
   3  -4  -6 113.839 7.61050   6
   3  -4  -6 108.741 7.14893   1
  -3   4   6 112.306 7.09539   6
  -3   4   6 117.403 6.76360   1
   2  -4  -6 1898.34 75.4550   1
   2  -4  -6 1922.90 76.1006   6
   2  -4  -6 1857.29 74.7876   2
   2  -4  -6 1916.45 75.3940   1
  -2   4   6 1899.59 75.1401   1
  -2   4   6 1952.55 75.9868   6
   1  -4  -6 5.36714 1.98883   6
   1  -4  -6 4.29522 1.77641   1
   1  -4  -6 3.60195 1.52656   2
  -1   4   6 6.98471 2.53789   6
  -1   4   6 3.25406 1.74309   1
   0  -4  -6 8.74840 2.42362   1
   0  -4  -6 6.62847 2.17634   2
   0  -4  -6 11.2857 3.02753   6
   0   4   6 15.8659 3.63581   1
   0   4   6 9.28562 3.26273   6
   0   4   6 10.3245 2.77084   5
  -1  -4  -6 3.52830 1.82762   2
  -1  -4  -6 2.10074 1.84049   1
  -1  -4  -6 2.43563 1.76536   6
   1   4   6 -0.1951 1.45912   1
   1   4   6 0.56063 1.68803   6
   1   4   6 1.17218 1.36757   5
  -2  -4  -6 7.49841 2.62123   1
  -2  -4  -6 10.3915 3.11277   6
   2   4   6 13.1976 3.80503   1
   2   4   6 7.00773 3.31512   5
   2   4   6 8.26705 3.47948   6
   3   4   6 107.908 9.78890   1
   3   4   6 95.7549 11.6612   6
   3   4   6 93.5133 11.1854   5
   4   4   6 10.4266 4.79136   6
   4   4   6 11.1359 4.04568   1
   9  -5  -6 1.97542 3.08764   4
  -9   5   6 1.45264 2.20830   3
   8  -5  -6 9.05153 1.93894   1
   8  -5  -6 7.18463 3.44095   4
   8  -5  -6 10.2578 1.93279   6
  -8   5   6 6.36253 3.25405   3
   7  -5  -6 73.4558 7.30595   4
   7  -5  -6 71.1320 4.85269   1
   7  -5  -6 62.9144 5.08474   6
  -7   5   6 56.8615 7.84817   3
   6  -5  -6 1132.76 46.4134   6
   6  -5  -6 1145.59 44.4666   5
   6  -5  -6 1213.95 48.3205   4
   6  -5  -6 1062.69 45.7091   1
  -6   5   6 1132.45 49.6705   3
   5  -5  -6 24.9120 2.49062   6
   4  -5  -6 65.8641 5.96278   1
   4  -5  -6 86.9205 5.66600   6
   4  -5  -6 75.6903 5.46258   6
   4  -5  -6 63.7281 5.93911   1
   4  -5  -6 82.0009 3.70560   5
   3  -5  -6 266.245 14.3181   1
   3  -5  -6 287.935 12.1318   5
   3  -5  -6 268.514 14.9425   6
   3  -5  -6 261.405 14.8097   6
  -3   5   6 249.011 14.0760   6
  -3   5   6 275.159 13.8163   1
   2  -5  -6 121.587 8.22470   2
   2  -5  -6 130.241 8.89997   1
   2  -5  -6 120.506 8.56647   1
   2  -5  -6 117.671 8.96823   6
   2  -5  -6 123.821 7.18980   5
  -2   5   6 115.809 8.36232   1
  -2   5   6 119.188 9.01988   6
   1  -5  -6 105.884 8.03049   1
   1  -5  -6 96.7203 8.23909   6
   1  -5  -6 102.050 7.57251   2
  -1   5   6 97.0740 8.00293   1
  -1   5   6 89.6128 8.26235   6
   0  -5  -6 11.5119 2.92936   2
   0  -5  -6 8.11203 2.80683   1
   0  -5  -6 10.6789 3.20823   6
   0   5   6 28.4902 5.11990   1
   0   5   6 15.8726 4.39091   6
  -1  -5  -6 730.516 33.8363   1
  -1  -5  -6 743.671 34.7861   6
   1   5   6 754.480 35.3506   1
   1   5   6 760.011 36.6433   6
   2   5   6 22.7051 5.17983   1
   2   5   6 30.0754 6.41134   6
   3   5   6 34.1375 7.60060   6
   3   5   6 31.6191 6.51987   1
   9  -6  -6 20.6978 3.44568   6
   9  -6  -6 13.2687 4.43994   4
   9  -6  -6 18.6044 2.85349   1
  -9   6   6 13.9831 4.85719   3
   8  -6  -6 185.240 12.4173   4
   8  -6  -6 157.845 9.24975   1
   8  -6  -6 153.425 9.60031   6
  -8   6   6 169.979 13.2319   3
   7  -6  -6 145.682 8.77821   6
   7  -6  -6 125.745 8.33680   1
   7  -6  -6 147.736 10.0495   4
  -7   6   6 117.765 10.7474   3
   6  -6  -6 676.013 28.7602   1
   6  -6  -6 617.396 29.2667   6
  -6   6   6 669.520 32.3216   3
   5  -6  -6 132.692 7.81268   6
   4  -6  -6 43.1693 6.14800   6
   4  -6  -6 42.9748 5.72161   1
   3  -6  -6 2.55362 1.83932   6
   3  -6  -6 3.85377 1.96209   1
   3  -6  -6 0.33644 1.44425   6
  -3   6   6 3.67648 1.94276   6
  -3   6   6 1.42321 1.50821   1
   2  -6  -6 15.6572 3.70320   1
   2  -6  -6 17.7330 3.89601   1
   2  -6  -6 15.5345 3.84265   6
   2  -6  -6 17.3856 3.72821   2
  -2   6   6 19.6893 4.27180   1
  -2   6   6 21.0647 4.59598   6
   1  -6  -6 329.842 18.4813   1
   1  -6  -6 326.156 17.7846   2
   1  -6  -6 354.264 19.5533   6
  -1   6   6 325.293 19.5574   6
  -1   6   6 337.328 18.8607   1
   0  -6  -6 117.371 10.1925   6
   0  -6  -6 115.516 9.53194   1
   0  -6  -6 110.015 8.93595   2
   0   6   6 129.650 10.3523   1
   0   6   6 104.365 10.3968   6
  -1  -6  -6 41.7837 8.80809   6
  -1  -6  -6 50.5643 7.03978   1
   1   6   6 43.8756 8.25801   6
   1   6   6 43.1834 7.32189   1
   2   6   6 1.43166 2.93726   6
   2   6   6 0.35209 2.56828   1
   8  -7  -6 8.51500 2.86298   6
   8  -7  -6 8.79367 2.84302   1
  -8   7   6 4.98733 3.17018   3
   7  -7  -6 50.6391 6.30893   1
   7  -7  -6 63.1360 6.14928   6
  -7   7   6 52.8039 8.43427   3
   6  -7  -6 63.5348 6.17096   1
   6  -7  -6 78.0555 5.71047   6
   5  -7  -6 10.1442 3.19867   1
   4  -7  -6 259.152 16.0486   6
   4  -7  -6 269.848 15.7753   1
   4  -7  -6 242.855 15.8012   6
   3  -7  -6 168.787 12.5634   6
   3  -7  -6 176.745 12.0512   1
   3  -7  -6 157.854 12.3076   6
   2  -7  -6 0.62251 2.06608   6
   2  -7  -6 -0.6574 1.36557   1
   2  -7  -6 4.17621 2.24119   2
   2  -7  -6 1.07367 1.88205   1
  -2   7   6 2.40349 2.36087   6
  -2   7   6 2.76806 2.23885   1
   1  -7  -6 73.7092 9.68671   6
   1  -7  -6 76.9110 8.91157   2
   1  -7  -6 81.7927 9.59252   1
  -1   7   6 79.1170 9.48965   1
  -1   7   6 83.9447 10.9494   6
   0  -7  -6 6.66027 3.01100   1
   0  -7  -6 4.08071 2.95190   6
   0   7   6 5.82813 3.66859   6
   0   7   6 5.83462 3.33502   1
   1   7   6 41.4240 8.47259   6
   1   7   6 46.5829 8.17600   1
   8  -8  -6 38.2200 5.94518   1
  -8   8   6 30.0423 7.10426   3
  -7   8   6 5.29809 3.50314   3
   5  -8  -6 106.138 9.76357   1
   5  -8  -6 132.830 11.1009   6
   4  -8  -6 586.310 29.5533   1
   4  -8  -6 597.031 30.5205   6
   4  -8  -6 574.959 30.4121   6
   3  -8  -6 29.6701 6.13019   1
   3  -8  -6 17.8104 5.18675   6
   3  -8  -6 24.7316 5.44053   1
   3  -8  -6 25.2621 5.91551   6
   2  -8  -6 17.9753 5.19395   6
   2  -8  -6 23.6638 5.34614   1
   2  -8  -6 17.3459 4.80801   1
   2  -8  -6 14.3667 4.15760   2
   1  -8  -6 0.25233 2.50787   6
   1  -8  -6 1.35587 2.23687   1
  -1   8   6 0.26338 2.17104   1
   6  -9  -6 42.9835 7.10805   1
   6  -9  -6 31.2938 7.70072   6
   5  -9  -6 33.9972 7.38418   6
   5  -9  -6 35.6928 6.69696   1
   4  -9  -6 601.548 31.9871   6
   4  -9  -6 555.718 31.3912   6
   4  -9  -6 596.976 30.6842   1
   3  -9  -6 105.039 12.8188   6
   3  -9  -6 113.709 13.3030   6
   3  -9  -6 121.305 11.1973   1
   3  -9  -6 115.944 12.9203   1
  -1   9  -7 33.3117 7.51406   1
  -1   9  -7 31.7148 7.87572   6
   1  -9   7 34.2290 7.77994   6
   1  -9   7 24.9119 6.37349   1
  -2   9  -7 34.3755 11.5834   1
   2  -9   7 34.2130 7.88331   6
   2  -9   7 23.4959 6.35039   1
  -3   9  -7 90.8730 8.30753   3
   3  -9   7 80.3665 11.0203   1
   3  -9   7 109.370 13.5534   6
  -4   9  -7 37.5427 6.48611   3
   4  -9   7 43.5898 8.47358   6
   4  -9   7 40.8550 7.71944   1
  -5   9  -7 22.3101 5.31966   3
   5  -9   7 21.9571 6.59231   6
   5  -9   7 29.2727 6.42207   1
   1   8  -7 62.5812 10.1779   1
   1   8  -7 58.4303 10.1712   6
   0   8  -7 13.5995 5.15516   1
   0   8  -7 10.1934 4.65500   6
   0  -8   7 11.0320 4.30183   1
   0  -8   7 3.94752 3.37642   6
  -1   8  -7 220.546 17.5586   6
  -1   8  -7 229.046 16.7207   1
   1  -8   7 225.437 15.9366   1
   1  -8   7 219.219 16.6530   6
  -2   8  -7 430.501 25.0437   1
  -2   8  -7 447.077 21.6934   3
  -2   8  -7 440.960 26.3451   6
   2  -8   7 412.145 25.2540   6
   2  -8   7 435.631 24.7814   1
  -3   8  -7 7.65818 3.09106   3
   3  -8   7 7.54654 3.71425   6
   3  -8   7 5.13150 3.01559   1
  -4   8  -7 38.4780 6.24751   3
   4  -8   7 26.8342 6.35374   6
   4  -8   7 30.8679 6.27714   1
  -5   8  -7 32.5463 5.99938   3
   5  -8   7 23.9122 5.32841   1
   5  -8   7 31.6210 6.87560   6
   6  -8   7 55.9839 10.0709   6
   6  -8   7 49.8358 8.02851   1
   3   7  -7 86.0506 11.7950   1
   3   7  -7 112.738 14.4670   6
   3   7  -7 70.1703 10.5936   4
   2   7  -7 38.3006 7.11602   4
   2   7  -7 37.0141 7.62607   1
   2   7  -7 34.6040 7.84505   6
   1   7  -7 591.216 31.1464   1
   1   7  -7 528.666 27.6039   4
   1   7  -7 573.625 32.0604   6
  -1  -7   7 636.722 30.1169   1
   0   7  -7 954.340 40.3729   4
   0   7  -7 995.360 45.4335   1
   0   7  -7 955.336 46.4580   6
   0  -7   7 914.513 44.7546   6
   0  -7   7 973.829 44.0336   1
  -1   7  -7 301.410 14.9991   3
  -1   7  -7 292.457 18.5396   1
  -1   7  -7 304.786 19.7450   6
   1  -7   7 264.484 18.1989   6
   1  -7   7 290.287 18.0282   1
  -2   7  -7 30.3256 6.11823   1
  -2   7  -7 31.5319 4.88361   3
  -2   7  -7 35.1502 7.16204   6
   2  -7   7 34.4762 6.80772   6
   2  -7   7 26.8240 5.54820   1
  -3   7  -7 1974.57 80.8742   1
  -3   7  -7 1930.01 78.0891   3
  -3   7  -7 1915.21 88.8215   6
   3  -7   7 1953.65 81.5331   6
   3  -7   7 1922.18 80.2681   1
  -4   7  -7 127.362 9.56523   3
   4  -7   7 114.191 10.5555   6
   4  -7   7 120.766 10.0858   1
   5  -7   7 63.7036 7.94029   1
   5  -7   7 74.6836 9.53266   6
   6  -7   7 11.5050 3.69231   1
   6  -7   7 8.61662 3.99536   6
   4   6  -7 -0.2882 3.06951   6
   4   6  -7 2.07494 2.78671   1
   3   6  -7 -0.1838 1.68685   1
   3   6  -7 -2.3328 2.33006   6
   3   6  -7 2.13105 2.53611   4
   2   6  -7 3.20783 2.34842   4
   2   6  -7 5.03942 3.78367   6
   2   6  -7 3.84800 2.67989   1
   1   6  -7 255.267 17.7292   6
   1   6  -7 276.194 17.3365   1
   1   6  -7 257.816 15.2802   4
  -1  -6   7 256.510 16.7529   6
  -1  -6   7 278.320 16.4995   1
   0   6  -7 7.96268 3.15853   2
   0   6  -7 12.1847 3.78794   1
   0   6  -7 9.92817 2.29612   3
   0   6  -7 9.02555 2.28307   4
   0   6  -7 8.46447 3.36048   6
   0  -6   7 10.9832 3.86673   6
   0  -6   7 7.23394 3.00282   1
  -1   6  -7 14.7420 3.86894   2
  -1   6  -7 12.6215 3.84542   1
  -1   6  -7 18.3944 4.74707   6
  -1   6  -7 21.5557 3.29672   3
   1  -6   7 18.9755 4.27680   1
   1  -6   7 24.0427 5.24453   6
  -2   6  -7 47.7919 6.56076   2
  -2   6  -7 54.8196 7.65822   1
  -2   6  -7 52.4188 7.86417   6
  -2   6  -7 59.7792 5.18702   3
   2  -6   7 53.0415 7.56055   6
   2  -6   7 46.3900 6.70629   1
  -3   6  -7 634.093 28.6416   3
  -3   6  -7 618.190 31.2107   6
  -3   6  -7 656.701 30.7155   1
   3  -6   7 621.915 30.6579   6
   3  -6   7 641.496 29.9430   1
   4  -6   7 4.32947 2.05602   1
   4  -6   7 1.91169 1.97661   6
   5  -6   7 345.630 19.4937   6
   5  -6   7 345.213 18.7814   1
   6  -6   7 39.2688 5.89123   1
   6  -6   7 56.8199 8.33562   6
   5   5  -7 27.9210 7.83506   6
   5   5  -7 15.6293 4.99395   1
   4   5  -7 7.05111 4.28361   6
   4   5  -7 3.90046 2.82602   1
   3   5  -7 55.2360 8.69419   4
   3   5  -7 61.6417 9.13892   6
   3   5  -7 69.7245 9.23524   1
   2   5  -7 316.488 18.6564   1
   2   5  -7 355.969 20.0607   6
   2   5  -7 324.249 18.0510   2
   2   5  -7 304.177 18.3255   4
  -2  -5   7 303.946 17.8803   6
  -2  -5   7 305.396 17.2920   1
   1   5  -7 14.3085 1.91082   3
   1   5  -7 10.4045 2.99623   4
   1   5  -7 6.87116 3.15783   6
   1   5  -7 10.6341 3.23163   1
   1   5  -7 13.4443 3.69783   2
  -1  -5   7 11.7446 3.58045   6
  -1  -5   7 11.5562 3.14999   1
   0   5  -7 96.8127 9.07392   6
   0   5  -7 108.943 8.43216   2
   0   5  -7 114.027 9.08922   1
   0   5  -7 115.757 6.08689   3
   0   5  -7 101.933 6.91584   4
   0  -5   7 102.466 8.27974   1
   0  -5   7 98.8915 8.75545   6
  -1   5  -7 1190.88 50.3436   2
  -1   5  -7 1170.96 51.8366   6
  -1   5  -7 1191.12 51.0356   1
  -1   5  -7 1181.09 47.4323   3
   1  -5   7 1208.58 51.3522   6
   1  -5   7 1213.29 50.3966   1
  -2   5  -7 133.539 9.74325   1
  -2   5  -7 145.717 9.66011   2
  -2   5  -7 134.152 10.3253   6
   2  -5   7 118.654 7.75223   4
   2  -5   7 143.915 9.50168   1
   2  -5   7 128.715 9.64980   6
  -3   5  -7 1609.27 65.3516   1
  -3   5  -7 1526.74 65.9402   6
  -3   5  -7 1542.79 64.4467   2
   3  -5   7 1625.40 65.5230   6
   3  -5   7 1605.12 64.7034   1
  -4   5  -7 288.690 17.1521   1
   4  -5   7 320.345 17.1572   6
   4  -5   7 299.287 16.2301   1
   5  -5   7 42.8870 5.76070   1
   5  -5   7 53.9465 7.00311   6
   6  -5   7 263.604 12.9305   6
   7  -5   7 10.9966 3.18308   1
   4   4  -7 73.3870 8.99821   1
   4   4  -7 86.2805 10.4708   6
   3   4  -7 4.97028 2.36274   2
   3   4  -7 2.92592 2.41031   4
   3   4  -7 4.25339 2.43469   1
   3   4  -7 3.52721 2.37017   6
   2   4  -7 181.860 12.5404   4
   2   4  -7 192.934 12.4299   1
   2   4  -7 200.239 13.1935   6
   2   4  -7 205.242 12.1914   2
  -2  -4   7 186.579 11.5432   1
  -2  -4   7 188.920 12.1447   6
   1   4  -7 283.464 15.2811   2
   1   4  -7 271.302 16.2279   6
   1   4  -7 275.957 14.9379   4
   1   4  -7 283.111 15.7706   1
  -1  -4   7 281.645 15.2455   1
  -1  -4   7 292.333 15.9744   6
   0   4  -7 8.82005 2.85436   1
   0   4  -7 7.13463 2.62782   6
   0   4  -7 8.21175 2.40254   2
   0  -4   7 8.25116 2.50429   1
   0  -4   7 10.4464 2.80882   6
  -1   4  -7 2.73489 1.67472   1
  -1   4  -7 0.79484 1.06636   2
  -1   4  -7 -0.3789 0.90420   6
   1  -4   7 -0.4111 0.78255   1
   1  -4   7 -0.2177 0.80087   6
  -2   4  -7 24.7226 4.20668   1
  -2   4  -7 30.1698 4.46477   2
  -2   4  -7 24.7549 4.48259   6
   2  -4   7 24.3436 4.16142   6
   2  -4   7 22.8139 3.68589   1
  -3   4  -7 23.5354 3.84255   2
  -3   4  -7 24.8271 4.24235   1
  -3   4  -7 21.6394 4.40950   6
   3  -4   7 17.6177 3.11240   2
   3  -4   7 24.2622 3.97204   1
   3  -4   7 16.3322 3.50138   6
  -4   4  -7 13.9191 3.12490   1
   4  -4   7 11.4270 3.02246   6
   4  -4   7 11.8411 2.93363   1
   5  -4   7 716.032 31.7398   1
   5  -4   7 707.875 32.4216   6
   6  -4   7 174.689 9.08339   6
   6   3  -7 -0.0085 1.74052   1
   4   3  -7 127.363 9.58393   1
   4   3  -7 134.948 9.28791   2
   3   3  -7 132.014 10.9522   4
   3   3  -7 144.207 10.4227   6
   3   3  -7 155.227 9.76113   2
   3   3  -7 158.161 10.2355   1
  -3  -3   7 149.465 9.40562   6
  -3  -3   7 156.176 9.10460   1
   2   3  -7 118.314 9.06679   4
   2   3  -7 130.550 8.69617   1
   2   3  -7 126.171 8.26654   2
   2   3  -7 123.471 8.97930   6
  -2  -3   7 112.907 8.25912   6
  -2  -3   7 117.306 8.00065   1
   1   3  -7 11.8792 2.97772   6
   1   3  -7 13.2933 2.91337   1
   1   3  -7 11.8424 2.62033   2
   1   3  -7 9.30968 2.32698   4
  -1  -3   7 12.7455 3.03226   6
  -1  -3   7 20.9218 3.53855   1
   0   3  -7 1142.78 45.3221   2
   0   3  -7 1139.17 46.4736   6
   0   3  -7 1076.68 45.6165   1
   0  -3   7 1055.70 45.0872   1
   0  -3   7 1103.98 45.7677   6
  -1   3  -7 75.9615 5.76978   2
  -1   3  -7 62.5031 5.91839   6
  -1   3  -7 78.3694 6.10089   1
   1  -3   7 78.3717 5.85926   1
   1  -3   7 80.9258 6.25613   6
  -2   3  -7 5.17633 1.75133   2
  -2   3  -7 4.52183 1.98304   6
  -2   3  -7 5.82067 1.97172   1
   2  -3   7 5.74126 1.91217   1
   2  -3   7 8.62167 2.44608   6
   2  -3   7 7.64761 2.15104   2
  -3   3  -7 751.542 32.7220   2
  -3   3  -7 777.983 33.4032   1
  -3   3  -7 766.279 33.9083   6
   3  -3   7 786.310 33.6803   6
   3  -3   7 757.059 32.3543   2
   3  -3   7 782.415 32.9814   1
  -4   3  -7 231.625 12.7767   1
   4  -3   7 225.990 12.5734   1
   4  -3   7 231.394 13.2025   6
   5  -3   7 0.75170 1.13246   1
   5  -3   7 -0.8754 1.30322   6
   7  -3   7 184.651 12.2712   1
   7   2  -7 3.40402 2.42273   6
   7   2  -7 6.15496 2.31511   1
   6   2  -7 -0.1641 1.85563   1
   5   2  -7 88.3629 6.82028   2
   5   2  -7 90.2986 7.36557   6
   5   2  -7 76.7121 6.83062   1
   4   2  -7 28.7379 6.03614   4
   4   2  -7 27.4834 4.25054   1
   4   2  -7 27.8241 4.06510   2
   4   2  -7 27.2516 4.07784   1
  -4  -2   7 45.4530 3.93041   1
   3   2  -7 78.8110 5.81540   2
   3   2  -7 106.031 6.26596   6
   3   2  -7 69.5151 7.19763   4
   3   2  -7 72.4304 5.71736   1
   3   2  -7 68.6089 5.89194   6
   3   2  -7 83.5530 6.21629   1
  -3  -2   7 77.1213 6.52572   5
  -3  -2   7 83.2498 5.55838   1
   2   2  -7 2148.57 86.5614   6
   2   2  -7 2164.64 87.6940   4
   2   2  -7 2304.11 85.8410   2
   2   2  -7 2191.88 85.7323   1
   2   2  -7 2193.53 86.0863   1
  -2  -2   7 2244.86 85.8465   1
  -2  -2   7 2193.87 86.3700   6
   1   2  -7 1.11051 0.89865   1
   1   2  -7 2.28019 1.25006   4
   1   2  -7 2.45301 1.33788   6
   1   2  -7 4.68489 1.52889   2
  -1  -2   7 3.55270 1.52472   6
  -1  -2   7 4.56787 1.42358   1
  -1  -2   7 4.12498 0.73255   3
   0   2  -7 60.6994 5.25181   6
   0   2  -7 64.6920 5.05777   1
   0   2  -7 66.5079 4.88296   2
   0  -2   7 71.8626 5.49822   6
   0  -2   7 74.1034 5.22816   1
  -1   2  -7 833.325 34.5134   1
  -1   2  -7 822.551 34.9396   6
  -1   2  -7 846.432 34.1593   2
   1  -2   7 806.682 34.2438   1
   1  -2   7 824.361 34.8946   6
  -2   2  -7 4.86364 1.49833   2
  -2   2  -7 3.83693 1.59053   6
  -2   2  -7 6.21348 1.85381   1
   2  -2   7 6.39814 1.83518   1
   2  -2   7 4.67997 1.78752   6
   2  -2   7 6.47843 1.85190   2
  -3   2  -7 74.5654 6.05048   6
  -3   2  -7 75.9185 5.51728   2
  -3   2  -7 70.5497 5.65768   1
   3  -2   7 69.4635 6.01674   6
   3  -2   7 74.2804 5.74948   1
   3  -2   7 62.7327 5.14989   2
  -4   2  -7 335.820 16.3073   1
   4  -2   7 322.099 17.1490   6
   4  -2   7 321.619 16.4980   1
   5  -2   7 730.458 32.7260   1
   5  -2   7 747.838 33.7338   6
   6  -2   7 114.449 8.84461   1
   6   1  -7 2.14914 1.35255   2
   6   1  -7 5.70917 2.21708   6
   5   1  -7 251.576 12.2520   1
   5   1  -7 207.527 15.6635   4
   5   1  -7 248.295 13.0111   6
   5   1  -7 220.720 11.8770   2
   4   1  -7 489.026 22.3434   6
   4   1  -7 520.823 22.1405   1
   4   1  -7 460.330 25.6466   4
   4   1  -7 521.440 22.6033   6
   4   1  -7 516.120 22.0744   1
   4   1  -7 514.891 21.8188   2
  -4  -1   7 482.149 23.2498   5
   3   1  -7 70.2319 4.92490   1
   3   1  -7 72.8013 5.31491   6
   3   1  -7 71.4029 6.72284   4
   3   1  -7 66.9920 5.08698   6
   3   1  -7 77.2483 4.87631   2
   3   1  -7 70.1564 4.90480   1
  -3  -1   7 74.9993 5.02459   6
  -3  -1   7 66.5466 5.38980   5
  -3  -1   7 50.3379 4.10019   1
   2   1  -7 4.57314 1.70364   6
   2   1  -7 3.11387 1.10981   2
   2   1  -7 4.98328 1.45260   1
   2   1  -7 4.72678 1.89505   4
   2   1  -7 4.19068 1.46390   6
   2   1  -7 4.23142 1.35928   1
  -2  -1   7 2.29029 1.07426   1
  -2  -1   7 3.85104 1.34024   6
   1   1  -7 428.774 19.6378   6
   1   1  -7 480.868 19.5043   1
   1   1  -7 434.113 18.9968   2
  -1  -1   7 437.526 19.2628   1
  -1  -1   7 423.966 19.5699   6
   0   1  -7 2740.10 107.967   6
   0   1  -7 2870.06 107.312   2
   0   1  -7 2769.66 107.512   1
   0  -1   7 2745.40 107.549   1
   0  -1   7 2898.10 108.223   6
  -1   1  -7 67.8497 4.70016   2
  -1   1  -7 60.7092 4.93479   6
  -1   1  -7 56.8608 4.56689   1
   1  -1   7 63.2813 5.17461   6
   1  -1   7 58.6690 4.70054   1
  -2   1  -7 217.928 10.7639   2
  -2   1  -7 211.928 10.9388   1
  -2   1  -7 209.283 11.2950   6
   2  -1   7 193.970 10.9570   1
   2  -1   7 203.009 11.6063   6
   2  -1   7 202.582 10.6806   2
  -3   1  -7 562.250 25.6712   6
  -3   1  -7 611.055 25.4267   1
  -3   1  -7 587.586 24.9437   2
   3  -1   7 555.213 24.9941   2
   3  -1   7 568.197 26.2502   6
   3  -1   7 557.336 25.5937   1
   4  -1   7 735.826 32.8178   1
   4  -1   7 761.623 33.8423   6
   5  -1   7 76.9483 7.29399   1
   5  -1   7 84.9375 7.92431   6
   8   0  -7 116.745 8.41754   1
   8   0  -7 118.356 8.84161   6
   7   0  -7 141.909 8.33247   2
   7   0  -7 144.157 9.17367   6
   7   0  -7 128.675 8.56431   1
   6   0  -7 744.006 30.7223   6
   6   0  -7 726.791 29.8009   2
   6   0  -7 735.682 30.2237   1
   6   0  -7 655.018 36.0224   4
   5   0  -7 59.8328 4.72191   6
   5   0  -7 67.9111 4.68919   1
   5   0  -7 63.2525 4.59674   1
   5   0  -7 66.5651 4.46116   2
   5   0  -7 74.5966 4.96486   6
   5   0  -7 62.6924 8.95722   4
  -5   0   7 68.0679 5.99356   5
   4   0  -7 324.987 19.3409   4
   4   0  -7 376.635 15.8292   1
   4   0  -7 366.296 16.1823   6
   4   0  -7 347.090 16.1560   6
   4   0  -7 360.190 15.5622   2
   4   0  -7 370.062 15.9238   1
  -4   0   7 363.156 15.4915   3
  -4   0   7 361.373 16.8576   5
   3   0  -7 481.526 20.0938   1
   3   0  -7 462.245 20.4858   6
   3   0  -7 478.524 19.8423   2
   3   0  -7 460.848 20.0956   1
   3   0  -7 458.272 22.8074   4
   3   0  -7 508.552 20.5882   6
  -3   0   7 467.854 20.0348   6
  -3   0   7 482.512 19.7021   1
  -3   0   7 481.345 19.6392   3
  -3   0   7 476.946 20.4104   5
   2   0  -7 164.306 8.66736   1
   2   0  -7 174.329 9.98630   4
   2   0  -7 164.987 9.02571   6
   2   0  -7 176.539 8.99479   6
   2   0  -7 179.804 8.54643   2
   2   0  -7 162.908 8.53472   1
  -2   0   7 175.230 8.65704   1
  -2   0   7 171.858 8.91208   6
   1   0  -7 5768.26 215.104   6
   1   0  -7 5516.94 213.700   1
   1   0  -7 5686.54 214.267   2
  -1   0   7 5787.32 214.194   1
  -1   0   7 5584.50 214.238   6
   0   0  -7 992.062 40.4011   1
   0   0  -7 1024.00 40.7954   6
   0   0  -7 1044.03 40.2076   2
   0   0   7 996.253 41.0792   6
   0   0   7 958.098 40.3939   1
  -1   0  -7 16.1651 2.54199   2
  -1   0  -7 12.8748 2.40796   1
  -1   0  -7 11.8847 2.48027   6
   1   0   7 16.0392 2.88643   1
   1   0   7 23.3278 3.59576   6
  -2   0  -7 9.95558 2.27656   1
  -2   0  -7 4.86157 1.71207   6
  -2   0  -7 6.87280 1.69300   2
   2   0   7 5.29104 1.80015   2
   2   0   7 7.72456 2.35504   6
   2   0   7 10.6350 2.57193   1
  -3   0  -7 3882.98 145.278   1
  -3   0  -7 3702.04 145.686   6
  -3   0  -7 3772.82 144.715   2
   3   0   7 3949.68 147.305   6
   3   0   7 3771.41 146.248   1
   3   0   7 3657.63 146.163   2
   4   0   7 187.501 12.0699   6
   4   0   7 159.953 10.9152   1
   5   0   7 -1.1443 1.52041   5
   5   0   7 -0.4625 1.62202   6
   5   0   7 -1.5935 1.24624   1
   6   0   7 18.2512 5.72624   6
   6   0   7 19.3416 4.34801   1
   8  -1  -7 329.465 15.8586   1
   8  -1  -7 341.057 16.2852   6
   8  -1  -7 342.874 15.5052   2
   8  -1  -7 326.272 23.2617   4
   7  -1  -7 70.1067 5.15751   6
   7  -1  -7 71.0007 4.65175   2
   7  -1  -7 56.1368 9.90313   4
   7  -1  -7 72.0607 4.89541   1
   6  -1  -7 103.491 6.16192   6
   6  -1  -7 113.046 6.34577   1
   6  -1  -7 106.248 6.22492   6
   6  -1  -7 100.077 10.2658   4
   6  -1  -7 108.142 5.92996   1
   6  -1  -7 121.098 5.97818   2
   5  -1  -7 543.230 22.5273   6
   5  -1  -7 549.237 22.0833   1
   5  -1  -7 544.932 22.2152   1
   5  -1  -7 549.859 22.4126   6
   5  -1  -7 521.140 21.7650   2
   5  -1  -7 522.104 27.4763   4
  -5   1   7 548.128 23.5637   3
   4  -1  -7 21.9371 2.37389   2
   4  -1  -7 24.7851 2.32631   1
   4  -1  -7 26.4917 2.35865   1
   4  -1  -7 21.1389 2.63044   6
   4  -1  -7 17.0761 3.80073   4
   4  -1  -7 22.4941 2.81981   6
  -4   1   7 27.6434 3.47337   3
  -4   1   7 23.9693 2.83234   5
   3  -1  -7 905.528 36.5213   6
   3  -1  -7 911.160 35.9627   2
   3  -1  -7 872.827 36.6827   6
   3  -1  -7 946.038 36.3220   1
   3  -1  -7 892.896 36.2927   1
   3  -1  -7 935.783 38.8008   4
  -3   1   7 918.472 35.3448   5
  -3   1   7 905.433 36.0004   6
  -3   1   7 903.628 35.6427   1
   2  -1  -7 5.72802 1.67975   1
   2  -1  -7 4.58229 1.62158   6
   2  -1  -7 2.65525 1.52208   6
   2  -1  -7 4.00438 1.57739   1
   2  -1  -7 5.25921 1.57796   2
  -2   1   7 3.47893 1.34207   1
  -2   1   7 5.54955 1.71883   6
   1  -1  -7 113.417 7.08505   6
   1  -1  -7 117.481 6.59374   2
   1  -1  -7 116.583 6.85244   1
  -1   1   7 117.907 6.89175   1
  -1   1   7 120.055 7.27508   6
   0  -1  -7 161.426 8.84648   2
   0  -1  -7 167.961 9.22089   1
   0  -1  -7 166.123 9.52339   6
   0   1   7 167.173 9.85409   6
   0   1   7 188.162 9.66365   1
  -1  -1  -7 946.776 39.5558   2
  -1  -1  -7 972.802 40.0497   1
  -1  -1  -7 983.438 40.5912   6
   1   1   7 960.641 41.2704   6
   1   1   7 1020.58 40.7583   1
  -2  -1  -7 74.8317 5.76119   1
  -2  -1  -7 84.0825 5.75142   2
  -2  -1  -7 74.3647 6.08470   6
   2   1   7 71.7250 6.24862   1
   2   1   7 77.2299 6.92406   6
  -3  -1  -7 681.190 29.3961   1
  -3  -1  -7 666.557 29.8672   6
   3   1   7 686.897 31.7487   6
   3   1   7 683.849 30.8259   1
   3   1   7 655.594 32.3801   5
   4   1   7 604.450 29.1807   1
   4   1   7 618.812 31.6885   5
   4   1   7 624.066 30.3104   6
   5   1   7 5.45594 2.46711   1
   5   1   7 4.99435 3.71083   5
   5   1   7 5.95901 3.81698   6
   9  -2  -7 15.2293 6.22402   4
   8  -2  -7 16.4357 2.39382   6
   8  -2  -7 17.1762 2.18165   2
   8  -2  -7 16.0385 2.27970   1
   8  -2  -7 12.4687 4.96676   4
   7  -2  -7 228.059 17.1461   4
   7  -2  -7 245.279 11.0719   6
   7  -2  -7 243.419 10.7442   1
   7  -2  -7 259.599 10.7367   2
  -7   2   7 253.680 13.9891   3
   6  -2  -7 642.911 24.6119   2
   6  -2  -7 594.680 31.1954   4
   6  -2  -7 608.046 24.7735   1
   6  -2  -7 626.706 24.7861   1
   6  -2  -7 596.607 25.0704   6
   6  -2  -7 645.852 25.0982   6
  -6   2   7 624.279 27.7774   3
   5  -2  -7 167.768 7.95071   2
   5  -2  -7 170.721 8.18635   1
   5  -2  -7 179.911 8.23961   1
   5  -2  -7 180.394 8.62556   6
   5  -2  -7 171.792 11.9429   4
   5  -2  -7 165.908 8.31890   6
  -5   2   7 158.698 9.84198   3
   4  -2  -7 27.2715 2.39750   2
   4  -2  -7 24.4039 3.08323   6
   4  -2  -7 25.4562 2.85031   1
   4  -2  -7 20.1793 3.75286   4
   4  -2  -7 23.7546 2.83877   1
   4  -2  -7 28.0561 2.72372   6
   3  -2  -7 67.5775 4.32000   2
   3  -2  -7 60.7932 4.52007   1
   3  -2  -7 63.2881 4.65920   6
   3  -2  -7 66.0362 4.47079   1
   3  -2  -7 62.5005 4.88011   6
  -3   2   7 67.4516 4.30094   6
   2  -2  -7 810.142 32.2109   1
   2  -2  -7 813.347 31.8830   2
   2  -2  -7 781.592 32.6750   1
   2  -2  -7 785.960 32.5451   6
  -2   2   7 771.512 31.8390   1
  -2   2   7 756.298 32.2982   6
  -2   2   7 758.735 30.0416   5
   1  -2  -7 214.944 10.5790   2
   1  -2  -7 217.036 10.9167   1
   1  -2  -7 202.353 11.0928   6
  -1   2   7 192.600 9.91765   5
  -1   2   7 219.720 11.0468   1
  -1   2   7 203.194 11.2974   6
   0  -2  -7 160.825 8.93717   2
   0  -2  -7 158.946 9.21667   1
   0  -2  -7 161.365 9.64219   6
   0   2   7 165.467 9.39972   5
   0   2   7 171.787 9.75710   1
   0   2   7 148.980 9.89729   6
  -1  -2  -7 30.4251 4.27358   1
  -1  -2  -7 9.20814 2.43795   6
  -1  -2  -7 12.7942 2.65319   2
   1   2   7 12.0773 2.99641   1
   1   2   7 9.25309 2.91495   6
   1   2   7 9.76653 2.67347   5
  -2  -2  -7 1459.77 59.7830   2
  -2  -2  -7 1534.99 60.5692   1
  -2  -2  -7 1504.71 61.0901   6
   2   2   7 1493.02 62.6275   5
   2   2   7 1543.96 62.8243   6
   2   2   7 1457.14 61.5807   1
  -3  -2  -7 42.1478 5.95044   1
   3   2   7 37.9435 5.79403   1
   3   2   7 39.1341 6.55786   6
   3   2   7 41.7744 7.01054   5
   4   2   7 95.9418 9.44493   6
   4   2   7 72.4372 8.83428   1
   4   2   7 106.387 12.3031   5
   5   2   7 0.02606 2.51455   6
   5   2   7 2.31187 2.55528   1
   9  -3  -7 48.1413 9.70229   4
   8  -3  -7 16.0488 5.48438   4
   8  -3  -7 13.5458 1.50704   2
  -8   3   7 12.9236 3.61620   3
   7  -3  -7 91.3112 4.56813   2
   7  -3  -7 82.0863 4.60091   1
   7  -3  -7 78.8139 8.92348   4
   7  -3  -7 93.3769 4.89312   6
   7  -3  -7 83.4979 6.39460   5
  -7   3   7 92.1556 7.74937   3
   6  -3  -7 8.30546 3.18835   4
   6  -3  -7 8.08755 1.52612   1
   6  -3  -7 9.78308 1.56164   2
   6  -3  -7 9.20674 1.64556   1
   6  -3  -7 8.98445 1.82322   6
   6  -3  -7 8.95926 1.69628   6
  -6   3   7 11.9582 3.03398   3
   5  -3  -7 101.094 5.59237   2
   5  -3  -7 98.1528 5.92450   6
   5  -3  -7 95.2238 7.91528   4
   5  -3  -7 100.944 5.84590   1
   5  -3  -7 98.6723 5.88854   1
   5  -3  -7 99.6554 6.20621   6
  -5   3   7 106.690 7.80335   3
   4  -3  -7 749.370 32.0047   6
   4  -3  -7 797.966 31.7405   6
   4  -3  -7 758.955 31.4628   1
   4  -3  -7 737.652 31.1420   1
   4  -3  -7 764.177 30.8452   2
  -4   3   7 754.695 29.2285   1
   3  -3  -7 20.2882 3.65142   6
   3  -3  -7 23.6927 3.09540   2
   3  -3  -7 17.7616 3.02215   6
   3  -3  -7 29.8925 3.98518   1
   3  -3  -7 18.6592 2.93477   1
  -3   3   7 24.8653 2.91214   1
  -3   3   7 22.8168 3.07664   6
   2  -3  -7 0.67067 1.01791   6
   2  -3  -7 0.49984 0.82812   1
   2  -3  -7 -0.3334 0.72742   2
  -2   3   7 0.99418 0.83213   1
  -2   3   7 1.99957 1.22721   6
   1  -3  -7 100.671 7.49576   6
   1  -3  -7 108.968 7.32916   1
   1  -3  -7 110.384 7.09974   2
  -1   3   7 113.165 6.68455   5
  -1   3   7 116.461 7.62305   1
  -1   3   7 117.422 8.15873   6
   0  -3  -7 68.1263 5.95165   6
   0  -3  -7 58.6243 5.04206   2
   0  -3  -7 66.9097 5.58085   1
   0   3   7 58.3238 5.21024   5
   0   3   7 64.6546 6.23185   6
   0   3   7 60.2093 6.65448   1
  -1  -3  -7 426.689 20.3182   1
  -1  -3  -7 441.422 19.9233   2
  -1  -3  -7 396.625 20.5955   6
   1   3   7 435.195 22.1799   6
   1   3   7 412.213 21.0813   1
   1   3   7 405.411 20.9344   5
  -2  -3  -7 24.7278 4.22700   1
  -2  -3  -7 25.0420 4.38485   6
   2   3   7 27.9136 5.39383   6
   2   3   7 23.7454 4.70132   1
   2   3   7 25.8773 5.18991   5
   3   3   7 4.54576 2.62038   5
   3   3   7 6.03404 2.98949   1
   3   3   7 7.97725 3.36932   6
   4   3   7 9.64718 4.01139   6
   4   3   7 3.46625 2.66985   5
   4   3   7 7.29132 3.17197   1
   9  -4  -7 93.7597 10.9987   4
  -9   4   7 109.846 9.62846   3
   8  -4  -7 -0.4688 0.59293   2
   8  -4  -7 1.27109 2.35276   4
   8  -4  -7 0.19609 0.70397   1
   8  -4  -7 0.25852 0.70558   6
  -8   4   7 -1.0190 1.34854   3
   7  -4  -7 50.2603 3.82508   6
   7  -4  -7 45.2672 3.36868   2
   7  -4  -7 50.4866 7.83951   4
   7  -4  -7 53.1121 3.72640   1
  -7   4   7 46.5431 6.75084   3
   6  -4  -7 854.258 34.7864   1
   6  -4  -7 882.601 34.5697   2
   6  -4  -7 839.834 35.1569   6
   6  -4  -7 837.760 34.8252   1
   6  -4  -7 873.833 38.7527   4
  -6   4   7 889.305 38.7900   3
   5  -4  -7 36.9573 4.80559   6
   5  -4  -7 42.1446 4.03484   1
   5  -4  -7 50.5688 4.24925   6
   5  -4  -7 49.7614 3.99329   1
   5  -4  -7 56.5093 4.08152   2
   5  -4  -7 54.3702 5.42238   4
   5  -4  -7 45.5251 3.95974   1
   4  -4  -7 11.0010 2.46855   1
   4  -4  -7 11.7632 2.75532   1
   4  -4  -7 10.5458 2.64845   6
   4  -4  -7 12.4741 2.39828   2
   4  -4  -7 11.3612 2.50621   1
  -4   4   7 9.20671 1.86080   6
  -4   4   7 11.9170 1.80056   1
   3  -4  -7 0.93522 1.05191   2
   3  -4  -7 0.25933 0.82475   1
   3  -4  -7 1.76729 1.36944   6
  -3   4   7 0.52628 0.85082   6
  -3   4   7 -0.1089 0.86619   1
   2  -4  -7 155.617 9.69866   1
   2  -4  -7 158.959 9.36095   2
   2  -4  -7 159.327 10.1893   6
  -2   4   7 163.026 9.63118   1
  -2   4   7 155.598 10.0492   6
   1  -4  -7 1.56382 1.41450   2
   1  -4  -7 6.78992 2.20791   6
   1  -4  -7 1.70023 1.38698   1
  -1   4   7 2.68871 1.75174   6
  -1   4   7 1.34380 1.59508   1
   0  -4  -7 5.75582 2.12410   2
   0  -4  -7 2.55389 1.82314   1
   0  -4  -7 3.08702 2.01503   6
   0   4   7 5.91123 2.78748   6
   0   4   7 5.30379 2.05942   5
   0   4   7 2.29175 1.95925   1
  -1  -4  -7 334.989 17.5879   1
  -1  -4  -7 324.290 16.8844   2
  -1  -4  -7 343.822 18.2706   6
   1   4   7 322.196 18.4394   1
   1   4   7 326.845 18.3267   5
   1   4   7 337.780 19.6223   6
  -2  -4  -7 13.9300 3.52346   1
   2   4   7 11.5316 3.65586   5
   2   4   7 9.21842 3.88713   6
   2   4   7 15.1701 4.32618   1
   3   4   7 223.605 15.4827   1
   3   4   7 221.601 16.5178   6
   3   4   7 218.726 16.1992   5
   9  -5  -7 1.22219 0.76249   2
   9  -5  -7 -0.2350 0.79290   1
   9  -5  -7 -0.4884 1.90986   4
   9  -5  -7 0.28999 0.93423   6
  -9   5   7 0.41988 2.27112   3
   8  -5  -7 265.574 12.9867   6
   8  -5  -7 286.254 17.8741   4
   8  -5  -7 288.556 12.8437   1
   8  -5  -7 261.539 12.7081   1
  -8   5   7 267.983 17.2577   3
   7  -5  -7 3.60406 1.66152   1
   7  -5  -7 6.47056 1.98514   6
   7  -5  -7 3.46633 2.40369   4
  -7   5   7 5.35223 2.72993   3
   6  -5  -7 259.832 13.4213   6
   6  -5  -7 246.996 12.9379   1
   6  -5  -7 260.470 13.4006   6
  -6   5   7 254.190 15.7960   3
   5  -5  -7 -0.7424 1.16619   1
   4  -5  -7 334.254 16.9792   6
   4  -5  -7 322.938 16.2959   1
   4  -5  -7 316.353 16.3502   1
   3  -5  -7 135.626 8.75211   2
   3  -5  -7 133.173 9.08450   1
   3  -5  -7 137.925 9.59440   6
   3  -5  -7 134.794 9.06927   1
  -3   5   7 131.883 8.47388   1
  -3   5   7 130.469 9.00694   6
   2  -5  -7 40.2485 5.92465   6
   2  -5  -7 44.0262 5.90256   1
   2  -5  -7 44.6269 5.40138   2
  -2   5   7 36.2245 5.53338   6
  -2   5   7 45.2774 5.69931   1
   1  -5  -7 24.8300 4.76721   6
   1  -5  -7 23.6222 4.31749   1
   1  -5  -7 28.2227 4.56297   2
  -1   5   7 22.9325 4.67263   6
  -1   5   7 28.5589 5.13417   1
   0  -5  -7 234.345 14.6201   6
   0  -5  -7 233.525 13.4708   2
   0  -5  -7 239.933 14.0896   1
   0   5   7 227.489 15.4367   6
   0   5   7 218.114 14.3574   1
  -1  -5  -7 551.288 25.5598   1
  -1  -5  -7 472.781 25.6276   6
   1   5   7 504.440 26.4974   1
   1   5   7 505.826 27.5179   6
   2   5   7 20.3381 5.03667   1
   2   5   7 26.5305 6.32685   6
   9  -6  -7 66.0379 5.26878   6
   9  -6  -7 58.7206 8.65193   4
   9  -6  -7 78.5935 5.19827   1
  -9   6   7 57.0555 8.94688   3
   8  -6  -7 568.781 27.5749   4
   8  -6  -7 535.773 24.3370   6
   8  -6  -7 511.983 23.8164   1
   8  -6  -7 554.513 24.4163   6
  -8   6   7 528.349 28.7529   3
   7  -6  -7 85.9145 6.84709   1
   7  -6  -7 100.488 7.52281   6
   7  -6  -7 99.0500 7.17021   6
  -7   6   7 106.867 11.7576   3
   6  -6  -7 305.335 16.4532   6
   6  -6  -7 308.165 15.8664   1
   6  -6  -7 307.300 16.3379   6
   5  -6  -7 112.145 7.22617   6
   5  -6  -7 102.886 7.19094   6
   4  -6  -7 1157.63 49.5703   1
   4  -6  -7 1187.72 50.5367   6
   4  -6  -7 1209.16 50.7197   6
   4  -6  -7 1157.58 49.7411   1
   3  -6  -7 2.64718 1.62223   2
   3  -6  -7 -0.0124 1.49717   6
   3  -6  -7 2.69677 1.88395   1
   3  -6  -7 0.65759 1.46433   1
  -3   6   7 -0.4862 1.24832   1
   2  -6  -7 164.754 11.5634   1
   2  -6  -7 169.377 11.1747   2
   2  -6  -7 182.818 12.5633   6
  -2   6   7 165.618 11.4904   1
  -2   6   7 170.520 12.3779   6
   1  -6  -7 12.3168 3.39030   2
   1  -6  -7 6.38918 2.78579   1
   1  -6  -7 7.38612 3.35078   6
  -1   6   7 9.72968 3.59244   6
  -1   6   7 4.44242 2.55767   1
   0  -6  -7 51.7464 7.24831   1
   0  -6  -7 54.6449 7.93902   6
   0   6   7 41.2279 7.27512   6
   0   6   7 51.7807 7.57864   1
  -1  -6  -7 11.6294 3.78561   1
   1   6   7 10.4459 4.23521   6
   1   6   7 7.17537 3.71616   1
   8  -7  -7 939.823 41.0369   1
   8  -7  -7 1007.47 41.7093   6
  -8   7   7 930.551 45.8642   3
   7  -7  -7 295.639 16.5682   1
   7  -7  -7 308.878 16.9363   6
  -7   7   7 312.189 19.8901   3
   6  -7  -7 135.819 10.5203   1
   6  -7  -7 175.185 11.3544   6
   6  -7  -7 181.965 11.1299   6
   5  -7  -7 13.9804 3.93600   6
   5  -7  -7 14.9016 3.59455   1
   5  -7  -7 14.1247 4.03417   6
   4  -7  -7 42.2884 6.56166   1
   4  -7  -7 42.9968 6.94714   6
   4  -7  -7 41.0657 6.42880   1
   4  -7  -7 50.2119 7.54501   6
   3  -7  -7 16.5188 4.07815   2
   3  -7  -7 14.0120 3.95780   1
   3  -7  -7 8.70792 3.55304   6
   3  -7  -7 10.5534 3.39654   1
   2  -7  -7 95.5478 9.51927   6
   2  -7  -7 104.065 8.81938   2
   2  -7  -7 74.9856 9.07833   1
  -2   7   7 87.8486 9.76479   1
   1  -7  -7 121.084 9.75431   2
   1  -7  -7 78.4942 9.66008   1
   1  -7  -7 111.975 10.6139   6
  -1   7   7 110.089 10.2032   1
  -1   7   7 132.702 11.6493   6
   0  -7  -7 109.436 10.5976   6
   0  -7  -7 100.658 9.67973   1
   0   7   7 111.036 12.2803   1
   0   7   7 102.373 12.5821   6
   7  -8  -7 46.5649 6.58752   1
  -7   8   7 42.2860 8.49931   3
   6  -8  -7 436.674 19.7800   6
   6  -8  -7 365.937 19.7583   6
   5  -8  -7 10.6798 3.93140   6
   5  -8  -7 8.55760 3.24418   1
   5  -8  -7 12.4963 4.48686   6
   4  -8  -7 158.884 12.1888   1
   4  -8  -7 163.735 13.1532   6
   4  -8  -7 160.235 13.1115   6
   4  -8  -7 161.490 12.4839   1
   3  -8  -7 118.836 9.93358   2
   3  -8  -7 90.7716 11.2125   6
   3  -8  -7 125.723 10.6303   1
   3  -8  -7 105.551 10.0785   1
   2  -8  -7 172.991 14.1334   6
   2  -8  -7 170.636 13.3382   1
   2  -8  -7 170.540 12.7621   2
   1  -8  -7 140.255 12.0626   1
   1  -8  -7 125.497 12.2308   6
   6  -9  -7 12.3462 4.19230   1
   6  -9  -7 1.70538 3.30377   6
   6  -9  -7 -2.1565 2.56548   6
   5  -9  -7 4.59434 3.17779   1
   5  -9  -7 5.32334 3.90711   6
   5  -9  -7 9.21438 4.85361   6
   4  -9  -7 131.933 11.9278   1
   4  -9  -7 137.179 12.2673   1
   4  -9  -7 136.245 12.7821   6
  -1   9  -8 20.5589 6.67391   6
  -1   9  -8 20.7644 6.31983   1
   1  -9   8 26.5274 7.44127   6
   1  -9   8 16.5559 5.51604   1
   2  -9   8 10.6431 5.18274   6
   2  -9   8 6.45665 4.03297   1
   3  -9   8 266.641 18.8830   1
   3  -9   8 255.167 19.3838   6
  -4   9  -8 48.8666 7.26778   3
   4  -9   8 37.6017 7.61689   1
   4  -9   8 47.5140 9.18989   6
   1   8  -8 53.6023 9.99832   6
   1   8  -8 47.3697 8.95102   1
   0   8  -8 70.9274 11.8294   6
   0   8  -8 54.2507 8.89630   1
   0  -8   8 53.0678 8.57736   1
  -1   8  -8 0.55250 2.64375   1
  -1   8  -8 0.01522 2.92726   6
   1  -8   8 -1.3607 2.15055   6
   1  -8   8 0.22034 2.25953   1
  -2   8  -8 15.2736 5.04087   1
  -2   8  -8 11.1096 4.68921   6
  -2   8  -8 8.54578 2.83016   3
   2  -8   8 8.40340 3.67955   1
   2  -8   8 8.17033 4.27557   6
  -3   8  -8 1.30358 1.77905   3
   3  -8   8 2.63035 2.34448   1
   3  -8   8 0.38755 2.50310   6
  -4   8  -8 5.04730 2.67744   3
   4  -8   8 7.43458 3.88815   6
   4  -8   8 7.55555 3.66945   1
   5  -8   8 203.989 14.9945   1
   5  -8   8 199.155 15.8929   6
   6  -8   8 0.79992 2.07069   1
   3   7  -8 87.0088 11.8414   1
   3   7  -8 81.7788 11.4564   4
   3   7  -8 86.5304 13.1826   6
   2   7  -8 7.61994 3.47546   4
   2   7  -8 12.6930 4.81003   1
   2   7  -8 5.19188 4.18071   6
   1   7  -8 47.4102 9.00893   6
   1   7  -8 50.7247 8.24789   1
   1   7  -8 59.8055 6.32406   4
  -1  -7   8 55.5449 9.20807   1
   0   7  -8 1.80789 2.66283   6
   0   7  -8 0.70957 2.15391   1
   0  -7   8 -1.1530 1.88409   1
   0  -7   8 1.75212 2.61437   6
  -1   7  -8 29.2619 6.67469   6
  -1   7  -8 24.9805 5.75778   1
  -1   7  -8 40.4068 4.78831   3
   1  -7   8 50.7859 7.83153   1
   1  -7   8 30.0379 6.49811   6
  -2   7  -8 339.724 17.2805   3
  -2   7  -8 341.292 21.6873   6
  -2   7  -8 350.315 20.8397   1
   2  -7   8 343.119 20.2344   1
   2  -7   8 370.036 21.5419   6
  -3   7  -8 997.986 46.0916   1
  -3   7  -8 1014.17 43.2536   3
   3  -7   8 1004.57 46.8191   6
   3  -7   8 1013.29 45.6830   1
   4  -7   8 8.40686 3.43344   1
   4  -7   8 1.83719 2.34392   6
   5  -7   8 11.9565 4.36424   6
   5  -7   8 6.35549 3.03576   1
   6  -7   8 125.940 14.9703   6
   6  -7   8 94.6318 9.23146   1
   4   6  -8 12.7286 4.80924   1
   4   6  -8 9.01285 4.17527   4
   4   6  -8 21.3529 7.43679   6
   3   6  -8 1.94373 2.59956   1
   3   6  -8 0.73566 2.79211   6
   3   6  -8 -0.3785 1.90208   4
   2   6  -8 177.025 12.9697   4
   2   6  -8 167.898 14.4067   6
   2   6  -8 173.775 13.6676   1
   1   6  -8 35.0166 6.75801   6
   1   6  -8 34.4994 6.38614   1
   1   6  -8 37.4877 6.50192   2
   1   6  -8 32.7288 5.32923   4
  -1  -6   8 33.1288 5.91599   1
  -1  -6   8 40.7522 6.97853   6
   0   6  -8 551.194 22.8245   4
   0   6  -8 455.148 24.8910   2
   0   6  -8 467.499 20.5935   3
   0   6  -8 459.700 25.7560   1
   0   6  -8 519.783 27.3992   6
   0  -6   8 461.483 25.0526   1
   0  -6   8 489.137 26.1577   6
  -1   6  -8 83.9878 10.5497   6
  -1   6  -8 85.1895 9.88120   1
  -1   6  -8 76.2766 8.96337   2
  -1   6  -8 91.9184 6.04803   3
   1  -6   8 103.082 9.33088   6
   1  -6   8 87.4347 8.27022   1
  -2   6  -8 124.273 9.77891   2
  -2   6  -8 113.065 9.92696   1
  -2   6  -8 134.029 11.1716   6
   2  -6   8 126.933 10.5690   6
   2  -6   8 113.606 9.56907   1
  -3   6  -8 255.411 15.7527   1
  -3   6  -8 248.372 16.3819   6
   3  -6   8 239.860 15.6353   6
   3  -6   8 248.514 15.0716   1
   4  -6   8 32.4233 6.05493   6
   4  -6   8 44.0021 6.53203   1
   5  -6   8 34.9523 6.30468   6
   5  -6   8 39.0755 6.10734   1
   6  -6   8 412.499 23.2542   6
   6  -6   8 434.304 22.5140   1
   5   5  -8 110.818 13.1086   1
   5   5  -8 167.154 18.7805   6
   5   5  -8 96.4300 13.9235   4
   4   5  -8 15.2608 4.49179   1
   4   5  -8 20.1039 6.19865   6
   4   5  -8 12.3476 4.85720   4
   3   5  -8 127.831 11.6787   4
   3   5  -8 131.109 10.6931   2
   3   5  -8 149.178 12.5528   6
   3   5  -8 145.564 11.6900   1
   2   5  -8 171.102 12.0195   2
   2   5  -8 173.987 12.5932   1
   2   5  -8 167.964 13.2285   6
   2   5  -8 161.627 12.0305   4
  -2  -5   8 169.286 11.5402   1
   1   5  -8 15.4475 3.97620   2
   1   5  -8 8.77999 3.35494   1
   1   5  -8 10.5959 3.95257   6
   1   5  -8 14.0016 3.46831   4
  -1  -5   8 9.45144 3.13885   1
  -1  -5   8 9.52617 3.28522   6
   0   5  -8 178.649 12.8871   6
   0   5  -8 172.672 12.1590   1
   0   5  -8 171.429 11.6703   2
   0  -5   8 184.080 12.4458   6
   0  -5   8 164.640 11.4432   1
  -1   5  -8 1506.96 61.7360   1
  -1   5  -8 1437.83 62.4453   6
  -1   5  -8 1477.43 60.8659   2
   1  -5   8 1459.51 61.7223   6
   1  -5   8 1433.30 60.7107   1
  -2   5  -8 601.634 30.1069   6
  -2   5  -8 626.590 29.5175   1
  -2   5  -8 602.092 28.6556   2
   2  -5   8 591.771 29.1798   6
   2  -5   8 651.802 28.9975   1
  -3   5  -8 6.07092 2.63216   6
  -3   5  -8 9.13464 3.03868   1
   3  -5   8 5.80721 2.48082   6
   3  -5   8 6.31801 2.58367   1
   4  -5   8 395.296 20.2202   1
   4  -5   8 393.365 21.0108   6
   5  -5   8 252.732 15.2998   6
   5  -5   8 235.576 14.3451   1
   6  -5   8 19.8227 4.47804   1
   6  -5   8 24.4685 5.62910   6
   5   4  -8 3.97058 2.45393   1
   5   4  -8 1.18966 2.52928   4
   4   4  -8 212.539 14.5224   1
   4   4  -8 231.161 15.6928   6
   4   4  -8 222.907 16.5168   4
   4   4  -8 227.399 14.1911   2
   3   4  -8 4.00181 2.40616   1
   3   4  -8 0.66186 1.69333   4
   3   4  -8 1.02186 1.75392   2
   3   4  -8 0.78646 1.70535   6
   2   4  -8 171.454 11.2066   2
   2   4  -8 149.171 11.0932   1
   2   4  -8 166.194 12.0871   6
   2   4  -8 162.990 11.5844   4
  -2  -4   8 186.138 11.1939   1
  -2  -4   8 167.282 11.3905   6
   1   4  -8 352.076 18.7554   2
   1   4  -8 358.976 20.0043   6
   1   4  -8 348.280 19.2152   1
   1   4  -8 392.973 18.6563   4
  -1  -4   8 364.095 19.5201   6
  -1  -4   8 382.191 18.9926   1
   0   4  -8 697.618 31.4506   2
   0   4  -8 714.050 32.1300   1
   0   4  -8 696.070 32.7219   6
   0  -4   8 677.873 32.0206   6
   0  -4   8 727.008 31.6674   1
  -1   4  -8 744.513 33.2934   1
  -1   4  -8 727.043 33.8358   6
  -1   4  -8 721.272 32.5066   2
   1  -4   8 708.470 32.4033   1
   1  -4   8 783.802 33.5904   6
  -2   4  -8 870.470 36.8620   2
  -2   4  -8 849.293 38.0784   6
  -2   4  -8 855.768 37.4596   1
   2  -4   8 832.383 37.2400   6
   2  -4   8 832.329 36.6606   1
  -3   4  -8 85.9447 7.12290   2
  -3   4  -8 92.0007 7.64249   1
  -3   4  -8 84.6507 7.82266   6
   3  -4   8 92.2655 7.72678   6
   3  -4   8 99.7946 7.50599   1
   4  -4   8 192.890 12.3028   6
   4  -4   8 183.998 11.4484   1
   5  -4   8 117.982 9.42878   6
   5  -4   8 125.701 9.11839   1
   6  -4   8 35.4190 6.46150   6
   6  -4   8 23.5882 4.61141   1
   7  -4   8 71.5184 8.53235   1
   6   3  -8 42.4480 6.71048   1
   6   3  -8 35.4521 8.21635   4
   5   3  -8 20.7663 4.35604   2
   4   3  -8 120.993 11.1908   4
   4   3  -8 119.973 9.44074   1
   4   3  -8 132.766 9.30105   2
   3   3  -8 655.345 29.8682   1
   3   3  -8 629.560 29.1296   2
   3   3  -8 673.137 30.7706   6
   3   3  -8 650.607 31.8549   4
  -3  -3   8 628.174 28.3812   1
  -3  -3   8 649.640 30.6695   6
   2   3  -8 10.7048 3.16687   6
   2   3  -8 7.74200 2.67935   4
   2   3  -8 6.31865 2.19764   2
   2   3  -8 6.76217 2.39198   1
  -2  -3   8 9.89825 2.60185   1
  -2  -3   8 8.73328 2.49088   6
   1   3  -8 200.866 11.5725   2
   1   3  -8 210.059 12.1429   1
   1   3  -8 220.809 11.8997   4
   1   3  -8 197.251 12.4426   6
  -1  -3   8 210.301 12.3317   6
  -1  -3   8 199.628 11.6380   1
   0   3  -8 140.030 9.34334   1
   0   3  -8 147.583 9.18060   2
   0   3  -8 150.350 10.0071   6
   0  -3   8 150.533 9.30879   1
   0  -3   8 159.166 9.96140   6
  -1   3  -8 15.4003 3.07538   1
  -1   3  -8 9.10406 2.65029   6
  -1   3  -8 25.9013 3.82544   2
   1  -3   8 12.1467 2.89859   6
   1  -3   8 11.7536 2.53483   1
  -2   3  -8 33.6022 4.50907   2
  -2   3  -8 29.8770 4.65552   1
  -2   3  -8 32.5240 5.12620   6
   2  -3   8 20.5774 3.82776   6
   2  -3   8 29.3089 4.17532   1
  -3   3  -8 17.7778 3.51797   1
  -3   3  -8 11.5806 2.65720   2
  -3   3  -8 14.5802 3.57287   6
   3  -3   8 12.3207 3.08356   6
   3  -3   8 8.56557 2.39776   1
   4  -3   8 1.62161 1.58774   1
   4  -3   8 2.09655 1.78146   6
   5  -3   8 638.023 29.4413   1
   5  -3   8 650.219 30.5383   6
   6  -3   8 121.769 9.51118   1
   6  -3   8 149.966 10.8286   6
   7   2  -8 4.28168 2.33388   6
   7   2  -8 3.56564 3.81672   4
   6   2  -8 91.1584 10.8190   4
   6   2  -8 94.3107 8.45227   1
   6   2  -8 107.043 8.16629   2
   6   2  -8 118.886 8.95023   6
   5   2  -8 98.8098 7.23508   2
   5   2  -8 87.2177 9.64168   4
   5   2  -8 69.9829 6.92848   1
   4   2  -8 0.11921 1.08909   2
   4   2  -8 0.46703 1.10299   1
   4   2  -8 -0.1057 1.33222   4
   3   2  -8 82.8918 6.21339   6
   3   2  -8 61.6835 6.77471   4
   3   2  -8 64.5061 5.37173   2
   3   2  -8 69.1426 5.71696   1
   3   2  -8 61.5321 5.30995   1
  -3  -2   8 71.6283 5.33027   1
   2   2  -8 24.3641 4.13788   4
   2   2  -8 26.9150 3.69269   2
   2   2  -8 16.1940 3.26617   6
   2   2  -8 24.1755 3.61502   1
  -2  -2   8 25.4296 3.94984   6
  -2  -2   8 21.0753 3.33904   1
   1   2  -8 10.6913 2.32701   1
   1   2  -8 17.9275 3.37928   6
   1   2  -8 15.4395 2.82686   2
  -1  -2   8 13.0918 1.57100   3
  -1  -2   8 11.0445 2.58798   6
  -1  -2   8 13.1235 2.59316   1
   0   2  -8 53.7782 6.01210   6
   0   2  -8 40.7078 4.51586   2
   0   2  -8 33.0099 4.27504   1
   0  -2   8 47.1484 4.22471   1
   0  -2   8 46.4370 4.57857   6
  -1   2  -8 239.643 12.5964   1
  -1   2  -8 231.802 12.1096   2
  -1   2  -8 233.071 12.8941   6
   1  -2   8 244.695 12.5040   1
   1  -2   8 232.937 12.8649   6
  -2   2  -8 10.4199 2.39312   2
  -2   2  -8 10.4812 2.57895   1
  -2   2  -8 9.98483 2.69185   6
   2  -2   8 6.82769 2.01414   1
   2  -2   8 5.92304 2.02519   6
  -3   2  -8 607.408 28.0238   6
  -3   2  -8 612.976 26.9834   2
  -3   2  -8 610.333 27.4635   1
   3  -2   8 611.206 26.9750   2
   3  -2   8 617.240 28.3295   6
   3  -2   8 631.051 27.6440   1
   4  -2   8 678.120 30.8618   6
   4  -2   8 649.886 29.7972   1
   5  -2   8 0.06994 1.66193   6
   5  -2   8 1.59934 1.71488   1
   6  -2   8 2.69390 2.55570   6
   6  -2   8 -0.0398 1.57266   1
   7   1  -8 20.3280 4.22898   1
   7   1  -8 18.2331 5.88614   4
   7   1  -8 27.8014 4.60805   6
   6   1  -8 498.995 22.9762   6
   6   1  -8 430.302 27.0371   4
   6   1  -8 458.233 22.0488   1
   6   1  -8 474.480 21.7169   2
   5   1  -8 2.14752 1.22689   2
   5   1  -8 2.42443 2.53083   4
   4   1  -8 17.2107 3.02313   1
   4   1  -8 17.3120 3.16374   6
   4   1  -8 16.4840 2.97044   1
   4   1  -8 22.0533 3.12028   2
   4   1  -8 20.8842 4.88325   4
  -4  -1   8 19.0657 3.49698   5
  -4  -1   8 23.1986 1.89323   1
   3   1  -8 87.8927 7.51547   4
   3   1  -8 81.7482 5.63401   1
   3   1  -8 88.3928 6.10875   6
   3   1  -8 84.6474 5.53964   2
   3   1  -8 74.4950 5.77718   6
   3   1  -8 90.4120 5.88864   1
  -3  -1   8 64.3217 5.31697   6
   2   1  -8 23.4170 3.27518   1
   2   1  -8 18.4805 2.97975   1
   2   1  -8 23.1469 3.13866   2
   2   1  -8 17.0778 3.29941   4
   2   1  -8 17.4637 3.05975   6
  -2  -1   8 22.1340 3.28327   6
  -2  -1   8 20.6180 2.97193   1
   1   1  -8 12.1317 2.40583   1
   1   1  -8 7.19944 1.70129   2
   1   1  -8 7.58866 2.02658   6
  -1  -1   8 9.82357 2.25669   6
  -1  -1   8 7.42036 1.79461   1
   0   1  -8 299.938 14.9719   6
   0   1  -8 307.714 14.5965   1
   0   1  -8 314.932 14.3542   2
   0  -1   8 291.743 14.4943   1
   0  -1   8 291.240 14.9304   6
  -1   1  -8 805.679 33.0944   1
  -1   1  -8 764.323 32.5710   2
  -1   1  -8 773.990 33.4996   6
   1  -1   8 772.879 33.7735   6
   1  -1   8 805.124 33.2205   1
  -2   1  -8 24.3383 3.64649   1
  -2   1  -8 23.0077 3.53728   2
  -2   1  -8 23.2590 3.75160   6
   2  -1   8 28.0352 4.58232   6
   2  -1   8 17.8780 3.27706   1
  -3   1  -8 1556.18 60.2698   2
  -3   1  -8 1459.23 61.0930   6
  -3   1  -8 1539.44 60.6571   1
   3  -1   8 1530.00 61.9555   6
   3  -1   8 1437.03 60.8633   1
   4  -1   8 70.9163 6.71878   1
   4  -1   8 99.4399 8.16909   6
   5  -1   8 138.706 10.1221   1
   5  -1   8 134.280 10.7396   6
   6  -1   8 115.993 10.9161   6
   6  -1   8 123.714 9.96570   1
   8   0  -8 644.853 28.6360   6
   8   0  -8 585.989 35.6615   4
   8   0  -8 600.302 27.6496   1
   7   0  -8 17.6263 3.62501   6
   7   0  -8 20.2170 3.40962   2
   7   0  -8 16.4864 3.27606   1
   7   0  -8 19.9520 6.20817   4
   6   0  -8 18.8146 2.89085   2
   6   0  -8 16.0017 2.91969   1
   6   0  -8 20.0015 3.28789   6
   6   0  -8 18.8404 5.55377   4
   5   0  -8 132.194 7.54190   1
   5   0  -8 131.881 7.63564   1
   5   0  -8 131.667 7.85177   6
   5   0  -8 135.187 9.78941   6
   5   0  -8 136.319 7.38450   2
   5   0  -8 122.096 10.8939   4
  -5   0   8 122.380 8.61869   5
   4   0  -8 6.43464 1.40664   6
   4   0  -8 5.23566 1.30445   1
   4   0  -8 1.88082 1.77822   4
   4   0  -8 2.30077 1.21701   6
   4   0  -8 3.74281 1.34141   1
   4   0  -8 3.81687 1.24205   2
  -4   0   8 3.86047 1.43983   5
  -4   0   8 1.47387 0.86690   3
   3   0  -8 13.6850 2.56141   6
   3   0  -8 13.1209 2.41875   6
   3   0  -8 16.0857 2.49067   1
   3   0  -8 16.6446 2.54523   1
   3   0  -8 14.5139 3.28268   4
   3   0  -8 11.4885 2.01044   2
  -3   0   8 15.1915 2.51568   6
   2   0  -8 983.338 38.6257   2
   2   0  -8 935.209 38.7801   1
   2   0  -8 958.879 39.2646   6
   2   0  -8 962.227 39.0124   1
  -2   0   8 956.830 38.7159   1
  -2   0   8 978.558 39.2977   6
   1   0  -8 2477.98 95.0110   1
   1   0  -8 2501.15 94.6915   2
   1   0  -8 2434.16 95.4419   6
  -1   0   8 2383.96 95.5008   6
  -1   0   8 2521.69 95.0360   1
   0   0  -8 26.4774 3.85252   6
   0   0  -8 29.4040 3.49942   2
   0   0  -8 29.4551 3.81675   1
   0   0   8 45.8089 3.97439   1
   0   0   8 36.2572 4.64523   6
  -1   0  -8 411.057 18.6022   2
  -1   0  -8 405.573 18.9152   1
  -1   0  -8 418.177 19.4357   6
   1   0   8 412.576 19.2715   1
   1   0   8 403.724 19.7398   6
  -2   0  -8 320.432 15.4637   2
  -2   0  -8 322.648 16.4507   6
  -2   0  -8 321.810 15.9406   1
   2   0   8 336.020 16.6389   1
   2   0   8 320.138 17.1208   6
  -3   0  -8 2444.53 99.1151   6
  -3   0  -8 2657.89 98.8551   1
   3   0   8 2451.97 99.5532   1
   3   0   8 2539.48 100.665   6
   4   0   8 2.97451 2.35961   6
   4   0   8 1.43492 1.76041   1
   5   0   8 29.9356 6.45683   6
   5   0   8 30.1231 5.36443   1
   5   0   8 26.6597 6.65012   5
   8  -1  -8 146.541 9.15444   6
   8  -1  -8 154.726 14.9562   4
   8  -1  -8 149.842 8.38955   2
   8  -1  -8 138.332 8.60389   1
   7  -1  -8 90.4169 6.62935   6
   7  -1  -8 105.404 6.34523   1
   7  -1  -8 99.3064 11.0390   4
   7  -1  -8 104.238 6.11086   2
   6  -1  -8 983.482 39.6658   6
   6  -1  -8 984.205 46.4579   4
   6  -1  -8 977.378 39.1978   1
   6  -1  -8 1023.56 39.0752   2
  -6   1   8 951.031 40.4421   3
   5  -1  -8 123.504 6.78883   6
   5  -1  -8 121.440 6.34598   2
   5  -1  -8 109.472 6.42855   1
   5  -1  -8 113.419 6.76933   6
   5  -1  -8 121.454 10.2015   4
   5  -1  -8 117.537 6.48426   1
  -5   1   8 109.244 7.15592   3
   4  -1  -8 11.5333 3.16662   4
   4  -1  -8 10.3289 1.96138   6
   4  -1  -8 13.8138 2.09628   1
   4  -1  -8 11.6007 1.90001   2
   4  -1  -8 11.1295 2.29428   6
   4  -1  -8 11.4992 2.05833   1
  -4   1   8 15.2234 2.70733   3
  -4   1   8 11.8619 2.00212   5
   3  -1  -8 177.204 9.13376   1
   3  -1  -8 178.358 8.92210   2
   3  -1  -8 174.215 9.60829   6
   3  -1  -8 172.963 9.22526   1
   3  -1  -8 186.136 9.58424   6
   3  -1  -8 192.265 11.1466   4
  -3   1   8 175.089 9.01431   6
  -3   1   8 172.208 8.07875   5
   2  -1  -8 157.925 8.63410   1
   2  -1  -8 143.480 8.71503   1
   2  -1  -8 157.037 8.96278   6
   2  -1  -8 174.775 8.52304   2
  -2   1   8 158.078 8.40703   1
  -2   1   8 159.070 8.85896   6
   1  -1  -8 557.235 23.6179   1
   1  -1  -8 547.628 23.1320   2
   1  -1  -8 513.412 23.7994   6
  -1   1   8 534.131 23.4610   1
  -1   1   8 553.770 24.1717   6
   0  -1  -8 289.522 14.3049   1
   0  -1  -8 255.966 13.6368   2
   0  -1  -8 297.724 14.8378   6
   0   1   8 304.037 15.2637   6
   0   1   8 311.023 14.7439   1
  -1  -1  -8 3.84090 1.46323   1
  -1  -1  -8 3.22281 1.65773   6
  -1  -1  -8 3.33449 1.35686   2
   1   1   8 2.44645 1.64027   6
   1   1   8 6.82478 2.26811   1
  -2  -1  -8 1303.48 52.5451   1
  -2  -1  -8 1282.51 51.9928   2
  -2  -1  -8 1275.58 53.0239   6
   2   1   8 1306.53 53.4658   1
   2   1   8 1267.17 54.2622   6
  -3  -1  -8 2.38877 1.54289   1
   3   1   8 2.58703 2.07250   6
   3   1   8 3.13918 2.00188   1
   3   1   8 0.54838 1.98635   5
   4   1   8 436.132 25.4650   5
   4   1   8 466.630 24.6367   6
   4   1   8 459.272 23.5053   1
   5   1   8 38.1661 7.63522   6
   5   1   8 39.5275 6.58087   1
   8  -2  -8 32.0538 3.22095   2
   8  -2  -8 28.3795 3.38012   6
   8  -2  -8 31.7431 2.95816   1
   8  -2  -8 25.5755 6.88773   4
   7  -2  -8 84.4812 4.70768   2
   7  -2  -8 77.4319 5.02830   6
   7  -2  -8 70.5234 10.3445   4
   7  -2  -8 77.9746 4.74869   1
  -7   2   8 78.9462 6.69138   3
   6  -2  -8 24.1463 5.34090   4
   6  -2  -8 27.4338 3.09606   6
   6  -2  -8 23.7707 2.70143   1
   6  -2  -8 27.9051 2.83085   2
  -6   2   8 24.4011 4.10151   3
   5  -2  -8 358.178 19.5245   4
   5  -2  -8 360.556 15.4817   1
   5  -2  -8 340.210 15.4780   1
   5  -2  -8 341.800 15.8605   6
   5  -2  -8 351.208 15.7661   6
   5  -2  -8 356.417 15.2222   2
  -5   2   8 357.557 17.3825   3
   4  -2  -8 697.417 30.1403   6
   4  -2  -8 731.592 29.5690   1
   4  -2  -8 711.250 29.7191   1
   4  -2  -8 693.820 29.1244   2
   4  -2  -8 713.146 29.8396   6
   4  -2  -8 797.386 32.8518   4
  -4   2   8 700.565 27.6135   1
   3  -2  -8 951.094 38.4086   1
   3  -2  -8 957.335 38.7811   1
   3  -2  -8 953.273 38.0111   2
   3  -2  -8 903.873 39.2203   6
   3  -2  -8 942.778 38.7830   6
  -3   2   8 967.229 37.7021   1
   2  -2  -8 1008.84 40.2576   1
   2  -2  -8 967.250 40.5578   6
   2  -2  -8 1010.25 39.8019   2
  -2   2   8 978.043 39.8013   1
  -2   2   8 954.576 40.3731   6
  -2   2   8 984.292 38.1091   5
   1  -2  -8 54.4675 5.03952   6
   1  -2  -8 61.8247 4.77959   2
   1  -2  -8 56.7474 4.87224   1
  -1   2   8 62.1673 5.41435   6
  -1   2   8 55.0961 4.84849   1
  -1   2   8 63.0923 4.49620   5
   0  -2  -8 626.954 27.1230   2
   0  -2  -8 657.132 28.2848   6
   0  -2  -8 594.772 27.3855   1
   0   2   8 646.482 28.1309   1
   0   2   8 634.982 28.7609   6
   0   2   8 619.873 27.6622   5
  -1  -2  -8 976.285 39.3064   2
  -1  -2  -8 962.065 39.8315   1
  -1  -2  -8 888.942 40.1279   6
   1   2   8 932.778 41.4189   6
   1   2   8 961.595 40.5895   1
   1   2   8 924.549 40.7350   5
  -2  -2  -8 990.788 41.6172   1
  -2  -2  -8 977.497 40.9742   2
  -2  -2  -8 985.632 42.2447   6
   2   2   8 987.258 43.7705   5
   2   2   8 981.498 42.7538   1
   2   2   8 959.902 43.6673   6
   3   2   8 55.1175 8.29767   5
   3   2   8 45.3339 7.13454   6
   3   2   8 60.7925 7.86268   1
   4   2   8 42.1498 7.58323   5
   4   2   8 44.5758 6.98329   1
   4   2   8 44.7407 7.72171   6
   9  -3  -8 40.4357 8.82067   4
   9  -3  -8 39.2102 2.84716   2
   8  -3  -8 73.3497 4.62107   6
   8  -3  -8 95.9283 4.62292   2
   8  -3  -8 63.6445 10.0753   4
   8  -3  -8 76.3665 4.50087   1
  -8   3   8 77.0821 7.30402   3
   7  -3  -8 123.913 6.83530   6
   7  -3  -8 127.001 6.46665   2
   7  -3  -8 122.606 6.56801   1
   7  -3  -8 144.621 11.9254   4
  -7   3   8 133.619 9.61309   3
   6  -3  -8 484.952 25.0754   4
   6  -3  -8 459.829 20.1010   1
   6  -3  -8 476.350 19.8989   2
   6  -3  -8 486.469 20.5295   6
  -6   3   8 483.074 23.2527   3
   5  -3  -8 84.6162 5.16873   2
   5  -3  -8 70.7953 5.29349   1
   5  -3  -8 81.3123 7.28834   4
   5  -3  -8 74.7037 5.69926   6
   5  -3  -8 85.3517 5.23734   1
   5  -3  -8 90.3314 5.64213   6
   4  -3  -8 576.485 24.3763   2
   4  -3  -8 567.815 25.1186   1
   4  -3  -8 610.473 25.1971   6
   4  -3  -8 586.189 24.7619   1
   4  -3  -8 584.304 25.8670   6
  -4   3   8 534.638 24.4541   6
  -4   3   8 583.741 23.1981   1
   3  -3  -8 276.619 14.0403   6
   3  -3  -8 274.693 13.2484   2
   3  -3  -8 250.261 13.3293   1
   3  -3  -8 271.474 14.7065   1
  -3   3   8 288.069 13.0251   1
  -3   3   8 276.089 13.4578   6
   2  -3  -8 7.08044 1.94086   2
   2  -3  -8 8.19129 2.15364   1
   2  -3  -8 4.03189 1.69803   6
  -2   3   8 8.26512 2.28260   6
  -2   3   8 9.13121 2.20265   1
   1  -3  -8 110.368 7.57380   1
   1  -3  -8 112.737 8.00077   6
   1  -3  -8 99.5085 7.00803   2
  -1   3   8 100.694 6.56085   5
  -1   3   8 108.737 7.61277   1
  -1   3   8 114.398 8.29946   6
   0  -3  -8 440.056 21.3179   6
   0  -3  -8 425.222 20.6454   1
   0  -3  -8 443.610 20.2735   2
   0   3   8 418.280 20.4921   5
   0   3   8 432.816 21.2055   1
   0   3   8 417.080 21.8882   6
  -1  -3  -8 45.8812 5.45970   2
  -1  -3  -8 40.7453 5.42611   1
  -1  -3  -8 57.8159 6.97557   6
   1   3   8 43.3243 6.64786   6
   1   3   8 40.5437 5.95165   1
   1   3   8 53.3396 6.67136   5
  -2  -3  -8 -1.1738 1.09437   1
  -2  -3  -8 -0.2075 1.36456   6
   2   3   8 -0.8147 1.12179   5
   2   3   8 -1.1834 1.27644   1
   2   3   8 1.14200 1.97373   6
   3   3   8 5.73513 3.08188   5
   3   3   8 5.81512 2.91572   1
   3   3   8 8.56026 3.76077   6
   4   3   8 -0.0849 2.17990   6
   4   3   8 -1.2723 1.98806   1
   9  -4  -8 13.6681 5.43644   4
  -9   4   8 9.36384 3.50607   3
   8  -4  -8 58.5137 3.70206   2
   8  -4  -8 54.2037 3.92628   6
   8  -4  -8 66.2032 9.72569   4
   8  -4  -8 50.4521 3.73051   1
  -8   4   8 52.2869 7.63724   3
   7  -4  -8 62.5420 4.68731   6
   7  -4  -8 63.0334 4.27668   2
   7  -4  -8 61.8473 4.47323   1
   7  -4  -8 66.6656 7.50174   4
  -7   4   8 66.5175 8.29673   3
   6  -4  -8 51.2696 4.00229   2
   6  -4  -8 49.9927 5.92372   4
   6  -4  -8 49.2987 4.16389   1
   6  -4  -8 44.9457 4.20204   6
  -6   4   8 46.1918 6.69822   3
   5  -4  -8 295.831 14.6579   6
   5  -4  -8 287.746 14.2506   1
   5  -4  -8 296.005 13.9494   2
   4  -4  -8 55.0474 5.17974   1
   4  -4  -8 54.7445 4.61343   2
   4  -4  -8 53.8426 4.82437   1
  -4   4   8 52.7921 3.82407   1
   3  -4  -8 2.81863 1.52215   2
   3  -4  -8 2.14291 1.53984   6
   3  -4  -8 1.90025 1.38505   1
  -3   4   8 4.25749 1.61425   1
  -3   4   8 1.85383 1.39339   6
   2  -4  -8 55.9805 6.03161   2
   2  -4  -8 51.9246 5.92069   1
   2  -4  -8 52.2837 6.47345   6
  -2   4   8 56.0061 6.66314   6
  -2   4   8 52.8831 5.88665   1
   1  -4  -8 32.1213 4.55007   2
   1  -4  -8 33.0076 4.77812   1
   1  -4  -8 30.3727 5.10674   6
  -1   4   8 41.4936 6.10934   6
  -1   4   8 38.6241 5.46713   1
   0  -4  -8 107.988 8.65605   6
   0  -4  -8 94.7233 7.86001   1
   0  -4  -8 109.853 7.90245   2
   0   4   8 101.921 8.51193   1
   0   4   8 110.771 8.28147   5
   0   4   8 107.379 9.23736   6
  -1  -4  -8 109.945 9.18048   6
  -1  -4  -8 120.343 9.01406   1
  -1  -4  -8 115.331 9.85556   2
   1   4   8 114.155 9.33143   5
   1   4   8 123.699 9.82382   1
   1   4   8 109.575 10.0839   6
   2   4   8 3.70982 2.41920   1
   2   4   8 3.41160 3.13989   6
   2   4   8 3.33654 2.64957   5
   3   4   8 -2.6650 1.77249   6
   3   4   8 0.76770 2.14406   1
   3   4   8 0.67764 2.55178   5
   9  -5  -8 27.3562 3.04999   1
   9  -5  -8 28.8050 2.95113   2
   9  -5  -8 27.0453 6.54866   4
   9  -5  -8 23.8352 3.05176   6
  -9   5   8 24.3886 5.75825   3
   8  -5  -8 582.861 29.4090   4
   8  -5  -8 556.679 23.9337   1
   8  -5  -8 551.435 24.1829   6
   8  -5  -8 554.892 23.5133   2
  -8   5   8 571.518 29.1360   3
   7  -5  -8 43.0167 4.15505   1
   7  -5  -8 45.5694 3.99821   2
   7  -5  -8 43.7423 5.07162   6
   7  -5  -8 49.2767 6.93532   4
  -7   5   8 49.3958 7.44670   3
   6  -5  -8 120.144 7.78068   6
   6  -5  -8 107.243 7.30170   1
   6  -5  -8 102.781 7.22516   1
   6  -5  -8 109.513 7.08350   2
   5  -5  -8 3.34331 1.67421   2
   5  -5  -8 3.00807 1.68414   1
   5  -5  -8 2.69880 1.61932   1
   4  -5  -8 0.00975 1.01732   1
   4  -5  -8 0.27782 1.24976   6
   4  -5  -8 0.80607 1.35001   2
   3  -5  -8 130.074 8.91159   2
   3  -5  -8 143.213 9.55289   1
   3  -5  -8 143.229 10.0476   6
  -3   5   8 142.663 8.96898   1
  -3   5   8 130.486 9.33447   6
   2  -5  -8 157.942 11.1851   6
   2  -5  -8 160.655 10.2175   2
   2  -5  -8 150.074 10.4631   1
  -2   5   8 158.341 10.4965   1
  -2   5   8 163.230 11.2939   6
   1  -5  -8 4.60643 2.27054   1
   1  -5  -8 9.17655 2.89665   2
   1  -5  -8 7.43383 2.91891   6
  -1   5   8 6.13827 2.84708   6
  -1   5   8 5.21202 2.60821   1
   0  -5  -8 101.552 8.08079   2
   0  -5  -8 108.452 9.24864   6
   0  -5  -8 88.4451 8.06686   1
   0   5   8 95.6603 9.59487   6
   0   5   8 104.860 9.16327   1
  -1  -5  -8 30.1182 5.77289   6
  -1  -5  -8 29.2932 5.45763   1
   1   5   8 24.3997 6.17502   6
   1   5   8 32.7491 5.99367   1
   2   5   8 9.31166 3.74511   1
   2   5   8 15.6131 5.08260   6
   8  -6  -8 1645.00 67.8565   2
   8  -6  -8 1712.83 68.5922   1
   8  -6  -8 1639.32 68.8503   6
   8  -6  -8 1917.77 73.2679   4
   8  -6  -8 1781.92 68.6046   1
  -8   6   8 1671.26 73.9027   3
   7  -6  -8 81.5705 6.55642   1
   7  -6  -8 86.2589 6.77433   1
   7  -6  -8 87.4602 7.08272   6
  -7   6   8 97.4729 11.1730   3
   6  -6  -8 1.30214 1.36588   1
   6  -6  -8 -0.4177 1.12289   1
   5  -6  -8 89.2824 6.96148   2
   5  -6  -8 81.7923 7.18032   1
   5  -6  -8 88.6215 7.28804   1
   4  -6  -8 360.404 18.7304   1
   4  -6  -8 340.669 18.5609   1
   4  -6  -8 366.339 18.2899   2
   4  -6  -8 344.243 19.2358   6
   3  -6  -8 45.8149 6.13327   2
   3  -6  -8 51.6403 7.43253   6
   3  -6  -8 36.4372 5.64603   1
   2  -6  -8 288.655 16.0419   2
   2  -6  -8 284.587 17.3562   6
   2  -6  -8 279.319 16.5785   1
  -2   6   8 275.584 17.1413   6
  -2   6   8 280.533 16.4177   1
   1  -6  -8 114.967 9.52794   1
   1  -6  -8 102.969 8.70332   2
   1  -6  -8 106.205 9.75360   6
  -1   6   8 104.748 9.43919   1
  -1   6   8 109.832 10.2983   6
   0  -6  -8 22.8046 5.27193   6
   0  -6  -8 19.9757 4.72670   1
   0   6   8 23.4109 5.45801   1
   0   6   8 18.2821 5.58620   6
   1   6   8 1.33384 2.55072   1
   1   6   8 1.02672 2.88267   6
   8  -7  -8 2.93059 1.85702   6
   8  -7  -8 0.34610 1.57181   1
  -8   7   8 0.83906 2.66348   3
   7  -7  -8 126.509 9.61157   6
   7  -7  -8 116.525 8.86691   1
   7  -7  -8 129.235 9.52467   6
  -7   7   8 114.446 13.2077   3
   6  -7  -8 119.123 9.05571   1
   6  -7  -8 109.570 8.93276   1
   5  -7  -8 8.27257 3.23900   6
   5  -7  -8 11.2971 3.42181   1
   5  -7  -8 10.2547 3.44109   1
   4  -7  -8 11.1141 3.41834   2
   4  -7  -8 9.96196 3.25604   1
   4  -7  -8 7.30337 3.24869   6
   4  -7  -8 11.9315 3.67782   1
   3  -7  -8 0.78936 2.15339   6
   3  -7  -8 0.24187 1.68497   2
   3  -7  -8 0.25718 1.74004   1
   2  -7  -8 38.7642 6.63937   1
   2  -7  -8 54.4988 7.32670   2
   2  -7  -8 42.4930 7.35073   6
   1  -7  -8 69.8763 9.77661   6
   1  -7  -8 59.7424 8.41784   1
  -1   7   8 62.2389 8.71196   1
   0  -7  -8 3.90806 3.22321   1
   0  -7  -8 2.75066 5.14095   6
   0   7   8 1.86313 2.95835   1
   0   7   8 7.07173 4.22458   6
   7  -8  -8 4.65441 2.75361   1
  -7   8   8 3.68895 3.02544   3
   6  -8  -8 215.317 11.3948   6
   6  -8  -8 190.318 11.5992   6
   5  -8  -8 25.3390 5.32912   1
   5  -8  -8 30.0790 5.92892   1
   5  -8  -8 26.7871 6.07676   6
   4  -8  -8 10.3714 4.18002   6
   4  -8  -8 11.9326 4.08314   1
   4  -8  -8 7.01058 3.30135   1
   4  -8  -8 9.35650 3.40384   2
   3  -8  -8 15.4553 5.05302   6
   3  -8  -8 10.0051 4.17795   1
   3  -8  -8 8.35173 3.37001   2
   2  -8  -8 16.8470 5.02340   1
   2  -8  -8 10.1005 4.38716   6
   2  -8  -8 9.35556 3.68310   2
   2  -9   9 18.4276 6.21827   6
   2  -9   9 35.2486 7.74104   1
   3  -9   9 424.607 25.2734   1
   3  -9   9 372.636 25.4296   6
   1   8  -9 77.8283 12.3840   6
   0   8  -9 46.5623 9.48126   6
   0   8  -9 47.0355 9.07179   1
   0  -8   9 56.8535 9.17414   1
  -1   8  -9 4.14704 2.96243   1
  -1   8  -9 1.47274 2.98766   6
   1  -8   9 1.81564 2.68511   1
   1  -8   9 3.48338 3.30272   6
  -2   8  -9 21.5968 6.06489   1
   2  -8   9 17.9694 5.71098   6
   2  -8   9 22.7929 5.77779   1
   3  -8   9 122.817 14.4091   6
   3  -8   9 132.474 11.9103   1
   4  -8   9 60.8053 9.11460   1
   4  -8   9 79.0818 11.1853   6
   5  -8   9 17.8968 5.93846   6
   5  -8   9 16.1713 4.96649   1
   2   7  -9 74.0010 10.9832   1
   2   7  -9 48.6927 7.64948   4
   2   7  -9 56.5864 10.4414   6
   1   7  -9 12.9264 5.44297   6
   1   7  -9 12.0165 5.05785   4
   1   7  -9 4.94954 3.00524   1
   0   7  -9 32.9122 7.15802   6
   0   7  -9 54.8338 8.90123   1
   0   7  -9 46.1755 7.65979   2
   0  -7   9 41.7755 7.47033   1
   0  -7   9 40.4885 7.41632   6
  -1   7  -9 215.778 16.0080   1
  -1   7  -9 221.833 16.9722   6
  -1   7  -9 234.242 15.7562   2
   1  -7   9 230.913 16.6991   6
   1  -7   9 240.004 15.9553   1
  -2   7  -9 40.7823 7.42256   1
  -2   7  -9 50.8662 8.52903   6
   2  -7   9 51.7246 7.89714   1
   2  -7   9 40.8824 7.33543   6
   3  -7   9 5.30453 3.07667   1
   3  -7   9 9.36565 4.21876   6
   4  -7   9 -1.0764 1.53841   6
   4  -7   9 0.56220 1.76105   1
   5  -7   9 143.084 12.6234   6
   5  -7   9 161.976 12.3189   1
   6  -7   9 24.4176 6.68300   6
   6  -7   9 16.2186 4.39887   1
   4   6  -9 1.35423 4.43318   6
   4   6  -9 1.42258 2.98698   1
   4   6  -9 -0.9201 2.21704   4
   3   6  -9 1.67767 2.40866   1
   3   6  -9 1.20217 2.34470   4
   3   6  -9 -2.8087 2.08178   6
   2   6  -9 224.362 15.4394   2
   2   6  -9 209.547 15.7834   1
   2   6  -9 229.717 17.1551   6
   2   6  -9 222.996 14.9120   4
   1   6  -9 224.697 16.5935   6
   1   6  -9 229.778 15.2652   2
   1   6  -9 225.517 13.4366   4
   1   6  -9 223.050 15.8402   1
  -1  -6   9 215.986 14.7033   1
  -1  -6   9 219.697 15.4718   6
   0   6  -9 11.4743 3.97789   2
   0   6  -9 11.8495 4.46033   6
   0   6  -9 9.60343 3.57440   1
   0  -6   9 13.2356 4.07501   6
   0  -6   9 6.67298 3.03171   1
  -1   6  -9 595.353 31.5968   6
  -1   6  -9 621.257 29.9250   2
  -1   6  -9 600.258 30.5892   1
   1  -6   9 611.224 30.9166   6
   1  -6   9 604.888 29.9939   1
  -2   6  -9 36.8905 6.79534   6
  -2   6  -9 36.1496 6.56151   1
  -2   6  -9 42.6969 6.84923   2
   2  -6   9 28.6805 6.06378   6
   2  -6   9 28.6402 5.35554   1
  -3   6  -9 1314.55 57.0377   1
   3  -6   9 1325.88 57.3268   6
   3  -6   9 1291.10 56.2259   1
   4  -6   9 8.39338 3.47834   6
   4  -6   9 13.1846 3.82188   1
   5  -6   9 93.4420 9.40790   6
   5  -6   9 104.596 9.08389   1
   6  -6   9 21.5313 5.63749   6
   6  -6   9 22.7461 5.04792   1
   5   5  -9 42.7742 9.00790   4
   5   5  -9 55.0054 8.52803   1
   5   5  -9 70.8592 12.8560   6
   4   5  -9 12.0846 4.22700   1
   4   5  -9 5.04638 3.48310   4
   4   5  -9 22.1623 6.53928   6
   3   5  -9 616.114 32.2238   6
   3   5  -9 586.228 30.8947   1
   3   5  -9 622.754 30.3576   2
   3   5  -9 601.426 31.5401   4
   2   5  -9 60.9995 8.48812   1
   2   5  -9 60.1420 7.79886   2
   2   5  -9 73.8209 7.44445   4
   2   5  -9 51.8553 8.24887   6
  -2  -5   9 68.6659 8.21145   1
   1   5  -9 2.38136 2.05340   1
   1   5  -9 -0.3330 1.60458   2
   1   5  -9 2.52014 1.83553   4
   1   5  -9 1.69932 2.12093   6
  -1  -5   9 -0.3217 1.61006   6
  -1  -5   9 1.75042 1.79718   1
   0   5  -9 24.1653 4.92186   1
   0   5  -9 41.4246 6.16741   2
   0   5  -9 33.6332 6.40410   6
   0  -5   9 25.9445 5.25074   6
   0  -5   9 26.5181 4.92669   1
  -1   5  -9 6317.02 240.787   2
  -1   5  -9 6458.72 241.809   1
  -1   5  -9 6116.61 242.492   6
   1  -5   9 6219.91 240.616   1
   1  -5   9 6300.51 241.825   6
  -2   5  -9 362.422 18.8131   2
  -2   5  -9 324.429 18.8548   1
  -2   5  -9 344.446 19.9558   6
   2  -5   9 333.008 18.3898   1
   2  -5   9 338.098 19.1603   6
  -3   5  -9 1.69225 1.91742   1
  -3   5  -9 1.25228 2.00793   6
   3  -5   9 2.86174 2.29545   6
   3  -5   9 1.13571 1.84379   1
   4  -5   9 81.9965 8.15891   6
   4  -5   9 83.1982 7.54110   1
   5  -5   9 111.592 9.89959   6
   5  -5   9 117.455 9.36123   1
   6  -5   9 89.5020 8.38442   1
   6  -5   9 101.917 12.1123   6
   5   4  -9 116.303 10.2699   1
   5   4  -9 93.6551 11.1761   4
   5   4  -9 90.4416 10.3426   2
   4   4  -9 3.52341 2.59161   2
   4   4  -9 3.09892 2.98559   6
   4   4  -9 2.71781 2.93078   4
   4   4  -9 3.06816 2.63752   1
   3   4  -9 45.2777 7.72509   6
   3   4  -9 40.9451 6.42561   1
   3   4  -9 47.5455 6.46386   2
   3   4  -9 44.7836 7.27188   4
   2   4  -9 -0.5580 1.53510   6
   2   4  -9 -0.2396 1.14439   4
   2   4  -9 0.80086 1.58555   2
   2   4  -9 -0.5847 1.21890   1
  -2  -4   9 0.12093 1.31465   1
  -2  -4   9 -0.0265 1.35291   6
   1   4  -9 5.32764 2.12278   4
   1   4  -9 6.17377 2.87347   6
   1   4  -9 3.89302 2.23978   1
   1   4  -9 5.02390 2.19270   2
  -1  -4   9 5.29353 2.39478   1
  -1  -4   9 7.24328 3.02159   6
   0   4  -9 146.976 10.0309   2
   0   4  -9 157.385 11.2538   6
   0   4  -9 134.547 10.1870   1
   0  -4   9 152.756 10.1732   1
   0  -4   9 150.347 10.6375   6
  -1   4  -9 246.852 13.6700   2
  -1   4  -9 225.077 13.8761   1
  -1   4  -9 227.640 14.4548   6
   1  -4   9 232.747 14.1241   6
   1  -4   9 220.541 13.2531   1
  -2   4  -9 68.5307 8.37665   6
  -2   4  -9 88.5958 7.60264   1
  -2   4  -9 86.5313 7.15731   2
   2  -4   9 73.4888 7.12277   6
   2  -4   9 76.6777 6.84236   1
  -3   4  -9 476.771 24.2160   1
  -3   4  -9 496.672 25.1217   6
   3  -4   9 500.880 24.6218   6
   3  -4   9 490.842 23.7754   1
   4  -4   9 163.330 10.7551   1
   4  -4   9 148.903 11.0723   6
   5  -4   9 5.59405 2.63855   6
   5  -4   9 7.96325 2.85599   1
   6  -4   9 4.56540 2.39507   1
   6  -4   9 0.72776 2.44653   6
   6   3  -9 91.4213 9.55228   2
   6   3  -9 85.3017 12.8744   4
   6   3  -9 92.3222 10.4554   1
   5   3  -9 257.040 14.8253   2
   5   3  -9 219.558 17.5502   4
   5   3  -9 250.067 15.3733   1
   4   3  -9 198.458 11.2554   6
   4   3  -9 134.219 12.2303   4
   4   3  -9 151.776 10.9662   1
   4   3  -9 133.142 10.0755   2
   3   3  -9 127.973 9.91690   6
   3   3  -9 122.810 9.29359   1
   3   3  -9 133.733 9.20796   2
   3   3  -9 118.434 10.1525   4
  -3  -3   9 119.452 8.30735   1
   2   3  -9 23.3352 4.49224   6
   2   3  -9 15.1748 3.47628   1
   2   3  -9 26.0303 4.31080   2
   2   3  -9 21.0693 4.20378   4
  -2  -3   9 23.0182 4.33398   6
  -2  -3   9 17.7984 3.58559   1
   1   3  -9 1293.77 55.6606   6
   1   3  -9 1385.76 55.2527   1
   1   3  -9 1389.44 54.6543   2
  -1  -3   9 1313.32 55.2884   6
  -1  -3   9 1268.03 54.3870   1
   0   3  -9 363.021 18.1040   1
   0   3  -9 341.065 18.4441   6
   0  -3   9 340.361 18.0575   6
   0  -3   9 359.333 17.7387   1
  -1   3  -9 483.173 22.8619   2
  -1   3  -9 502.364 24.1179   6
  -1   3  -9 478.083 23.2972   1
   1  -3   9 500.801 23.0392   1
   1  -3   9 491.964 23.6859   6
  -2   3  -9 15.4750 3.60733   6
  -2   3  -9 14.2044 3.22462   1
  -2   3  -9 10.4647 2.60177   2
   2  -3   9 12.1736 3.10979   1
   2  -3   9 15.9535 3.70087   6
  -3   3  -9 371.126 18.8028   1
  -3   3  -9 358.807 19.2930   6
   3  -3   9 355.070 18.3720   1
   3  -3   9 360.356 19.0980   6
   4  -3   9 9.55179 3.16854   6
   4  -3   9 10.2353 2.89056   1
   5  -3   9 42.6771 6.48322   6
   5  -3   9 43.1130 6.18245   1
   6  -3   9 19.2130 4.29126   1
   6  -3   9 28.0208 6.43402   6
   7   2  -9 54.6030 10.4617   4
   7   2  -9 67.0528 8.40343   1
   7   2  -9 73.2518 9.59146   6
   6   2  -9 3.90199 3.29008   4
   6   2  -9 2.98042 2.01159   2
   5   2  -9 134.177 9.59811   6
   5   2  -9 127.463 9.15228   2
   5   2  -9 124.228 12.0170   4
   5   2  -9 159.135 10.1793   1
   4   2  -9 101.137 9.93206   4
   4   2  -9 106.001 7.89436   2
   4   2  -9 146.711 8.31252   6
   4   2  -9 110.778 8.34687   1
   3   2  -9 120.086 8.04294   1
   3   2  -9 99.9868 8.85674   4
   3   2  -9 110.196 7.51655   2
   3   2  -9 116.451 8.43126   6
  -3  -2   9 105.364 7.69845   6
  -3  -2   9 100.446 7.17186   1
   2   2  -9 138.044 8.60695   1
   2   2  -9 111.967 8.41523   6
   2   2  -9 122.373 7.95094   2
   2   2  -9 132.006 9.07494   4
  -2  -2   9 121.757 8.05376   1
  -2  -2   9 114.787 8.31009   6
   1   2  -9 53.7639 4.72357   2
   1   2  -9 58.8220 5.15525   1
   1   2  -9 56.7707 5.39046   6
  -1  -2   9 59.4370 5.38920   6
  -1  -2   9 52.1335 3.34853   3
  -1  -2   9 55.6974 4.97949   1
   0   2  -9 618.472 26.3220   2
   0   2  -9 592.773 26.6555   1
   0   2  -9 579.089 27.0809   6
   0  -2   9 615.640 27.2537   6
   0  -2   9 585.851 26.4161   1
  -1   2  -9 145.510 9.65977   6
  -1   2  -9 145.231 9.21241   1
  -1   2  -9 149.023 8.94552   2
   1  -2   9 146.236 9.14951   1
   1  -2   9 141.702 9.53065   6
  -2   2  -9 312.398 16.1828   1
  -2   2  -9 304.990 15.6196   2
  -2   2  -9 325.488 16.8196   6
   2  -2   9 322.653 16.2005   1
   2  -2   9 302.542 16.5767   6
  -3   2  -9 130.204 9.55905   6
  -3   2  -9 150.045 9.49793   1
   3  -2   9 129.667 9.12545   1
   3  -2   9 135.498 9.91953   6
   4  -2   9 23.0944 4.76403   6
   4  -2   9 23.9347 4.41083   1
   5  -2   9 55.9734 7.85280   6
   5  -2   9 48.4882 6.78367   1
   6  -2   9 28.2018 6.39548   6
   6  -2   9 21.5021 4.61103   1
   7   1  -9 16.2384 3.90527   1
   7   1  -9 16.8807 5.82584   4
   7   1  -9 11.6363 3.71414   6
   7   1  -9 12.8520 3.01430   2
   6   1  -9 71.6811 6.49024   1
   6   1  -9 74.2039 6.83808   6
   6   1  -9 66.9418 10.5092   4
   6   1  -9 85.2361 6.49498   2
   5   1  -9 0.20634 1.91125   4
   5   1  -9 1.37621 1.25849   1
   5   1  -9 0.91152 1.22334   2
   4   1  -9 13.5534 2.89132   1
   4   1  -9 19.4799 4.60940   1
   4   1  -9 16.1711 4.48476   4
   4   1  -9 13.1446 2.58315   2
  -4  -1   9 18.1694 3.47769   5
   3   1  -9 0.46956 0.90029   1
   3   1  -9 -0.3295 0.64424   1
   3   1  -9 -1.2903 0.62106   4
   3   1  -9 -0.6557 0.74510   2
  -3  -1   9 -0.6429 0.55351   6
  -3  -1   9 1.05163 0.97658   1
   2   1  -9 1877.06 74.9872   6
   2   1  -9 1961.37 74.1798   2
   2   1  -9 1846.99 74.3343   1
  -2  -1   9 1883.59 74.2923   1
  -2  -1   9 1900.24 74.9534   6
   1   1  -9 513.829 22.1960   2
   1   1  -9 518.212 23.0352   6
   1   1  -9 495.399 22.3951   1
  -1  -1   9 484.012 22.2980   1
  -1  -1   9 497.336 22.9138   6
   0   1  -9 251.723 13.9211   6
   0   1  -9 273.647 13.7058   1
   0   1  -9 270.281 13.3691   2
   0  -1   9 252.352 13.5271   1
   0  -1   9 290.669 14.4836   6
  -1   1  -9 175.581 10.2553   1
  -1   1  -9 181.682 10.8251   6
  -1   1  -9 178.594 10.0475   2
   1  -1   9 173.718 10.9236   6
   1  -1   9 176.660 10.3492   1
  -2   1  -9 75.7606 6.70455   6
  -2   1  -9 90.3862 6.54539   2
  -2   1  -9 94.3877 6.85509   1
   2  -1   9 86.9206 7.36674   6
   2  -1   9 90.8344 6.97478   1
  -3   1  -9 694.262 32.3425   6
  -3   1  -9 724.486 31.8414   1
   3  -1   9 718.852 33.1877   6
   3  -1   9 750.155 32.5063   1
   4  -1   9 21.8805 4.37029   1
   4  -1   9 22.1945 4.83324   6
   5  -1   9 1.06991 2.03353   6
   5  -1   9 2.09047 1.92966   1
   8   0  -9 571.788 26.7376   1
   8   0  -9 610.896 26.3989   2
   8   0  -9 574.840 27.4217   6
   8   0  -9 563.264 34.5157   4
   7   0  -9 44.7803 9.20382   4
   7   0  -9 35.0375 4.85090   1
   7   0  -9 46.7679 5.95184   6
   7   0  -9 45.1799 5.11649   2
   6   0  -9 175.633 9.69125   2
   6   0  -9 171.065 9.91823   1
   6   0  -9 165.509 14.1478   4
   6   0  -9 186.909 10.5344   6
   5   0  -9 129.497 7.68567   2
   5   0  -9 154.809 7.90151   1
   5   0  -9 131.269 11.3736   4
   5   0  -9 130.374 8.26310   6
  -5   0   9 129.221 8.65417   5
  -5   0   9 128.193 7.08109   3
   4   0  -9 630.402 26.1348   1
   4   0  -9 638.431 26.5653   6
   4   0  -9 603.420 25.7328   2
   4   0  -9 579.314 26.3928   6
   4   0  -9 622.396 26.0892   1
   4   0  -9 639.028 30.0081   4
  -4   0   9 598.495 24.9462   3
  -4   0   9 606.892 26.2481   5
  -4   0   9 592.543 24.3703   1
   3   0  -9 0.05021 0.70063   1
   3   0  -9 0.30662 0.71127   1
   3   0  -9 -0.0234 0.71521   2
   3   0  -9 1.00052 1.30906   4
   3   0  -9 -0.1770 0.87247   6
  -3   0   9 0.11725 0.46789   6
  -3   0   9 0.73823 0.76560   1
   2   0  -9 13.6950 2.38844   2
   2   0  -9 13.5475 2.78287   6
   2   0  -9 11.9923 2.42425   1
  -2   0   9 13.3837 2.54023   1
  -2   0   9 14.0535 2.75983   6
   1   0  -9 351.536 16.5614   6
   1   0  -9 340.731 16.0344   1
   1   0  -9 330.890 15.6360   2
  -1   0   9 343.205 15.9910   1
  -1   0   9 309.198 16.2584   6
   0   0  -9 1.67392 1.19098   6
   0   0  -9 1.73560 1.08400   1
   0   0  -9 2.37909 1.14524   2
   0   0   9 1.60821 1.19042   6
   0   0   9 3.10764 1.33148   1
  -1   0  -9 16.9391 3.00112   2
  -1   0  -9 28.0382 4.07630   1
  -1   0  -9 20.5347 3.68805   6
   1   0   9 13.4463 3.02357   6
   1   0   9 20.7050 3.73399   1
  -2   0  -9 1032.25 45.1928   6
  -2   0  -9 1120.76 44.3324   2
  -2   0  -9 1097.12 44.7329   1
   2   0   9 1073.19 45.3607   1
   2   0   9 1040.17 45.9149   6
  -3   0  -9 79.9098 6.64171   1
   3   0   9 78.8881 7.10765   1
   3   0   9 85.7079 7.99456   6
   4   0   9 1.15643 1.75307   1
   4   0   9 2.41221 2.32273   6
   5   0   9 1.60971 2.37360   6
   5   0   9 -0.0073 1.80663   1
   8  -1  -9 10.0534 4.79308   4
   8  -1  -9 3.87771 2.13543   1
   8  -1  -9 10.7135 2.99967   6
   8  -1  -9 10.6921 2.45431   2
   7  -1  -9 99.1237 6.45808   1
   7  -1  -9 99.4822 6.22797   2
   7  -1  -9 100.473 10.9041   4
   7  -1  -9 89.1418 6.62113   6
   6  -1  -9 214.334 10.7688   1
   6  -1  -9 211.952 15.6681   4
   6  -1  -9 233.272 11.4398   6
   6  -1  -9 208.463 10.5652   2
  -6   1   9 217.569 11.5274   3
   5  -1  -9 56.4338 4.44616   6
   5  -1  -9 61.8865 4.16903   1
   5  -1  -9 38.6359 4.11602   2
   5  -1  -9 41.6356 6.65106   4
  -5   1   9 52.5569 4.48762   3
   4  -1  -9 61.6789 4.63319   1
   4  -1  -9 68.6471 4.73166   6
   4  -1  -9 60.6276 5.02984   6
   4  -1  -9 59.0716 4.35328   2
   4  -1  -9 59.0946 4.62513   1
   4  -1  -9 67.3286 6.54605   4
  -4   1   9 62.4248 3.67878   1
  -4   1   9 61.5142 4.11976   5
   3  -1  -9 743.376 30.2532   1
   3  -1  -9 687.003 29.7023   2
   3  -1  -9 760.305 30.7380   6
   3  -1  -9 701.265 30.4068   1
  -3   1   9 723.538 29.7541   1
   2  -1  -9 151.229 8.75227   1
   2  -1  -9 146.502 9.04900   6
   2  -1  -9 161.240 8.57820   2
  -2   1   9 152.162 9.03120   6
  -2   1   9 152.956 8.55211   1
   1  -1  -9 91.0743 6.09245   2
   1  -1  -9 84.8883 6.55027   6
   1  -1  -9 90.7339 6.39126   1
  -1   1   9 90.4904 6.77748   6
  -1   1   9 92.3470 6.38812   1
   0  -1  -9 481.913 22.1636   6
   0  -1  -9 461.634 21.0009   2
   0  -1  -9 446.764 21.2831   1
   0   1   9 481.573 21.8019   1
   0   1   9 462.842 22.2733   6
  -1  -1  -9 7392.40 286.561   2
  -1  -1  -9 7597.24 287.206   1
  -1  -1  -9 7781.11 288.059   6
   1   1   9 7595.21 288.741   6
   1   1   9 7573.54 287.744   1
  -2  -1  -9 357.726 17.9137   2
  -2  -1  -9 392.467 19.1987   6
  -2  -1  -9 374.983 18.5226   1
   2   1   9 369.451 19.2921   1
   2   1   9 360.126 19.9438   6
   3   1   9 13.3161 3.75495   1
   3   1   9 11.7830 3.62380   6
   3   1   9 16.3148 4.63417   5
   4   1   9 59.9596 9.27486   5
   4   1   9 74.1484 10.0069   6
   4   1   9 58.2832 7.85373   1
   5   1   9 284.966 18.1893   1
   5   1   9 298.388 19.7874   6
   8  -2  -9 90.8120 5.57352   2
   8  -2  -9 91.6040 10.7613   4
   8  -2  -9 82.8660 5.60697   1
   8  -2  -9 92.9370 6.14050   6
   7  -2  -9 40.3335 3.42258   1
   7  -2  -9 39.1375 7.77980   4
   7  -2  -9 41.9670 3.39261   2
   7  -2  -9 40.4615 3.75394   6
  -7   2   9 40.9541 5.54323   3
   6  -2  -9 -0.3704 0.69130   1
   6  -2  -9 1.31566 2.02342   4
   6  -2  -9 1.19240 0.91144   6
   6  -2  -9 0.03951 0.59149   2
  -6   2   9 -0.3402 1.18747   3
   5  -2  -9 94.7568 8.31589   4
   5  -2  -9 92.6590 5.48080   2
   5  -2  -9 82.3021 5.79013   6
   5  -2  -9 93.0180 5.49764   1
  -5   2   9 72.6945 6.35679   3
   4  -2  -9 87.1697 6.64388   6
   4  -2  -9 96.6073 6.23448   1
   4  -2  -9 98.9255 6.57392   1
   4  -2  -9 95.9993 6.00262   2
   4  -2  -9 123.298 6.53329   6
  -4   2   9 89.6589 5.15951   1
   3  -2  -9 985.564 42.5030   1
   3  -2  -9 1048.88 41.4389   1
   3  -2  -9 1043.72 41.9108   6
   3  -2  -9 984.058 40.8593   2
  -3   2   9 975.282 41.1338   6
  -3   2   9 1045.80 40.7669   1
   2  -2  -9 397.499 18.1783   2
   2  -2  -9 396.611 18.5365   1
   2  -2  -9 403.718 19.0381   6
  -2   2   9 410.787 19.0570   6
  -2   2   9 384.005 16.6608   5
  -2   2   9 401.401 18.3367   1
   1  -2  -9 2324.47 90.0868   1
   1  -2  -9 2265.88 90.5680   6
   1  -2  -9 2334.91 89.5914   2
  -1   2   9 2249.18 90.0640   1
  -1   2   9 2351.08 90.9898   6
  -1   2   9 2276.63 89.0372   5
   0  -2  -9 2158.24 86.5850   6
   0  -2  -9 2219.76 86.0265   1
   0  -2  -9 2208.98 85.3582   2
   0   2   9 2207.21 87.3412   6
   0   2   9 2187.15 86.0325   5
   0   2   9 2080.78 86.1546   1
  -1  -2  -9 2027.42 79.5723   1
  -1  -2  -9 2021.13 78.9276   2
  -1  -2  -9 1940.51 80.1777   6
   1   2   9 1964.72 81.2264   6
   1   2   9 2023.98 80.3779   1
   1   2   9 1988.22 80.7409   5
  -2  -2  -9 206.778 12.8313   6
  -2  -2  -9 194.967 12.0123   1
   2   2   9 201.184 13.0096   1
   2   2   9 211.035 14.0399   6
   2   2   9 192.792 13.5108   5
   3   2   9 6.60627 3.03046   1
   3   2   9 3.18530 2.81111   6
   3   2   9 5.33387 3.10127   5
   4   2   9 167.148 13.9700   6
   4   2   9 168.760 12.8377   1
   4   2   9 168.734 14.2586   5
   8  -3  -9 273.788 12.4261   1
   8  -3  -9 286.253 12.2969   2
   8  -3  -9 279.339 19.4202   4
   8  -3  -9 258.898 12.5916   6
  -8   3   9 267.452 15.8848   3
   7  -3  -9 16.6211 2.46236   1
   7  -3  -9 12.3035 2.15643   2
   7  -3  -9 17.4432 5.14677   4
   7  -3  -9 16.3964 2.70497   6
  -7   3   9 13.8669 3.89911   3
   6  -3  -9 383.887 20.7414   4
   6  -3  -9 370.490 16.6741   6
   6  -3  -9 350.201 15.9133   2
   6  -3  -9 344.726 16.2173   1
  -6   3   9 366.804 18.9519   3
   5  -3  -9 172.511 9.34709   2
   5  -3  -9 177.365 9.73900   1
   5  -3  -9 187.940 9.94773   6
   5  -3  -9 198.717 12.4930   4
   4  -3  -9 16.9589 2.91853   1
   4  -3  -9 17.2368 2.76824   2
   4  -3  -9 17.4683 3.24828   1
  -4   3   9 19.4477 2.46023   1
   3  -3  -9 472.272 21.2017   6
   3  -3  -9 444.360 20.4668   1
   3  -3  -9 444.146 20.0579   2
  -3   3   9 412.609 20.1911   6
  -3   3   9 450.470 19.8249   1
   2  -3  -9 155.635 9.50882   1
   2  -3  -9 152.602 9.86155   6
   2  -3  -9 162.372 9.25789   2
  -2   3   9 152.275 7.66296   5
  -2   3   9 142.974 9.59769   6
  -2   3   9 152.454 9.27164   1
   1  -3  -9 19.7403 3.34869   2
   1  -3  -9 21.2443 3.87776   1
   1  -3  -9 19.6740 4.06228   6
  -1   3   9 23.4695 4.50901   6
  -1   3   9 17.2891 2.95928   5
  -1   3   9 22.5474 3.93413   1
   0  -3  -9 55.4367 6.02773   2
   0  -3  -9 54.4693 6.82413   6
   0  -3  -9 54.0357 6.24708   1
   0   3   9 68.5534 6.42456   1
   0   3   9 68.2140 8.22628   6
   0   3   9 58.2835 5.58214   5
  -1  -3  -9 65.9227 7.82304   6
  -1  -3  -9 44.3497 5.63394   2
  -1  -3  -9 55.9584 6.58593   1
   1   3   9 51.4218 7.34254   6
   1   3   9 54.2551 7.11389   1
   1   3   9 71.2487 6.76951   5
  -2  -3  -9 38.2510 5.66997   1
   2   3   9 25.2699 5.07650   1
   2   3   9 40.5398 6.75327   6
   2   3   9 29.6508 5.68999   5
   3   3   9 3.81371 2.99461   6
   3   3   9 2.30740 2.56078   5
   3   3   9 1.69967 2.09490   1
   8  -4  -9 42.1176 3.35882   2
   8  -4  -9 38.9595 3.47428   1
   8  -4  -9 56.4470 9.00973   4
   8  -4  -9 39.0490 3.72202   6
  -8   4   9 32.8965 5.95648   3
   7  -4  -9 41.1789 4.67854   6
   7  -4  -9 39.3486 3.70355   1
   7  -4  -9 46.6397 7.34111   4
   7  -4  -9 52.7137 3.92219   2
  -7   4   9 47.8421 6.86964   3
   6  -4  -9 0.08191 1.45960   4
   6  -4  -9 0.03322 0.86312   2
   6  -4  -9 -0.0312 0.87947   1
  -6   4   9 -0.3612 1.35292   3
   5  -4  -9 153.094 8.93566   6
   5  -4  -9 138.436 8.61226   1
   5  -4  -9 141.126 8.38209   2
   4  -4  -9 83.7185 6.35968   2
   4  -4  -9 115.270 6.80704   6
   4  -4  -9 81.6325 6.58692   1
   3  -4  -9 80.4404 6.84409   6
   3  -4  -9 86.3016 6.68335   1
   3  -4  -9 77.9389 6.18714   2
  -3   4   9 80.0225 6.48163   6
  -3   4   9 82.3327 6.13017   1
   2  -4  -9 97.3901 7.89381   6
   2  -4  -9 88.1076 6.92991   2
   2  -4  -9 107.344 7.73899   1
  -2   4   9 94.2430 7.78517   6
  -2   4   9 90.5288 7.21704   1
   1  -4  -9 0.56813 1.41373   2
   1  -4  -9 3.17332 1.96126   1
   1  -4  -9 4.12425 2.41047   6
  -1   4   9 1.92217 1.97204   1
  -1   4   9 1.77894 2.02256   6
  -1   4   9 0.07494 0.94942   5
   0  -4  -9 -0.0522 1.38789   1
   0  -4  -9 -0.8628 1.25015   6
   0  -4  -9 0.43383 1.51677   2
   0   4   9 2.07856 2.13066   1
   0   4   9 -1.9131 1.65100   6
   0   4   9 0.72342 1.40873   5
  -1  -4  -9 25.6532 5.24777   6
  -1  -4  -9 18.5170 4.14190   1
   1   4   9 26.7941 5.46899   1
   1   4   9 19.1380 5.01358   6
   1   4   9 18.8164 4.29407   5
   2   4   9 9.31982 3.85064   1
   2   4   9 7.04150 3.11409   5
   2   4   9 5.52400 3.59053   6
   8  -5  -9 246.150 12.8351   6
   8  -5  -9 249.827 12.5208   1
   8  -5  -9 258.832 16.8899   4
   8  -5  -9 251.529 12.2101   2
  -8   5   9 253.347 16.7160   3
   7  -5  -9 33.4582 4.43100   1
   7  -5  -9 42.6807 5.17275   6
   7  -5  -9 32.8288 4.07704   2
  -7   5   9 33.0685 6.31998   3
   6  -5  -9 1.94066 1.28944   2
   6  -5  -9 2.76644 1.75760   6
   5  -5  -9 61.5835 5.69104   1
   5  -5  -9 64.5856 5.45407   2
   4  -5  -9 32.0270 4.40731   2
   4  -5  -9 32.1340 4.77909   1
   4  -5  -9 25.7309 4.68695   6
   3  -5  -9 16.1693 3.59300   1
   3  -5  -9 26.9951 4.33362   2
   3  -5  -9 27.1442 4.90350   6
  -3   5   9 23.7794 4.27181   1
   2  -5  -9 188.205 11.9916   1
   2  -5  -9 178.136 12.3178   6
   2  -5  -9 178.034 11.3494   2
  -2   5   9 173.674 12.3351   6
  -2   5   9 195.147 11.9533   1
   1  -5  -9 109.489 8.53078   2
   1  -5  -9 116.414 9.66129   6
   1  -5  -9 120.982 9.22486   1
  -1   5   9 109.436 9.24944   1
  -1   5   9 103.539 9.54389   6
   0  -5  -9 7.87743 3.26182   6
   0  -5  -9 11.0723 3.53793   1
   0  -5  -9 7.13284 2.97312   2
   0   5   9 7.69196 3.76511   6
   0   5   9 4.26713 2.88230   1
  -1  -5  -9 18.2745 4.68282   1
   1   5   9 20.3779 5.65134   6
   1   5   9 20.9911 5.22929   1
   2   5   9 163.761 14.3115   6
   2   5   9 140.913 12.6062   1
   8  -6  -9 59.9128 5.15530   2
   8  -6  -9 63.8778 5.93959   6
   8  -6  -9 57.3923 5.43933   1
  -8   6   9 52.7190 8.81816   3
   7  -6  -9 1.59005 1.49420   2
   7  -6  -9 0.80216 1.40066   1
  -7   6   9 0.14897 2.32451   3
   6  -6  -9 237.300 13.8959   1
   6  -6  -9 242.202 13.5163   2
   6  -6  -9 268.281 14.5879   6
   5  -6  -9 48.3216 6.14685   1
   5  -6  -9 47.8791 5.79195   2
   4  -6  -9 73.0436 8.75851   6
   4  -6  -9 63.4926 7.36603   1
   4  -6  -9 63.2202 7.09225   2
   3  -6  -9 18.2742 4.72178   6
   3  -6  -9 13.8674 3.75569   1
   3  -6  -9 22.9214 4.50677   2
   2  -6  -9 -0.0361 1.62899   6
   2  -6  -9 -0.3343 1.59230   2
   2  -6  -9 -2.1528 0.98472   1
  -2   6   9 0.92561 1.97538   1
   1  -6  -9 472.080 26.2600   6
   1  -6  -9 509.216 25.0852   2
   1  -6  -9 523.475 25.9392   1
  -1   6   9 493.421 27.0871   6
  -1   6   9 485.904 25.8734   1
   0  -6  -9 2.57585 2.71788   6
   0  -6  -9 0.34593 2.07427   1
   0   6   9 3.22873 2.40398   1
   0   6   9 2.66153 2.82384   6
   8  -7  -9 94.8507 7.42944   2
   8  -7  -9 108.129 8.37624   6
   8  -7  -9 95.1737 7.90282   1
  -8   7   9 114.455 13.3912   3
   7  -7  -9 11.0176 3.08549   2
  -7   7   9 6.77455 3.74711   3
   6  -7  -9 145.317 10.4747   1
   6  -7  -9 141.638 9.95024   2
   6  -7  -9 138.718 10.3555   1
   5  -7  -9 8.50874 2.97510   2
   5  -7  -9 14.9283 3.78390   1
   5  -7  -9 14.7801 4.47202   6
   4  -7  -9 1.85321 2.33851   6
   4  -7  -9 3.42386 2.21581   1
   4  -7  -9 3.13327 2.35919   2
   3  -7  -9 2.88146 2.52832   6
   3  -7  -9 0.31985 1.96619   1
   3  -7  -9 1.42965 2.20180   2
   2  -7  -9 2.33159 2.59209   1
   2  -7  -9 2.33269 2.04165   2
   2  -7  -9 4.05695 2.89596   6
   1  -7  -9 107.923 10.9142   6
   1  -7  -9 123.452 10.7703   1
   6  -8  -9 259.593 15.6889   2
   6  -8  -9 262.812 17.6350   6
   6  -8  -9 268.218 16.5832   1
   6  -8  -9 257.312 16.2663   1
   5  -8  -9 1.07363 2.54366   6
   5  -8  -9 4.55705 2.93592   1
   5  -8  -9 2.72213 2.53376   2
   4  -8  -9 -2.4274 2.01457   6
   4  -8  -9 1.42272 2.14671   2
   4  -8  -9 0.79836 2.07876   1
   3  -8  -9 61.8574 8.57539   2
   3  -8  -9 63.4657 9.16958   1
   3  -8  -9 71.7109 10.5599   6
   0   8 -10 118.572 15.7954   6
   0   8 -10 99.6809 12.9643   1
  -1   8 -10 170.016 16.1035   6
  -1   8 -10 216.737 16.5216   1
   1  -8  10 207.496 15.7577   1
   1  -8  10 180.078 15.7477   6
  -2   8 -10 18.4826 5.81476   1
   2  -8  10 25.6018 6.23742   1
   2  -8  10 22.8935 6.66201   6
   3  -8  10 36.5269 7.25778   1
   3  -8  10 22.2932 6.29307   6
   4  -8  10 7.94971 3.70996   1
   4  -8  10 9.23969 4.49874   6
   2   7 -10 318.660 21.4524   1
   2   7 -10 308.965 22.5643   6
   1   7 -10 33.4529 7.13049   2
   1   7 -10 26.8872 6.69205   1
   1   7 -10 29.2995 7.14515   6
   0   7 -10 10.4416 4.47898   6
   0   7 -10 10.4967 4.08935   2
   0   7 -10 13.3441 4.99516   1
   0  -7  10 15.2220 4.70501   1
   0  -7  10 16.2370 5.07262   6
  -1   7 -10 98.7081 11.8840   1
  -1   7 -10 100.852 12.5376   6
   1  -7  10 109.322 12.7179   6
   1  -7  10 113.611 12.3678   1
  -2   7 -10 2.96450 3.10881   1
  -2   7 -10 2.96005 3.42870   6
   2  -7  10 6.25723 3.55639   6
   2  -7  10 7.69465 3.61381   1
   3  -7  10 33.6547 6.47487   1
   3  -7  10 35.1767 6.91289   6
   4  -7  10 8.69698 3.70746   6
   4  -7  10 9.90211 3.73276   1
   5  -7  10 28.8164 6.51546   6
   5  -7  10 30.5037 6.08362   1
   3   6 -10 -0.0741 2.39522   2
   3   6 -10 0.28157 3.01428   6
   3   6 -10 5.95422 3.23407   4
   3   6 -10 4.35148 3.12057   1
   2   6 -10 6.23541 2.91525   4
   2   6 -10 4.20144 3.50210   1
   2   6 -10 7.08881 3.66513   2
   2   6 -10 4.25305 3.27098   6
   1   6 -10 3.04592 3.05536   6
   1   6 -10 0.51654 1.98581   1
   1   6 -10 1.30111 1.67567   4
   1   6 -10 4.95489 2.78289   2
  -1  -6  10 -1.1897 1.70229   1
   0   6 -10 15.3697 4.34706   2
   0   6 -10 22.9242 6.15291   6
   0   6 -10 18.5245 4.85273   1
   0  -6  10 18.7146 5.30041   6
   0  -6  10 12.5202 3.93657   1
  -1   6 -10 1387.10 63.3178   6
  -1   6 -10 1454.36 62.4569   1
  -1   6 -10 1385.10 61.1708   2
   1  -6  10 1463.36 62.7994   6
   1  -6  10 1450.10 61.5702   1
  -2   6 -10 116.799 10.3994   1
  -2   6 -10 123.628 11.3487   6
   2  -6  10 103.585 10.1065   6
   2  -6  10 111.273 9.74252   1
  -3   6 -10 31.4103 6.88451   1
   3  -6  10 24.9241 5.14644   1
   3  -6  10 23.1586 5.34949   6
   4  -6  10 55.4245 7.92286   1
   4  -6  10 54.1765 8.08237   6
   5  -6  10 101.721 10.2576   6
   5  -6  10 115.549 9.94624   1
   4   5 -10 2.45260 2.79251   2
   4   5 -10 -0.3196 2.06286   1
   4   5 -10 0.69321 2.92148   6
   4   5 -10 1.04721 2.71807   4
   3   5 -10 36.6320 6.97201   4
   3   5 -10 31.2486 6.33304   1
   3   5 -10 50.7241 8.79457   6
   3   5 -10 44.9751 7.40854   2
   2   5 -10 34.3582 6.04914   2
   2   5 -10 37.3402 6.19138   4
   2   5 -10 35.5170 6.71951   1
   2   5 -10 29.4073 6.47002   6
   1   5 -10 475.250 27.0205   6
   1   5 -10 501.170 25.7060   2
   1   5 -10 535.380 24.5471   4
   1   5 -10 487.316 26.2468   1
  -1  -5  10 482.187 26.3157   6
  -1  -5  10 517.247 25.6842   1
   0   5 -10 781.348 38.1636   6
   0   5 -10 789.671 36.4882   2
   0   5 -10 804.313 37.3464   1
   0  -5  10 792.740 36.4546   1
   0  -5  10 780.723 37.2924   6
  -1   5 -10 121.798 10.7917   6
  -1   5 -10 112.125 9.39753   2
  -1   5 -10 113.851 9.90892   1
   1  -5  10 118.613 9.50055   1
   1  -5  10 110.845 9.82496   6
  -2   5 -10 413.629 22.3810   1
  -2   5 -10 421.323 21.8068   2
  -2   5 -10 401.498 23.0918   6
   2  -5  10 439.466 22.0287   1
   2  -5  10 382.506 22.1413   6
  -3   5 -10 2.04676 2.35859   1
   3  -5  10 2.97536 2.36897   6
   3  -5  10 8.82369 3.24176   1
   4  -5  10 278.716 17.1929   6
   4  -5  10 270.877 16.2555   1
   5  -5  10 204.479 13.9648   1
   5  -5  10 228.256 15.3191   6
   6  -5  10 66.4615 9.99513   6
   6  -5  10 57.6970 7.95891   1
   5   4 -10 61.0312 8.22999   2
   5   4 -10 63.2324 10.8214   4
   5   4 -10 41.7782 7.99106   1
   4   4 -10 340.241 21.0172   6
   4   4 -10 325.143 21.2698   4
   4   4 -10 341.826 19.2693   2
   4   4 -10 335.228 19.8936   1
   3   4 -10 295.862 18.3359   4
   3   4 -10 300.560 17.2053   2
   3   4 -10 294.015 18.5441   6
   3   4 -10 277.218 17.3716   1
   2   4 -10 490.306 24.4284   2
   2   4 -10 480.750 25.8987   6
   2   4 -10 516.204 24.8077   4
   2   4 -10 475.705 24.9214   1
  -2  -4  10 473.636 24.0820   1
  -2  -4  10 475.987 25.7084   6
   1   4 -10 4210.56 162.622   6
   1   4 -10 4079.41 160.528   2
   1   4 -10 4043.16 161.394   1
  -1  -4  10 4281.78 160.889   1
  -1  -4  10 4072.55 161.526   6
   0   4 -10 405.278 20.5211   2
   0   4 -10 418.891 21.3494   1
   0   4 -10 364.148 21.3028   6
   0  -4  10 389.982 20.9557   6
   0  -4  10 399.607 20.3940   1
  -1   4 -10 3.60580 2.03266   2
  -1   4 -10 0.12296 1.36337   1
  -1   4 -10 1.78597 2.01679   6
   1  -4  10 0.50318 1.42189   1
   1  -4  10 4.79375 2.53891   6
  -2   4 -10 73.8334 7.96789   2
  -2   4 -10 86.1880 8.27164   6
  -2   4 -10 79.2261 7.57744   1
   2  -4  10 73.1701 8.69316   6
   2  -4  10 84.6091 7.37707   1
  -3   4 -10 332.039 18.8800   1
  -3   4 -10 346.930 19.8880   6
   3  -4  10 364.495 18.8016   1
   3  -4  10 328.498 19.0469   6
   4  -4  10 92.1077 8.12948   1
   4  -4  10 98.9110 8.96642   6
   5  -4  10 0.13580 1.59859   1
   5  -4  10 -0.2816 1.75471   6
   6  -4  10 78.2840 9.28169   1
   6  -4  10 96.8656 12.2359   6
   6   3 -10 11.2773 5.24412   4
   6   3 -10 10.7356 3.67891   2
   5   3 -10 186.102 15.6550   4
   5   3 -10 175.623 12.9864   1
   5   3 -10 212.957 13.2249   2
   4   3 -10 68.1100 8.81377   6
   4   3 -10 59.8445 9.29860   4
   4   3 -10 50.2899 7.02162   1
   4   3 -10 57.3222 7.13655   2
   3   3 -10 595.096 30.0275   6
   3   3 -10 629.336 29.6209   1
   3   3 -10 634.524 30.8912   4
   3   3 -10 631.054 28.9457   2
   2   3 -10 1.11975 1.61992   6
   2   3 -10 2.28745 1.85232   4
   2   3 -10 0.94303 1.33777   2
   2   3 -10 2.93119 1.89823   1
  -2  -3  10 0.34771 1.40073   6
  -2  -3  10 1.99057 1.55656   1
   1   3 -10 2086.29 82.1128   2
   1   3 -10 2021.29 83.3777   6
   1   3 -10 2097.42 82.7634   1
  -1  -3  10 2028.65 82.8126   6
  -1  -3  10 2051.88 82.1018   1
   0   3 -10 80.5607 7.31881   6
   0   3 -10 71.9347 6.36252   2
   0   3 -10 70.9016 6.57279   1
   0  -3  10 81.5687 6.81362   1
   0  -3  10 69.0064 6.68182   6
  -1   3 -10 25.2927 4.22994   2
  -1   3 -10 27.9213 5.22100   6
  -1   3 -10 30.2707 4.91104   1
   1  -3  10 23.7025 4.50046   6
   1  -3  10 30.5442 4.73593   1
  -2   3 -10 28.8371 5.03915   6
  -2   3 -10 31.2603 4.68791   2
  -2   3 -10 27.1491 4.60313   1
   2  -3  10 27.7250 4.62071   1
   2  -3  10 25.7796 4.99777   6
  -3   3 -10 30.5917 5.60562   6
  -3   3 -10 25.9855 4.67126   1
   3  -3  10 26.8353 4.79438   1
   3  -3  10 24.9827 4.79524   6
   4  -3  10 27.3754 5.37377   6
   4  -3  10 32.6385 5.31384   1
   5  -3  10 47.2381 7.43017   6
   5  -3  10 40.2015 6.24004   1
   6  -3  10 78.0839 9.25268   1
   7   2 -10 39.7512 6.75910   1
   7   2 -10 38.1287 5.98730   2
   7   2 -10 31.1921 8.19509   4
   6   2 -10 95.0402 6.27130   1
   6   2 -10 91.8913 6.26988   6
   5   2 -10 262.531 15.7908   1
   5   2 -10 332.770 16.9475   6
   5   2 -10 264.572 18.9891   4
   5   2 -10 276.028 15.5353   2
   4   2 -10 99.9977 9.77864   4
   4   2 -10 96.0035 7.71973   2
   4   2 -10 137.113 8.19344   6
   4   2 -10 107.306 8.35588   1
   3   2 -10 17.9333 3.92380   6
   3   2 -10 12.1099 2.97524   2
   3   2 -10 12.1321 3.56143   4
   3   2 -10 9.15876 2.66181   1
  -3  -2  10 12.3925 2.85301   1
   2   2 -10 3.29384 1.88880   4
   2   2 -10 2.97196 1.80767   6
   2   2 -10 6.64467 2.13783   2
   2   2 -10 1.76812 1.31399   1
  -2  -2  10 2.42625 1.62498   1
  -2  -2  10 2.69239 1.64625   6
   1   2 -10 11.7139 2.59629   2
   1   2 -10 14.0134 3.23739   1
   1   2 -10 11.9555 3.04001   6
  -1  -2  10 10.7811 2.72199   1
  -1  -2  10 8.84436 2.67756   6
   0   2 -10 6.03298 2.27167   6
   0   2 -10 2.42958 1.62538   2
   0   2 -10 0.73871 1.25306   1
   0  -2  10 6.50400 2.41502   6
   0  -2  10 3.62509 1.83213   1
  -1   2 -10 94.3026 7.28635   1
  -1   2 -10 94.6606 7.73676   6
  -1   2 -10 97.4355 7.03747   2
   1  -2  10 94.4470 7.71033   6
   1  -2  10 84.6858 6.95785   1
  -2   2 -10 1.57632 1.52873   6
  -2   2 -10 0.79023 1.20985   1
  -2   2 -10 0.22248 1.09595   2
   2  -2  10 0.38752 1.33767   6
   2  -2  10 1.60924 1.41554   1
  -3   2 -10 1.34618 1.53871   6
  -3   2 -10 1.56583 1.60092   1
   3  -2  10 0.54949 1.44945   1
   3  -2  10 1.34750 1.86965   6
   4  -2  10 47.0188 6.45880   1
   4  -2  10 46.6849 7.00650   6
   5  -2  10 193.671 13.2105   1
   5  -2  10 212.611 14.6140   6
   7   1 -10 187.005 11.8038   2
   7   1 -10 186.552 12.7306   6
   7   1 -10 179.232 16.3914   4
   7   1 -10 199.867 12.5360   1
   6   1 -10 2.08593 1.91400   1
   6   1 -10 1.38454 2.67863   4
   6   1 -10 3.06508 1.81418   2
   5   1 -10 2.92102 1.71153   2
   5   1 -10 1.07796 1.39124   1
   5   1 -10 1.37199 2.44889   4
   4   1 -10 10.4533 2.57087   1
   4   1 -10 11.8001 2.59517   2
   4   1 -10 6.74545 2.92390   4
  -4  -1  10 8.08240 2.49565   5
   3   1 -10 720.955 31.2443   1
   3   1 -10 777.505 33.7532   4
   3   1 -10 723.579 31.9217   6
   3   1 -10 762.747 31.0457   2
  -3  -1  10 706.231 27.9914   3
  -3  -1  10 665.837 31.2457   6
  -3  -1  10 718.199 30.8283   1
   2   1 -10 627.247 27.8442   1
   2   1 -10 662.000 28.6577   6
   2   1 -10 619.566 27.4341   2
  -2  -1  10 613.172 28.1631   6
  -2  -1  10 651.098 27.8314   1
   1   1 -10 109.086 7.44554   1
   1   1 -10 103.689 7.07060   2
   1   1 -10 95.8169 7.48168   6
  -1  -1  10 108.248 7.80612   6
  -1  -1  10 120.024 7.66521   1
   0   1 -10 2.51997 1.68411   6
   0   1 -10 1.27706 1.18325   1
   0   1 -10 3.75877 1.63123   2
   0  -1  10 1.39739 1.38536   1
   0  -1  10 3.09933 1.63906   6
  -1   1 -10 109.971 7.86231   1
  -1   1 -10 107.700 8.18673   6
  -1   1 -10 108.946 7.59302   2
   1  -1  10 112.637 8.52607   6
   1  -1  10 117.889 8.09062   1
  -2   1 -10 20.4323 4.01334   6
  -2   1 -10 7.42300 2.23897   2
  -2   1 -10 9.67205 2.65865   1
   2  -1  10 14.0621 3.37399   1
   2  -1  10 15.4185 3.66394   6
  -3   1 -10 387.003 20.0201   1
   3  -1  10 421.882 20.7902   1
   3  -1  10 393.159 21.3602   6
   4  -1  10 205.757 13.2222   1
   4  -1  10 196.130 13.7853   6
   5  -1  10 250.516 15.9808   1
   5  -1  10 266.898 17.3627   6
   8   0 -10 58.5305 7.60263   6
   8   0 -10 53.5743 6.32514   2
   8   0 -10 57.2556 6.94095   1
   8   0 -10 68.2993 12.0616   4
   7   0 -10 7.01506 2.60386   1
   7   0 -10 5.69001 2.00724   2
   7   0 -10 4.70633 3.32274   4
   7   0 -10 12.6861 3.20146   6
   6   0 -10 7.88450 3.79205   4
   6   0 -10 9.03966 2.24870   2
   6   0 -10 6.57517 2.13392   1
   5   0 -10 17.9111 3.13329   1
   5   0 -10 29.8642 3.56869   2
   5   0 -10 21.5522 3.21866   6
   5   0 -10 16.1988 4.61634   4
  -5   0  10 18.6041 3.42890   5
  -5   0  10 16.5437 2.41176   3
   4   0 -10 385.754 16.9556   6
   4   0 -10 346.437 16.5265   1
   4   0 -10 351.132 19.4650   4
   4   0 -10 336.050 16.1419   2
  -4   0  10 337.346 16.3171   5
  -4   0  10 330.875 15.1480   3
   3   0 -10 5.59376 1.74473   1
   3   0 -10 3.13231 1.40851   2
   3   0 -10 2.12223 1.39218   6
  -3   0  10 6.30630 1.94707   6
  -3   0  10 4.18685 1.56837   1
   2   0 -10 28.9653 3.81698   2
   2   0 -10 24.7922 3.58292   1
   2   0 -10 24.5538 3.79560   6
  -2   0  10 24.7021 3.78004   6
  -2   0  10 27.4686 3.67528   1
   1   0 -10 2.57181 1.44476   6
   1   0 -10 2.35889 1.23443   2
   1   0 -10 1.64909 1.20544   1
  -1   0  10 1.25423 1.13410   6
  -1   0  10 2.80651 1.39836   1
   0   0 -10 23.1405 3.58007   2
   0   0 -10 19.1358 3.48172   1
   0   0 -10 20.1991 3.58873   6
   0   0  10 29.2004 4.56865   6
   0   0  10 23.1087 3.88723   1
  -1   0 -10 119.266 7.72053   2
  -1   0 -10 117.221 8.51793   6
  -1   0 -10 111.617 7.95557   1
   1   0  10 111.833 8.18681   1
   1   0  10 105.386 8.54893   6
  -2   0 -10 128.732 8.45897   2
  -2   0 -10 127.600 8.81430   1
  -2   0 -10 120.971 9.06984   6
   2   0  10 117.855 8.98249   1
   2   0  10 126.811 9.80995   6
   3   0  10 225.645 14.6269   6
   3   0  10 219.866 13.8632   1
   4   0  10 12.3619 4.11483   1
   4   0  10 6.34276 3.16412   6
   5   0  10 6.99705 3.84275   6
   5   0  10 4.49744 2.86393   1
   8  -1 -10 127.234 8.61065   1
   8  -1 -10 135.967 13.8595   4
   8  -1 -10 138.506 8.42391   2
   8  -1 -10 134.743 9.18990   6
   7  -1 -10 128.153 7.84962   1
   7  -1 -10 125.392 7.53447   2
   7  -1 -10 120.524 12.2772   4
   7  -1 -10 119.063 8.16310   6
   6  -1 -10 0.85115 1.07167   6
   6  -1 -10 1.23007 2.07553   4
   6  -1 -10 -0.2645 0.82785   1
   6  -1 -10 0.80003 0.90966   2
  -6   1  10 4.31957 1.80739   3
   5  -1 -10 0.61116 1.80148   4
   5  -1 -10 1.52953 1.09709   1
  -5   1  10 1.04742 1.17456   3
   4  -1 -10 126.313 9.53719   4
   4  -1 -10 108.365 6.90746   2
   4  -1 -10 112.342 7.22448   1
   4  -1 -10 98.4871 7.75436   1
   4  -1 -10 139.774 7.34032   6
  -4   1  10 109.442 6.17335   5
  -4   1  10 116.214 7.71206   1
   3  -1 -10 535.991 23.4113   2
   3  -1 -10 555.643 24.3619   6
   3  -1 -10 571.647 23.9695   1
  -3   1  10 512.836 23.7440   6
  -3   1  10 521.561 23.1955   1
   2  -1 -10 74.9445 5.77537   1
   2  -1 -10 75.8260 6.15361   6
   2  -1 -10 77.6705 5.59210   2
  -2   1  10 72.2477 5.93022   6
  -2   1  10 72.9686 5.59245   1
   1  -1 -10 5.89666 1.88994   2
   1  -1 -10 3.34001 1.63507   1
   1  -1 -10 6.83606 2.36793   6
  -1   1  10 3.16188 1.74609   6
  -1   1  10 3.03128 1.52665   1
   0  -1 -10 921.578 38.8953   2
   0  -1 -10 939.152 39.4498   1
   0  -1 -10 923.833 40.0434   6
   0   1  10 947.697 39.7248   1
   0   1  10 917.258 40.4894   6
  -1  -1 -10 1984.85 78.8718   2
  -1  -1 -10 2075.38 79.6818   1
  -1  -1 -10 1911.38 79.8319   6
   1   1  10 1994.30 80.0602   1
   1   1  10 1994.94 80.9726   6
  -2  -1 -10 316.277 17.0844   1
  -2  -1 -10 321.669 17.7438   6
   2   1  10 326.342 18.7833   6
   2   1  10 345.732 18.1920   1
   3   1  10 -0.8373 1.59444   5
   3   1  10 -1.2908 1.77467   1
   3   1  10 1.27550 2.04486   6
   4   1  10 318.500 20.6342   5
   4   1  10 270.565 17.6541   1
   4   1  10 303.770 19.2666   6
   8  -2 -10 58.2745 5.10260   6
   8  -2 -10 59.0301 10.0455   4
   8  -2 -10 59.2111 4.54663   2
   8  -2 -10 55.1103 4.65468   1
   7  -2 -10 65.8072 4.92164   1
   7  -2 -10 63.4269 9.61060   4
   7  -2 -10 70.2200 4.79499   2
   7  -2 -10 60.0597 5.06950   6
  -7   2  10 63.6746 5.88316   3
   6  -2 -10 101.814 6.45651   1
   6  -2 -10 102.023 6.21915   2
   6  -2 -10 103.305 9.78442   4
   6  -2 -10 100.826 6.72823   6
  -6   2  10 96.8221 7.40654   3
   5  -2 -10 2.91277 1.12841   2
   5  -2 -10 1.49112 1.13711   1
   5  -2 -10 3.13738 2.30949   4
   4  -2 -10 278.028 12.9573   6
   4  -2 -10 227.087 12.1223   2
   4  -2 -10 240.290 12.6182   1
   3  -2 -10 13.3187 2.58385   2
   3  -2 -10 12.5044 2.79816   6
   3  -2 -10 14.0454 2.84113   1
  -3   2  10 14.7952 2.91821   6
  -3   2  10 17.1919 2.86610   1
   2  -2 -10 632.684 29.2757   6
   2  -2 -10 675.755 28.4315   2
   2  -2 -10 672.376 28.9489   1
  -2   2  10 660.075 28.5644   1
  -2   2  10 644.048 29.1472   6
   1  -2 -10 59.2012 7.01219   6
   1  -2 -10 52.2662 6.00842   1
   1  -2 -10 51.4373 5.55264   2
  -1   2  10 60.4288 4.93676   5
  -1   2  10 64.5636 6.05171   6
  -1   2  10 49.3325 5.75634   1
   0  -2 -10 199.523 11.2104   2
   0  -2 -10 194.643 12.2204   6
   0  -2 -10 203.268 11.8283   1
   0   2  10 188.970 12.5038   6
   0   2  10 183.413 11.7457   1
   0   2  10 186.036 11.5500   5
  -1  -2 -10 69.5472 6.90454   6
  -1  -2 -10 74.6762 6.31002   2
  -1  -2 -10 68.8030 6.40304   1
   1   2  10 73.7689 8.14330   1
   1   2  10 73.8029 7.26034   5
   1   2  10 72.6012 8.77492   6
  -2  -2 -10 72.3715 8.44329   6
  -2  -2 -10 74.6260 6.95417   1
   2   2  10 86.4719 10.3519   6
   2   2  10 78.7925 9.07315   1
   2   2  10 72.3595 9.02199   5
   3   2  10 5.33908 2.97895   1
   3   2  10 5.73632 3.29841   5
   3   2  10 3.94740 2.85984   6
   8  -3 -10 40.6256 3.96114   6
   8  -3 -10 37.8697 3.62097   1
   8  -3 -10 56.3584 4.09560   2
   8  -3 -10 39.6752 7.97673   4
  -8   3  10 41.6888 6.32588   3
   7  -3 -10 38.7229 3.72844   1
   7  -3 -10 42.2827 3.65562   2
   7  -3 -10 30.0777 6.27679   4
   7  -3 -10 41.0528 4.66657   6
  -7   3  10 46.3385 6.48338   3
   6  -3 -10 23.4886 5.03048   4
   6  -3 -10 24.5185 3.45340   1
   6  -3 -10 24.7423 3.27301   2
   6  -3 -10 39.3826 3.36121   6
  -6   3  10 21.5647 4.58883   3
   5  -3 -10 233.932 12.1817   1
   5  -3 -10 246.840 12.4471   6
   5  -3 -10 222.055 11.6870   2
   4  -3 -10 234.395 11.7558   6
   4  -3 -10 207.524 11.6814   1
   4  -3 -10 204.316 11.2401   2
   3  -3 -10 16.3689 3.16376   1
   3  -3 -10 16.1442 2.98332   2
   3  -3 -10 17.8688 3.67040   6
  -3   3  10 20.0510 3.22304   1
  -3   3  10 19.2845 3.39140   6
   2  -3 -10 25.0162 4.37127   6
   2  -3 -10 25.9746 4.10970   1
   2  -3 -10 27.5786 4.20018   2
  -2   3  10 22.3611 3.88257   1
  -2   3  10 20.7876 3.88233   6
  -2   3  10 23.5265 2.82338   5
   1  -3 -10 2390.37 95.2548   6
   1  -3 -10 2445.65 93.9710   2
   1  -3 -10 2454.12 94.6202   1
  -1   3  10 2265.65 93.0098   5
  -1   3  10 2477.22 94.8317   1
  -1   3  10 2314.66 95.5592   6
   0  -3 -10 87.1499 7.76528   6
   0  -3 -10 80.0035 6.82996   2
   0  -3 -10 79.1434 7.06546   1
   0   3  10 85.4603 7.07096   5
   0   3  10 76.4668 7.38629   1
   0   3  10 84.0538 8.13583   6
  -1  -3 -10 2.95802 2.10922   6
  -1  -3 -10 8.18750 2.83368   1
   1   3  10 10.8394 3.62468   1
   1   3  10 5.56411 2.78185   6
   1   3  10 7.72549 2.90786   5
   2   3  10 9.41869 3.44558   5
   2   3  10 10.8259 3.66292   1
   2   3  10 8.48387 3.82932   6
   3   3  10 70.4487 10.3777   6
   3   3  10 75.9846 9.93570   1
   3   3  10 57.1673 9.06190   5
   8  -4 -10 39.6993 7.13034   4
   8  -4 -10 41.7624 4.70816   6
   8  -4 -10 37.6340 4.20879   1
   8  -4 -10 35.0108 3.85808   2
  -8   4  10 36.9927 6.36866   3
   7  -4 -10 83.9897 6.09319   1
   7  -4 -10 96.6700 9.25602   4
   7  -4 -10 89.2917 5.95710   2
   7  -4 -10 88.8520 6.37261   6
  -7   4  10 87.0203 8.30909   3
   6  -4 -10 22.7162 3.56786   6
   6  -4 -10 22.0630 3.43085   1
   6  -4 -10 17.8037 2.92619   2
   5  -4 -10 42.5463 4.75791   2
   5  -4 -10 34.1006 4.67106   1
   4  -4 -10 199.211 12.2303   6
   4  -4 -10 201.481 11.7426   1
   4  -4 -10 210.859 11.4634   2
   3  -4 -10 532.378 26.0867   6
   3  -4 -10 552.526 25.0311   2
   3  -4 -10 552.138 25.5734   1
  -3   4  10 564.301 24.9542   1
   2  -4 -10 305.519 16.0850   2
   2  -4 -10 323.250 17.4511   6
   2  -4 -10 290.271 16.4241   1
  -2   4  10 305.514 17.2286   6
  -2   4  10 318.456 16.5246   1
   1  -4 -10 141.799 10.1474   1
   1  -4 -10 145.859 9.78534   2
   1  -4 -10 132.982 10.4170   6
  -1   4  10 140.497 10.7970   6
  -1   4  10 141.254 10.3063   1
  -1   4  10 136.077 9.02398   5
   0  -4 -10 20.9471 4.08980   2
   0  -4 -10 20.3480 4.46648   6
   0  -4 -10 22.2103 4.45180   1
   0   4  10 21.5934 4.73653   1
   0   4  10 23.2657 5.34804   6
   0   4  10 26.7517 4.82030   5
  -1  -4 -10 0.83248 1.89786   6
  -1  -4 -10 4.40317 2.23767   1
   1   4  10 2.26719 1.99763   5
   1   4  10 1.34467 2.55730   6
   1   4  10 3.50732 2.57513   1
   2   4  10 32.7107 6.50937   5
   2   4  10 39.3391 7.24464   1
   2   4  10 42.5316 8.13106   6
   8  -5 -10 17.6807 4.95984   4
   8  -5 -10 16.9938 3.36053   6
   8  -5 -10 15.5008 2.94922   1
   8  -5 -10 18.3781 2.98076   2
  -8   5  10 17.9678 4.95813   3
   7  -5 -10 7.77214 1.92657   1
   7  -5 -10 8.72531 2.58535   6
   7  -5 -10 7.77375 2.07430   2
  -7   5  10 2.81558 2.75207   3
   6  -5 -10 64.8153 5.60798   2
   6  -5 -10 62.6822 5.61779   1
   5  -5 -10 144.623 10.1216   1
   5  -5 -10 147.174 9.79714   2
   5  -5 -10 203.728 10.5568   6
   4  -5 -10 95.5415 7.34295   2
   4  -5 -10 93.9848 8.05177   6
   4  -5 -10 90.2004 7.53655   1
   3  -5 -10 35.6028 5.20587   2
   3  -5 -10 40.6660 6.40309   6
   3  -5 -10 36.8620 5.56746   1
   2  -5 -10 83.7605 8.04754   6
   2  -5 -10 70.0471 7.61755   2
   2  -5 -10 71.2996 8.17425   1
  -2   5  10 76.9376 8.59321   1
   1  -5 -10 244.611 14.3620   2
   1  -5 -10 229.588 14.6866   1
   1  -5 -10 241.612 15.5401   6
  -1   5  10 226.047 15.7717   6
  -1   5  10 248.192 15.2038   1
   0  -5 -10 112.699 10.2973   6
   0  -5 -10 128.019 10.1936   1
   0   5  10 121.045 10.4553   1
   0   5  10 122.019 11.3554   6
   1   5  10 12.6366 4.30163   1
   1   5  10 14.8720 5.38753   6
   8  -6 -10 34.7554 5.19927   6
   8  -6 -10 42.3813 4.90680   2
   8  -6 -10 33.0090 4.75462   1
  -8   6  10 33.3514 6.96975   3
   7  -6 -10 141.089 9.26373   6
   7  -6 -10 111.062 8.12494   2
   7  -6 -10 121.765 8.74425   1
  -7   6  10 119.539 13.2300   3
   6  -6 -10 12.6554 3.33197   1
   6  -6 -10 13.6481 3.30293   2
   5  -6 -10 131.577 10.0043   1
   5  -6 -10 145.365 9.87445   2
   5  -6 -10 152.707 11.0725   6
   4  -6 -10 278.523 16.4783   1
   4  -6 -10 283.275 17.2048   6
   4  -6 -10 302.970 16.2499   2
   3  -6 -10 80.0761 9.94009   6
   3  -6 -10 74.3614 8.63583   1
   3  -6 -10 87.0966 7.72492   2
   2  -6 -10 50.1781 6.85361   2
   2  -6 -10 54.6732 7.72530   1
   2  -6 -10 58.5823 8.67687   6
   1  -6 -10 190.915 13.6480   1
   1  -6 -10 201.463 14.6681   6
   1  -6 -10 187.970 13.0450   2
  -1   6  10 212.422 14.4322   1
   0  -6 -10 42.2506 6.93031   1
   0  -6 -10 35.2508 6.81590   6
   0   6  10 44.1532 7.64481   1
   0   6  10 41.4568 8.25634   6
   7  -7 -10 -0.4355 1.43768   2
   6  -7 -10 1.52966 1.74743   2
   6  -7 -10 2.10813 2.01629   1
   5  -7 -10 134.172 11.2681   6
   5  -7 -10 124.747 10.2905   1
   5  -7 -10 128.832 9.85295   2
   4  -7 -10 16.8197 4.29919   1
   4  -7 -10 14.7422 4.53349   6
   4  -7 -10 18.1819 4.20482   2
   3  -7 -10 40.1938 7.04726   6
   3  -7 -10 39.5743 6.53396   2
   3  -7 -10 43.2989 7.03814   1
   2  -7 -10 36.5066 7.12381   6
   2  -7 -10 37.2172 6.23864   2
   2  -7 -10 43.4940 7.38395   1
   5  -8 -10 -0.5069 1.83286   1
   5  -8 -10 0.97853 2.69378   6
   5  -8 -10 -0.5620 1.96181   2
   0   8 -11 26.2880 7.46271   6
   0   8 -11 23.9824 6.66921   1
  -1   8 -11 142.995 17.5188   6
  -1   8 -11 142.890 13.5644   1
   1  -8  11 133.388 12.7543   1
   1  -8  11 124.129 15.4528   6
   2  -8  11 -1.4785 2.15398   1
   2  -8  11 0.59035 2.84181   6
   3  -8  11 47.4081 9.28617   6
   3  -8  11 55.8972 8.98135   1
   2   7 -11 32.4878 7.31146   2
   2   7 -11 34.9316 7.89658   1
   2   7 -11 39.7699 8.92787   6
   1   7 -11 7.62477 4.56059   1
   1   7 -11 14.8713 5.52022   6
   1   7 -11 12.5843 4.55207   2
   0   7 -11 42.7264 8.62878   6
   0   7 -11 54.8344 9.45860   1
   0   7 -11 49.2400 8.24213   2
   0  -7  11 50.3454 8.15188   1
  -1   7 -11 123.941 14.9344   6
  -1   7 -11 112.881 13.1715   1
   1  -7  11 105.935 12.2769   1
   1  -7  11 122.191 11.9426   6
  -2   7 -11 1.90745 2.86875   1
   2  -7  11 3.37479 2.70752   6
   2  -7  11 4.67525 3.45442   1
   3  -7  11 119.037 11.9417   6
   3  -7  11 140.569 11.9528   1
   4  -7  11 76.6454 10.5424   6
   4  -7  11 94.5091 11.0664   1
   3   6 -11 16.5017 5.13897   2
   3   6 -11 18.3663 5.14272   4
   3   6 -11 19.5902 5.77262   1
   3   6 -11 7.49505 4.78723   6
   2   6 -11 24.4499 5.20686   4
   2   6 -11 25.9386 6.85306   6
   2   6 -11 21.7477 5.72246   1
   2   6 -11 18.2796 5.22107   2
   1   6 -11 92.0501 11.2759   1
   1   6 -11 66.2138 10.3983   6
   1   6 -11 86.0141 10.3963   2
   0   6 -11 5.78062 3.35941   2
   0   6 -11 2.60520 2.91044   6
   0   6 -11 4.00524 2.98604   1
   0  -6  11 7.26279 3.40598   1
   0  -6  11 4.61952 3.16103   6
  -1   6 -11 8.61867 4.08088   6
  -1   6 -11 2.33828 2.66190   2
  -1   6 -11 3.29413 2.94323   1
   1  -6  11 8.44755 3.89958   6
   1  -6  11 3.25458 2.62450   1
  -2   6 -11 -0.2577 1.97612   6
  -2   6 -11 0.79333 2.15592   1
   2  -6  11 0.88911 2.07584   1
   2  -6  11 0.35951 1.94999   6
   3  -6  11 236.985 16.7951   6
   3  -6  11 262.879 16.5394   1
   4  -6  11 39.2768 7.39076   6
   4  -6  11 34.7017 6.65382   1
   5  -6  11 122.535 10.7939   1
   5  -6  11 115.512 11.2689   6
   4   5 -11 42.5762 8.29984   4
   4   5 -11 29.7813 6.73034   1
   4   5 -11 34.1737 8.46178   6
   4   5 -11 30.2286 6.33066   2
   3   5 -11 9.67086 4.52805   6
   3   5 -11 6.07234 3.33385   4
   3   5 -11 5.48234 2.98835   2
   3   5 -11 7.16234 3.46273   1
   2   5 -11 88.5678 8.13594   4
   2   5 -11 55.2886 9.09370   6
   2   5 -11 90.5405 10.9674   1
   2   5 -11 76.1969 9.30947   2
   1   5 -11 500.715 26.7663   1
   1   5 -11 527.005 26.3617   2
   1   5 -11 517.674 28.0455   6
  -1  -5  11 523.100 26.1336   1
  -1  -5  11 450.174 26.1947   6
   0   5 -11 290.571 17.5002   2
   0   5 -11 322.382 18.7614   1
   0   5 -11 285.292 18.8993   6
   0  -5  11 261.933 17.8464   6
   0  -5  11 316.960 17.9216   1
  -1   5 -11 407.027 21.8421   2
  -1   5 -11 402.033 23.3596   6
  -1   5 -11 382.561 22.1539   1
   1  -5  11 410.879 21.8021   1
   1  -5  11 408.596 22.6404   6
  -2   5 -11 39.9648 7.38186   6
  -2   5 -11 36.7065 6.28594   1
   2  -5  11 30.8884 5.81149   6
   2  -5  11 37.6006 6.47992   1
   3  -5  11 4.50047 2.77516   6
   3  -5  11 5.23926 2.77450   1
   4  -5  11 22.3885 5.24162   6
   4  -5  11 23.3214 5.03156   1
   5  -5  11 70.2550 8.93747   1
   5  -5  11 70.3319 9.85194   6
   5   4 -11 85.4341 12.4662   4
   5   4 -11 87.6057 10.5480   2
   5   4 -11 83.2734 10.9501   1
   5   4 -11 107.273 14.7078   6
   4   4 -11 136.387 12.6772   6
   4   4 -11 127.449 11.9972   4
   4   4 -11 128.517 11.1553   1
   4   4 -11 126.769 10.6376   2
   3   4 -11 4.72528 2.70250   2
   3   4 -11 1.74900 1.95831   4
   3   4 -11 -1.4814 1.65098   1
   3   4 -11 2.47483 2.66779   6
   2   4 -11 225.502 13.9732   4
   2   4 -11 198.123 13.5243   2
   2   4 -11 199.576 14.8109   6
   2   4 -11 220.448 14.5317   1
  -2  -4  11 223.094 13.8160   1
   1   4 -11 2652.79 106.949   1
   1   4 -11 2702.55 106.122   2
   1   4 -11 2652.36 107.973   6
  -1  -4  11 2568.95 106.983   6
  -1  -4  11 2721.63 106.164   1
   0   4 -11 62.9761 7.74784   2
   0   4 -11 60.7735 8.50285   6
   0   4 -11 60.8892 7.74793   1
   0  -4  11 55.6438 6.92773   1
   0  -4  11 68.8635 8.45529   6
  -1   4 -11 219.340 14.9345   6
  -1   4 -11 225.152 14.3428   1
  -1   4 -11 213.770 13.5732   2
   1  -4  11 224.544 13.8342   1
   1  -4  11 216.232 14.3080   6
  -2   4 -11 62.8601 8.06398   1
  -2   4 -11 56.8498 8.01184   6
  -2   4 -11 56.4830 9.49045   2
   2  -4  11 49.1597 6.58943   1
   2  -4  11 50.7996 7.19234   6
  -3   4 -11 101.603 9.10619   1
   3  -4  11 100.604 8.67978   1
   3  -4  11 97.7453 9.13687   6
   4  -4  11 19.5865 5.05088   6
   4  -4  11 22.3853 4.86191   1
   5  -4  11 13.6469 4.08883   1
   5  -4  11 11.0765 4.26798   6
   6   3 -11 76.1493 12.0565   4
   6   3 -11 111.302 9.11895   1
   6   3 -11 69.3240 8.88828   2
   5   3 -11 104.557 9.57616   1
   5   3 -11 89.6876 10.6703   4
   5   3 -11 114.027 9.37771   2
   4   3 -11 -1.1507 1.48816   1
   4   3 -11 1.15728 2.20517   6
   4   3 -11 -1.0550 1.70066   4
   4   3 -11 -0.4677 1.25481   2
   3   3 -11 21.9061 4.73752   1
   3   3 -11 20.4943 4.63100   4
   3   3 -11 33.0764 6.02046   6
   3   3 -11 28.5683 4.95290   2
   2   3 -11 91.5454 7.63623   2
   2   3 -11 86.6990 8.37181   6
   2   3 -11 96.6079 8.14574   1
  -2  -3  11 85.0779 7.41131   1
  -2  -3  11 84.5276 7.88322   6
   1   3 -11 579.417 28.7830   6
   1   3 -11 608.204 27.6562   2
   1   3 -11 556.298 27.7637   1
  -1  -3  11 586.450 28.2573   6
  -1  -3  11 613.912 27.7315   1
   0   3 -11 87.2696 8.18380   6
   0   3 -11 95.7066 7.67048   2
   0   3 -11 85.6893 7.63235   1
   0  -3  11 90.3054 7.60383   1
   0  -3  11 88.3675 7.84335   6
  -1   3 -11 77.2513 6.74659   2
  -1   3 -11 61.1773 7.29990   1
  -1   3 -11 63.0095 7.86411   6
   1  -3  11 66.3046 6.35813   1
   1  -3  11 62.1333 7.74070   6
  -2   3 -11 51.1069 7.28146   6
  -2   3 -11 69.1285 7.74316   2
  -2   3 -11 62.5246 7.68855   1
   2  -3  11 57.3825 7.16708   1
   2  -3  11 62.7064 8.00292   6
  -3   3 -11 105.566 9.01662   1
   3  -3  11 120.917 9.25898   1
   3  -3  11 115.675 9.76616   6
   4  -3  11 30.2062 5.83501   6
   4  -3  11 24.5399 4.95491   1
   5  -3  11 18.9183 4.61811   1
   5  -3  11 21.4235 5.45060   6
   6   2 -11 41.2442 8.67097   4
   6   2 -11 39.1879 6.04560   2
   6   2 -11 43.3729 6.44058   1
   5   2 -11 98.0614 7.94177   2
   5   2 -11 84.8228 7.96067   1
   5   2 -11 86.8120 9.93851   4
   4   2 -11 27.3217 4.52415   2
   4   2 -11 21.1011 4.23575   1
   4   2 -11 29.1160 5.93885   4
   3   2 -11 2403.68 92.0306   4
   3   2 -11 2205.53 89.8925   1
   3   2 -11 2156.31 90.5765   6
   3   2 -11 2247.70 89.3503   2
   2   2 -11 1061.78 44.7723   1
   2   2 -11 1083.01 44.3045   2
   2   2 -11 1041.79 45.5062   6
  -2  -2  11 1049.36 44.3121   1
  -2  -2  11 1024.23 44.9110   6
   1   2 -11 227.571 13.0609   1
   1   2 -11 216.738 12.4042   2
   1   2 -11 217.238 13.3668   6
  -1  -2  11 228.662 13.3450   6
  -1  -2  11 208.826 12.5810   1
   0   2 -11 -0.0444 1.12022   1
   0   2 -11 -0.6841 0.80908   2
   0   2 -11 1.44073 1.60607   6
   0  -2  11 -0.4125 1.06480   6
   0  -2  11 -0.6565 0.96246   1
  -1   2 -11 166.241 11.0019   1
  -1   2 -11 166.726 11.5711   6
  -1   2 -11 170.075 10.6756   2
   1  -2  11 178.337 11.8221   6
   1  -2  11 184.664 11.2782   1
  -2   2 -11 261.694 15.4648   6
  -2   2 -11 260.398 14.3371   2
  -2   2 -11 239.794 14.5518   1
   2  -2  11 253.604 14.6695   1
   2  -2  11 259.722 15.6263   6
  -3   2 -11 60.4292 7.91957   1
   3  -2  11 47.7108 6.43056   1
   3  -2  11 57.5903 7.59664   6
   4  -2  11 4.10313 2.51194   1
   4  -2  11 0.91918 2.07352   6
   5  -2  11 3.37948 2.45167   1
   5  -2  11 1.65579 2.51906   6
   7   1 -11 92.2088 7.70640   1
   7   1 -11 66.4973 7.70097   2
   7   1 -11 67.6308 11.5634   4
   7   1 -11 99.6299 8.24092   6
   6   1 -11 65.7671 10.3878   4
   6   1 -11 55.7858 7.38170   6
   6   1 -11 49.8034 6.17664   2
   5   1 -11 611.688 32.2739   4
   5   1 -11 630.509 27.9427   2
   5   1 -11 606.219 28.2648   1
   5   1 -11 623.522 28.8561   6
   4   1 -11 738.373 33.6415   1
   4   1 -11 823.132 37.1670   4
   4   1 -11 773.534 33.3012   2
   4   1 -11 796.267 34.3029   6
  -4  -1  11 738.760 33.6377   5
   3   1 -11 89.2404 7.13354   1
   3   1 -11 102.928 8.64199   4
   3   1 -11 107.270 7.34745   2
   3   1 -11 100.440 7.90462   6
  -3  -1  11 104.237 7.29191   1
   2   1 -11 0.07185 1.28226   6
   2   1 -11 3.66854 1.83227   1
   2   1 -11 0.16805 1.14268   2
  -2  -1  11 0.79505 1.19065   1
  -2  -1  11 0.40328 1.21899   6
   1   1 -11 77.2182 6.83313   6
   1   1 -11 79.5579 6.46073   1
   1   1 -11 83.6382 6.36652   2
  -1  -1  11 84.9189 6.62229   1
  -1  -1  11 71.4746 6.58984   6
   0   1 -11 1.87372 1.52810   1
   0   1 -11 2.68312 1.86833   6
   0   1 -11 2.47046 1.41134   2
   0  -1  11 5.14978 1.95820   1
   0  -1  11 0.63507 1.32503   6
  -1   1 -11 338.021 16.5744   2
  -1   1 -11 296.867 17.0236   6
  -1   1 -11 318.722 16.7072   1
   1  -1  11 336.887 17.7948   6
   1  -1  11 296.344 16.5278   1
  -2   1 -11 28.6364 4.78353   1
  -2   1 -11 23.6395 4.52048   6
   2  -1  11 23.0749 4.77258   6
   2  -1  11 24.5608 4.49537   1
   3  -1  11 18.9650 4.59860   6
   3  -1  11 22.4385 4.48327   1
   4  -1  11 110.879 9.63252   1
   4  -1  11 131.443 11.0418   6
   7   0 -11 134.317 9.30947   1
   7   0 -11 136.976 13.4939   4
   7   0 -11 126.741 9.66760   6
   7   0 -11 138.292 8.99873   2
   6   0 -11 208.362 15.8805   4
   6   0 -11 203.114 11.3480   2
   6   0 -11 195.988 11.6036   1
   6   0 -11 198.028 11.9159   6
   5   0 -11 122.364 8.07886   1
   5   0 -11 106.784 7.51919   2
   5   0 -11 119.759 10.7686   4
   5   0 -11 128.372 8.15306   6
   4   0 -11 35.6616 4.38885   2
   4   0 -11 32.9432 5.73263   4
   4   0 -11 31.3960 4.27382   1
  -4   0  11 31.1888 4.09552   5
  -4   0  11 34.3133 3.69604   3
   3   0 -11 175.997 10.5567   1
   3   0 -11 188.657 11.1840   6
   3   0 -11 194.460 10.4964   2
  -3   0  11 187.773 11.0947   6
  -3   0  11 180.098 10.3155   1
   2   0 -11 11.0535 2.83845   6
   2   0 -11 10.6758 2.70267   1
   2   0 -11 9.23507 2.31763   2
  -2   0  11 8.63720 2.45380   6
  -2   0  11 7.73146 2.22174   1
   1   0 -11 198.000 11.1223   2
   1   0 -11 202.487 12.1289   6
   1   0 -11 195.066 11.4941   1
  -1   0  11 211.244 11.7645   1
  -1   0  11 195.274 11.9898   6
   0   0 -11 14.5187 3.03995   1
   0   0 -11 16.8127 3.00840   2
   0   0 -11 16.3960 3.68441   6
   0   0  11 16.9197 3.28510   1
   0   0  11 8.86001 2.88411   6
  -1   0 -11 15.3496 3.59594   6
  -1   0 -11 15.2859 3.44434   1
  -1   0 -11 15.8244 3.54794   2
   1   0  11 22.3627 4.07131   1
   1   0  11 13.4132 3.63867   6
  -2   0 -11 0.98773 1.58655   6
  -2   0 -11 4.13367 2.20289   1
   2   0  11 2.30830 1.96419   6
   2   0  11 2.58277 2.02357   1
   3   0  11 105.357 9.04078   1
   3   0  11 102.406 9.64697   6
   4   0  11 96.2157 10.5648   1
   4   0  11 84.6151 10.6297   6
   8  -1 -11 -0.6300 1.14799   2
   8  -1 -11 -0.4355 1.32907   1
   8  -1 -11 4.99707 2.23722   6
   8  -1 -11 0.61639 2.81625   4
   7  -1 -11 121.712 8.31141   6
   7  -1 -11 116.001 7.78146   1
   7  -1 -11 111.168 7.37158   2
   7  -1 -11 108.417 11.5421   4
   6  -1 -11 11.3852 2.47927   2
   6  -1 -11 16.7129 3.25228   6
   6  -1 -11 12.9004 2.73952   1
   6  -1 -11 15.6156 4.61579   4
   5  -1 -11 45.3121 4.28844   1
   5  -1 -11 42.0814 6.90543   4
   5  -1 -11 64.4120 4.72101   6
   5  -1 -11 37.7311 4.42155   2
  -5   1  11 47.6179 4.45300   3
   4  -1 -11 77.8020 5.70991   2
   4  -1 -11 75.7788 5.85457   1
  -4   1  11 73.4759 4.72210   5
   3  -1 -11 637.538 28.9286   6
   3  -1 -11 670.135 28.2133   2
   3  -1 -11 663.501 28.6391   1
  -3   1  11 638.306 27.9353   1
  -3   1  11 651.954 28.7402   6
   2  -1 -11 0.25623 0.96875   6
   2  -1 -11 -0.1709 0.98224   1
   2  -1 -11 -0.4295 0.84235   2
  -2   1  11 0.61722 1.13258   1
  -2   1  11 -0.1424 0.90035   6
   1  -1 -11 398.057 19.4796   2
   1  -1 -11 418.838 20.6389   6
   1  -1 -11 414.110 20.1031   1
  -1   1  11 413.999 20.0130   1
  -1   1  11 419.850 20.8755   6
   0  -1 -11 162.277 10.1688   1
   0  -1 -11 149.591 9.54707   2
   0  -1 -11 145.540 10.2350   6
   0   1  11 148.449 10.0130   1
   0   1  11 151.196 10.7761   6
  -1  -1 -11 284.716 16.4813   6
  -1  -1 -11 295.217 16.0421   1
  -1  -1 -11 301.725 15.6954   2
   1   1  11 286.568 16.4119   1
   1   1  11 309.144 17.5177   6
  -2  -1 -11 221.951 14.3473   6
  -2  -1 -11 229.093 13.8641   1
   2   1  11 240.283 14.7764   1
   2   1  11 245.143 15.6215   6
   3   1  11 41.5997 6.68168   1
   3   1  11 25.8864 5.93903   5
   3   1  11 31.9803 6.39814   6
   4   1  11 3.38131 3.08382   6
   4   1  11 4.54778 2.94396   1
   8  -2 -11 17.4460 5.81960   4
   8  -2 -11 13.9473 2.83162   1
   8  -2 -11 15.4805 2.91014   2
   8  -2 -11 17.8676 3.50567   6
   7  -2 -11 14.2876 2.76171   1
   7  -2 -11 12.8610 2.83106   6
   7  -2 -11 12.4146 4.69037   4
   7  -2 -11 12.8464 2.59308   2
   6  -2 -11 200.477 10.9661   6
   6  -2 -11 175.285 10.2880   1
   6  -2 -11 207.791 14.4198   4
   6  -2 -11 197.094 10.2729   2
  -6   2  11 178.028 11.2465   3
   5  -2 -11 29.9135 3.94602   2
   5  -2 -11 33.0684 4.04529   1
   5  -2 -11 51.5091 4.15552   6
   4  -2 -11 51.6605 4.64359   2
   4  -2 -11 50.9882 4.81858   1
   3  -2 -11 64.2466 5.57100   1
   3  -2 -11 49.1610 6.13341   6
   3  -2 -11 64.3431 5.26172   2
  -3   2  11 68.9319 5.32831   1
   2  -2 -11 630.639 29.0443   6
   2  -2 -11 659.206 28.5759   1
   2  -2 -11 634.550 27.8066   2
  -2   2  11 601.084 28.6594   6
  -2   2  11 632.257 28.0651   1
   1  -2 -11 1514.61 63.6899   6
   1  -2 -11 1642.98 63.3207   1
   1  -2 -11 1524.27 62.3213   2
  -1   2  11 1519.02 61.8653   5
  -1   2  11 1523.87 63.0153   1
  -1   2  11 1552.32 64.0485   6
   0  -2 -11 1021.25 44.5110   1
   0  -2 -11 1008.48 45.3098   6
   0  -2 -11 1088.21 44.1764   2
   0   2  11 1045.87 44.7269   5
   0   2  11 1041.66 45.9048   6
   0   2  11 1061.12 45.1593   1
  -1  -2 -11 384.586 19.7529   1
  -1  -2 -11 365.784 20.0235   2
  -1  -2 -11 380.635 20.5300   6
   1   2  11 392.783 21.5083   6
   1   2  11 369.149 20.2314   1
   1   2  11 379.111 20.7913   5
  -2  -2 -11 9.26077 3.36167   1
   2   2  11 10.0667 3.75828   5
   2   2  11 11.8218 4.11378   6
   2   2  11 14.8746 4.44195   1
   3   2  11 144.258 12.1243   1
   3   2  11 161.705 13.4009   6
   3   2  11 157.140 13.4533   5
   8  -3 -11 557.776 24.4278   1
   8  -3 -11 590.096 31.6798   4
   8  -3 -11 567.098 24.0405   2
   8  -3 -11 543.171 24.7653   6
   7  -3 -11 -0.6741 1.19375   2
   7  -3 -11 1.21897 1.12184   1
   7  -3 -11 3.38357 1.48592   6
   7  -3 -11 2.56324 2.35314   4
  -7   3  11 5.22114 2.43968   3
   6  -3 -11 173.274 12.8175   4
   6  -3 -11 197.935 9.80693   2
   6  -3 -11 154.138 9.56677   1
   6  -3 -11 163.638 9.94737   6
  -6   3  11 163.446 11.3463   3
   5  -3 -11 559.639 25.4100   1
   5  -3 -11 603.005 25.9260   6
   5  -3 -11 550.959 24.9240   2
   4  -3 -11 19.1474 3.77802   6
   4  -3 -11 19.4255 3.37366   2
   4  -3 -11 23.2567 3.80259   1
   3  -3 -11 164.307 10.7014   6
   3  -3 -11 150.840 9.98736   1
   3  -3 -11 166.528 9.93320   2
  -3   3  11 168.279 9.78107   1
   2  -3 -11 93.3591 7.04811   2
   2  -3 -11 85.2392 7.55964   6
   2  -3 -11 85.8458 7.21505   1
  -2   3  11 86.9829 5.51630   5
  -2   3  11 80.5246 7.39434   6
  -2   3  11 88.7188 7.13635   1
   1  -3 -11 3743.48 141.982   2
   1  -3 -11 3648.47 143.270   6
   1  -3 -11 3638.30 142.494   1
  -1   3  11 3603.86 140.932   5
  -1   3  11 3643.55 142.617   1
  -1   3  11 3710.50 143.874   6
   0  -3 -11 55.1532 7.40819   6
   0  -3 -11 53.6673 6.52534   2
   0  -3 -11 59.1127 7.23404   1
   0   3  11 48.1566 7.05511   6
   0   3  11 55.4026 7.53653   1
   0   3  11 57.3384 6.85786   5
  -1  -3 -11 75.2289 9.03514   6
  -1  -3 -11 67.2769 8.05869   1
   1   3  11 67.5580 8.38642   1
   1   3  11 71.8759 9.50358   6
   1   3  11 77.1727 9.03293   5
   2   3  11 167.103 13.8071   6
   2   3  11 171.050 13.4654   5
   2   3  11 167.105 13.0136   1
   8  -4 -11 7.72987 3.98407   4
   8  -4 -11 3.16234 1.92006   6
   8  -4 -11 13.8992 2.45306   2
   8  -4 -11 5.40268 1.98437   1
  -8   4  11 9.77706 3.72327   3
   7  -4 -11 97.5549 6.52093   2
   7  -4 -11 97.2657 6.90246   6
   7  -4 -11 87.4114 6.60177   1
  -7   4  11 98.9538 8.94090   3
   6  -4 -11 68.3284 5.71831   2
   6  -4 -11 79.8490 5.59774   1
   6  -4 -11 94.1934 6.08051   6
   5  -4 -11 1.53640 1.44327   2
   5  -4 -11 0.46163 1.25924   1
   4  -4 -11 2.01671 1.60206   2
   4  -4 -11 3.03841 2.05296   6
   4  -4 -11 1.95071 1.67154   1
   3  -4 -11 95.6376 7.31215   2
   3  -4 -11 90.9482 7.96441   6
   3  -4 -11 83.3745 7.29154   1
   2  -4 -11 0.68657 1.70040   1
   2  -4 -11 0.48855 1.58506   6
   2  -4 -11 -0.1655 1.50130   2
  -2   4  11 0.73242 2.25055   6
  -2   4  11 -0.5899 1.53824   1
   1  -4 -11 21.4185 4.19743   2
   1  -4 -11 21.2469 4.35272   1
   1  -4 -11 28.8865 5.56198   6
  -1   4  11 25.1025 5.02967   1
  -1   4  11 15.9694 3.48783   5
  -1   4  11 26.9072 5.21107   6
   0  -4 -11 73.2362 8.21976   1
   0  -4 -11 68.8776 8.55353   6
   0  -4 -11 69.8242 8.77193   2
   0   4  11 68.1935 6.81193   5
   0   4  11 67.5545 8.51090   1
   0   4  11 65.8563 9.05646   6
  -1  -4 -11 83.5086 9.51847   1
   1   4  11 87.2882 10.1364   5
   1   4  11 67.6416 8.94550   1
   1   4  11 76.5335 10.6606   6
   8  -5 -11 11.3325 3.07470   6
   8  -5 -11 9.14274 2.56348   1
   8  -5 -11 9.26623 2.22245   2
  -8   5  11 12.2839 4.24491   3
   7  -5 -11 34.6855 4.62518   2
   7  -5 -11 37.2237 5.02926   1
  -7   5  11 35.7694 6.62475   3
   6  -5 -11 49.5514 5.92155   1
   6  -5 -11 53.4542 5.79302   2
   5  -5 -11 2.04872 1.57692   2
   5  -5 -11 1.76200 1.55996   1
   4  -5 -11 235.435 14.1442   1
   4  -5 -11 236.126 13.6970   2
   4  -5 -11 255.873 15.2173   6
   3  -5 -11 326.806 17.8440   1
   3  -5 -11 322.344 17.2261   2
   3  -5 -11 308.721 18.2717   6
   2  -5 -11 38.3275 6.06036   1
   2  -5 -11 30.6393 5.86560   6
   2  -5 -11 29.2870 4.91898   2
   1  -5 -11 45.5528 6.55114   2
   1  -5 -11 43.2343 6.59536   1
   1  -5 -11 48.7488 7.72365   6
  -1   5  11 44.5082 6.82506   1
  -1   5  11 43.7799 8.16234   6
   0  -5 -11 11.6947 4.00794   6
   0  -5 -11 8.54156 3.26227   1
   0   5  11 9.40080 4.32658   6
   0   5  11 13.3264 4.30940   1
   7  -6 -11 2.09960 1.32292   2
   7  -6 -11 1.93713 1.41785   1
   6  -6 -11 133.654 9.71558   1
   6  -6 -11 131.900 9.27032   2
   5  -6 -11 189.584 12.6873   6
   5  -6 -11 165.421 11.5359   1
   5  -6 -11 156.217 10.8780   2
   4  -6 -11 16.5580 3.91702   2
   4  -6 -11 18.0270 4.75444   6
   4  -6 -11 13.9954 3.95918   1
   3  -6 -11 37.9507 6.31357   1
   3  -6 -11 41.9975 6.12801   2
   3  -6 -11 35.0379 6.36527   6
   2  -6 -11 7.97982 3.56291   6
   2  -6 -11 12.5028 4.14039   1
   2  -6 -11 9.29211 3.27038   2
   1  -6 -11 18.8287 4.90902   6
   1  -6 -11 18.7017 4.92988   1
   6  -7 -11 4.54910 2.45330   1
   6  -7 -11 4.54331 2.28358   2
   5  -7 -11 33.9015 6.08304   1
   5  -7 -11 33.4025 6.55360   6
   5  -7 -11 20.5795 4.60933   2
   4  -7 -11 3.12253 2.75844   6
   4  -7 -11 1.96021 2.28202   1
   4  -7 -11 6.76444 3.02634   2
   3  -7 -11 577.599 30.9676   6
   3  -7 -11 577.950 29.8726   1
   3  -7 -11 595.928 29.2716   2
   1   7 -12 102.674 13.2545   1
   1   7 -12 102.470 12.6902   2
   1   7 -12 89.6560 13.1144   6
   0   7 -12 10.6393 4.70386   1
   0   7 -12 10.7913 5.03046   6
   0  -7  12 12.6394 7.15543   1
  -1   7 -12 0.69551 2.73787   6
  -1   7 -12 4.46311 3.20654   1
   1  -7  12 6.18966 3.35867   1
   1  -7  12 0.54904 2.86165   6
  -2   7 -12 42.5459 10.0662   1
   2  -7  12 66.1818 9.51634   1
   2  -7  12 45.7705 8.42249   6
   3  -7  12 35.9017 7.46533   6
   3  -7  12 23.3482 5.86298   1
   3   6 -12 1.65386 3.24606   6
   3   6 -12 2.00180 2.03062   4
   3   6 -12 -2.5808 2.27407   1
   3   6 -12 -0.4278 2.31842   2
   2   6 -12 -0.1440 1.68669   4
   2   6 -12 3.50005 2.80099   2
   2   6 -12 0.12413 2.30498   1
   2   6 -12 3.49095 3.47018   6
   1   6 -12 23.7313 6.58423   6
   1   6 -12 23.2008 5.99567   1
   1   6 -12 27.0289 6.34312   2
   0   6 -12 -0.3951 2.15331   1
   0   6 -12 1.20579 2.43400   6
   0   6 -12 2.55064 2.38729   2
   0  -6  12 0.54485 1.99145   1
   0  -6  12 -0.2682 2.23582   6
  -1   6 -12 140.204 12.1207   1
  -1   6 -12 129.518 12.5772   6
   1  -6  12 114.327 11.4618   6
   1  -6  12 116.130 10.7730   1
  -2   6 -12 19.5695 5.53346   1
  -2   6 -12 21.2722 6.54008   6
   2  -6  12 30.6308 6.40238   6
   2  -6  12 27.1848 5.77726   1
   3  -6  12 43.1729 7.96172   6
   3  -6  12 41.4996 7.15674   1
   4  -6  12 4.07285 3.07907   1
   4  -6  12 6.63060 3.35536   6
   4   5 -12 2.74362 4.32111   6
   4   5 -12 3.46219 3.13149   4
   4   5 -12 4.71708 3.37884   2
   4   5 -12 2.41526 3.07699   1
   3   5 -12 127.408 15.4095   6
   3   5 -12 121.718 12.7668   2
   3   5 -12 111.263 13.1688   1
   3   5 -12 121.465 10.7923   4
   2   5 -12 36.7390 6.17989   4
   2   5 -12 32.6290 6.31230   2
   2   5 -12 40.4969 7.93117   6
   2   5 -12 31.0645 6.51383   1
   1   5 -12 187.101 13.6130   2
   1   5 -12 185.755 14.0522   1
   1   5 -12 189.331 15.0283   6
  -1  -5  12 186.414 13.4800   1
   0   5 -12 207.808 15.5967   6
   0   5 -12 225.058 14.5439   2
   0   5 -12 200.133 14.5952   1
   0  -5  12 203.033 14.8608   6
   0  -5  12 189.989 13.8623   1
  -1   5 -12 88.6581 11.6433   6
  -1   5 -12 98.7156 10.7555   2
  -1   5 -12 99.7247 11.4548   1
   1  -5  12 83.5971 10.3358   6
   1  -5  12 90.8083 8.70661   1
  -2   5 -12 -1.8068 1.52322   1
  -2   5 -12 0.32920 2.25956   6
   2  -5  12 -1.4799 1.22845   6
   2  -5  12 0.04735 1.77136   1
   3  -5  12 1.39414 2.33549   6
   3  -5  12 -0.0336 1.96549   1
   4  -5  12 46.8966 7.21691   1
   4  -5  12 62.1484 9.10771   6
   5   4 -12 20.0579 5.05087   2
   5   4 -12 28.1759 8.61324   6
   5   4 -12 12.3295 4.98834   1
   5   4 -12 18.7275 5.93989   4
   4   4 -12 6.31688 3.40239   4
   4   4 -12 7.33565 3.50158   1
   4   4 -12 4.52872 2.93197   2
   4   4 -12 10.3081 4.66375   6
   3   4 -12 85.9496 10.3562   1
   3   4 -12 102.741 10.6883   2
   3   4 -12 105.978 9.71913   4
   3   4 -12 93.2506 11.4835   6
   2   4 -12 199.227 13.4821   2
   2   4 -12 186.474 13.8153   1
   2   4 -12 212.021 15.1074   6
   1   4 -12 390.894 22.1499   6
   1   4 -12 359.750 20.1171   2
   1   4 -12 355.937 20.7826   1
  -1  -4  12 364.934 21.0404   6
  -1  -4  12 377.118 20.4661   1
   0   4 -12 1.26971 2.18932   1
   0   4 -12 3.15968 2.13538   2
   0   4 -12 1.59264 2.18620   6
   0  -4  12 0.92898 1.87237   1
   0  -4  12 0.92299 1.86117   6
  -1   4 -12 304.060 16.9227   2
  -1   4 -12 270.877 17.7413   6
  -1   4 -12 267.242 16.8820   1
   1  -4  12 258.497 16.9083   6
   1  -4  12 300.726 17.0290   1
  -2   4 -12 145.044 11.3618   1
  -2   4 -12 147.751 11.9959   6
   2  -4  12 146.390 10.8699   1
   2  -4  12 138.897 11.4323   6
   3  -4  12 49.5537 7.54831   6
   3  -4  12 50.2629 7.12025   1
   4  -4  12 8.56879 3.38730   1
   4  -4  12 8.15904 3.74178   6
   5   3 -12 13.4867 4.52296   1
   5   3 -12 24.2044 5.20439   2
   5   3 -12 17.7823 5.69171   4
   4   3 -12 8.85173 3.23517   2
   4   3 -12 7.51929 3.60377   6
   4   3 -12 10.7585 4.17599   4
   4   3 -12 8.20134 3.42885   1
   3   3 -12 439.130 22.4082   2
   3   3 -12 473.367 24.0288   4
   3   3 -12 412.386 23.5955   6
   3   3 -12 400.641 22.6121   1
   2   3 -12 2.50811 2.20020   6
   2   3 -12 8.75058 3.00025   2
   2   3 -12 2.36475 1.96921   1
  -2  -3  12 6.59436 2.51110   1
   1   3 -12 525.107 26.4991   1
   1   3 -12 573.173 27.8396   6
   1   3 -12 534.217 26.0269   2
  -1  -3  12 534.900 26.7815   6
  -1  -3  12 529.078 26.0543   1
   0   3 -12 347.663 18.4582   2
   0   3 -12 333.415 19.5115   6
   0   3 -12 348.353 19.0325   1
   0  -3  12 346.980 19.2001   6
   0  -3  12 331.315 18.3977   1
  -1   3 -12 116.702 9.78144   6
  -1   3 -12 103.225 8.85802   1
  -1   3 -12 108.610 8.64738   2
   1  -3  12 88.1374 8.66221   6
   1  -3  12 98.7834 8.35821   1
  -2   3 -12 294.475 18.0568   6
  -2   3 -12 320.222 17.7583   1
   2  -3  12 287.849 16.9283   1
   2  -3  12 288.069 17.7148   6
   3  -3  12 163.982 11.7955   1
   3  -3  12 167.977 12.6838   6
   4  -3  12 32.2138 6.41329   6
   4  -3  12 32.7985 5.80947   1
   6   2 -12 276.253 17.0257   1
   6   2 -12 273.651 20.2335   4
   6   2 -12 283.108 16.5178   2
   5   2 -12 21.1761 5.85456   4
   5   2 -12 25.3127 4.74184   2
   5   2 -12 19.7254 4.36851   1
   4   2 -12 39.0065 5.96906   1
   4   2 -12 43.5570 7.36469   4
   4   2 -12 38.5258 6.45471   6
   4   2 -12 35.5076 5.55534   2
   3   2 -12 3177.33 114.861   4
   3   2 -12 2797.78 113.301   6
   3   2 -12 2729.14 112.247   1
   3   2 -12 2660.92 111.451   2
   2   2 -12 49.6114 6.08723   2
   2   2 -12 43.3763 6.60782   6
   2   2 -12 42.5037 5.89853   1
  -2  -2  12 46.4691 5.72591   1
  -2  -2  12 36.8964 5.61323   6
   1   2 -12 25.6522 4.84590   6
   1   2 -12 32.0094 4.93011   2
   1   2 -12 20.5663 4.07218   1
  -1  -2  12 30.7076 5.01950   1
  -1  -2  12 30.8975 5.29847   6
   0   2 -12 83.0412 9.28151   6
   0   2 -12 63.9463 7.20272   2
   0   2 -12 61.5624 7.20184   1
   0  -2  12 57.4314 7.22623   6
   0  -2  12 67.8568 7.52815   1
  -1   2 -12 516.928 24.4969   2
  -1   2 -12 502.266 24.9666   1
  -1   2 -12 505.322 25.7613   6
   1  -2  12 513.503 24.8743   1
   1  -2  12 514.408 25.8971   6
  -2   2 -12 4.36700 2.60283   6
  -2   2 -12 2.36451 1.92523   1
   2  -2  12 3.94040 2.55383   6
   2  -2  12 5.92785 2.67949   1
   3  -2  12 10.7079 3.69220   6
   3  -2  12 14.9257 3.98461   1
   4  -2  12 68.3153 9.35838   6
   4  -2  12 55.8863 7.80024   1
   7   1 -12 14.6376 4.00443   1
   7   1 -12 8.13909 2.93134   2
   7   1 -12 13.7735 5.24083   4
   6   1 -12 0.65462 1.54225   2
   6   1 -12 1.25696 2.50616   4
   4   1 -12 520.008 25.5898   6
   4   1 -12 508.271 24.8474   1
   4   1 -12 510.926 24.3169   2
   4   1 -12 566.312 27.8765   4
   3   1 -12 36.6681 5.11434   2
   3   1 -12 32.2106 5.24392   6
   3   1 -12 38.6718 5.49234   1
   2   1 -12 1.51202 1.64942   1
   2   1 -12 3.11433 1.66985   2
   2   1 -12 3.32799 2.06134   6
  -2  -1  12 4.37376 1.99315   1
  -2  -1  12 3.85333 2.01429   6
   1   1 -12 35.7998 5.52763   6
   1   1 -12 31.9465 4.78951   1
   1   1 -12 37.3664 5.07599   2
  -1  -1  12 38.2856 5.34650   1
  -1  -1  12 32.3974 5.25884   6
   0   1 -12 19.6504 4.05071   1
   0   1 -12 8.86858 2.99744   6
   0   1 -12 11.5550 2.96108   2
   0  -1  12 12.9523 3.62705   6
   0  -1  12 12.8400 3.16114   1
  -1   1 -12 6.26904 2.74612   6
  -1   1 -12 11.5353 3.34738   1
  -1   1 -12 4.88758 2.17427   2
   1  -1  12 8.84749 3.21902   6
   1  -1  12 4.39338 2.14446   1
  -2   1 -12 3.11223 2.08498   1
  -2   1 -12 2.95724 1.98002   6
   2  -1  12 1.63573 2.12383   6
   2  -1  12 1.41549 1.79688   1
   3  -1  12 7.41073 3.35461   6
   3  -1  12 12.5131 3.83202   1
   4  -1  12 38.1826 7.19316   6
   4  -1  12 13.9055 4.08046   1
   7   0 -12 30.6216 7.39725   4
   7   0 -12 29.7357 5.41253   6
   7   0 -12 34.9953 5.36342   1
   7   0 -12 25.0982 4.28571   2
   6   0 -12 279.479 13.6210   1
   6   0 -12 223.698 13.0716   2
   6   0 -12 245.977 14.3655   6
   6   0 -12 227.946 17.2032   4
   5   0 -12 753.054 33.6808   6
   5   0 -12 771.165 33.3729   1
   5   0 -12 735.583 32.7412   2
   5   0 -12 778.404 37.2585   4
   4   0 -12 349.956 17.2283   6
   4   0 -12 302.458 16.1096   2
   4   0 -12 329.286 16.7501   1
   3   0 -12 81.7569 6.61896   1
   3   0 -12 78.9857 6.92069   6
   3   0 -12 80.6267 6.36600   2
   2   0 -12 62.4430 5.60745   2
   2   0 -12 65.0861 5.86893   1
   2   0 -12 77.2778 6.73275   6
  -2   0  12 66.0208 5.85164   1
  -2   0  12 49.0906 6.23559   6
   1   0 -12 9.11518 2.76040   1
   1   0 -12 12.1650 3.02901   2
   1   0 -12 9.95631 3.03382   6
  -1   0  12 10.9002 3.13338   6
  -1   0  12 18.1179 3.82839   1
   0   0 -12 83.3833 7.19517   1
   0   0 -12 84.5487 7.04829   2
   0   0 -12 87.3463 7.78778   6
   0   0  12 95.0452 7.66123   1
   0   0  12 99.6825 8.28888   6
  -1   0 -12 227.327 12.7457   2
  -1   0 -12 193.370 12.5559   1
  -1   0 -12 208.123 13.4224   6
   1   0  12 209.700 13.8157   6
   1   0  12 207.874 13.0786   1
  -2   0 -12 2.50613 2.07743   6
  -2   0 -12 0.58824 1.55451   1
   2   0  12 -1.4336 1.47490   1
   2   0  12 2.30361 2.22391   6
   3   0  12 12.0764 4.17560   6
   3   0  12 19.8744 4.71753   1
   7  -1 -12 106.102 7.25073   2
   7  -1 -12 92.0978 10.5098   4
   7  -1 -12 104.787 7.77997   6
   7  -1 -12 85.9772 7.04418   1
   6  -1 -12 70.2127 5.54657   6
   6  -1 -12 48.6734 4.71260   1
   6  -1 -12 47.8702 5.36636   2
   6  -1 -12 60.0831 9.21363   4
   5  -1 -12 66.2739 5.69950   2
   5  -1 -12 85.9011 6.23621   6
   5  -1 -12 83.4707 8.43996   4
   5  -1 -12 73.4499 6.10347   1
  -5   1  12 71.7541 5.82840   3
   4  -1 -12 68.0630 5.64743   2
   4  -1 -12 67.8203 5.90153   1
   4  -1 -12 75.8604 6.23871   6
   3  -1 -12 61.3320 5.40762   2
   3  -1 -12 58.2611 5.86547   6
   3  -1 -12 56.5078 5.43216   1
  -3   1  12 78.2384 9.18964   1
   2  -1 -12 321.166 16.1103   2
   2  -1 -12 315.452 16.8868   6
   2  -1 -12 315.241 16.4863   1
  -2   1  12 309.787 16.1020   1
  -2   1  12 307.383 16.7279   6
   1  -1 -12 370.109 19.0653   1
   1  -1 -12 374.077 19.5328   6
   1  -1 -12 349.221 18.3165   2
  -1   1  12 383.608 19.9676   6
  -1   1  12 393.952 19.1434   1
   0  -1 -12 806.953 38.5767   6
   0  -1 -12 890.412 38.3447   1
   0  -1 -12 905.812 37.8816   2
   0   1  12 843.849 39.3695   6
   0   1  12 912.131 38.7415   1
  -1  -1 -12 46.1288 6.73634   2
  -1  -1 -12 47.7393 6.65684   6
  -1  -1 -12 50.8124 6.70885   1
   1   1  12 35.8878 5.99740   1
   1   1  12 40.4176 6.37199   6
  -2  -1 -12 6.28123 2.66260   1
   2   1  12 6.28504 3.05648   1
   2   1  12 6.12755 3.41940   6
   2   1  12 5.51750 2.69431   5
   3   1  12 317.301 20.3476   6
   3   1  12 332.462 19.7314   1
   3   1  12 334.444 21.5453   5
   8  -2 -12 11.0232 3.16851   6
   8  -2 -12 15.9584 3.31645   1
   8  -2 -12 9.35841 4.41212   4
   8  -2 -12 12.9938 2.71013   2
   7  -2 -12 0.89369 1.75201   2
   7  -2 -12 7.94200 2.36321   6
   7  -2 -12 7.92976 4.12894   4
   7  -2 -12 8.28638 2.34821   1
   6  -2 -12 8.06478 2.36936   2
   6  -2 -12 7.91206 3.49831   4
   6  -2 -12 14.5173 2.99614   6
  -6   2  12 10.8707 2.84350   3
   5  -2 -12 123.444 8.30791   2
   5  -2 -12 164.456 8.67004   6
   5  -2 -12 119.839 8.51387   1
   4  -2 -12 127.618 8.59823   1
   4  -2 -12 133.913 8.41105   2
   4  -2 -12 122.252 8.96419   6
   3  -2 -12 399.497 19.6623   6
   3  -2 -12 359.541 18.5652   1
   3  -2 -12 359.004 18.0078   2
   2  -2 -12 1327.29 55.5461   1
   2  -2 -12 1310.23 56.2856   6
   2  -2 -12 1372.06 55.0065   2
  -2   2  12 1347.32 55.1575   1
  -2   2  12 1351.71 56.2725   6
   1  -2 -12 831.610 37.8779   6
   1  -2 -12 822.049 36.3648   2
   1  -2 -12 866.664 37.2128   1
  -1   2  12 836.001 36.0325   5
  -1   2  12 863.373 38.2916   6
  -1   2  12 818.292 37.0032   1
   0  -2 -12 -1.0161 1.03573   2
   0  -2 -12 1.74445 1.68148   6
   0  -2 -12 0.17782 1.62068   1
   0   2  12 0.61793 1.42118   1
   0   2  12 0.27682 1.36879   5
   0   2  12 0.50541 1.60704   6
  -1  -2 -12 78.2254 9.06324   6
  -1  -2 -12 73.1567 8.21355   1
   1   2  12 67.0684 8.52019   1
   1   2  12 60.1269 8.33331   6
   1   2  12 72.0015 8.82376   5
   2   2  12 8.50098 3.65222   1
   2   2  12 6.00557 3.38508   6
   2   2  12 4.51795 2.71259   5
   8  -3 -12 14.4882 4.94503   4
   8  -3 -12 13.1567 2.93344   1
   8  -3 -12 14.8424 2.96622   2
   8  -3 -12 12.3717 3.04959   6
   7  -3 -12 -0.0037 1.26088   1
   7  -3 -12 1.40642 1.25204   2
   7  -3 -12 -1.7742 1.83419   4
  -7   3  12 -0.0794 1.36493   3
   6  -3 -12 81.1332 6.37463   2
   6  -3 -12 110.891 6.65550   1
   6  -3 -12 108.795 6.99389   6
  -6   3  12 80.0401 7.63752   3
   5  -3 -12 311.421 16.8942   1
   5  -3 -12 315.264 16.4698   2
   5  -3 -12 392.356 17.5878   6
   4  -3 -12 417.815 19.4797   2
   4  -3 -12 385.934 19.7124   1
   4  -3 -12 402.195 20.5429   6
   3  -3 -12 51.0752 5.81221   2
   3  -3 -12 59.0901 6.61773   1
   3  -3 -12 49.3493 6.48203   6
   2  -3 -12 244.478 14.3373   1
   2  -3 -12 226.077 14.6580   6
   2  -3 -12 263.625 14.0738   2
  -2   3  12 241.927 14.0350   1
   1  -3 -12 246.252 13.8266   2
   1  -3 -12 225.996 14.0666   1
   1  -3 -12 234.303 14.7750   6
  -1   3  12 230.822 12.9859   5
  -1   3  12 222.447 14.6784   6
  -1   3  12 230.611 14.1534   1
   0  -3 -12 153.879 11.0026   1
   0  -3 -12 126.403 9.87943   2
   0  -3 -12 158.871 11.7168   6
   0   3  12 157.694 10.7340   5
   0   3  12 133.168 11.5198   6
   0   3  12 155.232 11.3964   1
  -1  -3 -12 4.56635 2.80286   6
  -1  -3 -12 5.32857 2.67281   1
   1   3  12 3.75136 3.16445   6
   1   3  12 5.92776 2.61277   5
   1   3  12 3.83910 2.69492   1
   2   3  12 536.489 29.8161   5
   2   3  12 564.893 30.8941   6
   2   3  12 575.547 29.7354   1
   8  -4 -12 10.6630 2.63318   1
   8  -4 -12 10.1833 2.87765   6
   8  -4 -12 1.44857 1.87302   2
   8  -4 -12 16.4003 5.22949   4
  -8   4  12 8.25860 3.53988   3
   7  -4 -12 50.5470 5.94256   1
   7  -4 -12 56.4480 5.66939   6
   7  -4 -12 73.5230 5.64241   2
  -7   4  12 50.8823 7.65346   3
   6  -4 -12 96.3076 7.50063   1
   6  -4 -12 83.7750 6.89027   2
   6  -4 -12 130.809 7.74670   6
   5  -4 -12 0.65754 1.40481   2
   5  -4 -12 -0.5351 1.05894   1
   4  -4 -12 41.8854 5.32846   2
   4  -4 -12 35.9728 5.38556   1
   4  -4 -12 43.4252 6.36607   6
   3  -4 -12 1115.37 46.4049   1
   3  -4 -12 1085.52 45.5135   2
   3  -4 -12 1012.33 46.6136   6
   2  -4 -12 44.5554 6.01999   2
   2  -4 -12 41.0456 6.08563   1
   2  -4 -12 46.8320 6.78723   6
   1  -4 -12 6.85973 3.20494   6
   1  -4 -12 4.85336 2.41285   1
   1  -4 -12 5.70779 2.58830   2
  -1   4  12 9.71671 3.48066   1
  -1   4  12 6.20829 3.12941   6
   0  -4 -12 285.426 17.2996   1
   0  -4 -12 308.145 18.4196   6
   0   4  12 273.101 18.4638   6
   0   4  12 278.650 17.6419   1
   1   4  12 204.518 15.0355   1
   1   4  12 208.564 16.0881   6
   7  -5 -12 144.434 9.50784   2
   7  -5 -12 155.081 10.2231   1
   7  -5 -12 178.449 10.3716   6
  -7   5  12 142.312 12.1632   3
   6  -5 -12 40.9790 5.47599   2
   6  -5 -12 44.2592 5.94729   1
   5  -5 -12 99.7560 8.26660   1
   5  -5 -12 104.165 8.04098   2
   5  -5 -12 113.278 9.33340   6
   4  -5 -12 4.48306 2.28331   1
   4  -5 -12 3.24199 2.00790   2
   4  -5 -12 3.07893 2.36688   6
   3  -5 -12 630.041 30.8410   6
   3  -5 -12 616.251 29.9833   1
   3  -5 -12 615.370 29.1900   2
   2  -5 -12 186.471 13.0591   1
   2  -5 -12 189.429 13.7500   6
   2  -5 -12 191.687 12.6497   2
   1  -5 -12 109.950 10.2915   6
   1  -5 -12 103.124 9.13309   2
   1  -5 -12 99.3773 9.32530   1
   0  -5 -12 280.267 18.2551   6
   0  -5 -12 258.820 17.1225   1
   0   5  12 282.177 18.2561   1
   7  -6 -12 96.0527 5.28257   1
   5  -6 -12 1.52182 1.81577   2
   5  -6 -12 1.92572 1.86297   1
   5  -6 -12 0.55156 2.19303   6
   4  -6 -12 14.1205 4.26363   6
   4  -6 -12 18.1513 4.33880   1
   4  -6 -12 16.2803 4.08931   2
   3  -6 -12 153.936 12.7337   6
   3  -6 -12 172.255 12.0458   2
   3  -6 -12 171.306 12.6389   1
   2  -6 -12 20.7350 5.44775   6
   2  -6 -12 19.5191 5.16163   1
   2  -6 -12 19.7321 4.79898   2
   0   7 -13 9.69087 4.90374   6
   0   7 -13 13.9207 5.18953   1
  -1   7 -13 20.2471 6.71253   6
  -1   7 -13 17.4198 5.80436   1
   1  -7  13 24.5027 6.17120   1
   1  -7  13 13.1158 5.59217   6
   2  -7  13 9.42366 4.25823   1
   2  -7  13 8.84320 4.25421   6
   2   6 -13 -0.9607 2.27430   1
   2   6 -13 2.33631 3.57809   6
   2   6 -13 2.90164 2.75292   2
   1   6 -13 525.320 30.1232   1
   1   6 -13 554.188 31.7381   6
   1   6 -13 538.432 29.4569   2
   0   6 -13 51.5386 8.45828   2
   0   6 -13 46.8377 8.87624   6
   0   6 -13 54.4238 9.28390   1
   0  -6  13 55.8198 8.65063   1
  -1   6 -13 28.3416 6.43391   1
  -1   6 -13 33.1301 7.48068   6
   1  -6  13 31.2345 7.14901   6
   1  -6  13 34.6819 6.97950   1
  -2   6 -13 1.77037 2.77343   1
   2  -6  13 0.52946 2.12827   6
   2  -6  13 0.71964 2.46525   1
   3  -6  13 60.7675 9.50330   6
   3  -6  13 45.1944 7.88416   1
   3   5 -13 148.025 12.1481   4
   3   5 -13 137.864 12.2794   2
   3   5 -13 131.233 12.4353   1
   3   5 -13 149.189 14.1737   6
   2   5 -13 371.214 23.6339   6
   2   5 -13 367.013 21.6718   2
   2   5 -13 349.129 22.0862   1
   1   5 -13 96.3481 10.9645   2
   1   5 -13 68.0015 9.52318   1
   1   5 -13 67.5419 10.4002   6
   0   5 -13 50.3314 7.68874   2
   0   5 -13 54.9953 8.42972   1
   0   5 -13 51.6490 9.15060   6
   0  -5  13 53.5385 8.18256   1
   0  -5  13 37.1845 7.14947   6
  -1   5 -13 0.59478 2.04535   1
  -1   5 -13 -0.6464 2.12106   6
   1  -5  13 -0.8620 1.57527   6
   1  -5  13 -0.3900 1.60985   1
  -2   5 -13 197.010 14.7592   1
   2  -5  13 196.791 14.2023   1
   2  -5  13 189.872 14.7096   6
   3  -5  13 220.784 16.2375   6
   3  -5  13 233.579 15.8202   1
   4  -5  13 7.65636 3.86253   6
   4  -5  13 11.8512 3.95759   1
   4   4 -13 143.712 17.0163   6
   4   4 -13 111.084 12.7034   1
   4   4 -13 121.297 11.4762   4
   4   4 -13 104.988 11.7463   2
   3   4 -13 264.692 16.6538   4
   3   4 -13 218.518 15.4474   2
   3   4 -13 224.825 17.0074   6
   3   4 -13 233.398 16.3234   1
   2   4 -13 148.747 12.3337   1
   2   4 -13 160.749 12.1015   2
   2   4 -13 168.711 13.5867   6
   1   4 -13 124.847 10.7230   1
   1   4 -13 107.774 9.70397   2
   1   4 -13 120.882 11.2496   6
  -1  -4  13 124.368 10.3539   1
   0   4 -13 26.1827 5.42883   1
   0   4 -13 31.7409 5.71857   2
   0   4 -13 35.7400 7.21958   6
   0  -4  13 29.8291 5.57895   1
   0  -4  13 20.2747 4.78706   6
  -1   4 -13 274.694 18.4033   6
  -1   4 -13 287.009 17.3951   2
  -1   4 -13 301.763 18.1792   1
   1  -4  13 288.904 17.4753   1
   1  -4  13 286.654 18.1064   6
  -2   4 -13 16.9608 4.83132   6
  -2   4 -13 21.9188 5.04062   1
   2  -4  13 17.2146 4.62931   6
   2  -4  13 23.0817 5.15204   1
   3  -4  13 141.263 11.9579   6
   3  -4  13 129.937 10.9743   1
   4  -4  13 2.88004 2.70470   1
   4  -4  13 4.00379 3.28762   6
   5   3 -13 132.023 15.6268   6
   5   3 -13 99.2416 10.6690   2
   5   3 -13 103.461 11.1020   4
   5   3 -13 95.4495 11.2532   1
   4   3 -13 163.271 12.7094   1
   4   3 -13 173.547 13.6931   6
   4   3 -13 162.167 12.0637   2
   4   3 -13 168.242 13.4896   4
   3   3 -13 794.363 37.2816   1
   3   3 -13 735.425 36.0128   2
   3   3 -13 842.340 38.7707   6
   2   3 -13 3.59821 2.40026   1
   2   3 -13 5.81356 2.88650   2
   2   3 -13 5.66933 3.20587   6
   1   3 -13 261.312 15.9862   1
   1   3 -13 260.210 15.5544   2
   1   3 -13 259.812 16.7724   6
  -1  -3  13 265.499 15.6585   1
  -1  -3  13 245.334 15.9126   6
   0   3 -13 15.6692 4.24050   6
   0   3 -13 21.0312 4.89407   1
   0   3 -13 22.2878 4.57018   2
   0  -3  13 8.83741 3.02970   6
   0  -3  13 18.3804 4.34532   1
  -1   3 -13 406.193 22.6863   6
  -1   3 -13 401.252 21.2086   2
  -1   3 -13 381.989 21.5400   1
   1  -3  13 375.601 21.9272   6
   1  -3  13 415.657 21.4371   1
  -2   3 -13 19.2569 4.65640   1
  -2   3 -13 18.0585 4.87424   6
   2  -3  13 24.5029 5.16153   6
   2  -3  13 21.6258 4.86774   1
   3  -3  13 11.3216 3.69252   1
   3  -3  13 11.6074 4.01501   6
   4  -3  13 0.89249 2.53552   6
   4  -3  13 0.94246 2.17378   1
   5   2 -13 11.0711 3.44986   2
   5   2 -13 4.51115 2.78025   1
   5   2 -13 9.56858 3.74696   4
   4   2 -13 119.059 10.6060   6
   4   2 -13 132.298 9.83080   2
   4   2 -13 115.393 9.76440   1
   4   2 -13 144.816 11.7506   4
   3   2 -13 1081.07 45.9727   2
   3   2 -13 1054.50 47.4834   6
   3   2 -13 1058.58 46.5992   1
   2   2 -13 28.7032 5.03898   1
   2   2 -13 26.9620 5.33510   6
   2   2 -13 27.3643 4.59237   2
  -2  -2  13 20.9232 4.20645   1
   1   2 -13 96.4043 7.88639   2
   1   2 -13 88.3121 8.40970   6
   1   2 -13 96.7903 8.26058   1
  -1  -2  13 82.6640 7.98713   6
  -1  -2  13 91.4904 7.92442   1
   0   2 -13 652.519 30.1893   1
   0   2 -13 599.773 30.4888   6
   0   2 -13 648.304 29.4185   2
   0  -2  13 605.760 29.5049   1
   0  -2  13 637.894 30.6719   6
  -1   2 -13 0.78873 1.94331   6
  -1   2 -13 4.25020 2.26930   2
  -1   2 -13 1.15316 1.81461   1
   1  -2  13 2.55393 2.01005   1
   1  -2  13 1.06656 1.88193   6
  -2   2 -13 109.424 9.37140   1
  -2   2 -13 99.8054 9.60422   6
   2  -2  13 103.825 9.14436   1
   2  -2  13 119.071 10.2359   6
   3  -2  13 3.30833 2.65139   6
   3  -2  13 0.54359 2.00637   1
   4  -2  13 235.684 16.7760   6
   4  -2  13 240.667 16.0024   1
   5   1 -13 274.382 16.1596   1
   5   1 -13 278.125 15.7089   2
   5   1 -13 295.188 18.9895   4
   4   1 -13 73.6476 6.75656   2
   4   1 -13 87.9339 8.06363   6
   4   1 -13 84.9090 7.39554   1
   3   1 -13 3.27669 2.03331   1
   3   1 -13 5.74832 2.58122   6
   3   1 -13 6.40125 2.38674   2
   2   1 -13 277.171 15.5306   1
   2   1 -13 266.417 16.0353   6
   2   1 -13 268.997 15.0077   2
  -2  -1  13 276.342 15.2744   1
   1   1 -13 469.127 22.9159   2
   1   1 -13 465.712 24.0789   6
   1   1 -13 480.847 23.4498   1
  -1  -1  13 465.922 23.9375   6
  -1  -1  13 475.642 23.2585   1
   0   1 -13 -0.0246 1.44749   6
   0   1 -13 -0.3403 1.11834   2
   0   1 -13 1.25493 1.81654   1
   0  -1  13 0.10848 1.33703   1
   0  -1  13 -0.7410 1.33736   6
  -1   1 -13 53.2705 6.67302   2
  -1   1 -13 53.6379 6.98541   1
  -1   1 -13 57.1861 7.70830   6
   1  -1  13 56.0286 7.80312   6
   1  -1  13 72.5259 8.40938   1
  -2   1 -13 200.970 13.3160   1
   2  -1  13 194.590 14.1053   6
   2  -1  13 203.336 13.4657   1
   3  -1  13 6.74025 3.33503   6
   3  -1  13 10.1037 3.74476   1
   7   0 -13 15.5852 3.87028   1
   7   0 -13 24.2347 6.53634   4
   7   0 -13 17.1686 3.67925   2
   7   0 -13 25.4589 5.22280   6
   6   0 -13 35.3885 4.77237   1
   6   0 -13 25.2960 4.28428   2
   6   0 -13 28.6592 6.86357   4
   5   0 -13 714.989 33.2989   1
   5   0 -13 699.776 32.7579   2
   5   0 -13 792.150 34.0303   6
   5   0 -13 797.500 37.5515   4
   4   0 -13 140.405 10.2067   6
   4   0 -13 134.549 9.43223   1
   4   0 -13 142.648 9.33530   2
   3   0 -13 367.726 18.3580   2
   3   0 -13 348.829 18.5962   1
   3   0 -13 378.696 19.5785   6
   2   0 -13 55.1445 6.51506   1
   2   0 -13 50.4034 6.77159   6
   2   0 -13 56.1102 6.49584   2
  -2   0  13 56.1184 6.56590   1
  -2   0  13 59.3868 11.2814   6
   1   0 -13 491.372 24.0349   1
   1   0 -13 498.332 23.5479   2
   1   0 -13 497.314 24.7729   6
  -1   0  13 482.403 24.6211   6
  -1   0  13 490.558 23.8637   1
   0   0 -13 56.2533 7.63789   6
   0   0 -13 54.4680 6.48578   2
   0   0 -13 54.6964 6.73358   1
   0   0  13 50.6530 7.00993   6
   0   0  13 46.1207 6.49739   1
  -1   0 -13 -0.7041 1.51646   1
  -1   0 -13 0.48676 1.65128   6
   1   0  13 0.65382 1.56732   1
   1   0  13 0.23735 1.72267   6
  -2   0 -13 11.9087 3.58435   1
   2   0  13 18.0510 4.57505   1
   2   0  13 7.56306 3.33715   6
   3   0  13 183.737 14.3006   6
   3   0  13 170.145 13.0351   1
   7  -1 -13 7.07353 2.39108   6
   7  -1 -13 4.78350 3.74889   4
   7  -1 -13 5.03627 2.03016   2
   6  -1 -13 1.15762 2.18340   4
   6  -1 -13 -0.6513 1.31953   2
   5  -1 -13 149.847 9.94183   2
   5  -1 -13 151.075 10.3225   1
   5  -1 -13 204.284 10.3427   6
   4  -1 -13 0.52942 1.29173   1
   4  -1 -13 -0.6930 1.02125   2
   4  -1 -13 0.22386 1.35125   6
   3  -1 -13 491.519 22.9780   2
   3  -1 -13 482.893 24.0083   6
   3  -1 -13 487.030 23.4083   1
   2  -1 -13 591.460 27.6353   1
   2  -1 -13 598.024 28.4403   6
   2  -1 -13 597.727 27.2198   2
  -2   1  13 586.208 27.2989   1
   1  -1 -13 4.84150 2.51541   6
   1  -1 -13 12.3318 3.23844   2
   1  -1 -13 2.46862 1.95175   1
  -1   1  13 1.50769 1.87129   1
  -1   1  13 3.26317 2.26242   6
   0  -1 -13 -0.6787 1.52088   6
   0  -1 -13 -0.6868 1.28688   1
   0  -1 -13 0.72814 1.42719   2
   0   1  13 0.16626 1.35325   6
   0   1  13 0.76494 1.59308   1
  -1  -1 -13 87.4669 8.41284   6
  -1  -1 -13 97.7244 8.39234   1
   1   1  13 80.4861 9.83498   6
   1   1  13 72.2444 8.57603   1
   2   1  13 384.869 21.8183   1
   2   1  13 394.671 23.0307   6
   2   1  13 382.271 22.8935   5
   7  -2 -13 264.575 14.0663   2
   7  -2 -13 259.256 14.9449   6
   7  -2 -13 300.404 19.5152   4
   7  -2 -13 260.796 14.3330   1
   6  -2 -13 1.41204 1.53501   2
   6  -2 -13 2.27579 1.25551   1
   5  -2 -13 499.258 24.2813   2
   5  -2 -13 515.092 24.8851   1
   5  -2 -13 599.764 25.5132   6
   4  -2 -13 507.763 24.7372   1
   4  -2 -13 548.111 24.6047   2
   4  -2 -13 531.246 25.5325   6
   3  -2 -13 1.31054 1.53770   1
   3  -2 -13 0.96480 1.42853   2
   3  -2 -13 2.04850 1.85169   6
   2  -2 -13 193.916 12.8746   6
   2  -2 -13 189.680 12.0667   1
   2  -2 -13 188.469 11.6734   2
  -2   2  13 192.751 12.0092   1
   1  -2 -13 170.027 11.2944   1
   1  -2 -13 157.956 10.6283   2
   1  -2 -13 151.809 11.4900   6
  -1   2  13 155.996 11.6769   6
  -1   2  13 168.392 11.3461   5
  -1   2  13 149.193 10.7569   1
   0  -2 -13 76.0179 9.21364   6
   0  -2 -13 74.7656 8.18523   2
   0  -2 -13 76.2323 8.63095   1
   0   2  13 76.3104 7.46616   5
   0   2  13 63.1586 8.62517   6
   0   2  13 71.0787 8.53855   1
  -1  -2 -13 28.3083 5.43677   1
  -1  -2 -13 16.3516 4.45761   6
   1   2  13 28.7500 6.04121   6
   1   2  13 24.9965 5.24920   1
   1   2  13 28.4348 5.79380   5
   2   2  13 61.4857 9.67251   6
   2   2  13 52.5672 8.09895   1
   2   2  13 66.4501 9.75433   5
   7  -3 -13 -3.2297 0.95824   2
   7  -3 -13 -0.8643 1.19538   1
   6  -3 -13 36.1250 5.06785   1
   6  -3 -13 31.5927 4.59454   2
   4  -3 -13 65.7012 7.88594   6
   4  -3 -13 86.2431 7.19069   1
   4  -3 -13 71.6453 6.33125   2
   3  -3 -13 218.698 12.4258   2
   3  -3 -13 197.480 13.2345   6
   3  -3 -13 187.288 12.4218   1
   2  -3 -13 183.893 13.0760   6
   2  -3 -13 183.663 12.3030   1
   2  -3 -13 198.058 12.0336   2
   1  -3 -13 0.54629 1.69806   2
   1  -3 -13 -0.9497 1.43256   1
   1  -3 -13 3.95087 2.54384   6
  -1   3  13 1.43617 2.20123   1
  -1   3  13 0.51849 1.95810   6
   0  -3 -13 -0.3275 1.68445   1
   0  -3 -13 -0.0249 1.94670   6
   0   3  13 3.22128 2.63560   6
   0   3  13 -0.4098 1.88308   1
  -1  -3 -13 10.7485 4.02082   1
   1   3  13 7.40499 3.77250   1
   1   3  13 5.21098 3.63969   6
   7  -4 -13 267.214 13.9593   2
   7  -4 -13 266.777 14.6450   6
   7  -4 -13 246.743 14.0306   1
  -7   4  13 228.820 15.8429   3
   6  -4 -13 24.9117 4.44015   1
   6  -4 -13 27.2429 4.26780   2
   5  -4 -13 16.7944 3.79212   1
   5  -4 -13 14.1847 3.85075   6
   5  -4 -13 17.9759 3.71452   2
   4  -4 -13 135.194 9.97740   1
   4  -4 -13 142.445 9.71418   2
   4  -4 -13 131.660 10.4593   6
   3  -4 -13 1516.02 62.6914   2
   3  -4 -13 1534.68 63.5268   1
   3  -4 -13 1501.46 64.2277   6
   2  -4 -13 10.3242 3.72629   6
   2  -4 -13 7.08822 2.88634   1
   2  -4 -13 5.57549 2.52283   2
   1  -4 -13 4.32439 2.56345   1
   1  -4 -13 3.61663 2.82664   6
   1  -4 -13 3.39213 2.10059   2
  -1   4  13 4.08515 4.10273   1
   0  -4 -13 356.427 21.8357   6
   0  -4 -13 371.048 21.1682   1
   0   4  13 385.522 26.3050   6
   0   4  13 382.548 21.9320   1
   7  -5 -13 112.250 8.51620   2
   7  -5 -13 133.825 8.58937   1
   6  -5 -13 267.846 14.8265   2
   6  -5 -13 261.026 15.2938   1
   5  -5 -13 10.0108 2.94727   2
   5  -5 -13 10.0312 3.10397   1
   5  -5 -13 11.9459 4.00954   6
   4  -5 -13 39.7517 5.82700   2
   4  -5 -13 52.4478 8.00588   6
   4  -5 -13 54.6770 7.29374   1
   3  -5 -13 391.223 20.5437   2
   3  -5 -13 360.141 21.5650   6
   3  -5 -13 395.848 21.2907   1
   2  -5 -13 273.160 17.3243   1
   2  -5 -13 293.538 18.3955   6
   2  -5 -13 287.757 16.9674   2
   1  -5 -13 78.1591 9.75952   1
   1  -5 -13 72.8856 9.76339   6
   6  -6 -13 77.7262 8.62997   1
   6  -6 -13 63.0277 7.60406   2
   5  -6 -13 72.3273 8.39783   2
   5  -6 -13 73.2836 8.79904   1
   5  -6 -13 78.4120 10.2727   6
   4  -6 -13 156.588 12.0248   1
   4  -6 -13 149.232 11.3398   2
   4  -6 -13 162.025 12.8877   6
   3  -6 -13 1.70234 2.69981   6
   3  -6 -13 3.81394 2.90251   1
   3  -6 -13 2.52184 2.46787   2
   1   6 -14 -1.9274 2.67693   2
   1   6 -14 -0.8888 1.88590   1
   1   6 -14 2.92374 3.57457   6
   0   6 -14 8.03152 4.45297   6
   0   6 -14 7.70220 4.11198   1
  -1   6 -14 77.8035 11.0927   1
  -1   6 -14 82.8537 12.2841   6
   1  -6  14 82.1526 10.8321   1
   1  -6  14 61.2174 9.95112   6
   2  -6  14 139.309 12.2913   1
   2  -6  14 132.176 12.8440   6
   3   5 -14 645.715 34.1808   2
   3   5 -14 636.962 35.0351   1
   3   5 -14 712.823 37.6299   6
   2   5 -14 161.207 13.6081   2
   2   5 -14 186.670 15.8783   6
   2   5 -14 178.387 14.6854   1
   1   5 -14 15.8847 4.90466   1
   1   5 -14 8.40475 4.39786   6
   1   5 -14 13.6636 4.50055   2
   0   5 -14 32.5508 7.35242   6
   0   5 -14 35.5139 6.69261   2
   0   5 -14 38.1863 7.64327   1
   0  -5  14 36.7942 6.94994   1
  -1   5 -14 76.3988 11.0171   6
  -1   5 -14 75.3486 10.1329   1
   1  -5  14 67.0301 8.98870   1
   1  -5  14 65.1048 9.50497   6
   2  -5  14 177.908 13.8655   1
   2  -5  14 177.920 14.5013   6
   3  -5  14 122.095 11.2152   1
   3  -5  14 122.880 11.9265   6
   4   4 -14 248.343 18.0511   1
   4   4 -14 270.711 20.1519   6
   4   4 -14 240.603 17.2645   2
   4   4 -14 288.675 18.9199   4
   3   4 -14 67.2004 10.7024   6
   3   4 -14 82.6891 10.2102   2
   3   4 -14 54.9205 8.70350   1
   2   4 -14 39.4594 7.73943   6
   2   4 -14 34.7353 6.78708   1
   2   4 -14 32.8710 6.35749   2
   1   4 -14 0.20890 2.06933   2
   1   4 -14 -1.3885 1.38686   1
   1   4 -14 -3.6699 1.35766   6
   0   4 -14 1.41522 2.41339   6
   0   4 -14 1.48030 2.12489   1
   0   4 -14 3.52015 2.35007   2
   0  -4  14 2.94681 2.48533   1
   0  -4  14 0.11299 1.76008   6
  -1   4 -14 -0.5762 1.66622   1
  -1   4 -14 1.53533 2.33944   6
   1  -4  14 -1.3462 1.46856   6
   1  -4  14 -0.1511 1.98987   1
  -2   4 -14 20.4933 5.26035   1
   2  -4  14 20.4275 5.07059   1
   2  -4  14 25.9161 6.20145   6
   3  -4  14 35.6431 6.88105   1
   3  -4  14 28.5241 6.63724   6
   5   3 -14 3.55171 3.89807   6
   5   3 -14 -0.9181 2.03324   1
   5   3 -14 1.92030 2.51892   2
   5   3 -14 -1.1509 1.88268   4
   4   3 -14 13.9675 4.38627   4
   4   3 -14 14.7962 4.31595   2
   4   3 -14 9.54716 4.27024   6
   4   3 -14 10.7733 3.87283   1
   3   3 -14 54.7462 7.65012   2
   3   3 -14 46.1225 8.13285   6
   3   3 -14 51.2003 7.81645   1
   2   3 -14 5.45017 3.27324   6
   2   3 -14 5.71153 3.02362   2
   2   3 -14 2.76673 2.54891   1
   1   3 -14 114.561 9.85700   2
   1   3 -14 129.130 10.6673   1
   1   3 -14 121.501 11.0333   6
  -1  -3  14 130.823 10.3030   1
   0   3 -14 83.9466 9.85237   1
   0   3 -14 94.7735 10.0987   2
   0   3 -14 93.7862 11.0668   6
   0  -3  14 89.7796 8.46406   1
   0  -3  14 69.2704 9.04324   6
  -1   3 -14 21.3022 5.16862   1
  -1   3 -14 26.5266 5.90057   6
   1  -3  14 26.2010 5.82403   6
   1  -3  14 25.1360 5.31472   1
  -2   3 -14 -0.9744 1.66383   1
   2  -3  14 0.36299 1.60831   1
   2  -3  14 -0.4112 2.07265   6
   3  -3  14 213.395 15.1670   1
   3  -3  14 237.200 16.6595   6
   5   2 -14 -0.4440 2.02390   1
   5   2 -14 0.70578 2.51995   4
   5   2 -14 1.61023 1.91600   2
   5   2 -14 2.03523 2.66911   6
   4   2 -14 84.0648 9.13892   2
   4   2 -14 83.8721 10.4960   6
   4   2 -14 69.4993 8.67949   1
   3   2 -14 50.9189 6.74136   2
   3   2 -14 44.2954 6.91375   1
   3   2 -14 39.2877 6.94153   6
   2   2 -14 120.724 9.80052   1
   2   2 -14 115.584 10.3721   6
   2   2 -14 122.634 9.40378   2
   1   2 -14 36.0031 6.27397   6
   1   2 -14 36.1830 5.91237   2
   1   2 -14 32.9223 5.66472   1
  -1  -2  14 38.6731 6.59095   6
  -1  -2  14 46.6699 6.70676   1
   0   2 -14 47.7513 6.83361   1
   0   2 -14 44.4477 6.42431   2
   0   2 -14 43.4929 7.31281   6
   0  -2  14 38.4461 6.57554   6
   0  -2  14 40.4103 6.36080   1
  -1   2 -14 91.5519 9.13129   6
  -1   2 -14 78.7611 9.21821   1
   1  -2  14 92.3895 8.54113   1
   1  -2  14 85.0734 10.2029   6
  -2   2 -14 0.18921 2.10323   1
   2  -2  14 2.01176 2.44943   6
   2  -2  14 5.22690 2.76571   1
   3  -2  14 17.9732 5.40670   6
   3  -2  14 21.1366 5.30907   1
   6   1 -14 594.909 30.0715   1
   6   1 -14 620.678 34.1363   4
   6   1 -14 582.320 29.5545   2
   6   1 -14 708.862 30.8224   6
   5   1 -14 1259.03 57.0775   1
   5   1 -14 1291.18 56.4608   2
   5   1 -14 1414.06 61.1292   4
   5   1 -14 1425.73 58.2112   6
   4   1 -14 62.5028 8.36916   6
   4   1 -14 69.7867 7.86634   2
   4   1 -14 78.4214 8.80082   1
   3   1 -14 5.03151 2.54677   2
   3   1 -14 5.13245 2.70189   6
   3   1 -14 7.07899 2.83792   1
   2   1 -14 1.79483 1.87177   2
   2   1 -14 3.27319 2.35182   6
   2   1 -14 3.28215 2.19328   1
   1   1 -14 500.732 24.5977   2
   1   1 -14 507.576 26.0643   6
   1   1 -14 486.259 24.9869   1
  -1  -1  14 514.313 25.9020   6
  -1  -1  14 497.852 24.8459   1
   0   1 -14 155.640 11.8050   6
   0   1 -14 150.713 11.0476   1
   0   1 -14 149.188 10.6562   2
   0  -1  14 148.922 10.8845   1
   0  -1  14 137.011 11.3136   6
  -1   1 -14 37.8389 6.27726   1
  -1   1 -14 28.8769 5.83430   6
   1  -1  14 33.6319 5.80681   1
   1  -1  14 30.2546 5.88760   6
   2  -1  14 37.4643 6.27676   1
   2  -1  14 37.7873 7.16254   6
   3  -1  14 26.7711 6.21600   6
   3  -1  14 32.7911 6.54982   1
   6   0 -14 52.5947 6.49287   2
   6   0 -14 54.9355 6.97387   1
   6   0 -14 55.4230 9.15087   4
   5   0 -14 380.479 20.1800   2
   5   0 -14 485.849 21.5299   6
   5   0 -14 355.483 20.3554   1
   4   0 -14 1.68048 1.74131   1
   4   0 -14 -1.1396 1.55372   6
   4   0 -14 -0.5567 1.35178   2
   3   0 -14 142.637 10.3186   1
   3   0 -14 150.377 11.0763   6
   3   0 -14 149.724 10.1328   2
   2   0 -14 42.1658 5.96092   2
   2   0 -14 49.3542 7.19143   6
   2   0 -14 43.4827 6.13007   1
   1   0 -14 105.699 8.30902   2
   1   0 -14 94.8931 8.72377   6
   1   0 -14 91.1778 8.19992   1
  -1   0  14 97.8369 8.22349   1
  -1   0  14 98.1084 8.87036   6
   0   0 -14 1.99995 2.05513   6
   0   0 -14 1.80589 1.73423   2
   0   0 -14 2.35550 2.11971   1
   0   0  14 0.34296 1.78812   6
   0   0  14 0.74274 1.79533   1
  -1   0 -14 6.27486 3.05864   6
  -1   0 -14 15.6282 3.98229   1
   1   0  14 6.92552 3.28797   6
   1   0  14 13.7577 4.01340   1
   2   0  14 194.625 14.8004   6
   2   0  14 180.638 13.4350   1
   7  -1 -14 195.248 12.0883   2
   7  -1 -14 223.991 12.9995   6
   7  -1 -14 184.357 12.2584   1
   7  -1 -14 195.307 16.1116   4
   6  -1 -14 204.999 13.0903   2
   6  -1 -14 217.431 13.5698   1
   6  -1 -14 292.601 14.0914   6
   5  -1 -14 47.5743 5.96106   2
   5  -1 -14 49.0568 6.47400   1
   4  -1 -14 110.774 8.56563   1
   4  -1 -14 119.274 8.45019   2
   4  -1 -14 98.9121 8.80151   6
   3  -1 -14 373.238 20.3442   6
   3  -1 -14 377.629 19.1054   2
   3  -1 -14 377.214 19.7088   1
   2  -1 -14 362.633 18.3918   2
   2  -1 -14 328.556 19.1801   6
   2  -1 -14 348.791 18.7702   1
   1  -1 -14 -0.0173 1.56214   2
   1  -1 -14 0.71941 1.75750   6
   1  -1 -14 4.41528 2.30942   1
  -1   1  14 3.41603 2.13604   6
  -1   1  14 4.48238 2.49404   1
   0  -1 -14 111.245 8.87113   2
   0  -1 -14 115.233 9.49913   1
   0  -1 -14 118.686 10.2101   6
   0   1  14 107.136 10.0191   6
   0   1  14 128.018 10.0271   1
  -1  -1 -14 94.5889 9.39921   6
  -1  -1 -14 96.1782 8.85557   1
   1   1  14 98.5088 9.23518   1
   1   1  14 113.760 10.5883   6
   2   1  14 84.5044 10.3293   1
   2   1  14 72.2393 10.3810   5
   2   1  14 70.9909 10.0931   6
   7  -2 -14 201.480 12.2141   2
   7  -2 -14 190.249 12.4416   1
   7  -2 -14 259.146 13.7639   6
   6  -2 -14 85.9651 6.84412   2
   6  -2 -14 79.9786 6.96541   1
   5  -2 -14 128.550 9.34222   1
   5  -2 -14 137.376 9.27528   2
   4  -2 -14 1317.81 54.2361   1
   4  -2 -14 1259.34 53.3417   2
   4  -2 -14 1281.13 54.6549   6
   3  -2 -14 147.560 10.4578   1
   3  -2 -14 145.154 9.99613   2
   3  -2 -14 139.191 10.6914   6
   2  -2 -14 66.3791 8.03693   1
   2  -2 -14 63.6088 8.28785   6
   2  -2 -14 52.6707 6.58012   2
   1  -2 -14 30.0216 5.78524   6
   1  -2 -14 30.3964 5.58700   1
   1  -2 -14 24.8231 4.62155   2
  -1   2  14 29.4560 5.25740   1
   0  -2 -14 -0.4483 1.87890   6
   0  -2 -14 0.95549 1.67971   1
   0   2  14 2.45361 2.26478   1
   0   2  14 0.12104 1.78359   6
  -1  -2 -14 190.508 13.3244   1
   1   2  14 190.509 14.7620   6
   1   2  14 170.327 13.3113   1
   7  -3 -14 108.182 8.32401   2
   7  -3 -14 135.737 9.22293   1
   6  -3 -14 421.871 22.3381   1
   6  -3 -14 430.897 21.9266   2
   6  -3 -14 535.611 23.1103   6
   5  -3 -14 80.3220 7.20153   1
   5  -3 -14 90.9548 8.17811   6
   5  -3 -14 79.5172 6.92641   2
   4  -3 -14 12.0293 3.21149   2
   4  -3 -14 11.7816 3.35690   1
   4  -3 -14 19.2410 4.80742   6
   3  -3 -14 14.0953 3.50423   2
   3  -3 -14 13.2101 4.07948   6
   3  -3 -14 17.4609 4.39196   1
   2  -3 -14 333.008 18.8281   1
   2  -3 -14 340.014 18.2997   2
   2  -3 -14 329.817 19.6390   6
   1  -3 -14 50.9299 7.60479   6
   1  -3 -14 54.3529 7.63848   1
   1  -3 -14 37.9073 5.80878   2
   0  -3 -14 0.78418 2.26417   1
   0  -3 -14 0.25771 2.09795   6
   0   3  14 1.32494 2.35722   1
   0   3  14 2.21817 5.18488   6
   5  -4 -14 57.6488 8.15374   6
   5  -4 -14 57.2051 7.28505   1
   5  -4 -14 47.4526 6.28803   2
   4  -4 -14 23.3938 4.92074   1
   4  -4 -14 18.9436 4.83816   6
   4  -4 -14 18.4692 3.99217   2
   3  -4 -14 518.048 26.7082   6
   3  -4 -14 501.018 25.7207   1
   3  -4 -14 489.738 24.8483   2
   2  -4 -14 28.9793 6.13115   6
   2  -4 -14 24.9352 4.86775   2
   2  -4 -14 24.5129 5.04886   1
   1  -4 -14 46.0900 7.76847   6
   1  -4 -14 40.1219 7.02826   1
   5  -5 -14 165.056 12.0075   1
   5  -5 -14 163.478 12.7864   6
   5  -5 -14 180.279 11.7870   2
   4  -5 -14 3.99298 2.42592   2
   4  -5 -14 6.82754 3.43904   6
   4  -5 -14 5.17355 2.89655   1
   3  -5 -14 105.611 10.3237   6
   3  -5 -14 109.242 9.87772   1
   3  -5 -14 115.966 9.62493   2
   2   5 -15 103.944 14.4254   6
   2   5 -15 110.914 12.8401   2
   2   5 -15 102.756 12.9096   1
   1   5 -15 10.5496 4.60565   1
   1   5 -15 6.94683 4.32695   6
   1   5 -15 11.5908 4.60313   2
   0   5 -15 107.587 13.0654   1
   0   5 -15 140.055 15.8855   6
  -1   5 -15 88.5837 12.4029   6
  -1   5 -15 86.4662 11.3957   1
   1  -5  15 101.125 12.4438   6
   1  -5  15 97.1929 11.6792   1
   3   4 -15 75.7809 11.5829   6
   3   4 -15 50.8738 8.76384   1
   3   4 -15 71.3550 9.92916   2
   2   4 -15 37.3112 6.77703   2
   2   4 -15 42.9084 8.58216   6
   2   4 -15 36.2045 7.41472   1
   1   4 -15 2.67171 2.52825   1
   1   4 -15 5.32062 3.46461   6
   1   4 -15 1.37731 2.37238   2
   0   4 -15 1.84106 4.19071   2
   0   4 -15 -0.4885 2.00457   6
   0   4 -15 3.31345 2.68916   1
   0  -4  15 0.91714 2.09193   1
  -1   4 -15 146.369 13.4465   6
  -1   4 -15 162.341 13.1462   1
   1  -4  15 151.165 13.0809   6
   1  -4  15 150.802 12.4767   1
   2  -4  15 0.80177 2.54534   6
   2  -4  15 1.06122 2.37920   1
   4   3 -15 0.77092 2.14978   2
   4   3 -15 2.49917 2.61340   1
   4   3 -15 -0.0726 2.57133   6
   3   3 -15 47.6955 8.21578   6
   3   3 -15 49.4373 7.40832   2
   3   3 -15 46.0367 7.71231   1
   2   3 -15 116.350 12.7588   1
   2   3 -15 113.436 11.2100   6
   2   3 -15 112.502 9.95174   2
   1   3 -15 30.1212 6.55925   6
   1   3 -15 31.6538 6.40835   1
   1   3 -15 27.5627 5.50529   2
   0   3 -15 36.6173 7.06274   6
   0   3 -15 39.5205 6.54504   2
   0   3 -15 28.2194 5.83861   1
   0  -3  15 30.1781 6.56172   6
   0  -3  15 31.0014 5.89248   1
  -1   3 -15 37.0303 6.77889   1
  -1   3 -15 26.6379 6.00884   6
   1  -3  15 18.1703 5.07111   6
   1  -3  15 22.9853 5.02698   1
   2  -3  15 20.1644 5.55850   6
   2  -3  15 32.8682 6.76172   1
   5   2 -15 17.9535 5.92329   6
   5   2 -15 5.27164 2.83901   2
   5   2 -15 2.00401 2.26817   1
   5   2 -15 4.80781 3.64624   4
   4   2 -15 73.6349 9.39914   1
   4   2 -15 97.5282 11.7904   6
   4   2 -15 94.1308 10.0596   2
   3   2 -15 25.2281 5.03792   2
   3   2 -15 17.5396 4.89756   6
   3   2 -15 20.4119 4.99043   1
   2   2 -15 115.802 9.46255   2
   2   2 -15 107.943 10.3298   6
   2   2 -15 105.937 9.57207   1
   1   2 -15 2.26973 2.14862   2
   1   2 -15 4.63962 3.03688   6
   1   2 -15 4.97814 2.80537   1
  -1  -2  15 2.48510 3.88451   1
   0   2 -15 20.3200 5.17025   6
   0   2 -15 11.1285 3.60778   2
   0   2 -15 16.1671 4.63871   1
   0  -2  15 14.4453 4.56861   6
   0  -2  15 16.8158 4.37174   1
  -1   2 -15 33.8673 6.25981   1
  -1   2 -15 34.0290 6.83219   6
   1  -2  15 32.5357 6.11460   1
   1  -2  15 30.4667 6.50008   6
   2  -2  15 8.53033 3.83040   6
   2  -2  15 8.34046 3.62594   1
   5   1 -15 599.975 29.0544   2
   5   1 -15 588.774 29.7082   1
   5   1 -15 610.042 30.9354   6
   4   1 -15 9.82565 3.48787   1
   4   1 -15 11.5413 4.11258   6
   4   1 -15 9.88877 3.34746   2
   3   1 -15 33.8273 6.00865   1
   3   1 -15 22.7732 4.73472   2
   3   1 -15 24.0279 5.31278   6
   2   1 -15 67.5496 8.06308   2
   2   1 -15 74.8971 9.55674   6
   2   1 -15 74.6857 8.73176   1
   1   1 -15 158.117 11.5416   2
   1   1 -15 170.137 12.2011   1
   1   1 -15 163.753 12.7045   6
  -1  -1  15 173.579 12.0219   1
   0   1 -15 9.10921 3.60220   6
   0   1 -15 12.9517 3.66904   2
   0   1 -15 6.47450 2.85378   1
   0  -1  15 16.6296 4.29809   1
   0  -1  15 11.2274 3.74258   6
  -1   1 -15 12.7322 3.77567   1
  -1   1 -15 12.8922 4.26784   6
   1  -1  15 10.0720 3.78700   1
   1  -1  15 10.8452 4.11587   6
   2  -1  15 184.801 13.8394   1
   2  -1  15 195.933 15.1293   6
   6   0 -15 5.04917 2.84457   1
   6   0 -15 4.90992 2.67585   2
   5   0 -15 197.659 13.8045   6
   5   0 -15 187.166 12.2172   2
   5   0 -15 181.593 12.6168   1
   4   0 -15 134.283 10.9354   6
   4   0 -15 123.561 9.57666   2
   4   0 -15 142.319 10.4191   1
   3   0 -15 204.154 12.7732   2
   3   0 -15 195.207 13.6623   6
   3   0 -15 194.707 12.9202   1
   2   0 -15 29.8458 5.03599   2
   2   0 -15 33.7308 6.18861   6
   2   0 -15 30.2920 5.49705   1
   1   0 -15 -0.1268 1.49237   6
   1   0 -15 1.34784 1.94466   1
   1   0 -15 1.45081 1.70536   2
  -1   0  15 -0.7821 1.39691   1
   0   0 -15 10.7757 3.77738   6
   0   0 -15 14.4843 4.02986   1
   0   0  15 7.36899 3.10202   1
   0   0  15 11.1973 4.19647   6
  -1   0 -15 86.7406 10.6517   6
  -1   0 -15 91.6231 8.70461   1
   1   0  15 82.7600 9.66942   1
   1   0  15 74.0102 9.95522   6
   6  -1 -15 391.504 20.3341   1
   6  -1 -15 371.765 19.6810   2
   5  -1 -15 340.452 18.7986   1
   5  -1 -15 364.548 19.8901   6
   5  -1 -15 336.940 18.2230   2
   4  -1 -15 425.160 21.7742   2
   4  -1 -15 456.913 22.7240   1
   4  -1 -15 432.162 23.2138   6
   3  -1 -15 324.801 17.2853   2
   3  -1 -15 316.905 18.6451   6
   3  -1 -15 304.024 17.6200   1
   2  -1 -15 118.290 8.96713   2
   2  -1 -15 106.813 9.20361   1
   2  -1 -15 114.424 10.0672   6
   1  -1 -15 20.2286 4.65346   1
   1  -1 -15 20.6259 4.19536   2
   1  -1 -15 17.1310 4.47212   6
   0  -1 -15 121.563 10.0206   1
   0  -1 -15 104.573 10.1828   6
   0   1  15 109.366 10.4805   6
   0   1  15 114.273 9.91493   1
  -1  -1 -15 8.03168 3.44839   1
   1   1  15 7.47291 3.53136   1
   1   1  15 10.9116 4.34564   6
   6  -2 -15 332.102 17.7643   1
   6  -2 -15 308.839 17.0191   2
   5  -2 -15 48.4009 6.39360   2
   5  -2 -15 56.7358 7.91104   6
   5  -2 -15 51.0404 6.77769   1
   4  -2 -15 168.988 12.7027   6
   4  -2 -15 200.600 12.7812   1
   4  -2 -15 205.060 12.4464   2
   3  -2 -15 71.0587 8.27726   1
   3  -2 -15 82.4448 8.75918   2
   3  -2 -15 77.5523 9.52350   6
   2  -2 -15 4.02078 2.43045   6
   2  -2 -15 2.37398 2.36120   2
   2  -2 -15 4.24003 2.43364   1
   1  -2 -15 11.0051 3.97121   6
   1  -2 -15 14.8365 4.06769   1
   1  -2 -15 9.67455 3.45934   2
   0  -2 -15 130.612 11.3888   6
   0  -2 -15 123.919 10.6942   1
   0   2  15 123.578 10.6934   1
   6  -3 -15 195.796 12.4940   2
   6  -3 -15 214.793 13.3329   1
   5  -3 -15 5.60068 2.52890   2
   5  -3 -15 7.82411 3.09488   1
   5  -3 -15 8.45165 3.47052   6
   4  -3 -15 28.3346 4.96809   2
   4  -3 -15 37.1445 6.02724   1
   4  -3 -15 31.7385 6.36248   6
   3  -3 -15 225.567 15.2766   6
   3  -3 -15 218.283 13.7737   2
   3  -3 -15 221.730 14.3670   1
   2  -3 -15 9.93381 3.76088   6
   2  -3 -15 15.4363 4.20997   1
   2  -3 -15 7.59686 3.12182   2
   1  -3 -15 4.33746 3.03165   6
   1  -3 -15 0.40229 2.21890   1
   5  -4 -15 8.99459 3.65125   6
   5  -4 -15 13.2544 3.88154   1
   5  -4 -15 10.5904 3.39441   2
   4  -4 -15 63.5127 8.14909   1
   4  -4 -15 66.3328 7.78685   2
   4  -4 -15 68.3956 9.04607   6
   3  -4 -15 89.1860 9.59523   2
   3  -4 -15 78.7668 9.52377   1
   3  -4 -15 105.981 10.0397   6
   2   4 -16 -1.3195 2.16727   6
   2   4 -16 0.08293 2.28569   2
   2   4 -16 -1.6948 1.83158   1
   1   4 -16 28.2769 7.26162   6
   1   4 -16 28.1332 6.49601   1
   1   4 -16 28.1728 6.07052   2
   0   4 -16 2.51150 2.96564   6
   0   4 -16 -0.1520 2.26049   1
   3   3 -16 13.7141 5.26844   6
   3   3 -16 18.0232 4.92384   2
   3   3 -16 22.9820 5.63884   1
   2   3 -16 189.293 14.4043   1
   2   3 -16 188.235 13.8511   2
   2   3 -16 169.769 14.7307   6
   1   3 -16 21.0796 5.38085   1
   1   3 -16 21.0310 5.20296   2
   1   3 -16 21.4979 5.84328   6
   0   3 -16 89.0359 10.9175   1
   0   3 -16 72.3173 10.4863   6
   0  -3  16 80.3039 11.0053   1
  -1   3 -16 12.5919 4.66582   1
  -1   3 -16 9.10427 5.24997   6
   1  -3  16 11.1167 4.42787   6
   1  -3  16 11.8371 4.13062   1
   4   2 -16 90.2279 10.3304   2
   4   2 -16 87.3121 10.7137   1
   4   2 -16 79.7509 11.3062   6
   3   2 -16 32.2403 6.99246   6
   3   2 -16 35.6279 6.43476   2
   3   2 -16 39.9641 6.96845   1
   2   2 -16 119.749 11.5692   6
   2   2 -16 158.102 12.0136   1
   2   2 -16 123.731 10.5902   2
   1   2 -16 38.4377 6.39789   2
   1   2 -16 47.9414 8.29637   6
   1   2 -16 44.0341 7.20886   1
   0   2 -16 31.4843 6.43086   1
   0   2 -16 38.4506 7.44327   6
   0  -2  16 32.7959 6.39471   1
  -1   2 -16 39.9067 7.16541   1
   1  -2  16 36.7575 6.97122   6
   1  -2  16 30.9627 6.26597   1
   5   1 -16 107.024 10.1484   1
   5   1 -16 137.565 10.6188   2
   4   1 -16 119.773 11.0477   6
   4   1 -16 123.401 10.1877   2
   4   1 -16 137.941 11.1440   1
   3   1 -16 29.4767 5.51542   2
   3   1 -16 27.5634 5.42915   1
   3   1 -16 28.8650 6.26809   6
   2   1 -16 223.243 14.7173   1
   2   1 -16 214.231 14.0054   2
   2   1 -16 192.098 14.7324   6
   1   1 -16 194.185 13.1501   2
   1   1 -16 181.979 14.0017   6
   1   1 -16 174.274 13.1740   1
   0   1 -16 26.9438 5.77641   1
   0   1 -16 26.7117 6.01491   6
   0  -1  16 20.0742 5.00858   1
  -1   1 -16 18.5954 4.83091   1
   1  -1  16 20.8916 5.70962   6
   1  -1  16 16.9271 4.68266   1
   5   0 -16 3.09912 2.35544   2
   5   0 -16 4.72781 3.16671   6
   5   0 -16 4.59222 2.64902   1
   4   0 -16 25.8087 5.49034   6
   4   0 -16 23.2231 5.13263   1
   3   0 -16 184.970 13.6438   6
   3   0 -16 165.611 12.2892   1
   3   0 -16 179.437 12.2846   2
   2   0 -16 2.70939 2.22916   2
   2   0 -16 0.38928 2.18505   6
   2   0 -16 2.97640 2.49748   1
   1   0 -16 52.5588 7.96626   6
   1   0 -16 54.9134 7.58152   2
   1   0 -16 60.2185 8.36836   1
   0   0 -16 1.23734 2.05637   1
   0   0 -16 5.41645 3.22584   6
   0   0  16 8.04290 3.46537   1
   5  -1 -16 49.9262 8.01186   6
   5  -1 -16 41.4362 6.52405   1
   5  -1 -16 35.0645 5.70198   2
   4  -1 -16 86.1591 10.4117   6
   4  -1 -16 80.8645 8.84680   2
   4  -1 -16 102.122 8.82765   1
   3  -1 -16 324.405 18.4176   2
   3  -1 -16 338.096 20.0719   6
   3  -1 -16 341.976 19.2892   1
   2  -1 -16 71.8914 8.65056   1
   2  -1 -16 67.2312 9.17469   6
   2  -1 -16 75.0190 8.71685   2
   1  -1 -16 28.0127 5.52132   2
   1  -1 -16 33.6392 6.62295   6
   1  -1 -16 32.9105 5.95786   1
   0  -1 -16 809.151 38.5549   1
   5  -2 -16 7.82436 2.90531   1
   5  -2 -16 12.3768 3.16759   2
   5  -2 -16 11.2471 3.92450   6
   4  -2 -16 8.41603 3.53930   6
   4  -2 -16 6.55443 3.05109   2
   4  -2 -16 2.88920 2.28495   1
   3  -2 -16 2.99825 2.10165   2
   3  -2 -16 4.00012 2.57532   1
   3  -2 -16 3.62358 2.78223   6
   2  -2 -16 128.745 10.2092   2
   2  -2 -16 140.731 11.7029   6
   2  -2 -16 116.025 10.3087   1
   1  -2 -16 11.6766 4.02447   1
   1  -2 -16 8.06995 3.56917   6
   4  -3 -16 7.71603 3.66820   6
   4  -3 -16 9.95891 3.50352   1
   4  -3 -16 5.48898 2.66129   2
   3  -3 -16 0.56270 1.83829   2
   3  -3 -16 3.54668 2.63238   1
   3  -3 -16 6.19702 3.18215   6
   2   2 -17 36.6017 6.54642   2
   2   2 -17 32.1410 7.12478   6
   2   2 -17 42.3267 7.64073   1
   1   2 -17 11.6704 3.99191   2
   1   2 -17 17.4854 4.97853   1
   1   2 -17 18.4766 5.75792   6
   3   1 -17 2.18864 2.45923   2
   3   1 -17 2.24574 2.28037   1
   3   1 -17 -0.1449 2.27768   6
   2   1 -17 8.37031 3.97332   6
   2   1 -17 8.51138 3.65235   1
   2   1 -17 8.37722 3.65134   2
   1   1 -17 1.59566 2.65400   6
   1   1 -17 0.47178 2.49277   2
   1   1 -17 0.39284 2.06009   1
   3   0 -17 6.68243 3.24830   1
   3   0 -17 5.26809 3.16532   6
   3   0 -17 8.59116 3.24347   2
   2   0 -17 5.22654 3.32271   2
   2   0 -17 2.20107 2.49838   1
   2   0 -17 2.38434 2.90042   6
   3  -1 -17 11.8778 4.16155   6
   3  -1 -17 7.28727 3.24627   1
   3  -1 -17 12.6851 3.75615   2
   0   0   0    0.00    0.00   0

 _exptl_absorpt_process_details 'SADABS 2014/4'
 _exptl_absorpt_correction_type   multiscan
 _exptl_absorpt_correction_T_max  0.9485
 _exptl_absorpt_correction_T_min  0.8738
 _exptl_special_details
)
 The following wavelength and cell were deduced by SADABS from the
 direction cosines etc. They are given here for emergency use only:
 CELL 0.71070    7.530    8.265   13.853   93.477  104.212  116.465
)

;
_shelx_hkl_checksum              38025
loop_
_space_group_symop_operation_xyz
'x, y, z'
'-x, -y, -z'
loop_
_atom_site_label
_atom_site_type_symbol
_atom_site_fract_x
_atom_site_fract_y
_atom_site_fract_z
_atom_site_U_iso_or_equiv
_atom_site_adp_type
_atom_site_occupancy
_atom_site_site_symmetry_order
_atom_site_calc_flag
_atom_site_refinement_flags_posn
_atom_site_refinement_flags_adp
O1 O -0.13240(15) 0.21053(13) 0.79138(7) 0.0175(2) Uani 1 1 d . .
O2 O 0.45892(16) 0.48301(13) 1.22395(7) 0.0185(2) Uani 1 1 d . .
O3 O -0.10611(19) 0.47517(15) 0.62210(8) 0.0301(3) Uani 1 1 d . .
O4 O -0.19395(15) 0.06650(13) 0.91741(7) 0.0191(2) Uani 1 1 d . .
O5 O 0.62397(15) 0.79257(13) 1.16868(7) 0.0168(2) Uani 1 1 d . .
C1 C -0.3374(2) -0.1453(2) 0.42035(11) 0.0269(4) Uani 1 1 d . .
H1 H -0.3952 -0.2533 0.3698 0.032 Uiso 1 1 calc R U
C2 C -0.3565(2) 0.0069(2) 0.39492(11) 0.0267(4) Uani 1 1 d . .
H16 H -0.4270 0.0030 0.3269 0.032 Uiso 1 1 calc R U
C3 C -0.2736(2) 0.1648(2) 0.46790(11) 0.0224(3) Uani 1 1 d . .
H15 H -0.2859 0.2693 0.4498 0.027 Uiso 1 1 calc R U
C4 C -0.1720(2) 0.1704(2) 0.56806(10) 0.0184(3) Uani 1 1 d . .
C5 C -0.0897(2) 0.3413(2) 0.64425(10) 0.0186(3) Uani 1 1 d . .
C6 C 0.0243(2) 0.34883(19) 0.75414(10) 0.0163(3) Uani 1 1 d . .
H12 H 0.1351 0.3133 0.7540 0.020 Uiso 1 1 calc R U
C7 C -0.0783(2) 0.20059(19) 0.89101(10) 0.0148(3) Uani 1 1 d . .
C8 C 0.1139(2) 0.35672(18) 0.96000(10) 0.0143(3) Uani 1 1 d . .
C9 C 0.1917(2) 0.33695(18) 1.05916(10) 0.0145(3) Uani 1 1 d . .
H11 H 0.1258 0.2225 1.0796 0.017 Uiso 1 1 calc R U
C10 C 0.3641(2) 0.48431(19) 1.12660(10) 0.0145(3) Uani 1 1 d . .
C11 C 0.3625(2) 0.3191(2) 1.26235(11) 0.0216(3) Uani 1 1 d . .
H3 H 0.2228 0.2958 1.2621 0.032 Uiso 1 1 calc R U
H2 H 0.4468 0.3345 1.3320 0.032 Uiso 1 1 calc R U
H4 H 0.3517 0.2144 1.2192 0.032 Uiso 1 1 calc R U
C12 C 0.4581(2) 0.65504(18) 1.09596(10) 0.0141(3) Uani 1 1 d . .
C13 C 0.7090(2) 0.97274(19) 1.14491(11) 0.0214(3) Uani 1 1 d . .
H5 H 0.7633 0.9714 1.0875 0.032 Uiso 1 1 calc R U
H6 H 0.8223 1.0610 1.2042 0.032 Uiso 1 1 calc R U
H7 H 0.5998 1.0093 1.1268 0.032 Uiso 1 1 calc R U
C14 C 0.3818(2) 0.67187(18) 0.99761(10) 0.0151(3) Uani 1 1 d . .
H8 H 0.4475 0.7862 0.9770 0.018 Uiso 1 1 calc R U
C15 C 0.2092(2) 0.52242(19) 0.92854(10) 0.0144(3) Uani 1 1 d . .
C16 C 0.1223(2) 0.53596(19) 0.82111(10) 0.0169(3) Uani 1 1 d . .
H9 H 0.2352 0.6267 0.7980 0.020 Uiso 1 1 calc R U
H10 H 0.0167 0.5777 0.8174 0.020 Uiso 1 1 calc R U
C17 C -0.1522(2) 0.0168(2) 0.59291(11) 0.0199(3) Uani 1 1 d . .
H14 H -0.0819 0.0202 0.6608 0.024 Uiso 1 1 calc R U
C18 C -0.2341(2) -0.1408(2) 0.51933(12) 0.0243(3) Uani 1 1 d . .
H13 H -0.2196 -0.2448 0.5366 0.029 Uiso 1 1 calc R U
loop_
_atom_site_aniso_label
_atom_site_aniso_U_11
_atom_site_aniso_U_22
_atom_site_aniso_U_33
_atom_site_aniso_U_23
_atom_site_aniso_U_13
_atom_site_aniso_U_12
O1 0.0164(5) 0.0175(5) 0.0136(5) 0.0022(4) 0.0028(4) 0.0050(4)
O2 0.0216(5) 0.0146(5) 0.0131(5) 0.0037(4) 0.0019(4) 0.0051(4)
O3 0.0407(7) 0.0250(6) 0.0214(6) 0.0051(4) 0.0006(5) 0.0175(6)
O4 0.0194(5) 0.0153(5) 0.0184(5) 0.0026(4) 0.0056(4) 0.0050(4)
O5 0.0174(5) 0.0116(5) 0.0156(5) 0.0015(4) 0.0013(4) 0.0041(4)
C1 0.0217(8) 0.0285(8) 0.0211(7) -0.0064(6) 0.0087(6) 0.0044(7)
C2 0.0186(8) 0.0389(9) 0.0147(7) -0.0003(6) 0.0035(6) 0.0085(7)
C3 0.0183(7) 0.0300(8) 0.0172(7) 0.0054(6) 0.0053(6) 0.0102(7)
C4 0.0155(7) 0.0229(7) 0.0140(6) 0.0025(5) 0.0050(5) 0.0067(6)
C5 0.0184(7) 0.0205(7) 0.0163(7) 0.0042(5) 0.0053(6) 0.0087(6)
C6 0.0168(7) 0.0163(7) 0.0153(6) 0.0036(5) 0.0051(5) 0.0074(6)
C7 0.0172(7) 0.0153(7) 0.0149(6) 0.0015(5) 0.0057(5) 0.0099(6)
C8 0.0151(7) 0.0150(7) 0.0140(6) 0.0007(5) 0.0049(5) 0.0080(6)
C9 0.0167(7) 0.0128(6) 0.0158(6) 0.0034(5) 0.0070(5) 0.0073(6)
C10 0.0172(7) 0.0168(7) 0.0122(6) 0.0030(5) 0.0052(5) 0.0098(6)
C11 0.0255(8) 0.0181(7) 0.0179(7) 0.0080(5) 0.0051(6) 0.0079(6)
C12 0.0139(6) 0.0130(6) 0.0159(6) 0.0001(5) 0.0043(5) 0.0073(6)
C13 0.0213(8) 0.0123(7) 0.0210(7) 0.0033(5) 0.0028(6) 0.0018(6)
C14 0.0177(7) 0.0128(6) 0.0165(6) 0.0037(5) 0.0064(5) 0.0081(6)
C15 0.0159(7) 0.0154(7) 0.0144(6) 0.0029(5) 0.0058(5) 0.0090(6)
C16 0.0188(7) 0.0158(7) 0.0155(7) 0.0039(5) 0.0043(5) 0.0083(6)
C17 0.0203(7) 0.0235(7) 0.0161(7) 0.0031(5) 0.0071(6) 0.0097(6)
C18 0.0253(8) 0.0225(8) 0.0249(8) 0.0020(6) 0.0128(6) 0.0089(7)
loop_
_atom_type_symbol
_atom_type_description
_atom_type_scat_dispersion_real
_atom_type_scat_dispersion_imag
_atom_type_scat_source
C C 0.0033 0.0016 'International Tables Vol C Tables 4.2.6.8 and 6.1.1.4'
H H 0.0000 0.0000 'International Tables Vol C Tables 4.2.6.8 and 6.1.1.4'
O O 0.0106 0.0060 'International Tables Vol C Tables 4.2.6.8 and 6.1.1.4'
loop_
_geom_angle_atom_site_label_1
_geom_angle_atom_site_label_2
_geom_angle_atom_site_label_3
_geom_angle
C7 O1 C6 118.11(10)
C10 O2 C11 117.39(11)
C12 O5 C13 116.99(11)
C2 C1 C18 120.30(14)
C2 C1 H1 119.9
C18 C1 H1 119.9
C3 C2 C1 120.40(14)
C3 C2 H16 119.8
C1 C2 H16 119.8
C2 C3 C4 119.97(15)
C2 C3 H15 120.0
C4 C3 H15 120.0
C17 C4 C3 119.26(13)
C17 C4 C5 122.68(13)
C3 C4 C5 118.05(13)
O3 C5 C4 122.44(13)
O3 C5 C6 119.33(13)
C4 C5 C6 118.22(12)
O1 C6 C16 110.78(11)
O1 C6 C5 105.67(11)
C16 C6 C5 113.19(11)
O1 C6 H12 109.0
C16 C6 H12 109.0
C5 C6 H12 109.0
O4 C7 O1 117.64(12)
O4 C7 C8 124.65(12)
O1 C7 C8 117.69(12)
C15 C8 C9 120.96(12)
C15 C8 C7 120.32(12)
C9 C8 C7 118.65(12)
C10 C9 C8 119.62(12)
C10 C9 H11 120.2
C8 C9 H11 120.2
O2 C10 C9 125.76(12)
O2 C10 C12 114.56(12)
C9 C10 C12 119.68(12)
O2 C11 H3 109.5
O2 C11 H2 109.5
H3 C11 H2 109.5
O2 C11 H4 109.5
H3 C11 H4 109.5
H2 C11 H4 109.5
O5 C12 C14 124.80(12)
O5 C12 C10 115.11(12)
C14 C12 C10 120.09(12)
O5 C13 H5 109.5
O5 C13 H6 109.5
H5 C13 H6 109.5
O5 C13 H7 109.5
H5 C13 H7 109.5
H6 C13 H7 109.5
C12 C14 C15 120.47(13)
C12 C14 H8 119.8
C15 C14 H8 119.8
C8 C15 C14 119.14(12)
C8 C15 C16 119.02(12)
C14 C15 C16 121.84(12)
C15 C16 C6 108.60(11)
C15 C16 H9 110.0
C6 C16 H9 110.0
C15 C16 H10 110.0
C6 C16 H10 110.0
H9 C16 H10 108.4
C18 C17 C4 120.61(14)
C18 C17 H14 119.7
C4 C17 H14 119.7
C1 C18 C17 119.45(15)
C1 C18 H13 120.3
C17 C18 H13 120.3
loop_
_geom_bond_atom_site_label_1
_geom_bond_atom_site_label_2
_geom_bond_distance
O1 C7 1.3560(16)
O1 C6 1.4589(16)
O2 C10 1.3634(16)
O2 C11 1.4288(17)
O3 C5 1.2153(18)
O4 C7 1.2093(17)
O5 C12 1.3566(17)
O5 C13 1.4300(17)
C1 C2 1.384(2)
C1 C18 1.388(2)
C1 H1 0.9500
C2 C3 1.383(2)
C2 H16 0.9500
C3 C4 1.395(2)
C3 H15 0.9500
C4 C17 1.395(2)
C4 C5 1.485(2)
C5 C6 1.5331(19)
C6 C16 1.5049(19)
C6 H12 1.0000
C7 C8 1.4747(19)
C8 C15 1.3879(19)
C8 C9 1.4031(19)
C9 C10 1.3764(19)
C9 H11 0.9500
C10 C12 1.4134(19)
C11 H3 0.9800
C11 H2 0.9800
C11 H4 0.9800
C12 C14 1.3819(19)
C13 H5 0.9800
C13 H6 0.9800
C13 H7 0.9800
C14 C15 1.393(2)
C14 H8 0.9500
C15 C16 1.5020(18)
C16 H9 0.9900
C16 H10 0.9900
C17 C18 1.388(2)
C17 H14 0.9500
C18 H13 0.9500
loop_
_geom_torsion_atom_site_label_1
_geom_torsion_atom_site_label_2
_geom_torsion_atom_site_label_3
_geom_torsion_atom_site_label_4
_geom_torsion
C18 C1 C2 C3 -0.2(2)
C1 C2 C3 C4 -0.7(2)
C2 C3 C4 C17 1.1(2)
C2 C3 C4 C5 -178.67(13)
C17 C4 C5 O3 179.51(14)
C3 C4 C5 O3 -0.7(2)
C17 C4 C5 C6 0.9(2)
C3 C4 C5 C6 -179.32(12)
C7 O1 C6 C16 -50.50(15)
C7 O1 C6 C5 -173.45(11)
O3 C5 C6 O1 115.89(14)
C4 C5 C6 O1 -65.47(15)
O3 C5 C6 C16 -5.50(19)
C4 C5 C6 C16 173.13(12)
C6 O1 C7 O4 -167.01(12)
C6 O1 C7 C8 14.87(17)
O4 C7 C8 C15 -164.43(13)
O1 C7 C8 C15 13.54(18)
O4 C7 C8 C9 12.5(2)
O1 C7 C8 C9 -169.52(11)
C15 C8 C9 C10 0.6(2)
C7 C8 C9 C10 -176.37(12)
C11 O2 C10 C9 -5.09(19)
C11 O2 C10 C12 175.31(12)
C8 C9 C10 O2 -178.23(12)
C8 C9 C10 C12 1.35(19)
C13 O5 C12 C14 7.89(19)
C13 O5 C12 C10 -173.02(12)
O2 C10 C12 O5 -1.85(17)
C9 C10 C12 O5 178.53(11)
O2 C10 C12 C14 177.29(11)
C9 C10 C12 C14 -2.3(2)
O5 C12 C14 C15 -179.55(12)
C10 C12 C14 C15 1.4(2)
C9 C8 C15 C14 -1.49(19)
C7 C8 C15 C14 175.38(12)
C9 C8 C15 C16 178.97(12)
C7 C8 C15 C16 -4.16(19)
C12 C14 C15 C8 0.5(2)
C12 C14 C15 C16 -179.97(12)
C8 C15 C16 C6 -29.98(17)
C14 C15 C16 C6 150.49(13)
O1 C6 C16 C15 55.60(14)
C5 C6 C16 C15 174.07(11)
C3 C4 C17 C18 -0.6(2)
C5 C4 C17 C18 179.14(13)
C2 C1 C18 C17 0.7(2)
C4 C17 C18 C1 -0.3(2)
