#------------------------------------------------------------------------------
#$Date: 2019-11-04 11:25:41 +0200 (Mon, 04 Nov 2019) $
#$Revision: 222597 $
#$URL: file:///home/coder/svn-repositories/cod/cif/4/03/40/4034037.cif $
#------------------------------------------------------------------------------
#
# This file is available in the Crystallography Open Database (COD),
# http://www.crystallography.net/
#
# All data on this site have been placed in the public domain by the
# contributors.
#
data_4034037
loop_
_publ_author_name
'Tang, Lin'
'Yang, Zhen'
'Jiao, Jingchao'
'Cui, Ying'
'Zou, Guodong'
'Zhou, Qiuju'
'Zhou, Yuqiang'
'Rao, Weihao'
'Ma, Xiantao'
_publ_section_title
;
 Chemoselective Mono- and Difluorination of 1,3-Dicarbonyl Compounds.
;
_journal_issue                   16
_journal_name_full               'The Journal of organic chemistry'
_journal_page_first              10449
_journal_page_last               10458
_journal_paper_doi               10.1021/acs.joc.9b01808
_journal_volume                  84
_journal_year                    2019
_chemical_formula_moiety         'C10 H9 Cl F N O2'
_chemical_formula_sum            'C10 H9 Cl F N O2'
_chemical_formula_weight         229.63
_space_group_crystal_system      triclinic
_space_group_IT_number           2
_space_group_name_Hall           '-P 1'
_space_group_name_H-M_alt        'P -1'
_atom_sites_solution_hydrogens   geom
_audit_creation_method           SHELXL-2016/6
_cell_angle_alpha                84.496(5)
_cell_angle_beta                 87.781(5)
_cell_angle_gamma                89.350(5)
_cell_formula_units_Z            2
_cell_length_a                   4.6067(6)
_cell_length_b                   9.4142(12)
_cell_length_c                   11.9555(15)
_cell_measurement_reflns_used    6687
_cell_measurement_temperature    296(2)
_cell_measurement_theta_max      26.43
_cell_measurement_theta_min      2.64
_cell_volume                     515.70(11)
_computing_cell_refinement       'APEX3 (Bruker, 2016)'
_computing_data_collection       'APEX3 (Bruker, 2016)'
_computing_data_reduction        'APEX3 (Bruker, 2016)'
_computing_molecular_graphics    'DIAMOND. Version 3.2k. Crystal Impact'
_computing_publication_material  'Windows Word 2010'
_computing_structure_refinement  'SHELXL-2016/6 (Sheldrick, 2016)'
_computing_structure_solution    'SHELXT 2018/2 (Sheldrick, 2018)'
_diffrn_ambient_temperature      296(2)
_diffrn_measured_fraction_theta_full 0.989
_diffrn_measured_fraction_theta_max 0.990
_diffrn_measurement_device_type  'Bruker D8 QUEST ECO'
_diffrn_radiation_type           MoK\a
_diffrn_radiation_wavelength     0.71073
_diffrn_reflns_av_R_equivalents  0.0192
_diffrn_reflns_av_unetI/netI     0.0160
_diffrn_reflns_Laue_measured_fraction_full 0.989
_diffrn_reflns_Laue_measured_fraction_max 0.990
_diffrn_reflns_limit_h_max       5
_diffrn_reflns_limit_h_min       -5
_diffrn_reflns_limit_k_max       11
_diffrn_reflns_limit_k_min       -11
_diffrn_reflns_limit_l_max       14
_diffrn_reflns_limit_l_min       -14
_diffrn_reflns_number            10131
_diffrn_reflns_point_group_measured_fraction_full 0.989
_diffrn_reflns_point_group_measured_fraction_max 0.990
_diffrn_reflns_theta_full        25.242
_diffrn_reflns_theta_max         26.000
_diffrn_reflns_theta_min         2.173
_exptl_absorpt_coefficient_mu    0.363
_exptl_absorpt_correction_T_max  0.7454
_exptl_absorpt_correction_T_min  0.6935
_exptl_absorpt_correction_type   multi-scan
_exptl_absorpt_process_details
;
 SADABS 2016/2: Krause, L., Herbst-Irmer, R., Sheldrick G.M. & Stalke D.,
 J. Appl. Cryst. 48 (2015) 3-10
;
_exptl_crystal_colour            colourless
_exptl_crystal_density_diffrn    1.479
_exptl_crystal_description       block
_exptl_crystal_F_000             236
_exptl_crystal_size_max          0.13
_exptl_crystal_size_mid          0.12
_exptl_crystal_size_min          0.12
_refine_diff_density_max         0.185
_refine_diff_density_min         -0.284
_refine_diff_density_rms         0.032
_refine_ls_extinction_method     none
_refine_ls_goodness_of_fit_ref   1.070
_refine_ls_hydrogen_treatment    constr
_refine_ls_matrix_type           full
_refine_ls_number_parameters     137
_refine_ls_number_reflns         2010
_refine_ls_number_restraints     0
_refine_ls_restrained_S_all      1.070
_refine_ls_R_factor_all          0.0405
_refine_ls_R_factor_gt           0.0367
_refine_ls_shift/su_max          0.001
_refine_ls_shift/su_mean         0.000
_refine_ls_structure_factor_coef Fsqd
_refine_ls_weighting_details
'w=1/[\s^2^(Fo^2^)+(0.0594P)^2^+0.1080P] where P=(Fo^2^+2Fc^2^)/3'
_refine_ls_weighting_scheme      calc
_refine_ls_wR_factor_gt          0.1058
_refine_ls_wR_factor_ref         0.1096
_reflns_Friedel_coverage         0.000
_reflns_number_gt                1806
_reflns_number_total             2010
_reflns_threshold_expression     'I > 2\s(I)'
_cod_data_source_file            jo9b01808_si_002.cif
_cod_data_source_block           2h
_cod_database_code               4034037
_shelx_shelxl_version_number     2016/6
_shelx_space_group_comment
;
The symmetry employed for this shelxl refinement is uniquely defined
by the following loop, which should always be used as a source of
symmetry information in preference to the above space-group names.
They are only intended as comments.
;
_shelx_res_file
;
TITL GZ_a.res in P-1
    GZ.res
    created by SHELXL-2016/6 at 10:50:04 on 08-Sep-2018
CELL 0.71073 4.6067 9.4142 11.9555 84.496 87.781 89.350
ZERR 2.0000 0.0006 0.0012 0.0015 0.005 0.005 0.005
LATT 1
SFAC C H N O F CL
UNIT 20 18 2 4 2 2
MERG 2
OMIT -2 52
OMIT 0 0 1
FMAP 2
ACTA
GRID
PLAN 20
TEMP 23
BOND
L.S. 10
WGHT    0.059400    0.108000
FVAR       2.26569
CL1   6    0.923936    0.749099    1.053688    11.00000    0.08697    0.10932 =
         0.05895   -0.00682   -0.02571    0.00044
F1    5   -0.243784    0.857729    0.518493    11.00000    0.05210    0.07293 =
         0.06817   -0.00627   -0.00229    0.02902
O1    4    0.270508    0.588072    0.582958    11.00000    0.07486    0.04168 =
         0.06083   -0.01177   -0.02167    0.01866
O2    4    0.058575    0.900871    0.333471    11.00000    0.09631    0.04650 =
         0.06855    0.00941    0.00622    0.01794
N1    3    0.171294    0.794860    0.661503    11.00000    0.04846    0.03724 =
         0.04823   -0.00400   -0.00234    0.01128
AFIX  43
H1A   2    0.067642    0.871504    0.654181    11.00000   -1.20000
AFIX   0
C1    1    0.629345    0.638591    0.891989    11.00000    0.07146    0.05391 =
         0.04903    0.00229   -0.00587    0.01262
AFIX  43
H1    2    0.693438    0.550191    0.923544    11.00000   -1.20000
AFIX   0
C2    1    0.711138    0.760930    0.935347    11.00000    0.05238    0.07056 =
         0.04188   -0.00444   -0.00153    0.00132
C3    1    0.625083    0.891925    0.888223    11.00000    0.06909    0.05582 =
         0.06080   -0.01275   -0.00726   -0.00525
AFIX  43
H3    2    0.685869    0.974416    0.917135    11.00000   -1.20000
AFIX   0
C4    1    0.447733    0.900930    0.797629    11.00000    0.06396    0.04095 =
         0.05831   -0.00425   -0.00529    0.00272
AFIX  43
H4    2    0.387612    0.989965    0.765920    11.00000   -1.20000
AFIX   0
C5    1    0.357955    0.778888    0.753240    11.00000    0.04430    0.04136 =
         0.04050   -0.00344    0.00384    0.00496
C6    1    0.451141    0.647083    0.801139    11.00000    0.06931    0.04148 =
         0.05132   -0.00490   -0.00840    0.00719
AFIX  43
H6    2    0.393580    0.564136    0.772057    11.00000   -1.20000
AFIX   0
C7    1    0.141453    0.701617    0.585185    11.00000    0.04077    0.03789 =
         0.04578   -0.00049   -0.00157    0.00323
C8    1   -0.072064    0.744051    0.492773    11.00000    0.04069    0.04287 =
         0.05577   -0.00261   -0.00637    0.00701
AFIX  13
H8    2   -0.198639    0.662549    0.486142    11.00000   -1.20000
AFIX   0
C9    1    0.081792    0.782328    0.379056    11.00000    0.04555    0.04031 =
         0.05071   -0.00192   -0.01157    0.00736
C10   1    0.245017    0.667441    0.326214    11.00000    0.07203    0.05682 =
         0.05432   -0.00808   -0.00758    0.02012
AFIX 137
H10A  2    0.110638    0.604905    0.296485    11.00000   -1.50000
H10B  2    0.358651    0.614118    0.381600    11.00000   -1.50000
H10C  2    0.371165    0.709112    0.266436    11.00000   -1.50000

AFIX   0
HKLF 4




REM  GZ_a.res in P-1
REM R1 =  0.0367 for    1806 Fo > 4sig(Fo)  and  0.0405 for all    2010 data
REM    137 parameters refined using      0 restraints

END

WGHT      0.0495      0.1215

REM Highest difference peak  0.185,  deepest hole -0.284,  1-sigma level  0.032
Q1    1   0.7938  0.6804  1.0644  11.00000  0.05    0.19
Q2    1   0.7159  0.7428  1.0692  11.00000  0.05    0.18
Q3    1  -0.1160  0.9211  0.5213  11.00000  0.05    0.18
Q4    1   0.7558  0.7095  1.0704  11.00000  0.05    0.18
Q5    1   0.0270  0.7272  0.5383  11.00000  0.05    0.18
Q6    1   0.1093  0.5812  0.6174  11.00000  0.05    0.17
Q7    1   0.0144  0.7525  0.4340  11.00000  0.05    0.16
Q8    1   0.6016  0.7029  0.9310  11.00000  0.05    0.16
Q9    1   0.2367  0.6853  0.2382  11.00000  0.05    0.15
Q10   1   0.2433  0.5738  0.3771  11.00000  0.05    0.14
Q11   1   0.7748  0.7549  0.9737  11.00000  0.05    0.13
Q12   1   0.4558  0.8862  0.8757  11.00000  0.05    0.13
Q13   1   0.5933  0.8174  0.9322  11.00000  0.05    0.12
Q14   1   0.3640  0.8214  0.7873  11.00000  0.05    0.12
Q15   1   0.3457  0.7107  0.7935  11.00000  0.05    0.12
Q16   1   0.1456  0.7220  0.3572  11.00000  0.05    0.12
Q17   1   0.4454  0.8381  0.7617  11.00000  0.05    0.11
Q18   1   0.6345  0.6584  0.8203  11.00000  0.05    0.10
Q19   1   0.4828  0.7142  0.7615  11.00000  0.05    0.10
Q20   1   0.4897  0.6476  0.8629  11.00000  0.05    0.10
;
_shelx_res_checksum              37482
_shelx_hkl_file
;
  -1   0   0 2638.84   61.69
   1   0   0 2595.54   61.69
  -2   0   0  215.48    5.40
  -2   0   0  215.98    7.90
  -2   0   0  222.18    5.50
   2   0   0  222.88    5.20
   2   0   0  216.58    5.40
   2   0   0  219.18    7.90
   2   0   0  213.58    5.50
  -3   0   0   54.09    2.00
  -3   0   0   52.09    1.90
  -3   0   0   48.30    4.30
   3   0   0   54.29    1.90
   3   0   0   51.49    4.50
  -4   0   0   40.90    4.70
  -4   0   0   31.20    1.90
   4   0   0   29.70    4.20
   4   0   0   33.20    1.80
  -5   0   0   43.80    6.30
  -5   0   0   44.70    2.50
   5   0   0   52.99    7.20
   5   0   0   42.10    2.30
   5  -1   0  119.09    4.00
   5  -1   0  140.29   13.10
  -5   1   0  102.59    8.80
  -5   1   0  114.49    4.10
   4  -1   0  315.27    7.50
   4  -1   0  309.47    7.50
   4  -1   0  307.47   12.40
   4  -1   0  310.47    8.10
  -4   1   0  315.87    8.20
  -4   1   0  292.57   12.20
   3  -1   0    1.60    0.90
   3  -1   0    0.60    0.40
   3  -1   0    0.60    0.70
   3  -1   0    1.70    1.90
  -3   1   0    0.70    1.50
  -3   1   0    0.40    0.50
   2  -1   0  450.55   10.60
   2  -1   0  445.06   10.80
   2  -1   0  450.95   13.20
   2  -1   0  430.16   10.80
   2  -1   0  447.56   10.80
  -2   1   0  447.56   10.60
  -2   1   0  459.45   10.80
  -2   1   0  471.75   13.30
   1  -1   0  140.39    3.40
   1  -1   0  140.39    3.50
   1  -1   0  145.69    3.50
  -1   1   0  145.59    3.40
  -1   1   0  143.99    3.50
  -1   1   0  134.59    3.50
   0   1   0  357.96    9.40
  -1  -1   0  749.03   17.40
  -1  -1   0  732.53   19.60
  -1  -1   0  756.22   17.40
   1   1   0  738.93   17.40
   1   1   0  767.32   20.00
  -2  -1   0  194.48    4.90
  -2  -1   0  194.08    5.00
  -2  -1   0  200.18    7.80
   2   1   0  195.38    5.00
   2   1   0  193.48    4.90
   2   1   0  185.58    7.60
  -3  -1   0    2.30    0.60
  -3  -1   0    1.40    0.60
  -3  -1   0    5.10    2.20
   3   1   0    1.60    2.10
   3   1   0    2.90    0.70
   3   1   0    1.60    0.60
  -4  -1   0  337.17   14.00
  -4  -1   0  346.17    8.90
   4   1   0  338.47   14.00
   4   1   0  335.87    8.70
  -5  -1   0   52.29    2.70
   5   1   0   49.80    2.40
   5  -2   0  136.69    4.40
   5  -2   0  125.09    3.60
   5  -2   0  128.69    3.70
  -5   2   0  137.19    4.50
   4  -2   0   54.49    2.20
   4  -2   0   50.49    1.80
   4  -2   0   49.80    1.80
   4  -2   0   58.29    5.20
  -4   2   0   49.70    4.90
  -4   2   0   53.49    2.30
   3  -2   0 1068.29   25.10
   3  -2   0 1167.18   26.60
   3  -2   0 1047.90   25.30
   3  -2   0 1091.29   29.70
   3  -2   0 1040.00   25.30
  -3   2   0 1068.49   29.50
  -3   2   0 1066.79   25.40
  -3   2   0 1049.70   25.10
   2  -2   0  391.76   12.00
   2  -2   0  390.16    9.50
   2  -2   0  397.66    9.40
   2  -2   0  387.66    9.50
   2  -2   0  388.06    9.50
  -2   2   0  396.36   12.10
  -2   2   0  400.96    9.50
  -2   2   0  389.56    9.40
   1  -2   0  694.83   18.40
   1  -2   0  692.83   16.30
   1  -2   0  703.53   16.30
   1  -2   0  702.43   16.30
  -1   2   0  702.23   16.30
  -1   2   0  698.33   18.40
  -1   2   0  702.93   16.30
  -1   2   0  691.73   16.30
  -2  -2   0   76.99    5.20
  -2  -2   0   88.19    2.50
  -2  -2   0   86.59    2.40
   2   2   0   88.59    5.60
   2   2   0   86.29    2.50
   2   2   0   86.49    2.50
  -3  -2   0  815.12   20.10
  -3  -2   0  852.61   20.00
   3   2   0  855.41   19.90
   3   2   0  824.12   20.00
  -4  -2   0  147.39    4.50
   4   2   0  145.89    9.30
   4   2   0  146.59    4.40
  -5  -2   0    9.00    1.30
   5   2   0    8.30    1.20
   5   2   0   11.10    3.70
   5  -3   0  229.38    6.60
   5  -3   0  215.28    5.90
   5  -3   0  225.08    5.90
  -5   3   0  226.08    6.60
   4  -3   0  379.76    9.30
   4  -3   0  395.26   14.10
   4  -3   0  377.76    9.60
   4  -3   0  356.86    9.20
  -4   3   0  372.66    9.70
  -4   3   0  372.96   13.70
   3  -3   0  290.37   10.70
   3  -3   0  283.77    7.10
   3  -3   0  278.27    7.30
   3  -3   0  288.17    7.30
  -3   3   0  279.27    7.10
  -3   3   0  286.17    7.30
  -3   3   0  288.97   10.70
   2  -3   0  143.39    6.40
   2  -3   0  140.99    3.80
   2  -3   0  136.99    3.80
   2  -3   0  145.39    3.80
  -2   3   0  142.29    6.40
  -2   3   0  143.59    3.90
  -2   3   0  152.38    3.80
  -2   3   0  142.39    3.80
   1  -3   0 1581.14   37.30
   1  -3   0 1613.14   40.40
   1  -3   0 1639.24   37.20
   1  -3   0 1602.64   37.30
  -1   3   0 1622.94   37.20
  -1   3   0 1573.54   37.30
  -1   3   0 1638.14   40.50
  -1   3   0 1599.14   37.30
   0  -3   0  126.59    3.20
   0  -3   0  125.59    3.20
   0  -3   0  127.99    3.00
   0  -3   0  122.69    6.10
   0   3   0  125.89    3.20
   0   3   0  118.39    5.70
   0   3   0  124.19    3.00
  -1  -3   0   21.10    0.80
  -1  -3   0   24.90    0.90
   1   3   0   20.50    0.90
   1   3   0   21.90    0.90
   1   3   0   13.70    2.60
   1   3   0   23.30    0.90
   1   3   0   20.80    0.80
   1   3   0   24.70    3.40
  -2  -3   0 1046.10   24.70
  -2  -3   0 1042.50   24.70
   2   3   0 1044.60   24.70
   2   3   0 1078.89   30.20
   2   3   0 1067.49   30.00
   2   3   0 1043.50   24.70
  -3  -3   0   90.69    2.90
  -3  -3   0   87.59    2.80
   3   3   0   97.09    7.40
   3   3   0   89.79    6.90
   3   3   0   91.29    2.80
   3   3   0   88.99    2.90
  -4  -3   0  135.99    4.30
   4   3   0  137.39    9.80
   4   3   0  137.19    4.20
   4   3   0  136.69    9.30
  -5  -3   0  145.59    4.90
   5   3   0  138.79   10.40
   5   3   0  150.68    4.70
   5  -4   0  131.99    4.50
   5  -4   0  135.59    4.00
  -5   4   0  136.29    4.60
   4  -4   0   84.39    2.70
   4  -4   0   71.99    6.10
   4  -4   0   79.39    3.00
  -4   4   0   75.99    6.00
  -4   4   0   83.69    3.00
   3  -4   0   24.30    1.40
   3  -4   0   24.50    3.60
   3  -4   0   24.50    1.50
   3  -4   0   25.50    1.30
  -3   4   0   24.60    1.40
  -3   4   0   25.50    3.60
   2  -4   0  203.98    5.30
   2  -4   0  200.48    8.60
   2  -4   0  197.28    5.30
   2  -4   0  201.68    5.20
  -2   4   0  203.58    5.20
  -2   4   0  206.38    8.60
  -2   4   0  207.38    5.20
  -2   4   0  209.88    5.30
   1  -4   0 4670.03  111.69
  -1   4   0 4641.54  111.59
   0  -4   0  131.99    3.40
   0  -4   0  128.89    6.70
   0  -4   0  129.39    3.40
   0  -4   0  130.49    3.20
   0   4   0  132.99    6.80
   0   4   0  127.89    3.40
   0   4   0  122.29    3.40
   0   4   0  130.79    3.20
   1   4   0 2226.68   60.09
  -2  -4   0  321.27    8.10
  -2  -4   0  330.47    8.10
  -2  -4   0  331.77    7.80
   2   4   0  332.17    7.80
   2   4   0  339.67   13.60
   2   4   0  336.37   13.70
   2   4   0  310.47    8.20
   2   4   0  326.47    8.10
  -3  -4   0    1.40    0.60
  -3  -4   0    3.20    0.70
   3   4   0    2.20    0.70
   3   4   0    0.50    2.50
   3   4   0    3.90    3.00
   3   4   0    2.50    0.70
  -4  -4   0  136.59    4.40
   4   4   0  137.19    4.20
   4   4   0  145.29   10.00
   4   4   0  126.79   10.10
  -5  -4   0    5.80    1.30
   5   4   0    7.90    1.30
   5   4   0    1.00    4.00
   5  -5   0   19.50    2.00
   5  -5   0   16.40    1.60
  -5   5   0   20.20    1.90
   4  -5   0   28.00    1.90
   4  -5   0   25.10    1.60
   4  -5   0   20.10    3.90
  -4   5   0   18.00    3.40
  -4   5   0   23.00    1.70
   3  -5   0  397.56   10.10
   3  -5   0  417.06   10.20
   3  -5   0  411.16   14.90
  -3   5   0  394.06   10.10
  -3   5   0  406.06   10.20
  -3   5   0  415.66   14.80
  -3   5   0  409.56   10.10
   2  -5   0    4.00    0.60
   2  -5   0    4.90    0.70
   2  -5   0    3.40    0.60
   2  -5   0    5.30    2.20
  -2   5   0    5.30    0.80
  -2   5   0    4.10    0.60
  -2   5   0    4.90    2.00
  -2   5   0    4.70    0.70
   1  -5   0  190.58    4.80
   1  -5   0  192.28    5.00
   1  -5   0  198.48    5.30
   1  -5   0  190.78    9.10
  -1   5   0  195.98    9.20
  -1   5   0  191.38    4.80
  -1   5   0  188.28    5.00
  -1   5   0  191.08    5.00
   0  -5   0   11.70    2.80
   0  -5   0   12.00    0.80
   0  -5   0   11.40    0.80
   0  -5   0   10.50    0.60
   0   5   0   12.10    0.80
   0   5   0   13.40    0.80
   0   5   0   10.20    0.60
   0   5   0   12.10    2.90
  -1  -5   0    1.60    0.40
  -1  -5   0    0.50    0.40
   1   5   0   -1.00    1.90
   1   5   0    0.20    0.40
   1   5   0    0.80    0.40
   1   5   0    1.20    0.40
   1   5   0    0.60    0.40
  -2  -5   0 1224.18   28.60
  -2  -5   0 1241.08   29.20
   2   5   0 1239.58   28.80
   2   5   0 1249.88   28.90
   2   5   0 1259.07   36.60
   2   5   0 1197.78   39.60
   2   5   0 1209.88   28.60
   2   5   0 1217.68   28.90
   3   5   0   53.09    2.20
   3   5   0   49.70    7.00
   3   5   0   54.09    6.70
   3   5   0   51.29    2.30
   3   5   0   64.99    2.30
  -4  -5   0   25.90    1.90
   4   5   0   17.60    5.90
   4   5   0   21.90    5.60
   4   5   0   28.90    1.80
   5   5   0   35.70    2.40
   5   5   0   41.00    6.90
   4  -6   0   18.90    4.20
   4  -6   0   19.60    1.60
   4  -6   0   21.50    1.80
  -4   6   0   22.40    1.70
  -4   6   0   20.80    3.80
   3  -6   0   61.39    6.00
   3  -6   0   61.29    2.40
   3  -6   0   57.89    2.20
  -3   6   0   61.49    2.30
  -3   6   0   52.99    5.50
  -3   6   0   61.69    2.40
   2  -6   0  309.77    7.60
   2  -6   0  309.77    7.90
   2  -6   0  300.07   12.90
  -2   6   0  306.77    7.90
  -2   6   0  302.57   12.80
  -2   6   0  307.27    7.60
   1  -6   0 1937.31   50.49
   1  -6   0 1926.81   43.90
   1  -6   0 1797.72   44.00
  -1   6   0 1809.12   43.90
  -1   6   0 1924.71   43.60
  -1   6   0 1905.81   50.49
  -1   6   0 1878.51   43.90
   0  -6   0 1883.61   43.00
   0  -6   0 1833.02   43.30
   0  -6   0 1932.11   50.59
   0  -6   0 1801.92   43.40
   0   6   0 1834.42   43.30
   0   6   0 1869.31   43.00
   0   6   0 1872.61   50.49
   0   6   0 1865.71   43.30
  -1  -6   0   55.89    1.90
  -1  -6   0   49.60    1.80
   1   6   0   51.09    1.70
   1   6   0   51.59    1.70
   1   6   0   50.59    1.70
   1   6   0   50.49    1.90
   1   6   0   45.70    5.80
  -2  -6   0  224.68    5.60
  -2  -6   0  210.78    5.90
   2   6   0  224.98    5.60
   2   6   0  230.28    6.20
   2   6   0  229.78    6.00
   2   6   0  226.28   12.80
   2   6   0  226.38    5.90
   2   6   0  240.38   12.60
   3   6   0   86.79    3.00
   3   6   0   92.49    3.10
   3   6   0   97.39    9.60
   3   6   0   80.19   10.30
   4   6   0   15.80    1.70
   4   6   0    9.80    1.20
   4   6   0   18.70    5.10
   4   6   0    8.20    4.80
   4  -7   0   41.50    2.30
   4  -7   0   37.40    2.10
  -4   7   0   36.50    2.10
   3  -7   0   22.80    5.60
   3  -7   0   20.00    1.40
   3  -7   0   20.40    1.60
  -3   7   0   21.00    1.40
  -3   7   0   17.90    1.60
  -3   7   0   13.00    4.70
   2  -7   0  539.55   19.80
   2  -7   0  531.55   12.90
   2  -7   0  540.25   13.30
  -2   7   0  543.55   13.30
  -2   7   0  527.25   12.90
  -2   7   0  537.25   19.60
   1  -7   0   17.00    4.10
   1  -7   0   10.20    0.80
   1  -7   0   13.10    1.20
  -1   7   0   11.70    0.90
  -1   7   0   14.00    1.20
  -1   7   0   12.90    3.50
   0  -7   0  202.48   11.30
   0  -7   0  188.18    5.20
   0  -7   0  193.98    5.30
   0  -7   0  194.38    5.20
   0   7   0  185.98    5.20
   0   7   0  194.38   11.00
   0   7   0  197.78    4.80
   0   7   0  194.38    5.20
  -1  -7   0  297.87    7.80
  -1  -7   0  308.77    7.70
   1   7   0  307.77    7.80
   1   7   0  301.77    7.70
   1   7   0  318.27    7.60
   1   7   0  303.67    7.50
   1   7   0  308.87   14.90
  -2  -7   0    0.60    0.50
   2   7   0   -0.10    0.60
   2   7   0    1.70    0.50
   2   7   0    1.10    0.60
   2   7   0   -4.10    2.50
   2   7   0    2.50    3.40
   2   7   0    1.00    0.60
   3   7   0   13.70    4.70
   3   7   0   13.50    5.30
   3   7   0   10.80    1.10
   3   7   0    9.50    1.10
   4   7   0   44.80    8.50
   4   7   0   49.60    2.50
   4   7   0   54.89    2.70
   4   7   0   52.39   12.40
   4  -8   0    0.70    1.00
   4  -8   0   -0.30    0.90
  -4   8   0   -0.50    0.80
   3  -8   0  256.37   13.50
   3  -8   0  265.97    7.20
   3  -8   0  245.28    6.70
  -3   8   0  261.77    6.80
  -3   8   0  261.97    7.20
  -3   8   0  255.17   13.50
   2  -8   0  262.07    6.70
   2  -8   0  273.67    7.20
   2  -8   0  259.27   13.60
  -2   8   0  265.27    6.70
  -2   8   0  267.57   13.40
  -2   8   0  266.87    7.20
   1  -8   0   89.29    8.10
   1  -8   0   95.89    3.10
   1  -8   0   89.89    2.60
  -1   8   0   92.49    2.60
  -1   8   0   90.29    3.10
  -1   8   0   93.99    8.10
   0  -8   0  310.47   15.70
   0  -8   0  303.57    7.60
   0  -8   0  317.27    8.10
   0   8   0  315.77    7.60
   0   8   0  309.97   15.70
   0   8   0  307.47    8.10
  -1  -8   0   35.50    1.70
   1   8   0   32.40    1.50
   1   8   0   31.60    1.60
   1   8   0   33.80    1.90
   1   8   0   37.70    6.80
   1   8   0   33.90    1.50
   1   8   0   30.50    5.90
  -2  -8   0   20.20    1.20
   2   8   0   18.30    1.20
   2   8   0   17.10    1.30
   2   8   0   13.50    4.90
   2   8   0   16.40    1.40
   2   8   0   17.70    1.90
   2   8   0   22.40    5.70
  -3  -8   0    1.30    0.50
   3   8   0    2.30    4.60
   3   8   0    0.40    0.70
   3   8   0    0.10    0.80
   3   8   0   -0.60    3.80
   4   8   0    0.60    0.90
   4   8   0    0.70    4.80
   4   8   0    0.60    1.00
   3  -9   0    4.80    1.10
   3  -9   0    2.50    0.70
  -3   9   0    2.10    0.90
  -3   9   0    3.10    0.80
   2  -9   0  141.89    4.50
   2  -9   0  131.69    3.80
   2  -9   0  141.19   10.50
  -2   9   0  144.99    4.50
  -2   9   0  155.48   10.60
  -2   9   0  145.19    3.90
   1  -9   0  453.05   11.40
   1  -9   0  505.45   21.00
   1  -9   0  481.65   12.10
  -1   9   0  482.05   12.00
  -1   9   0  468.75   20.40
   0  -9   0  411.66   10.30
   0  -9   0  404.26   19.00
   0   9   0  397.26    9.70
   0   9   0  388.56   18.70
   0   9   0  411.06   10.40
  -1  -9   0  533.55   13.40
   1   9   0  527.75   13.00
   1   9   0  551.04   13.60
   1   9   0  531.05   13.00
   1   9   0  568.04   23.90
   1   9   0  567.64   24.10
  -2  -9   0   43.10    1.90
   2   9   0   45.80    1.90
   2   9   0   42.90    1.90
   2   9   0   24.40    7.90
   2   9   0   40.70    7.80
  -3  -9   0    0.60    0.90
  -3  -9   0    3.00    0.60
   3   9   0    0.10    5.50
   3   9   0    2.20    0.90
   3   9   0   -4.40    3.90
   3   9   0    1.60    0.80
   2 -10   0   -0.10    0.80
   2 -10   0    0.40    0.50
  -2  10   0    0.00    0.50
  -2  10   0    1.00    0.80
   1 -10   0   30.80    2.00
   1 -10   0   30.10    6.70
  -1  10   0   30.10    2.00
  -1  10   0   26.90    6.10
   0 -10   0   33.50    2.40
   0  10   0   32.90    6.90
   0  10   0   35.10    2.10
  -1 -10   0   54.19    2.40
   1  10   0   63.19    9.50
   1  10   0   41.70    8.50
   1  10   0   56.09    2.60
   1  10   0   53.59    1.90
   1  10   0   54.99    2.00
  -2 -10   0   -0.30    0.60
   2  10   0    0.20    0.70
   2  10   0   -9.60    4.60
   2  10   0   -4.50    4.60
   2  10   0    1.30    0.90
   2  10   0    0.00    0.70
  -3 -10   0    2.40    0.70
   3  10   0    0.50    0.80
   3  10   0    2.00    5.40
   3  10   0    3.80    1.10
   3  10   0    8.30    7.10
   1 -11   0   76.09    3.20
  -1  11   0   82.49    3.30
   0 -11   0    2.60    1.00
   0  11   0    0.60    4.50
   0  11   0    1.30    0.90
   0  11   0   -5.10    4.50
  -1 -11   0   11.70    1.30
   1  11   0    9.20    8.20
   1  11   0   10.20    1.40
   1  11   0   16.80    6.70
   1  11   0   12.60    1.10
  -2 -11   0  142.39    6.00
   2  11   0  171.28    5.20
   2  11   0  128.19   15.30
   2  11   0  160.68    4.50
   1  11  -1   13.70    6.50
   1  11  -1    7.50    6.50
   1  11  -1   10.80    1.40
  -1 -11   1   15.90    1.60
   0  11  -1  111.69   12.50
   0  11  -1   87.89   10.70
   0  11  -1  105.99    3.80
   0 -11   1  103.29    3.70
  -1  11  -1    2.00    1.00
  -1  11  -1    5.20    4.80
   1 -11   1    2.70    1.00
   2  10  -1   14.50    7.30
   2  10  -1    5.10    1.10
   2  10  -1    7.90    0.90
   2  10  -1   -6.00    4.50
  -2 -10   1    5.40    0.90
   1  10  -1  205.58   14.40
   1  10  -1  189.88   15.00
   1  10  -1  190.98    5.80
  -1 -10   1  197.28    5.60
   0  10  -1   47.80    7.70
   0  10  -1   48.30    2.40
   0  10  -1   49.10    7.70
   0 -10   1   47.10    2.40
  -1  10  -1   11.80    1.30
  -1  10  -1   15.50    4.90
   1 -10   1   11.10    1.40
  -2  10  -1    0.10    0.80
   2 -10   1    0.90    0.90
   3   9  -1   12.70    6.30
   3   9  -1   10.10    1.40
   3   9  -1    9.00    1.10
   3   9  -1   14.60    6.00
  -3  -9   1    9.10    1.00
   2   9  -1  137.89   12.80
   2   9  -1  121.09   11.60
   2   9  -1  125.39    3.70
   2   9  -1  132.99    4.20
   2   9  -1  119.69    4.00
  -2  -9   1  128.09    3.80
   1   9  -1   14.90    6.10
   1   9  -1   -0.90    0.90
   1   9  -1    0.20    4.20
  -1  -9   1    1.60    0.80
   0   9  -1   -0.20    3.40
   0   9  -1    1.60    0.80
   0   9  -1   -3.30    3.20
   0  -9   1    0.90    0.70
  -1   9  -1  399.66   18.30
  -1   9  -1  407.76   10.60
   1  -9   1  401.46   18.60
   1  -9   1  421.16   10.60
  -2   9  -1  112.09    3.80
  -2   9  -1  120.49    9.10
   2  -9   1  114.79    3.80
   2  -9   1  108.49    9.30
  -3   9  -1   84.09    3.30
  -3   9  -1   83.69    2.70
   3  -9   1   84.39    3.30
   4   8  -1    5.20    1.10
   4   8  -1    5.20    1.20
   4   8  -1    4.30    5.30
   3   8  -1   -2.00    4.40
   3   8  -1    0.40    0.70
   3   8  -1   -0.20    0.70
   3   8  -1   -3.20    3.80
  -3  -8   1    0.90    0.50
  -3  -8   1   -0.30    0.40
   2   8  -1    1.60    6.20
   2   8  -1    1.20    0.60
   2   8  -1   -0.30    0.70
   2   8  -1   -2.50    3.40
   2   8  -1    1.90    0.60
   2   8  -1    2.00    0.70
  -2  -8   1    1.40    0.60
   1   8  -1  697.33   16.20
   1   8  -1  694.23   16.80
   1   8  -1  569.44   32.30
   1   8  -1  693.03   16.20
   1   8  -1  672.43   16.60
   1   8  -1  731.63   27.10
  -1  -8   1  712.83   16.60
   0   8  -1   82.59    8.40
   0   8  -1   88.79    3.00
   0  -8   1   91.19    3.00
  -1   8  -1   51.89    6.50
  -1   8  -1   54.39    2.30
   1  -8   1   54.69    6.70
   1  -8   1   55.59    2.30
  -2   8  -1   84.49    3.00
  -2   8  -1   84.19    2.50
  -2   8  -1   85.99    7.50
   2  -8   1   83.09    3.00
   2  -8   1   82.09    2.50
   2  -8   1   81.79    7.60
  -3   8  -1    1.00    0.90
  -3   8  -1   -1.90    2.80
  -3   8  -1    1.40    0.70
   3  -8   1    0.20    3.10
   3  -8   1    0.50    0.90
   3  -8   1    1.20    0.70
  -4   8  -1    1.10    0.70
   4  -8   1    1.00    0.90
   4   7  -1    3.60    1.90
   4   7  -1   -1.80    4.80
   4   7  -1   12.70    5.40
   4   7  -1    4.30    1.10
   3   7  -1    1.10    0.80
   3   7  -1   -0.90    4.00
   3   7  -1    1.80    3.90
   3   7  -1    2.80    0.80
   2   7  -1   11.10    4.90
   2   7  -1    4.80    3.70
   2   7  -1    9.80    1.00
   2   7  -1   12.80    1.10
   2   7  -1   11.20    1.10
   2   7  -1   10.40    1.00
  -2  -7   1   14.10    1.00
   1   7  -1 1117.29   34.70
   1   7  -1 1071.29   25.50
   1   7  -1 1052.79   34.00
   1   7  -1 1028.70   25.60
   1   7  -1 1099.89   25.10
   1   7  -1 1076.09   25.00
  -1  -7   1 1072.79   25.30
   0   7  -1  304.47    7.70
   0   7  -1  281.47   14.50
   0   7  -1  294.67    7.60
   0  -7   1  313.37    7.70
   0  -7   1  299.77    7.70
  -1   7  -1  372.66    9.50
  -1   7  -1  365.76   15.30
   1  -7   1  392.56   15.80
   1  -7   1  374.76    9.50
  -2   7  -1  918.51   21.90
  -2   7  -1  902.91   28.30
  -2   7  -1  919.51   21.50
   2  -7   1  894.21   21.50
   2  -7   1  915.41   21.90
   2  -7   1  934.01   28.70
  -3   7  -1   33.20    1.70
  -3   7  -1   27.50    3.00
  -3   7  -1   37.20    5.10
   3  -7   1   31.50    4.90
   3  -7   1   35.60    1.90
   3  -7   1   33.50    1.90
  -4   7  -1   33.60    1.80
   4  -7   1   31.40    2.00
   4  -7   1   32.20    2.20
   4   6  -1    8.70    1.20
   4   6  -1    4.40    4.40
   4   6  -1    8.60    1.20
   4   6  -1   14.40    5.20
   3   6  -1   17.80    1.50
   3   6  -1   18.80    5.00
   3   6  -1   16.70    1.40
   3   6  -1   11.80    4.90
   2   6  -1   14.60    1.20
   2   6  -1   14.20    4.30
   2   6  -1   16.50    1.10
   2   6  -1   17.60    4.80
   2   6  -1   16.60    1.10
   2   6  -1   17.00    1.00
  -2  -6   1   18.90    1.00
   1   6  -1   84.89    7.70
   1   6  -1   76.49    2.60
   1   6  -1   79.79    2.30
   1   6  -1   80.49    2.40
   1   6  -1   80.39    2.30
   1   6  -1   77.49    7.10
  -1  -6   1   78.99    2.50
  -1  -6   1   79.59    2.40
   0   6  -1   24.40    4.30
   0   6  -1   23.20    1.20
   0   6  -1   21.60    1.30
   0  -6   1   23.30    1.40
   0  -6   1   23.10    4.20
   0  -6   1   23.90    1.20
  -1   6  -1    0.80    0.60
  -1   6  -1    1.50    3.20
  -1   6  -1    0.10    0.40
   1  -6   1    0.60    0.50
   1  -6   1    0.00    0.30
   1  -6   1   -0.20    0.40
   1  -6   1    0.50    2.30
  -2   6  -1   58.19    2.20
  -2   6  -1   57.59    1.90
  -2   6  -1   52.89    5.10
   2  -6   1   56.79    5.30
   2  -6   1   57.49    1.90
   2  -6   1   55.99    2.10
  -3   6  -1   23.80    3.70
  -3   6  -1   23.40    1.40
  -3   6  -1   22.20    1.60
   3  -6   1   24.00    1.60
   3  -6   1   24.50    4.10
  -4   6  -1    5.20    1.00
  -4   6  -1    5.60    2.60
   4  -6   1    5.30    1.10
   4  -6   1    1.40    2.60
   4  -6   1    4.60    1.00
   5   5  -1    0.30    1.00
   5   5  -1   -3.20    4.20
  -5  -5   1    0.20    1.00
   4   5  -1    5.70    4.50
   4   5  -1   12.80    4.70
  -4  -5   1   13.20    1.60
   3   5  -1   43.50    2.00
   3   5  -1   35.80    6.00
   3   5  -1   39.90    6.30
   3   5  -1   42.90    2.00
  -3  -5   1   45.70    2.00
   2   5  -1  479.05   18.60
   2   5  -1  496.95   11.90
   2   5  -1  489.85   11.90
   2   5  -1  509.75   19.30
   2   5  -1  491.85   12.00
  -2  -5   1  492.45   11.60
  -2  -5   1  480.65   12.00
   1   5  -1 1421.26   40.00
   1   5  -1 1460.55   33.20
   1   5  -1 1427.16   33.30
   1   5  -1 1363.96   33.40
   1   5  -1 1453.45   33.70
   1   5  -1 1479.05   40.50
  -1  -5   1 1422.96   33.40
  -1  -5   1 1429.76   33.30
   0   5  -1  146.29    3.90
   0   5  -1  138.29    7.70
   0   5  -1  143.39    3.80
   0  -5   1  145.09    3.90
   0  -5   1  148.19    3.90
   0  -5   1  147.09    7.90
  -1   5  -1 3928.01   95.59
   1  -5   1 3911.81   95.49
   1  -5   1 3886.91   90.29
  -2   5  -1    9.70    0.90
  -2   5  -1   10.90    1.00
  -2   5  -1   11.50    2.40
  -2   5  -1   14.60    0.90
   2  -5   1   10.70    0.90
   2  -5   1   11.00    0.90
   2  -5   1   10.70    1.00
   2  -5   1    9.20    2.40
  -3   5  -1  158.98    4.40
  -3   5  -1  139.99    7.50
  -3   5  -1  160.78    4.60
   3  -5   1  154.68    4.70
   3  -5   1  163.18    4.50
   3  -5   1  162.48    8.00
  -4   5  -1   29.70    4.10
  -4   5  -1   32.90    2.00
   4  -5   1   38.30    2.20
   4  -5   1   38.30    4.60
   4  -5   1   38.10    1.90
  -5   5  -1   23.70    2.00
   5  -5   1   27.40    2.10
   5  -5   1   23.20    1.80
   5   4  -1    1.40    4.20
   5   4  -1    8.50    1.30
  -5  -4   1   10.40    1.40
   4   4  -1   18.40    4.70
   4   4  -1   25.40    1.70
   4   4  -1   16.10    4.80
  -4  -4   1   25.70    1.80
   3   4  -1   40.20    1.80
   3   4  -1   48.00    6.20
   3   4  -1   42.90    6.20
   3   4  -1   41.00    1.80
  -3  -4   1   39.80    1.80
   2   4  -1   26.30    1.30
   2   4  -1   28.80    1.40
   2   4  -1   26.60    4.40
   2   4  -1   26.90    4.60
  -2  -4   1   28.90    1.30
  -2  -4   1   29.60    1.00
  -2  -4   1   30.40    1.30
   1   4  -1   33.00    1.30
   1   4  -1   37.20    4.40
   1   4  -1   35.90    1.30
   1   4  -1   35.20    1.20
   1   4  -1   32.20    4.10
   1   4  -1   34.10    1.20
  -1  -4   1   35.90    1.20
  -1  -4   1   39.40    1.30
   0   4  -1  241.78    6.00
   0   4  -1  242.88    9.80
   0   4  -1  242.08    6.00
   0  -4   1  241.48    6.00
   0  -4   1  246.78    9.80
   0  -4   1  243.48    6.00
  -1   4  -1 1034.70   28.30
  -1   4  -1 1041.80   24.60
  -1   4  -1 1015.50   24.60
  -1   4  -1 1058.79   24.30
   1  -4   1 1070.19   24.60
   1  -4   1 1067.89   28.50
   1  -4   1 1058.89   24.30
  -2   4  -1   39.40    3.40
  -2   4  -1   41.80    1.60
  -2   4  -1   41.60    1.50
  -2   4  -1   43.30    1.50
   2  -4   1   41.10    1.60
   2  -4   1   44.80    3.70
   2  -4   1   41.30    1.80
   2  -4   1   41.00    1.50
  -3   4  -1   36.70    3.70
  -3   4  -1   36.10    1.60
  -3   4  -1   33.40    1.50
   3  -4   1   34.80    3.70
   3  -4   1   35.80    1.60
   3  -4   1   35.50    1.60
  -4   4  -1  183.38    5.30
  -4   4  -1  177.58    8.10
   4  -4   1  195.08    8.50
   4  -4   1  187.88    5.10
   4  -4   1  166.68    5.80
   4  -4   1  183.58    5.30
  -5   4  -1  107.29    3.90
   5  -4   1  106.89    3.40
   5  -4   1  104.39    3.90
   5   3  -1    0.30    0.90
   5   3  -1    0.90    3.60
  -5  -3   1   -0.30    0.90
   4   3  -1   32.30    1.80
   4   3  -1   30.10    5.70
  -4  -3   1   29.60    1.90
   3   3  -1    2.70    2.60
   3   3  -1    1.70    0.60
   3   3  -1    0.50    0.60
  -3  -3   1    2.90    0.60
  -3  -3   1    3.00    0.70
  -3  -3   1    1.00    2.30
   2   3  -1  947.81   22.30
   2   3  -1 1003.30   28.30
   2   3  -1  929.21   22.30
  -2  -3   1  949.21   22.30
  -2  -3   1  919.11   27.50
  -2  -3   1  936.61   22.20
   1   3  -1   58.39    1.70
   1   3  -1   56.99    1.80
   1   3  -1   60.89    4.70
   1   3  -1   59.29    4.70
   1   3  -1   54.29    1.60
  -1  -3   1   65.19    1.80
  -1  -3   1   57.59    1.60
  -1  -3   1   57.09    1.60
   0   3  -1 2148.29   53.29
   0  -3   1 2167.08   53.29
  -1   3  -1 3420.96   82.79
   1  -3   1 3526.75   82.99
  -2   3  -1  498.15   11.90
  -2   3  -1  487.95   11.80
  -2   3  -1  489.85   14.30
  -2   3  -1  512.45   11.80
   2  -3   1  491.65   11.90
   2  -3   1  499.35   11.90
   2  -3   1  493.65   11.80
   2  -3   1  488.15   14.40
  -3   3  -1    4.90    0.70
  -3   3  -1    5.60    1.70
   3  -3   1    4.40    0.60
   3  -3   1    4.20    0.70
   3  -3   1    3.80    0.60
   3  -3   1    4.00    1.50
   3  -3   1    4.40    0.70
  -4   3  -1  110.89    6.30
  -4   3  -1  115.29    3.80
   4  -3   1  122.49    6.40
   4  -3   1  120.69    3.50
   4  -3   1  117.99    3.80
  -5   3  -1   -0.20    0.90
   5  -3   1   -0.10    0.90
   5  -3   1   -0.10    0.70
   5  -3   1   -0.10    0.60
   5   2  -1    1.50    1.00
  -5  -2   1    1.60    1.00
   4   2  -1   46.90    2.10
   4   2  -1   60.19    6.70
  -4  -2   1   41.70    6.00
  -4  -2   1   44.50    2.20
   3   2  -1  540.35   13.40
   3   2  -1  555.14   13.30
  -3  -2   1  569.44   13.40
  -3  -2   1  531.55   25.10
  -3  -2   1  539.95   13.30
   2   2  -1  241.18    6.10
   2   2  -1  236.48   10.10
   2   2  -1  244.88    6.10
  -2  -2   1  252.27   10.20
  -2  -2   1  241.98    6.10
  -2  -2   1  243.58    6.10
   1   2  -1 1198.88   27.40
   1   2  -1 1221.28   35.90
  -1  -2   1 1178.78   27.30
  -1  -2   1 1157.28   27.40
  -1  -2   1 1206.08   27.30
  -1  -2   1 1141.19   33.60
   0   2  -1  281.17    8.90
   0   2  -1  282.07    6.70
   0  -2   1  282.37    6.80
   0  -2   1  292.27    6.80
  -2   2  -1  899.41   22.50
  -2   2  -1  876.01   20.60
  -2   2  -1  876.01   20.50
  -2   2  -1  895.51   20.60
   2  -2   1  866.41   20.50
   2  -2   1  877.11   20.60
   2  -2   1  878.61   22.50
   2  -2   1  857.81   20.60
  -3   2  -1   45.10    1.80
  -3   2  -1   39.40    5.10
   3  -2   1   41.00    5.30
   3  -2   1   43.10    1.70
   3  -2   1   44.80    1.50
   3  -2   1   41.20    1.70
   3  -2   1   44.10    1.60
   3  -2   1   43.70    1.70
  -4   2  -1   -0.50    0.70
  -4   2  -1   -3.20    1.30
   4  -2   1    1.40    0.50
   4  -2   1   -0.10    0.50
   4  -2   1    0.70    0.70
   4  -2   1    2.30    1.80
  -5   2  -1   50.49    5.10
  -5   2  -1   56.99    2.80
   5  -2   1   51.99    1.90
   5  -2   1   53.99    5.70
   5  -2   1   54.19    2.60
   5  -2   1   54.49    2.20
   5   1  -1   49.70    2.50
  -5  -1   1   50.69    2.70
   4   1  -1  188.48   10.40
   4   1  -1  175.48    5.10
  -4  -1   1  178.28   10.10
  -4  -1   1  176.28    5.20
   3   1  -1  447.16   10.80
   3   1  -1  438.06   16.30
   3   1  -1  423.06   10.90
  -3  -1   1  443.26   16.20
  -3  -1   1  451.75   10.90
  -3  -1   1  441.66   10.80
   2   1  -1 1666.83   39.80
   2   1  -1 1731.53   44.00
   2   1  -1 1708.13   39.70
  -2  -1   1 1682.23   39.80
  -2  -1   1 1666.63   39.70
  -2  -1   1 1821.72   44.30
  -1   1  -1  648.94   15.10
   1  -1   1  647.04   15.10
   1  -1   1  643.84   15.10
   1  -1   1  649.14   16.50
   1  -1   1  662.13   15.10
   1  -1   1  637.84   15.10
  -2   1  -1   38.10    2.40
  -2   1  -1   36.60    1.40
   2  -1   1   36.30    1.30
   2  -1   1   35.60    1.30
   2  -1   1   43.00    2.50
   2  -1   1   36.30    1.20
   2  -1   1   37.10    1.20
   2  -1   1   36.80    1.40
  -3   1  -1  398.06    9.90
  -3   1  -1  390.76   12.40
   3  -1   1  398.96    9.50
   3  -1   1  390.36    9.90
   3  -1   1  392.26    9.70
   3  -1   1  389.46   10.30
   3  -1   1  406.76   12.60
   3  -1   1  402.46    9.50
  -4   1  -1    0.60    1.70
  -4   1  -1    2.90    0.90
   4  -1   1    2.70    2.00
   4  -1   1    3.60    0.90
   4  -1   1    3.70    0.60
   4  -1   1    3.10    0.50
  -5   1  -1    5.70    1.20
   5  -1   1    7.60    1.20
   5  -1   1    6.60    2.80
   5   0  -1   15.80    1.80
  -5   0   1   18.50    2.00
   4   0  -1    2.50    2.40
   4   0  -1    3.40    0.80
  -4   0   1    3.70    2.80
  -4   0   1    3.60    0.90
   3   0  -1   66.19    2.20
   3   0  -1   62.19    2.40
   3   0  -1   67.69    5.50
  -3   0   1   69.99    2.90
  -3   0   1   68.09    2.30
  -3   0   1   72.69    5.50
   2   0  -1 1962.70   45.70
   2   0  -1 1998.10   49.50
   2   0  -1 1947.41   45.80
  -2   0   1 1962.50   45.80
  -2   0   1 1942.61   45.70
  -2   0   1 2040.70   49.60
   1   0  -1 4601.04  108.49
  -1   0   1 4638.14  108.49
   0   0  -1    0.00    0.10
   0   0  -1    0.00    0.10
   0   0  -1   -0.20    0.10
   0   0   1    0.00    0.10
  -1   0  -1 1607.94   38.10
   1   0   1 1616.14   37.40
   1   0   1 1634.94   38.10
  -2   0  -1 2119.69   50.89
  -2   0  -1 2091.39   48.70
  -2   0  -1 2128.19   48.90
   2   0   1 2149.98   48.60
   2   0   1 2106.49   50.89
   2   0   1 2067.99   48.80
   2   0   1 2106.19   48.80
   2   0   1 2096.69   48.60
  -3   0  -1  847.12   20.30
  -3   0  -1  859.31   23.70
  -3   0  -1  864.81   20.50
   3   0   1  858.51   20.40
   3   0   1  861.81   23.80
   3   0   1  853.81   20.00
   3   0   1  869.91   20.00
  -4   0  -1  414.46   10.50
  -4   0  -1  399.56   14.30
   4   0   1  413.96   14.50
   4   0   1  411.96   10.30
  -5   0  -1    6.70    1.20
   5   0   1    6.20    1.10
   5   0   1    7.00    3.00
   5   0   1    6.10    2.90
   5  -1  -1   60.99    2.80
  -5   1   1   63.39    3.00
   4  -1  -1  362.46    8.60
   4  -1  -1  351.26   14.40
   4  -1  -1  354.86    8.60
   4  -1  -1  351.46    9.20
  -4   1   1  362.56    9.40
  -4   1   1  370.46   14.50
   3  -1  -1  929.71   23.30
   3  -1  -1  975.50   23.10
   3  -1  -1  983.70   23.10
   3  -1  -1  956.60   33.30
   3  -1  -1  984.10   22.70
  -3   1   1  982.60   33.20
  -3   1   1 1022.30   23.20
  -3   1   1  968.10   23.10
   2  -1  -1 2038.20   48.30
   2  -1  -1 2058.29   48.40
   2  -1  -1 2095.79   51.89
  -2   1   1 2086.79   48.10
  -2   1   1 2089.09   48.40
  -2   1   1 2152.18   51.99
  -1  -1  -1  554.84   13.10
  -1  -1  -1  588.54   13.00
   1   1   1  533.15   14.70
   1   1   1  557.44   13.00
   1   1   1  549.65   13.10
   1   1   1  566.74   12.90
  -2  -1  -1  669.13   15.60
  -2  -1  -1  664.93   15.70
   2   1   1  649.93   18.40
   2   1   1  666.53   15.60
   2   1   1  650.23   15.60
  -3  -1  -1  367.46    9.00
  -3  -1  -1  356.66    8.80
   3   1   1  344.47   14.20
   3   1   1  346.67    9.10
   3   1   1  369.86    8.90
  -4  -1  -1  118.39    3.90
   4   1   1  124.09    3.80
   4   1   1  121.69    7.50
  -5  -1  -1    6.30    1.20
   5   1   1    9.30    3.40
   5   1   1    2.60    5.00
   5   1   1    7.00    1.10
   5  -2  -1  105.69    3.10
   5  -2  -1  109.29    3.10
   5  -2  -1  111.89    3.90
  -5   2   1  112.59    4.10
   4  -2  -1   29.10    4.50
   4  -2  -1   25.90    1.70
   4  -2  -1   26.40    1.20
  -4   2   1   24.50    1.80
  -4   2   1   25.90    4.00
   3  -2  -1  781.12   18.70
   3  -2  -1  813.62   23.40
   3  -2  -1  758.92   18.70
   3  -2  -1  790.22   18.40
   3  -2  -1  766.92   18.60
  -3   2   1  792.32   23.30
  -3   2   1  781.72   18.70
  -3   2   1  767.32   18.30
   2  -2  -1 1353.46   35.10
   2  -2  -1 1322.97   31.40
   2  -2  -1 1363.76   31.30
   2  -2  -1 1352.96   31.40
   2  -2  -1 1331.47   31.40
  -2   2   1 1385.66   35.10
  -2   2   1 1337.87   31.40
  -2   2   1 1333.17   31.30
   1  -2  -1  291.27    7.00
   1  -2  -1  292.37    7.00
   1  -2  -1  298.67    7.10
   1  -2  -1  292.47    9.50
  -1   2   1  299.37    7.10
  -1   2   1  288.67    7.00
  -1   2   1  296.37    9.60
  -1   2   1  297.27    7.10
   0  -2  -1  112.69    2.70
   0  -2  -1  113.99    2.80
   0  -2  -1  108.69    4.80
   0   2   1  111.69    4.80
   0   2   1  110.59    2.70
   0   2   1  110.29    2.80
   0   2   1  111.39    2.80
   1   2   1 2095.49   48.00
   1   2   1 2061.39   50.89
  -2  -2  -1  134.79    3.60
  -2  -2  -1  137.99    3.70
   2   2   1  141.89    6.70
   2   2   1  140.49    3.60
   2   2   1  136.29    6.70
   2   2   1  139.89    3.70
  -3  -2  -1 1753.62   41.20
  -3  -2  -1 1747.23   41.00
   3   2   1 1789.72   47.40
   3   2   1 1772.12   41.00
   3   2   1 1711.43   41.10
   3   2   1 1785.72   46.40
  -4  -2  -1   14.80    1.50
   4   2   1   18.90    3.90
   4   2   1   18.70    1.40
   4   2   1   15.70    3.40
  -5  -2  -1   48.70    2.60
   5   2   1   51.39    2.50
   5   2   1   47.90    6.30
   5  -3  -1   -0.80    0.90
   5  -3  -1    0.70    0.60
   5  -3  -1    0.40    0.60
  -5   3   1    0.10    1.00
   4  -3  -1    0.50    0.70
   4  -3  -1   -2.40    2.10
   4  -3  -1    1.80    0.60
  -4   3   1    1.40    0.80
  -4   3   1    6.00    2.60
  -4   3   1    1.70    0.50
   3  -3  -1  150.68    7.90
   3  -3  -1  144.99    4.20
   3  -3  -1  154.68    4.00
   3  -3  -1  143.69    4.20
   3  -3  -1  149.09    4.20
  -3   3   1  148.39    3.90
  -3   3   1  144.39    7.60
  -3   3   1  153.28    4.20
   2  -3  -1 2863.21   70.39
   2  -3  -1 2820.72   66.09
   2  -3  -1 2820.52   66.09
  -2   3   1 2904.21   66.19
  -2   3   1 2931.71   70.49
  -2   3   1 2822.92   66.09
   1  -3  -1  901.51   21.00
   1  -3  -1  908.81   20.90
   1  -3  -1  903.31   24.50
   1  -3  -1  889.41   21.00
  -1   3   1  895.81   21.00
  -1   3   1  882.91   24.40
  -1   3   1  895.11   21.00
  -1   3   1  903.31   20.90
   0  -3  -1   16.00    0.70
   0  -3  -1   18.80    2.50
   0  -3  -1   17.20    0.70
   0   3   1   17.70    2.70
   0   3   1   15.40    0.70
   0   3   1   15.60    0.70
   0   3   1   18.60    0.70
  -1  -3  -1  649.64   14.90
  -1  -3  -1  635.14   18.90
   1   3   1  644.34   15.00
   1   3   1  633.04   14.90
   1   3   1  628.34   18.80
   1   3   1  640.64   15.00
  -2  -3  -1  459.35   11.20
  -2  -3  -1  458.45   11.00
   2   3   1  457.75   11.20
   2   3   1  454.35   11.10
   2   3   1  453.05   15.50
   2   3   1  488.65   15.90
  -3  -3  -1  245.98    6.50
  -3  -3  -1  251.97    6.60
   3   3   1  251.57   11.30
   3   3   1  251.27    6.60
   3   3   1  255.07    6.50
   3   3   1  265.97   11.80
  -4  -3  -1   16.90    1.60
   4   3   1   11.50    3.50
   4   3   1   12.90    4.00
   4   3   1   20.40    1.50
  -5  -3  -1   44.70    2.60
   5   3   1   56.09    7.00
   5   3   1   43.60    2.40
   5  -4  -1   15.10    1.60
   5  -4  -1   15.80    1.40
  -5   4   1   15.70    1.60
   4  -4  -1  133.79    8.90
   4  -4  -1  138.49    3.90
   4  -4  -1  132.09    4.20
  -4   4   1  132.59    4.20
  -4   4   1  134.09    8.50
  -4   4   1  127.39    3.80
   3  -4  -1   14.80    3.00
   3  -4  -1   14.50    1.20
   3  -4  -1   15.40    1.10
   3  -4  -1   13.00    1.20
  -3   4   1   12.10    1.10
  -3   4   1   14.60    1.20
  -3   4   1   13.30    3.10
   2  -4  -1 3052.89   69.99
   2  -4  -1 3058.49   75.19
   2  -4  -1 3060.39   69.99
   2  -4  -1 2996.00   69.99
  -2   4   1 2994.10   74.89
  -2   4   1 2959.30   69.99
  -2   4   1 3060.49   69.99
   1  -4  -1  238.48    6.60
   1  -4  -1  245.08   10.00
   1  -4  -1  249.08    6.30
   1  -4  -1  254.57    6.20
  -1   4   1  253.97    6.20
  -1   4   1  252.37    6.20
  -1   4   1  260.77   10.20
  -1   4   1  255.47    6.20
   0  -4  -1 4173.78  100.39
   0   4   1 4112.89  100.39
  -1  -4  -1 4017.10   96.59
   1   4   1 3877.81   96.39
  -2  -4  -1 1038.60   24.70
  -2  -4  -1 1068.99   24.50
   2   4   1 1063.69   24.90
   2   4   1 1013.00   24.80
   2   4   1 1016.60   30.50
   2   4   1 1079.69   24.50
   2   4   1 1059.29   24.80
   2   4   1 1110.09   31.30
  -3  -4  -1  147.09    4.30
  -3  -4  -1  144.79    4.10
   3   4   1  149.39    4.10
   3   4   1  146.89    4.30
   3   4   1  152.18    9.20
   3   4   1  146.69    9.50
  -4  -4  -1  309.07    8.20
   4   4   1  303.17   15.10
   4   4   1  318.17   14.90
   4   4   1  296.87    8.00
  -5  -4  -1   12.00    1.60
   5   4   1   11.80    1.40
   5   4   1   20.00    5.20
   5  -5  -1   43.00    2.20
   5  -5  -1   51.79    2.70
  -5   5   1   45.90    2.60
   4  -5  -1    0.30    2.40
   4  -5  -1    1.60    0.90
   4  -5  -1    4.30    0.80
  -4   5   1    2.10    2.30
  -4   5   1    3.00    0.90
   3  -5  -1   48.40    2.00
   3  -5  -1   53.59    2.00
   3  -5  -1   49.30    2.10
   3  -5  -1   57.39    5.60
  -3   5   1   44.60    5.00
  -3   5   1   46.70    1.90
  -3   5   1   50.39    2.00
   2  -5  -1 1376.86   32.30
   2  -5  -1 1377.06   32.20
   2  -5  -1 1335.67   32.30
   2  -5  -1 1289.07   41.00
  -2   5   1 1336.07   40.20
  -2   5   1 1515.25   33.30
  -2   5   1 1382.96   32.30
  -2   5   1 1387.16   32.20
   1  -5  -1  431.66   10.60
   1  -5  -1  418.06   10.10
   1  -5  -1  427.46   15.20
   1  -5  -1  417.86   10.30
  -1   5   1  422.06   10.30
  -1   5   1  430.16   15.30
  -1   5   1  428.56   10.20
  -1   5   1  414.16   10.30
   0  -5  -1    2.70    0.40
   0  -5  -1    2.70    0.50
   0  -5  -1    0.80    1.90
   0   5   1    3.00    0.50
   0   5   1   -1.30    1.60
   0   5   1    1.40    0.40
   0   5   1    1.50    0.40
  -1  -5  -1   53.89    1.80
  -1  -5  -1   57.29    1.80
  -1  -5  -1   52.39    5.30
   1   5   1   55.99    1.80
   1   5   1   56.39    1.80
   1   5   1   57.19    1.80
   1   5   1   54.29    1.80
   1   5   1   55.69    5.50
  -2  -5  -1   10.90    0.90
  -2  -5  -1   13.30    0.80
   2   5   1    9.90    3.50
   2   5   1   13.20    0.80
   2   5   1    7.20    3.10
   2   5   1   12.40    1.00
   2   5   1   12.70    1.00
   2   5   1   13.00    1.00
   3   5   1   45.00    6.20
   3   5   1   47.50    2.10
   3   5   1   46.50    1.90
   3   5   1   49.40    6.30
   4   5   1   18.90    4.90
   4   5   1   20.70    1.70
   4   5   1   20.90    1.90
   5   5   1   52.59    3.00
   5   5   1   38.60    7.90
   5   5   1   53.49    2.70
   4  -6  -1    1.00    0.90
   4  -6  -1    0.10    0.70
   4  -6  -1   -0.50    2.70
  -4   6   1    4.50    3.00
  -4   6   1    0.20    0.80
   3  -6  -1  175.68    5.00
   3  -6  -1  183.18    5.10
   3  -6  -1  184.78   10.20
  -3   6   1  182.68    5.10
  -3   6   1  186.08    5.20
  -3   6   1  175.88    9.80
   2  -6  -1   14.40    3.40
   2  -6  -1   13.20    1.10
   2  -6  -1   12.00    1.10
   2  -6  -1   10.20    1.20
  -2   6   1   12.80    1.10
  -2   6   1   12.80    1.20
  -2   6   1   13.30    1.10
  -2   6   1   13.00    3.30
   1  -6  -1  779.92   24.50
   1  -6  -1  738.93   17.80
   1  -6  -1  766.92   18.00
   1  -6  -1  757.12   18.30
  -1   6   1  725.13   18.00
  -1   6   1  750.52   24.30
  -1   6   1  765.52   17.80
  -1   6   1  757.82   18.00
   0  -6  -1  546.65   13.40
   0  -6  -1  544.45   13.30
   0  -6  -1  558.74   19.70
   0  -6  -1  554.14   13.10
   0   6   1  560.64   13.10
   0   6   1  549.54   13.30
   0   6   1  559.14   19.70
  -1  -6  -1  403.26    9.80
  -1  -6  -1  415.16   16.40
  -1  -6  -1  401.36    9.90
   1   6   1  405.66    9.90
   1   6   1  397.36    9.80
   1   6   1  414.96    9.80
   1   6   1  395.96    9.80
   1   6   1  395.16   16.20
  -2  -6  -1  118.19    3.20
  -2  -6  -1  112.59    3.30
   2   6   1  115.49    3.40
   2   6   1  106.99    8.60
   2   6   1  111.99    9.00
   2   6   1  113.69    3.10
   2   6   1  118.09    3.40
   2   6   1  119.99    3.50
   3   6   1   26.70    5.60
   3   6   1   24.70    1.60
   3   6   1   22.50    1.50
   3   6   1   25.80    5.60
   4   6   1    5.40    4.10
   4   6   1   -0.10    3.60
   4   6   1    3.50    1.40
   5   6   1   27.90    2.50
   4  -7  -1  174.68    5.30
   4  -7  -1  170.98    5.20
  -4   7   1  166.08    5.10
   3  -7  -1    1.40    0.80
  -3   7   1    3.20    0.80
  -3   7   1   -3.70    3.50
  -3   7   1    2.20    0.80
   2  -7  -1   -0.80    0.50
   2  -7  -1    0.60    0.60
   2  -7  -1    1.00    2.60
  -2   7   1    0.50    0.60
  -2   7   1    0.70    0.70
  -2   7   1    3.10    2.50
   1  -7  -1  480.65   12.00
   1  -7  -1  496.45   12.10
   1  -7  -1  485.15   18.90
   1  -7  -1  487.15   11.70
  -1   7   1  494.65   11.70
  -1   7   1  485.25   18.80
  -1   7   1  490.15   12.00
   0  -7  -1  246.68    6.40
   0  -7  -1  237.58    6.30
   0  -7  -1  252.57   12.80
   0  -7  -1  250.27    6.10
   0   7   1  245.58   12.90
   0   7   1  233.78    6.30
   0   7   1  245.68    6.40
   0   7   1  251.87    6.10
  -1  -7  -1    1.20    2.80
  -1  -7  -1    1.00    0.50
  -1  -7  -1    4.00    0.70
   1   7   1    1.10    0.50
   1   7   1    1.40    0.60
   1   7   1    1.00    0.50
   1   7   1    3.10    3.10
   1   7   1    1.40    0.60
  -2  -7  -1   33.40    1.40
   2   7   1   30.80    2.20
   2   7   1   32.30    1.60
   2   7   1   39.50    9.60
   2   7   1   35.10    1.60
   2   7   1   31.70    1.40
   2   7   1   33.20    5.70
  -3  -7  -1    3.20    0.50
   3   7   1    3.20    0.50
   3   7   1    3.30    0.80
   3   7   1    2.60    4.40
   3   7   1    3.80    0.90
   3   7   1   -2.50    3.50
   4   7   1   66.89    2.90
   4   7   1   55.99    8.80
   4   7   1   68.49    3.00
   4   7   1   74.19   10.30
   4  -8  -1  124.89    4.20
   4  -8  -1  125.39    4.30
  -4   8   1  115.59    4.00
   3  -8  -1   20.70    4.80
   3  -8  -1   18.30    1.60
  -3   8   1   19.50    1.50
  -3   8   1   19.90    1.70
  -3   8   1   18.00    4.30
   2  -8  -1    2.00    0.80
   2  -8  -1    0.60    0.50
   2  -8  -1    3.00    3.30
  -2   8   1    0.60    0.70
  -2   8   1    1.10    0.60
  -2   8   1   -1.00    2.40
   1  -8  -1  424.46   10.50
   1  -8  -1  434.16   18.60
   1  -8  -1  440.76   11.00
  -1   8   1  443.56   10.90
  -1   8   1  436.06   10.60
  -1   8   1  433.26   18.60
   0  -8  -1  369.56   17.30
   0  -8  -1  345.47    8.70
   0  -8  -1  357.16    9.10
   0   8   1  340.67   16.60
   0   8   1  357.46    8.70
   0   8   1  357.26    9.10
  -1  -8  -1  250.87   14.40
  -1  -8  -1  260.57    6.70
   1   8   1  259.47    6.80
   1   8   1  268.97   14.80
   1   8   1  249.78    6.70
   1   8   1  257.07    6.50
   1   8   1  260.07    6.60
   2   8   1    6.10    3.90
   2   8   1    5.50    0.90
   2   8   1    5.00    0.70
   2   8   1    5.70    4.50
   2   8   1    5.50    0.80
   2   8   1    4.10    0.80
  -3  -8  -1    8.90    0.90
   3   8   1   10.70    4.80
   3   8   1    7.90    1.10
   3   8   1    8.30    0.80
   3   8   1    4.00    5.10
   3   8   1    6.70    1.10
   4   8   1    1.10    1.00
   4   8   1    1.90    1.00
   4   8   1    3.30    5.20
   3  -9  -1    1.70    0.90
  -3   9   1   -0.10    0.80
  -3   9   1    0.20    0.70
   2  -9  -1   49.30    2.30
   2  -9  -1   56.69    7.50
   2  -9  -1   39.40    1.90
  -2   9   1   36.50    6.30
  -2   9   1   44.10    2.20
  -2   9   1   45.40    1.80
   1  -9  -1  164.28    4.80
   1  -9  -1  154.98    4.30
   1  -9  -1  163.38   11.50
  -1   9   1  162.28    4.30
  -1   9   1  161.48   11.60
  -1   9   1  159.08    4.80
   0  -9  -1   29.70    1.80
   0  -9  -1   18.60    5.60
   0  -9  -1   24.60    1.30
   0   9   1   25.00    1.80
   0   9   1   18.30    5.50
   0   9   1   24.70    1.40
  -1  -9  -1   18.80    1.40
   1   9   1   17.40    5.60
   1   9   1   16.60    1.20
   1   9   1   17.60    1.60
  -2  -9  -1   19.60    1.40
   2   9   1   11.40    5.70
   2   9   1   18.70    1.40
   2   9   1   20.00    6.10
   2   9   1   19.00    1.60
   2   9   1   17.50    1.40
  -3  -9  -1    1.70    0.60
   3   9   1    6.60    5.00
   3   9   1    0.20    0.60
   3   9   1    0.50    0.80
   3   9   1    1.70    0.90
   3 -10  -1   13.60    1.50
   2 -10  -1   22.20    1.80
   2 -10  -1   22.80    1.50
  -2  10   1   20.80    1.40
  -2  10   1   21.50    1.80
   1 -10  -1   10.30    5.80
   1 -10  -1   15.30    1.00
   1 -10  -1   16.60    1.60
  -1  10   1   12.50    1.40
  -1  10   1   13.30    1.20
  -1  10   1   13.90    4.90
   0 -10  -1   94.49    4.10
   0 -10  -1  100.49   10.30
   0  10   1   90.39    9.60
   0  10   1  100.39    3.00
  -1 -10  -1    4.10    0.90
   1  10   1   15.30    5.30
   1  10   1    3.70    0.80
   1  10   1    3.50    0.80
   1  10   1    3.50    1.10
  -2 -10  -1    3.00    0.80
   2  10   1    2.80    1.00
   2  10   1   -1.90    4.70
   2  10   1    2.40    0.80
   2  10   1    3.80    4.70
  -3 -10  -1    6.90    0.90
   3  10   1    7.90    1.20
   3  10   1   -7.80    6.30
   3  10   1    5.90    1.00
   3  10   1    5.50    6.90
   2 -11  -1    8.70    1.30
  -2  11   1   10.00    1.40
  -2  11   1    8.30    0.90
   1 -11  -1    9.50    1.40
  -1  11   1    9.70    1.30
   0 -11  -1    4.40    1.00
   0 -11  -1   -3.30    4.10
   0  11   1   -1.60    4.40
  -1 -11  -1   56.69    2.60
   1  11   1   49.60    9.20
   1  11   1   53.99    2.40
   1  11   1   54.49    2.10
   1  11   1   61.99    9.60
   1  11   1   55.59    2.70
   2  11   1    1.00    1.00
   2  11   1   -4.70    5.80
   2  11   1   -5.10    5.40
   2  11   1    0.80    0.80
   1  11  -2    2.00    1.10
   1  11  -2    5.20    5.20
   1  11  -2    6.60    6.40
  -1 -11   2    1.50    0.90
   0  11  -2   18.10    2.00
   0  11  -2   22.30    6.70
   0 -11   2   20.40    1.80
  -1  11  -2   -4.70    4.50
  -1  11  -2   -0.20    0.80
   1 -11   2   -0.10    0.80
   2  10  -2   10.30    1.10
   2  10  -2   12.50    7.30
   2  10  -2    7.60    1.30
   2  10  -2   15.40    1.60
   2  10  -2   11.80    6.00
  -2 -10   2   10.20    1.10
   1  10  -2    1.20    0.90
   1  10  -2   -1.20    3.90
   1  10  -2    4.00    5.20
  -1 -10   2    0.70    0.80
   0  10  -2   58.49    2.70
   0  10  -2   47.60    8.20
   0  10  -2   44.40    7.70
   0 -10   2   57.39    2.50
  -1  10  -2   21.70    1.80
  -1  10  -2   22.90    5.30
  -1  10  -2   28.50    6.10
   1 -10   2   23.40    1.80
  -2  10  -2   20.30    1.80
  -2  10  -2   14.90    8.00
   2 -10   2   22.40    1.80
   3   9  -2   41.40    2.30
   3   9  -2   45.60    8.90
   3   9  -2   43.80    9.00
   3   9  -2   36.70    2.00
  -3  -9   2   40.50    1.70
  -3  -9   2   44.50    2.40
   2   9  -2  184.08    5.70
   2   9  -2  184.88    5.00
   2   9  -2  206.48    5.40
   2   9  -2  185.68   15.40
   2   9  -2  169.18   14.30
  -2  -9   2  188.98    5.20
   1   9  -2  123.89   11.50
   1   9  -2  125.79   11.30
  -1  -9   2  139.69    4.10
   0   9  -2   30.80    6.10
   0   9  -2   33.10    1.90
   0   9  -2   31.90    6.70
   0  -9   2   36.10    1.90
  -1   9  -2   96.79   10.60
  -1   9  -2   80.89    3.60
  -2   9  -2    5.40    1.10
  -2   9  -2    3.50    3.10
   2  -9   2    5.70    1.10
  -3   9  -2    1.90    0.60
  -3   9  -2    0.80    0.90
   3  -9   2   -1.00    0.80
   3  -9   2    0.80    0.50
   4   8  -2   -2.40    4.80
   4   8  -2    1.20    1.00
   4   8  -2    1.70    1.00
   3   8  -2    0.00    0.80
   3   8  -2    1.90    0.80
   3   8  -2    0.60    4.00
   3   8  -2    2.40    5.40
  -3  -8   2    1.20    0.50
  -3  -8   2    0.70    0.50
   2   8  -2  265.77    7.20
   2   8  -2  275.27   17.60
   2   8  -2  263.87    6.70
   2   8  -2  267.67    6.70
   2   8  -2  260.07   16.80
  -2  -8   2  250.77    6.70
  -2  -8   2  261.37    6.70
   1   8  -2  231.98   14.10
   1   8  -2  235.18   13.90
   1   8  -2  225.58    5.60
   1   8  -2  228.68    6.30
  -1  -8   2  229.58    6.10
   0   8  -2  254.17   13.60
   0   8  -2  258.47   13.80
   0   8  -2  254.67    6.90
   0  -8   2  257.47    6.80
  -1   8  -2    0.80    0.70
  -1   8  -2   -1.30    2.40
  -2   8  -2  144.29    4.50
  -2   8  -2  144.49   14.90
   2  -8   2  149.88   13.70
   2  -8   2  146.29    4.50
  -3   8  -2   21.00    1.70
  -3   8  -2   16.50    1.90
   3  -8   2   18.80    1.70
   3  -8   2   18.60    1.20
  -4   8  -2   -0.20    0.80
  -4   8  -2    0.30    0.70
   4  -8   2    0.50    0.90
   4   7  -2   37.70    8.00
   4   7  -2   42.50    3.90
   4   7  -2   43.90    8.20
   4   7  -2   52.19    2.60
   3   7  -2  168.18   13.60
   3   7  -2  168.78   12.80
   3   7  -2  176.48    5.00
   2   7  -2   22.00    1.70
   2   7  -2   25.20    1.40
   2   7  -2   23.10    6.10
   2   7  -2   26.90    1.40
   2   7  -2   16.90    5.30
  -2  -7   2   26.80    1.30
  -2  -7   2   23.60    1.20
   1   7  -2  105.29    3.40
   1   7  -2  106.49    3.40
   1   7  -2  108.49    2.80
   1   7  -2  105.29    9.40
   1   7  -2   94.99    3.10
   1   7  -2   94.99    8.90
  -1  -7   2  108.69    3.20
   0   7  -2  345.07    8.80
   0   7  -2  351.86   15.40
   0   7  -2  358.76   15.60
   0   7  -2  350.56    8.90
   0  -7   2  352.26    8.80
  -1   7  -2  114.29    3.50
  -1   7  -2  103.39    7.90
   1  -7   2  117.09    3.50
  -2   7  -2  750.12   17.20
  -2   7  -2  712.13   23.70
  -2   7  -2  724.93   17.80
   2  -7   2  726.43   17.80
   2  -7   2  753.22   24.20
   2  -7   2  733.83   17.20
  -3   7  -2  390.66    9.50
  -3   7  -2  381.96   14.60
  -3   7  -2  382.46   10.50
   3  -7   2  378.56   14.80
   3  -7   2  379.16    9.90
   3  -7   2  381.76    9.50
  -4   7  -2    2.10    0.80
   4  -7   2    0.80    1.10
   4  -7   2    0.80    0.90
   4   6  -2   -5.40    4.20
   4   6  -2   -0.10    3.70
   4   6  -2   -0.90    0.80
  -4  -6   2   -1.70    0.70
   3   6  -2   58.99    2.50
   3   6  -2   52.89    8.10
   3   6  -2   54.69    7.50
   3   6  -2   54.69    2.80
  -3  -6   2   56.69    2.30
   2   6  -2  210.18   12.60
   2   6  -2  185.38    5.20
   2   6  -2  190.78   11.50
   2   6  -2  186.58    4.90
   2   6  -2  185.78    4.90
  -2  -6   2  181.58    4.80
  -2  -6   2  185.38    4.80
   1   6  -2  377.76   15.90
   1   6  -2  362.86    8.70
   1   6  -2  358.86    9.10
   1   6  -2  356.16    8.90
   1   6  -2  356.46   15.60
   1   6  -2  368.96    8.70
  -1  -6   2  358.46    9.00
  -1  -6   2  369.16    8.90
   0   6  -2  174.08    4.70
   0   6  -2  175.78    9.80
   0   6  -2  177.88    4.80
   0   6  -2  173.38    9.50
   0  -6   2  177.68    4.70
   0  -6   2  177.18    4.70
  -1   6  -2   18.40    1.10
  -1   6  -2   20.30    1.20
  -1   6  -2   16.10    3.30
   1  -6   2   19.60    1.20
   1  -6   2   21.70    3.80
   1  -6   2   20.70    1.20
  -2   6  -2  390.66    9.30
  -2   6  -2  379.36    9.70
  -2   6  -2  380.66   14.20
   2  -6   2  381.66    9.70
   2  -6   2  386.16   14.30
   2  -6   2  390.06    9.30
  -3   6  -2  213.28    5.90
  -3   6  -2  207.58    9.40
  -3   6  -2  210.08    5.60
   3  -6   2  208.88    5.80
   3  -6   2  204.68    5.50
   3  -6   2  214.38    9.60
  -4   6  -2   52.49    2.30
  -4   6  -2   44.90    4.50
   4  -6   2   48.90    4.60
   4  -6   2   52.29    2.50
   4  -6   2   52.09    2.40
   5   5  -2    0.60    1.00
   5   5  -2    0.40    4.50
  -5  -5   2    1.20    1.10
   4   5  -2    3.40    3.70
   4   5  -2    3.30    4.40
   4   5  -2   11.50    1.30
  -4  -5   2   12.90    1.30
   3   5  -2  368.66    9.30
   3   5  -2  362.86    9.40
   3   5  -2  371.16   17.30
   3   5  -2  374.86   17.70
  -3  -5   2  365.96    9.30
   2   5  -2  106.79    8.50
   2   5  -2   98.39    8.20
   2   5  -2   94.89    2.80
   2   5  -2   92.89    3.00
  -2  -5   2   94.69    2.80
  -2  -5   2   92.49    2.60
  -2  -5   2   92.49    2.90
  -2  -5   2   97.79    2.60
   1   5  -2  174.28    4.40
   1   5  -2  177.28    4.40
   1   5  -2  174.78    4.70
   1   5  -2  173.38    9.50
   1   5  -2  176.68    9.90
  -1  -5   2  174.78    4.60
  -1  -5   2  179.68    4.50
   0   5  -2  597.14   14.60
   0   5  -2  616.14   14.80
   0   5  -2  625.94   20.00
   0   5  -2  606.24   19.90
   0  -5   2  601.24   14.60
   0  -5   2  626.74   14.60
  -1   5  -2  483.55   16.30
  -1   5  -2  494.25   11.90
  -1   5  -2  483.65   11.90
   1  -5   2  514.55   12.00
   1  -5   2  485.65   16.30
   1  -5   2  492.95   11.90
  -2   5  -2  168.28    4.60
  -2   5  -2  170.08    4.60
  -2   5  -2  168.78    4.30
  -2   5  -2  163.88    7.60
   2  -5   2  170.38    4.60
   2  -5   2  163.08    4.60
   2  -5   2  164.68    7.70
   2  -5   2  169.98    4.30
  -3   5  -2 1156.98   31.20
  -3   5  -2 1181.28   27.50
  -3   5  -2 1176.98   27.70
   3  -5   2 1172.28   27.60
   3  -5   2 1122.19   27.40
   3  -5   2 1186.28   31.40
  -4   5  -2  470.55   16.10
  -4   5  -2  485.15   12.20
   4  -5   2  476.25   15.30
   4  -5   2  496.15   12.10
   4  -5   2  489.55   12.30
  -5   5  -2   90.49    3.40
   5  -5   2   74.09    4.30
   5  -5   2   90.99    3.50
   5   4  -2   20.00    1.90
   5   4  -2   19.70    5.50
  -5  -4   2   25.70    2.10
   4   4  -2    7.00    1.10
   4   4  -2   10.00    4.70
  -4  -4   2    8.90    1.20
   3   4  -2  203.08   11.80
   3   4  -2  194.08    5.50
   3   4  -2  197.58    5.40
  -3  -4   2  202.88    5.50
   2   4  -2  780.22   18.90
   2   4  -2  796.02   19.00
   2   4  -2  824.82   26.10
  -2  -4   2  804.12   18.60
  -2  -4   2  802.82   18.60
  -2  -4   2  796.22   19.30
  -2  -4   2  804.82   18.90
   1   4  -2  337.77   13.30
   1   4  -2  341.17    8.10
   1   4  -2  344.97   13.40
   1   4  -2  334.27    8.30
  -1  -4   2  340.27    8.20
  -1  -4   2  339.67    8.10
  -1  -4   2  338.57    8.20
  -1  -4   2  341.17    8.30
   0   4  -2 5204.68  125.89
   0   4  -2 5305.67  126.09
  -1   4  -2  343.57   11.90
  -1   4  -2  353.76    8.60
  -1   4  -2  348.67    8.60
   1  -4   2  355.76    8.60
   1  -4   2  363.16   12.00
   1  -4   2  359.06    8.70
  -2   4  -2  469.05   14.10
  -2   4  -2  457.85   11.40
  -2   4  -2  479.45   11.40
  -2   4  -2  474.75   11.20
   2  -4   2  459.45   11.40
   2  -4   2  479.85   14.30
   2  -4   2  465.25   11.40
   2  -4   2  469.05   11.20
  -3   4  -2  216.98    8.10
  -3   4  -2  223.48    5.80
  -3   4  -2  225.78    5.90
   3  -4   2  223.88    5.80
   3  -4   2  214.68    8.10
   3  -4   2  219.98    5.80
   3  -4   2  217.38    5.80
  -4   4  -2  188.28    7.40
  -4   4  -2  192.18    5.50
   4  -4   2  194.38    5.40
   4  -4   2  194.08    7.70
   4  -4   2  196.48    5.60
  -5   4  -2    1.80    0.90
   5  -4   2    1.40    0.80
   5  -4   2    1.10    0.90
   5   3  -2    7.30    1.20
  -5  -3   2    7.50    1.30
   4   3  -2   -0.20    0.70
   4   3  -2   -3.00    3.10
  -4  -3   2   -1.10    2.70
  -4  -3   2   -1.10    0.70
   3   3  -2   83.59    2.80
   3   3  -2   82.99    2.80
   3   3  -2   92.89    7.60
  -3  -3   2   79.89    2.70
  -3  -3   2   90.89    8.00
  -3  -3   2   84.89    2.80
   2   3  -2 2689.13   62.69
   2   3  -2 2779.22   69.59
   2   3  -2 2622.04   62.99
  -2  -3   2 2716.03   62.79
  -2  -3   2 2746.93   69.49
  -2  -3   2 2717.43   62.69
   1   3  -2 2242.48   61.69
   1   3  -2 2347.17   53.79
  -1  -3   2 2401.76   61.59
  -1  -3   2 2336.97   53.79
   0   3  -2 1801.52   45.70
   0   3  -2 1803.62   45.70
   0  -3   2 1820.62   42.00
   0  -3   2 1841.02   42.00
  -1   3  -2   34.10    1.20
  -1   3  -2   34.70    2.80
  -1   3  -2   35.30    1.00
  -1   3  -2   39.70    1.30
   1  -3   2   33.70    1.20
   1  -3   2   34.80    1.00
   1  -3   2   37.40    2.80
   1  -3   2   33.30    1.20
  -2   3  -2  815.32   21.00
  -2   3  -2  818.02   19.10
  -2   3  -2  826.72   19.00
   2  -3   2  813.42   19.10
   2  -3   2  805.72   19.10
   2  -3   2  790.12   19.10
   2  -3   2  809.02   21.00
   2  -3   2  791.82   19.00
  -3   3  -2  508.85   14.10
  -3   3  -2  513.35   12.40
   3  -3   2  511.35   14.20
   3  -3   2  515.75   12.40
   3  -3   2  503.75   12.30
   3  -3   2  494.35   12.30
   3  -3   2  510.35   12.40
   3  -3   2  505.05   12.40
  -4   3  -2 1983.10   49.20
  -4   3  -2 2058.79   47.60
   4  -3   2 2049.49   47.50
   4  -3   2 2036.80   49.30
   4  -3   2 1975.60   47.20
   4  -3   2 2054.39   47.20
  -5   3  -2   23.70    1.90
   5  -3   2   23.70    2.00
   5  -3   2   24.40    1.50
   5  -3   2   21.80    1.80
   5   2  -2   54.49    2.70
  -5  -2   2   58.29    2.90
   4   2  -2   30.00    5.40
   4   2  -2   29.00    1.70
  -4  -2   2   24.40    5.00
  -4  -2   2   26.20    1.80
   3   2  -2  409.86   10.40
   3   2  -2  429.96   10.40
  -3  -2   2  392.26   22.20
  -3  -2   2  415.36   10.30
  -3  -2   2  434.56   10.50
   2   2  -2   75.79    2.30
   2   2  -2   78.39    2.40
   2   2  -2   79.49    6.00
  -2  -2   2   76.99    2.30
  -2  -2   2   86.19    6.00
  -2  -2   2   77.89    2.40
   1   2  -2 4985.00  117.99
  -1  -2   2 4828.02  117.19
   0   2  -2 1117.59   26.70
   0  -2   2 1143.09   26.70
   0  -2   2 1184.58   29.50
   0  -2   2 1170.48   26.70
  -1   2  -2    2.10    0.30
  -1   2  -2    1.70    0.80
   1  -2   2    1.50    0.60
   1  -2   2    2.40    0.40
  -2   2  -2  178.88    4.60
  -2   2  -2  177.38    4.60
  -2   2  -2  178.78    5.40
   2  -2   2  181.08    4.50
   2  -2   2  175.98    4.60
   2  -2   2  182.38    4.50
   2  -2   2  174.18    4.60
   2  -2   2  183.08    5.40
  -3   2  -2  202.78    5.30
  -3   2  -2  196.58    6.60
   3  -2   2  189.78    5.20
   3  -2   2  198.98    5.20
   3  -2   2  199.58    6.70
   3  -2   2  197.78    5.10
   3  -2   2  201.48    5.30
   3  -2   2  196.98    5.10
  -4   2  -2  175.98    5.10
  -4   2  -2  167.48    6.60
   4  -2   2  175.68    6.70
   4  -2   2  172.48    4.60
   4  -2   2  178.48    5.00
   4  -2   2  170.78    5.60
  -5   2  -2    4.20    1.10
   5  -2   2    5.10    0.80
   5  -2   2    5.10    1.10
   5  -2   2    4.80    1.70
   5  -2   2    6.90    1.70
   5   1  -2   72.99    3.10
  -5  -1   2   73.69    3.30
   4   1  -2   36.30    1.90
   4   1  -2   43.20    6.20
  -4  -1   2   38.70    5.50
  -4  -1   2   37.60    2.00
   3   1  -2    3.90    0.70
   3   1  -2    6.30    0.80
   3   1  -2    5.40    3.00
  -3  -1   2    5.30    0.80
  -3  -1   2    6.40    2.90
  -3  -1   2    4.90    0.60
   2   1  -2  322.97    8.00
   2   1  -2  321.97    8.00
   2   1  -2  338.67   12.40
  -2  -1   2  329.47   12.30
  -2  -1   2  324.37    8.10
  -2  -1   2  329.57    8.00
   0   1  -2   59.19    1.60
   0   1  -2   59.49    1.50
   0   1  -2   58.59    1.60
   0  -1   2   62.29    3.10
   0  -1   2   62.29    1.60
   0  -1   2   60.19    1.60
   0  -1   2   59.79    1.50
  -1   1  -2 3530.45   81.69
  -1   1  -2 3556.24   81.69
  -2   1  -2  338.97    8.10
  -2   1  -2  330.87    8.50
   2  -1   2  323.07    8.50
   2  -1   2  337.67    8.10
   2  -1   2  336.77    8.10
   2  -1   2  328.57    8.10
   2  -1   2  336.97    8.00
   2  -1   2  331.07    8.00
  -3   1  -2 1259.47   29.20
  -3   1  -2 1211.98   30.70
   3  -1   2 1243.58   30.80
   3  -1   2 1238.98   29.10
   3  -1   2 1267.97   29.20
   3  -1   2 1213.28   28.80
   3  -1   2 1258.47   28.80
   3  -1   2 1209.98   29.20
  -4   1  -2  521.05   12.80
   4  -1   2  519.85   12.20
   4  -1   2  501.85   15.20
   4  -1   2  504.85   12.20
   4  -1   2  512.35   12.70
  -5   1  -2  113.09    4.00
   5  -1   2  116.09    6.10
   5  -1   2  116.89    6.10
   5  -1   2  113.19    3.90
   5   0  -2  311.57    8.60
  -5   0   2  324.77    8.90
   4   0  -2    5.10    0.90
   4   0  -2    7.90    3.20
  -4   0   2    3.80    0.90
  -4   0   2    3.20    2.50
   3   0  -2  247.68    6.50
   3   0  -2  249.58   12.90
   3   0  -2  253.77    6.50
  -3   0   2  241.98    6.40
  -3   0   2  255.97    6.60
  -3   0   2  259.17   12.90
   2   0  -2 3505.75   85.29
   2   0  -2 3447.86   80.69
  -2   0   2 3533.95   85.29
  -1   0  -2 2462.75   57.09
   1   0   2 2445.96   57.09
  -2   0  -2  146.39    3.90
   2   0   2  146.89    3.90
   2   0   2  150.48    3.80
   2   0   2  144.79    5.00
   2   0   2  150.48    3.70
   2   0   2  147.49    3.80
   2   0   2  147.59    5.00
  -3   0  -2  989.30   23.60
   3   0   2  998.50   23.40
   3   0   2  982.60   23.10
   3   0   2  993.30   26.00
   3   0   2 1017.20   23.40
   3   0   2  982.60   25.90
  -4   0  -2  189.78    5.40
   4   0   2  190.48    5.20
   4   0   2  189.08    8.20
   4   0   2  183.88    8.10
  -5   0  -2   27.20    2.00
   5   0   2   29.50    1.90
   5   0   2   25.00    3.60
   5   0   2   28.90    4.00
   5  -1  -2   59.29    2.80
  -5   1   2   61.69    2.90
   4  -1  -2   56.99    1.80
   4  -1  -2   49.50    6.10
   4  -1  -2   56.69    2.40
  -4   1   2   65.99    6.30
  -4   1   2   64.69    2.60
   3  -1  -2   43.00    1.80
   3  -1  -2   44.50    1.40
   3  -1  -2   45.60    1.80
   3  -1  -2   36.70    7.10
  -3   1   2   42.70    1.70
  -3   1   2   48.70    8.10
  -3   1   2   48.10    1.90
   2  -1  -2  525.45   16.80
   2  -1  -2  556.64   12.80
   2  -1  -2  526.95   13.00
   2  -1  -2  548.65   13.00
  -2   1   2  562.14   17.10
  -2   1   2  539.55   12.70
  -2   1   2  539.55   12.90
  -2   1   2  552.24   13.00
   0  -1  -2 1185.98   29.20
   0   1   2 1161.38   29.10
  -1  -1  -2 1009.40   22.50
  -1  -1  -2  952.10   24.30
  -1  -1  -2  981.50   22.50
   1   1   2  961.20   22.60
   1   1   2  988.80   22.70
   1   1   2  964.10   22.50
   1   1   2  971.40   22.50
   1   1   2  957.60   24.30
  -2  -1  -2  845.42   19.90
  -2  -1  -2  856.21   19.60
  -2  -1  -2  831.62   19.70
   2   1   2  839.72   19.90
   2   1   2  853.61   19.60
   2   1   2  836.02   19.70
   2   1   2  834.12   22.20
   2   1   2  856.01   22.40
  -3  -1  -2 1544.75   36.30
  -3  -1  -2 1549.34   36.50
   3   1   2 1584.24   36.30
   3   1   2 1533.95   36.50
   3   1   2 1571.14   40.00
  -4  -1  -2   24.90    1.70
   4   1   2   26.00    1.60
   4   1   2   30.00    4.10
   4   1   2   27.10    3.80
  -5  -1  -2   23.20    2.00
   5   1   2   22.90    1.80
   5   1   2   15.60    5.30
   5   1   2   22.90    4.90
   5  -2  -2  306.27    8.40
  -5   2   2  309.27    8.60
   4  -2  -2  126.29    3.90
   4  -2  -2  122.79    8.50
   4  -2  -2  120.09    3.40
  -4   2   2  124.39    4.00
  -4   2   2  120.39    3.30
  -4   2   2  131.59    8.50
   3  -2  -2   52.99    1.70
   3  -2  -2   53.19    2.00
   3  -2  -2   52.99    2.00
   3  -2  -2   51.79    2.10
   3  -2  -2   56.59    5.30
  -3   2   2   54.09    2.10
  -3   2   2   51.59    1.70
  -3   2   2   48.70    5.10
   2  -2  -2  746.33   21.60
   2  -2  -2  726.53   17.00
   2  -2  -2  722.23   17.20
   2  -2  -2  720.53   17.10
   2  -2  -2  731.13   17.20
  -2   2   2  711.03   17.00
  -2   2   2  733.63   17.20
  -2   2   2  717.83   21.40
   1  -2  -2  963.50   22.70
   1  -2  -2  960.00   22.70
   1  -2  -2  973.70   26.10
  -1   2   2  987.10   22.70
  -1   2   2  955.50   22.70
  -1   2   2  972.90   22.70
  -1   2   2 1018.00   26.20
  -2  -2  -2 2112.39   46.90
  -2  -2  -2 2006.60   47.10
   2   2   2 2019.50   47.10
   2   2   2 2080.49   51.09
   2   2   2 1998.70   47.20
   2   2   2 1998.50   50.79
   2   2   2 2033.90   46.90
  -3  -2  -2  124.59    3.60
  -3  -2  -2  129.99    3.80
   3   2   2  123.39    8.20
   3   2   2  128.39    3.80
   3   2   2  134.89    3.60
   3   2   2  127.49    7.20
  -4  -2  -2   84.49    3.10
   4   2   2   76.59    6.20
   4   2   2   74.89    6.20
   4   2   2   80.39    2.80
  -5  -2  -2    3.60    1.10
   5   2   2    5.10    2.80
   5   2   2    3.30    1.00
   5  -3  -2   19.10    1.90
   5  -3  -2   14.30    1.10
   5  -3  -2   18.10    1.20
  -5   3   2   18.70    1.90
   4  -3  -2  132.09    4.10
   4  -3  -2  140.99    9.00
   4  -3  -2  134.09    3.70
  -4   3   2  127.69    3.60
  -4   3   2  133.19    8.60
  -4   3   2  129.09    4.20
   3  -3  -2   65.09    5.70
   3  -3  -2   67.49    2.20
   3  -3  -2   68.69    2.40
   3  -3  -2   69.69    2.30
   3  -3  -2   67.89    2.30
  -3   3   2   68.49    2.10
  -3   3   2   68.69    2.50
  -3   3   2   70.09    5.70
   2  -3  -2  510.15   12.10
   2  -3  -2  498.35   12.20
   2  -3  -2  513.75   16.80
   2  -3  -2  500.15   12.10
   2  -3  -2  496.45   12.20
  -2   3   2  520.15   12.20
  -2   3   2  505.55   16.60
  -2   3   2  504.75   12.10
   1  -3  -2  990.90   22.90
   1  -3  -2  985.20   27.10
   1  -3  -2  992.30   23.00
   1  -3  -2  986.70   23.00
  -1   3   2  994.20   23.00
  -1   3   2  959.80   26.90
  -1   3   2  978.40   23.00
  -1   3   2  985.30   22.90
   0  -3  -2 5283.67  123.79
   0   3   2 5120.89  123.69
  -1  -3  -2  740.83   17.70
  -1  -3  -2  765.42   21.70
  -1  -3  -2  770.52   17.50
  -1  -3  -2  752.42   17.60
   1   3   2  748.23   17.60
   1   3   2  724.63   21.50
   1   3   2  758.42   17.70
   1   3   2  758.52   17.60
  -2  -3  -2   49.90    1.40
  -2  -3  -2   47.90    1.60
   2   3   2   49.40    1.60
   2   3   2   49.20    1.40
   2   3   2   49.99    4.40
   2   3   2   47.80    1.70
   2   3   2   47.00    1.70
   2   3   2   49.99    4.70
  -3  -3  -2   65.39    2.20
   3   3   2   66.09    2.20
   3   3   2   63.19    5.80
   3   3   2   63.29    2.30
   3   3   2   62.09    5.50
  -4  -3  -2  148.99    4.60
   4   3   2  145.89    4.40
   4   3   2  149.79    9.40
   4   3   2  143.59    9.10
  -5  -3  -2    1.90    1.00
   5   3   2    4.00    3.30
   5   3   2    0.90    0.90
   5  -4  -2    3.10    1.10
   5  -4  -2    4.70    0.80
  -5   4   2    3.10    1.10
   4  -4  -2  199.68   17.20
   4  -4  -2  242.48    6.20
   4  -4  -2  236.98    6.50
  -4   4   2  224.28    6.10
  -4   4   2  238.88    6.60
  -4   4   2  247.18   18.40
   3  -4  -2   81.79    2.70
   3  -4  -2   80.59    6.60
   3  -4  -2   81.69    2.80
   3  -4  -2   84.89    2.60
  -3   4   2   80.69    6.50
  -3   4   2   86.39    2.80
   2  -4  -2 3012.40   73.69
   2  -4  -2 2875.11   67.59
   2  -4  -2 2921.51   67.59
   2  -4  -2 2914.91   67.59
  -2   4   2 2867.31   73.19
  -2   4   2 2982.60   67.69
  -2   4   2 2922.91   67.69
  -2   4   2 2878.31   67.59
   1  -4  -2 1321.27   30.90
   1  -4  -2 1334.17   36.00
   1  -4  -2 1318.57   30.90
   1  -4  -2 1335.77   31.00
  -1   4   2 1341.07   30.90
  -1   4   2 1305.97   31.00
  -1   4   2 1334.07   30.90
  -1   4   2 1337.27   36.00
   0  -4  -2   70.59    5.40
   0  -4  -2   77.69    2.20
   0  -4  -2   74.69    2.10
   0  -4  -2   73.39    2.10
   0   4   2   72.19    2.10
   0   4   2   74.79    2.10
   0   4   2   75.99    5.40
   0   4   2   72.99    2.10
  -1  -4  -2 2927.71   72.09
   1   4   2 2828.52   71.89
  -2  -4  -2 2289.57   51.69
  -2  -4  -2 2254.07   51.89
   2   4   2 2213.98   57.99
   2   4   2 2241.98   51.79
   2   4   2 2206.08   51.99
   2   4   2 2219.48   51.89
   2   4   2 2224.58   58.09
   2   4   2 2263.77   52.09
  -3  -4  -2   50.69    1.90
   3   4   2   50.69    2.20
   3   4   2   53.29    5.60
   3   4   2   61.59    6.30
   3   4   2   52.79    2.00
   3   4   2   54.69    2.60
   4   4   2    8.50    3.90
   4   4   2    4.30    3.30
   4   4   2   13.30    1.50
   4   4   2   10.50    1.30
   5   4   2  160.58    4.90
   5   4   2  147.79   10.60
   5   4   2  154.88    5.30
   5  -5  -2    0.40    0.80
   5  -5  -2   -1.20    0.90
  -5   5   2   -0.80    0.90
   4  -5  -2  191.18    5.30
   4  -5  -2  193.28    5.60
   4  -5  -2  199.68   11.40
  -4   5   2  194.08    5.70
  -4   5   2  188.88   10.90
   3  -5  -2  160.78    4.40
   3  -5  -2  153.88    4.50
   3  -5  -2  152.58    4.50
   3  -5  -2  159.38    9.50
  -3   5   2  153.88    4.40
  -3   5   2  156.78    9.20
  -3   5   2  159.78    4.50
   2  -5  -2  418.76   10.30
   2  -5  -2  397.26   10.30
   2  -5  -2  426.86   10.40
   2  -5  -2  441.86   21.50
  -2   5   2  423.56   10.40
  -2   5   2  418.86   10.40
  -2   5   2  435.16   10.40
  -2   5   2  416.46   19.40
   1  -5  -2   99.29    6.70
   1  -5  -2   93.49    2.60
   1  -5  -2   90.69    2.70
  -1   5   2   91.39    2.70
  -1   5   2   96.29    6.70
  -1   5   2   93.29    2.70
  -1   5   2   92.69    2.70
   0  -5  -2  825.12   19.40
   0  -5  -2  827.12   19.40
   0  -5  -2  827.72   25.30
   0  -5  -2  828.52   19.50
   0   5   2  832.62   25.20
   0   5   2  813.52   19.50
   0   5   2  820.22   19.40
   0   5   2  829.32   19.40
  -1  -5  -2  525.45   18.20
  -1  -5  -2  514.95   12.10
  -1  -5  -2  496.95   12.10
  -1  -5  -2  504.95   12.10
   1   5   2  490.85   17.90
   1   5   2  514.85   12.10
   1   5   2  500.55   12.10
   1   5   2  496.65   12.10
  -2  -5  -2    2.60    0.50
  -2  -5  -2    3.50    0.50
   2   5   2    2.60    0.70
   2   5   2    1.80    2.30
   2   5   2    3.20    0.50
   2   5   2    2.80    0.60
  -3  -5  -2   22.00    1.30
   3   5   2   21.50    5.10
   3   5   2   19.10    4.20
   3   5   2   22.40    1.40
   3   5   2   25.80    1.60
   4   5   2   16.70    5.10
   4   5   2   18.10    1.60
   4   5   2   22.80    5.10
   4   5   2   18.20    1.80
   5   5   2    4.80    1.30
   5   5   2    7.40    1.30
   5   5   2   14.20    4.40
   4  -6  -2    1.30    0.80
   4  -6  -2    0.30    0.80
   4  -6  -2    0.20    5.10
  -4   6   2    0.90    0.80
   3  -6  -2  430.56   10.80
   3  -6  -2  403.96   17.30
   3  -6  -2  444.06   10.90
  -3   6   2  434.66   17.30
  -3   6   2  423.46   10.80
   2  -6  -2   30.00    4.70
   2  -6  -2   31.00    1.50
   2  -6  -2   34.10    1.70
   2  -6  -2   35.20    1.60
  -2   6   2   34.70    1.60
  -2   6   2   35.70    5.20
  -2   6   2   33.20    1.60
   1  -6  -2  598.74   14.30
   1  -6  -2  592.04   14.40
   1  -6  -2  603.14   14.50
   1  -6  -2  633.14   21.30
  -1   6   2  607.44   14.40
  -1   6   2  583.64   14.50
  -1   6   2  596.44   14.40
  -1   6   2  599.44   20.80
   0  -6  -2  469.65   11.40
   0  -6  -2  482.75   17.80
   0  -6  -2  460.55   11.30
   0  -6  -2  465.35   11.20
   0   6   2  467.35   11.30
   0   6   2  457.55   11.40
   0   6   2  469.95   11.20
   0   6   2  471.55   17.60
  -1  -6  -2  111.09    3.20
  -1  -6  -2  112.69    3.20
  -1  -6  -2  126.69    8.40
  -1  -6  -2  113.39    3.20
   1   6   2  112.29    3.20
   1   6   2  116.29    3.20
   1   6   2  107.59    8.10
   1   6   2  112.29    3.20
  -2  -6  -2  352.56    8.40
   2   6   2  329.87    9.50
   2   6   2  351.46    8.70
   2   6   2  353.36    8.60
   2   6   2  344.37    8.40
   2   6   2  318.37   20.60
  -3  -6  -2  374.76    9.00
   3   6   2  375.86    9.60
   3   6   2  369.86    9.50
   3   6   2  380.06   17.70
   3   6   2  372.36   17.20
   3   6   2  374.96    9.00
   4   6   2    0.10    1.00
   4   6   2   -3.20    3.70
   4   6   2   -1.60    3.30
   4   6   2    0.50    0.80
   4  -7  -2   15.40    1.70
   4  -7  -2   11.90    1.30
  -4   7   2   15.40    1.90
   3  -7  -2  140.49    4.30
  -3   7   2  142.29    4.20
  -3   7   2  111.19   13.40
  -3   7   2  140.59    4.30
   2  -7  -2    6.30    3.50
   2  -7  -2    8.60    1.00
   2  -7  -2   10.70    1.10
  -2   7   2    7.70    1.00
  -2   7   2    7.20    3.30
  -2   7   2   10.70    1.10
   1  -7  -2   41.60    6.20
   1  -7  -2   31.70    1.60
   1  -7  -2   32.90    1.50
   1  -7  -2   35.00    1.80
  -1   7   2   32.80    1.70
  -1   7   2   25.80    5.10
  -1   7   2   34.40    1.60
   0  -7  -2 1388.06   40.40
   0  -7  -2 1360.46   32.00
   0  -7  -2 1346.87   31.80
   0  -7  -2 1353.06   32.10
   0   7   2 1370.76   40.30
   0   7   2 1316.17   31.90
   0   7   2 1372.86   31.90
   0   7   2 1378.46   31.80
  -1  -7  -2   14.40    4.10
  -1  -7  -2   14.70    1.10
  -1  -7  -2   12.30    0.90
   1   7   2   13.50    1.30
   1   7   2   11.50    1.00
   1   7   2   11.70    1.10
   1   7   2   12.50    4.00
  -2  -7  -2    0.50    0.50
   2   7   2    1.40    0.70
   2   7   2    0.90    0.50
   2   7   2    0.50    0.60
   2   7   2    0.70    0.60
   2   7   2    1.60    3.00
  -3  -7  -2   26.20    1.20
   3   7   2   23.70    1.20
   3   7   2   21.30    6.20
   3   7   2   26.20    5.80
   3   7   2   19.70    1.70
   3   7   2   21.10    1.60
   4   7   2    0.50    3.80
   4   7   2    1.90    0.90
   4   7   2    0.80    1.00
   4  -8  -2   58.09    2.70
   4  -8  -2   59.19    2.80
  -4   8   2   60.59    2.70
   3  -8  -2    5.30    3.70
   3  -8  -2    0.10    0.80
  -3   8   2    0.00    2.60
  -3   8   2   -0.30    0.70
  -3   8   2   -0.30    0.70
   2  -8  -2   55.49    2.10
   2  -8  -2   53.19    2.40
   2  -8  -2   58.69    7.50
  -2   8   2   54.29    2.30
  -2   8   2   53.79    6.90
  -2   8   2   56.79    2.20
   1  -8  -2   33.80    1.90
   1  -8  -2   34.90    6.30
   1  -8  -2   34.80    1.60
  -1   8   2   36.10    6.40
  -1   8   2   36.60    1.70
  -1   8   2   34.90    1.90
   0  -8  -2 1679.63   56.59
   0  -8  -2 1741.33   40.80
   0  -8  -2 1738.13   40.50
   0   8   2 1759.62   40.50
   0   8   2 1763.92   40.70
  -1  -8  -2  468.45   11.50
  -1  -8  -2  466.45   20.10
   1   8   2  468.95   11.50
   1   8   2  465.15   20.20
   1   8   2  461.45   11.40
   1   8   2  457.45   11.40
  -2  -8  -2   45.20    1.80
   2   8   2   43.10    2.00
   2   8   2   48.50    7.80
   2   8   2   47.10    2.00
   2   8   2   43.00    2.00
   2   8   2   49.30    7.60
   2   8   2   46.70    1.80
   3   8   2  115.79   11.60
   3   8   2  118.79    3.90
   3   8   2  118.29    3.90
   3   8   2  130.99   11.60
   3   8   2  114.89    3.40
   4   8   2   11.80    1.30
   4   8   2    7.00    5.10
   4   8   2   10.40    1.50
   3  -9  -2    2.60    0.90
  -3   9   2    3.70    0.90
  -3   9   2    4.30    1.00
   2  -9  -2   39.40    1.80
   2  -9  -2   36.60    6.50
   2  -9  -2   42.60    2.20
  -2   9   2   43.00    6.70
  -2   9   2   47.10    2.50
  -2   9   2   42.80    1.90
   1  -9  -2  181.28   12.70
   1  -9  -2  175.38    5.20
   1  -9  -2  169.58    4.70
  -1   9   2  173.08    4.80
  -1   9   2  160.78   12.00
  -1   9   2  181.18    5.10
   0  -9  -2  542.65   22.40
   0  -9  -2  503.85   12.40
   0  -9  -2  491.25   12.00
   0   9   2  494.45   21.70
   0   9   2  430.86   12.60
   0   9   2  520.35   12.40
  -1  -9  -2   -3.20    4.10
  -1  -9  -2    0.80    0.70
   1   9   2    0.20    0.70
   1   9   2    0.10    0.60
   1   9   2    1.00    0.70
  -2  -9  -2   52.19    2.10
   2   9   2   52.69    2.30
   2   9   2   50.09    2.20
   2   9   2   37.90    7.40
   2   9   2   40.50    7.70
  -3  -9  -2   10.00    1.10
   3   9   2   12.00    1.10
   3   9   2    3.20    5.50
   3   9   2    2.20    5.20
   3   9   2   10.40    1.30
   3   9   2   10.50    1.30
   2 -10  -2    6.60    1.10
  -2  10   2    9.10    1.00
  -2  10   2    9.40    1.30
   1 -10  -2   10.50    1.20
   1 -10  -2    8.00    1.10
  -1  10   2   10.50    1.20
  -1  10   2    9.00    1.20
   0 -10  -2   82.19    9.60
   0 -10  -2   79.09    3.10
   0  10   2   74.69    2.90
   0  10   2   75.79    2.60
   0  10   2   68.29    9.50
  -1 -10  -2  239.18    6.60
  -1 -10  -2  248.28   16.20
   1  10   2  237.28    6.30
   1  10   2  244.88   16.10
   1  10   2  239.98    6.70
   1  10   2  226.18    6.20
  -2 -10  -2    9.40    1.10
   2  10   2   11.80    1.40
   2  10   2   17.90    6.20
   2  10   2    9.90    6.00
   2  10   2    9.90    1.20
  -3 -10  -2    1.20    0.70
   3  10   2    0.00    0.90
   3  10   2   -5.50    5.10
   3  10   2    0.40    1.10
   1 -11  -2    3.30    1.00
   1 -11  -2    2.60    0.60
  -1  11   2    2.60    0.80
  -1  11   2    1.90    0.90
   0 -11  -2    5.90    1.10
   0 -11  -2   -2.20    8.70
   0  11   2    5.70    1.10
   0  11   2    5.60    0.90
   0  11   2    8.90    7.20
  -1 -11  -2   20.00    1.70
   1  11   2   20.20    1.50
   1  11   2   21.20    1.90
   1  11   2    9.00    5.90
  -2 -11  -2    0.40    0.90
   2  11   2    1.30    0.80
   2  11   2    7.60    6.10
   2  11   2    2.60    1.00
   2  11   2   -1.30    6.60
   1  11  -3   53.99    2.80
   1  11  -3   40.80   10.00
  -1 -11   3   55.49    2.60
   0  11  -3   -4.40    5.20
   0  11  -3    2.70    1.10
   0 -11   3    2.50    1.00
  -1  11  -3    4.70    1.10
  -1  11  -3   -4.70    4.20
   1 -11   3    6.70    1.20
   2  10  -3    0.50    0.90
   2  10  -3   -2.50    5.20
   2  10  -3    2.80    6.50
  -2 -10   3    1.30    0.80
   1  10  -3    3.40    8.40
   1  10  -3   23.10    6.90
   1  10  -3   17.20    1.80
  -1 -10   3   14.40    1.60
   0  10  -3   53.89    2.60
   0  10  -3   61.69    8.30
   0  10  -3   60.59   10.50
   0 -10   3   55.29    2.50
  -1  10  -3   57.59    2.60
  -1  10  -3   39.30    7.00
   1 -10   3   53.89    2.60
  -2  10  -3   11.20    1.40
  -2  10  -3   22.20    6.00
   2 -10   3   13.20    1.50
   3   9  -3   22.80    2.00
   3   9  -3   22.80    7.40
   3   9  -3   23.60    1.70
   3   9  -3   30.00    8.90
  -3  -9   3   24.60    1.30
  -3  -9   3   22.10    1.30
   2   9  -3   44.00    8.50
   2   9  -3   59.29    2.10
   2   9  -3   58.59    2.80
   2   9  -3   42.50    8.60
  -2  -9   3   62.99    2.40
   1   9  -3   95.19    3.50
   1   9  -3  103.39   10.00
   1   9  -3  102.59   10.50
  -1  -9   3  100.29    3.30
   0   9  -3    0.70    0.90
   0   9  -3    2.90    3.50
   0   9  -3   -1.70    2.80
   0  -9   3    2.30    0.80
  -1   9  -3   12.10    4.20
  -1   9  -3    6.20    1.10
  -1   9  -3    4.30    3.70
   1  -9   3    6.30    1.00
  -2   9  -3   21.60    5.00
  -2   9  -3   15.50    1.60
   2  -9   3   15.10    1.60
  -3   9  -3    0.70    0.80
  -3   9  -3   -1.20    3.40
   3  -9   3    0.10    0.90
   3   8  -3    2.30    0.80
   3   8  -3    1.70    5.20
   3   8  -3    2.20    1.00
   3   8  -3    8.50    9.20
  -3  -8   3    3.70    0.60
  -3  -8   3    2.70    0.60
   2   8  -3   83.19    2.60
   2   8  -3   83.99   10.10
   2   8  -3   89.29    4.70
   2   8  -3   82.09    2.60
   2   8  -3   87.69   11.00
  -2  -8   3   85.89    2.80
  -2  -8   3   77.89    2.70
   1   8  -3   33.50    6.30
   1   8  -3   31.80    1.90
   1   8  -3   40.10    6.90
  -1  -8   3   37.00    1.70
   0   8  -3   13.60    4.00
   0   8  -3   18.40    4.60
   0   8  -3   23.70    1.60
   0  -8   3   24.60    1.50
  -1   8  -3   -0.10    3.10
  -1   8  -3    0.40    0.70
  -1   8  -3    0.40    2.60
   1  -8   3    0.50    0.70
  -2   8  -3  307.27   14.20
  -2   8  -3  304.37    9.70
  -2   8  -3  309.67   14.10
  -3   8  -3   58.19    2.00
  -3   8  -3   55.69    2.50
  -3   8  -3   57.69    6.20
   3  -8   3   55.59    2.50
   3  -8   3   54.89    1.90
   4   7  -3   32.10    7.50
   4   7  -3   27.20    3.10
   4   7  -3   33.20    2.20
   4   7  -3   35.90    8.10
   3   7  -3  145.39   12.40
   3   7  -3  134.89   12.90
   3   7  -3  137.79    4.50
   3   7  -3  145.59    4.30
   2   7  -3  247.68   14.90
   2   7  -3  264.27   15.40
   2   7  -3  259.67    6.50
   2   7  -3  263.17    7.00
   2   7  -3  259.27    6.50
  -2  -7   3  252.17    6.90
  -2  -7   3  246.88    6.50
   1   7  -3  230.08    6.10
   1   7  -3  233.58   13.00
   1   7  -3  200.88   18.90
  -1  -7   3  219.58    5.80
  -1  -7   3  223.08    5.90
   0   7  -3   66.09    6.90
   0   7  -3   61.79    2.40
   0   7  -3   66.59    6.90
   0  -7   3   62.49    2.30
  -1   7  -3   80.49    7.20
  -1   7  -3   86.29    7.20
  -1   7  -3   79.99    2.80
   1  -7   3   81.89    2.80
  -2   7  -3  433.86   16.20
  -2   7  -3  404.16   15.90
  -2   7  -3  435.56   10.80
   2  -7   3  424.26   10.80
  -3   7  -3  164.08    4.90
  -3   7  -3  161.88    4.40
  -3   7  -3  164.08    8.40
   3  -7   3  158.28    4.40
  -4   7  -3    4.80    2.10
  -4   7  -3    1.70    0.80
   4  -7   3    3.60    1.00
   4   6  -3   16.40    6.20
   4   6  -3   13.50    1.50
   4   6  -3   25.80    7.20
  -4  -6   3   12.60    1.40
   3   6  -3   11.40    5.20
   3   6  -3    2.30    0.90
   3   6  -3    6.00    1.00
   3   6  -3    2.70    4.00
  -3  -6   3    5.70    0.90
   2   6  -3   67.09    2.50
   2   6  -3   84.79    8.30
   2   6  -3   64.79    2.20
   2   6  -3   78.79    8.70
  -2  -6   3   62.49    2.00
  -2  -6   3   65.19    2.10
   1   6  -3   72.59    7.30
   1   6  -3   68.49    7.20
   1   6  -3   74.39    2.50
  -1  -6   3   70.69    2.40
  -1  -6   3   73.59    2.30
   0   6  -3  739.53   24.20
   0   6  -3  736.73   17.60
   0   6  -3  717.53   24.00
   0  -6   3  728.53   17.60
   0  -6   3  733.93   17.50
   0  -6   3  737.73   17.50
  -1   6  -3  429.06   15.60
  -1   6  -3  411.66   10.30
  -1   6  -3  408.56   15.50
   1  -6   3  418.46   10.30
   1  -6   3  407.26   10.30
   1  -6   3  425.26   10.40
  -2   6  -3  250.57   10.60
  -2   6  -3  253.57    6.70
  -2   6  -3  254.47    6.20
   2  -6   3  247.68    6.70
  -3   6  -3   26.90    2.00
  -3   6  -3   23.60    1.70
  -3   6  -3   22.90    3.30
   3  -6   3   21.30    1.40
   3  -6   3   23.90    1.70
  -4   6  -3    5.20    0.90
  -4   6  -3    2.60    1.50
  -4   6  -3    4.80    1.70
   4  -6   3    4.90    1.20
   4  -6   3    3.30    1.10
   5   5  -3    6.50    1.30
  -5  -5   3    7.60    1.30
   4   5  -3   25.60    6.80
   4   5  -3   22.50    1.80
   4   5  -3   24.70    6.30
  -4  -5   3   23.30    1.80
   3   5  -3    3.30    4.10
   3   5  -3    9.40    1.10
   3   5  -3   10.70    1.10
  -3  -5   3   10.80    1.10
   2   5  -3    7.90    0.80
   2   5  -3    4.50    3.40
   2   5  -3   11.20    3.80
   2   5  -3    8.00    0.90
  -2  -5   3   10.00    0.90
  -2  -5   3    6.30    0.80
  -2  -5   3    8.90    0.70
  -2  -5   3    9.60    0.80
   1   5  -3 1345.67   38.70
   1   5  -3 1322.97   30.90
   1   5  -3 1339.87   38.50
   1   5  -3 1330.47   30.90
   1   5  -3 1318.77   31.30
  -1  -5   3 1358.16   31.10
  -1  -5   3 1323.67   31.10
   0   5  -3  182.78    9.20
   0   5  -3  178.78    9.10
   0   5  -3  175.38    4.70
   0  -5   3  173.88    4.60
   0  -5   3  177.48    4.70
   0  -5   3  173.98    4.70
  -1   5  -3   21.20    1.10
  -1   5  -3   21.40    3.40
  -1   5  -3   15.60    2.80
   1  -5   3   17.00    1.70
   1  -5   3   16.60    1.00
   1  -5   3   20.30    1.10
  -2   5  -3  652.83   19.70
  -2   5  -3  681.33   16.20
  -2   5  -3  686.43   15.80
   2  -5   3  675.53   15.80
   2  -5   3  676.13   16.20
   2  -5   3  663.23   16.20
   2  -5   3  665.23   16.20
  -3   5  -3 1267.57   33.50
  -3   5  -3 1448.36   33.10
  -3   5  -3 1416.66   35.80
   3  -5   3 1413.26   32.80
   3  -5   3 1461.25   33.10
  -4   5  -3    5.80    0.90
   4  -5   3    4.40    0.90
   4  -5   3    3.10    1.00
  -5   5  -3   44.00    2.30
   5  -5   3   43.80    2.20
   5  -5   3   46.80    2.50
   5   4  -3   -0.60    0.80
  -5  -4   3   -0.90    0.90
   4   4  -3    0.50    0.80
   4   4  -3   -2.40    3.80
  -4  -4   3    0.80    0.80
  -4  -4   3   -0.30    3.40
   3   4  -3  395.66   17.40
   3   4  -3  364.16    9.50
   3   4  -3  365.16    9.40
  -3  -4   3  375.66    9.40
  -3  -4   3  364.76   16.90
   2   4  -3  174.78    4.60
   2   4  -3  175.18    4.80
   2   4  -3  181.48   10.40
  -2  -4   3  172.28   10.10
  -2  -4   3  168.68    4.70
  -2  -4   3  174.58    4.60
  -2  -4   3  176.58    4.30
  -2  -4   3  177.58    4.50
   1   4  -3  431.26   10.10
   1   4  -3  422.76   15.90
  -1  -4   3  425.26   10.20
  -1  -4   3  429.66   10.40
  -1  -4   3  425.46   10.10
  -1  -4   3  428.96   10.20
   0   4  -3 1738.53   45.70
   0   4  -3 1741.43   45.70
   0   4  -3 1777.12   40.80
   0  -4   3 1743.33   40.70
   0  -4   3 1768.52   40.70
  -1   4  -3    2.40    1.50
  -1   4  -3    4.40    1.70
  -1   4  -3    3.40    0.50
   1  -4   3    3.70    0.50
   1  -4   3    3.50    0.50
  -2   4  -3  175.88    4.50
  -2   4  -3  175.88    6.90
  -2   4  -3  178.48    4.70
   2  -4   3  176.98    4.80
   2  -4   3  179.28    4.70
   2  -4   3  174.48    4.50
  -3   4  -3  218.08    7.00
  -3   4  -3  215.08    5.80
  -3   4  -3  215.48    5.80
   3  -4   3  207.58    5.60
   3  -4   3  209.78    5.70
   3  -4   3  212.48    5.70
  -4   4  -3  364.16    9.40
   4  -4   3  365.16    9.50
   4  -4   3  370.56    9.30
  -5   4  -3   11.00    1.30
   5  -4   3   10.80    1.20
   5  -4   3   10.00    1.30
   5   3  -3    0.60    0.90
  -5  -3   3    1.60    1.00
   4   3  -3   15.60    1.50
   4   3  -3   15.40    4.90
  -4  -3   3   16.80    1.60
  -4  -3   3   13.10    4.30
   3   3  -3  208.68    5.70
   3   3  -3  216.08   12.10
   3   3  -3  202.08    5.60
  -3  -3   3  210.28    5.70
  -3  -3   3  212.58   12.40
   2   3  -3  525.65   18.90
   2   3  -3  533.45   12.70
   2   3  -3  518.85   12.60
  -2  -3   3  527.45   12.60
  -2  -3   3  509.35   12.70
  -2  -3   3  522.95   12.30
  -2  -3   3  548.65   19.30
   1   3  -3   34.70    1.20
   1   3  -3   33.60    1.40
  -1  -3   3   36.60    1.20
  -1  -3   3   36.40    1.20
  -1  -3   3   36.40    7.30
  -1  -3   3   36.60    1.30
   0   3  -3 2209.78   63.19
   0  -3   3 2960.50   64.29
  -1   3  -3  579.04   16.50
  -1   3  -3  578.24   16.50
  -1   3  -3  596.14   14.00
   1  -3   3  585.34   13.70
   1  -3   3  591.94   14.00
   1  -3   3  592.64   14.00
   1  -3   3  600.34   13.70
   1  -3   3  599.94   14.00
  -2   3  -3  232.98    7.20
  -2   3  -3  241.88    6.10
  -2   3  -3  242.68    5.90
  -2   3  -3  238.48    7.20
   2  -3   3  241.98    6.10
   2  -3   3  237.48    6.10
   2  -3   3  243.08    6.10
   2  -3   3  233.78    5.90
  -3   3  -3  398.86    9.80
   3  -3   3  393.56    9.90
   3  -3   3  381.36    9.70
   3  -3   3  389.96    9.80
   3  -3   3  397.86    9.70
   3  -3   3  396.46    9.80
  -4   3  -3    1.00    0.80
   4  -3   3    0.90    0.80
   4  -3   3    1.80    0.90
   4  -3   3    1.80    0.70
  -5   3  -3    7.40    1.20
   5  -3   3    8.10    1.20
   5  -3   3    5.80    0.90
   5   2  -3    6.90    1.20
  -5  -2   3    6.30    1.30
   4   2  -3    5.10    3.50
   4   2  -3    8.50    1.10
  -4  -2   3   11.20    1.20
  -4  -2   3   15.90    4.40
   3   2  -3  428.76   10.50
   3   2  -3  422.96   10.50
   3   2  -3  385.36   23.90
  -3  -2   3  436.66   10.50
  -3  -2   3  405.96   10.40
   2   2  -3 3129.59   73.19
   2   2  -3 3156.38   79.49
  -2  -2   3 3136.09   73.19
  -2  -2   3 3156.18   73.19
  -2  -2   3 3255.57   79.89
   1   2  -3   47.70    4.40
   1   2  -3   47.90    1.60
   1   2  -3   50.59    1.50
   1   2  -3   48.10    1.40
  -1  -2   3   50.39    1.50
  -1  -2   3   50.59    1.40
  -1  -2   3   52.29    1.60
  -1  -2   3   43.80    4.50
   0  -2   3 4553.34  107.99
  -1   2  -3 1595.24   39.30
  -1   2  -3 1664.03   37.70
  -1   2  -3 1620.34   39.30
   1  -2   3 1638.54   37.60
   1  -2   3 1653.93   37.80
   1  -2   3 1624.54   37.70
   1  -2   3 1607.64   37.80
  -2   2  -3 1549.74   35.90
  -2   2  -3 1558.34   36.00
   2  -2   3 1568.64   36.00
   2  -2   3 1565.14   36.00
   2  -2   3 1537.25   36.00
   2  -2   3 1500.55   35.90
  -3   2  -3  288.67    7.30
   3  -2   3  285.47    7.20
   3  -2   3  288.37    7.10
   3  -2   3  279.47    7.20
   3  -2   3  277.17    7.20
   3  -2   3  284.97    7.10
  -4   2  -3   41.70    2.10
   4  -2   3   43.70    2.00
   4  -2   3   41.10    1.70
   4  -2   3   42.20    1.80
  -5   2  -3    0.70    0.90
   5  -2   3    0.70    0.90
   5  -2   3    0.40    0.60
   5  -2   3    1.70    0.60
   5   1  -3    3.10    1.00
  -5  -1   3    2.60    1.10
   4   1  -3    1.80    0.80
   4   1  -3   -0.60    2.80
  -4  -1   3    3.20    3.20
  -4  -1   3    2.30    0.90
   3   1  -3  140.49    4.00
   3   1  -3  140.39    4.10
   3   1  -3  126.49   12.50
  -3  -1   3  147.49    4.10
  -3  -1   3  138.49    3.90
  -3  -1   3  130.89   10.60
   2   1  -3   21.80    1.10
   2   1  -3   20.30    3.70
   2   1  -3   20.00    1.20
  -2  -1   3   21.00    1.10
  -2  -1   3   22.70    1.30
  -2  -1   3   21.20    3.90
   1   1  -3 6760.02  161.38
  -1  -1   3 6908.01  161.48
   0   1  -3  121.19    3.10
   0   1  -3  121.19    3.00
   0   1  -3  117.19    3.00
   0  -1   3  124.19    3.10
   0  -1   3  125.39    3.00
   0  -1   3  121.79    5.10
   0  -1   3  124.19    3.00
  -2   1  -3 2604.44   60.59
   2  -1   3 2595.44   60.59
   2  -1   3 2648.64   60.59
   2  -1   3 2614.04   60.59
   2  -1   3 2646.04   60.59
  -3   1  -3  317.07    8.00
   3  -1   3  316.27    7.80
   3  -1   3  317.17    7.90
   3  -1   3  318.87    7.80
   3  -1   3  319.47    7.90
  -4   1  -3    0.90    0.70
   4  -1   3    2.10    0.90
   4  -1   3    0.90    0.70
   4  -1   3    0.80    0.80
   4  -1   3    0.70    0.60
   4  -1   3    0.60    0.50
  -5   1  -3    0.80    0.90
   5  -1   3    1.80    0.90
   5  -1   3    0.90    0.50
   5   0  -3    1.60    1.10
  -5   0   3    2.40    1.10
   4   0  -3   50.69    2.20
   4   0  -3   47.80    6.40
  -4   0   3   48.60    6.20
  -4   0   3   51.39    2.40
   3   0  -3    1.30    0.30
   3   0  -3    1.10    0.60
   3   0  -3    0.70    0.60
  -3   0   3   -1.90    3.60
  -3   0   3    2.30    0.50
  -3   0   3    0.10    0.60
   2   0  -3 3596.24   84.09
   2   0  -3 3646.14   89.59
  -2   0   3 3688.93   89.59
   0   0  -3  734.33   16.90
   0   0  -3  704.33   16.80
   0   0  -3  715.13   16.80
   0   0   3  732.93   19.20
   0   0   3  748.83   16.90
   0   0   3  715.23   16.80
   0   0   3  721.43   16.70
   2   0   3 6157.98  142.69
   2   0   3 6176.88  142.69
  -3   0  -3    3.80    0.70
   3   0   3    2.30    0.40
   3   0   3    2.70    1.10
   3   0   3    1.50    1.10
   3   0   3    3.00    0.60
   3   0   3    2.30    0.50
   3   0   3    2.40    0.60
   3   0   3    2.90    0.60
  -4   0  -3    0.80    0.70
   4   0   3    0.30    0.40
   4   0   3   -0.20    1.20
   4   0   3    0.10    0.60
   4   0   3    1.60    1.30
   4   0   3    0.50    0.50
  -5   0  -3    0.10    0.90
   5   0   3    2.50    1.70
   5   0   3    0.10    1.60
   5   0   3   -0.40    0.80
   5  -1  -3    2.90    1.10
  -5   1   3    3.90    1.20
   4  -1  -3   76.89    7.60
   4  -1  -3   89.49    3.10
  -4   1   3   85.79    3.20
  -4   1   3   93.09    7.90
  -4   1   3   87.69    2.40
   3  -1  -3   55.79    5.80
   3  -1  -3   52.89    2.00
   3  -1  -3   50.29    2.00
   3  -1  -3   53.89    1.60
  -3   1   3   50.99    2.10
  -3   1   3   52.09    1.60
  -3   1   3   54.69    5.70
  -3   1   3   50.69    1.90
   2  -1  -3 1908.61   43.60
   2  -1  -3 1876.01   43.80
   2  -1  -3 1847.82   43.90
   2  -1  -3 1876.41   49.00
  -2   1   3 1932.51   49.20
  -2   1   3 1874.21   43.80
  -2   1   3 1902.71   43.90
  -2   1   3 1876.81   43.70
   1  -1  -3 1368.76   31.90
   1  -1  -3 1359.36   32.00
   1  -1  -3 1361.66   35.90
   1  -1  -3 1395.26   31.90
  -1   1   3 1366.36   32.00
  -1   1   3 1391.26   35.90
  -1   1   3 1407.86   31.80
  -1   1   3 1362.56   31.90
   0  -1  -3  103.89    2.70
   0  -1  -3  107.59    4.80
   0   1   3  107.19    4.90
   0   1   3  104.89    2.70
   0   1   3  107.79    2.70
   2   1   3 9525.85  221.38
  -3  -1  -3    9.40    1.10
  -3  -1  -3    9.30    0.90
   3   1   3   10.70    1.00
   3   1   3    8.80    2.00
   3   1   3   10.00    1.90
   3   1   3   10.00    0.80
  -4  -1  -3  145.19    4.40
   4   1   3  145.99    4.20
   4   1   3  144.89    7.10
   4   1   3  144.69    7.10
   4   1   3  140.49    3.70
  -5  -1  -3   19.60    1.90
   5   1   3   17.30    1.70
   5   1   3   16.10    3.40
   5   1   3   17.60    3.20
   5  -2  -3   18.80    1.90
  -5   2   3   19.40    2.00
   4  -2  -3   21.00    1.60
   4  -2  -3   22.90    1.10
   4  -2  -3   24.90    5.10
  -4   2   3   23.00    1.70
  -4   2   3   21.60    1.10
  -4   2   3   29.40    5.00
   3  -2  -3  595.54   14.80
   3  -2  -3  601.04   14.80
   3  -2  -3  607.44   14.50
   3  -2  -3  618.24   20.80
   3  -2  -3  612.54   14.80
  -3   2   3  602.04   14.50
  -3   2   3  622.84   14.90
  -3   2   3  631.54   21.00
   2  -2  -3  303.97    7.50
   2  -2  -3  300.07    7.50
   2  -2  -3  298.17   12.00
   2  -2  -3  304.97    7.40
   2  -2  -3  311.77    7.60
  -2   2   3  305.17    7.60
  -2   2   3  300.57    7.40
  -2   2   3  316.77   12.20
   1  -2  -3 1583.74   36.70
   1  -2  -3 1604.84   36.70
   1  -2  -3 1579.34   36.90
   1  -2  -3 1560.64   41.00
  -1   2   3 1642.14   41.20
  -1   2   3 1561.74   36.90
   0  -2  -3   55.09    3.80
   0  -2  -3   52.29    1.60
   0  -2  -3   53.79    1.40
   0   2   3   51.99    1.40
   0   2   3   54.79    1.60
   0   2   3   52.09    3.80
  -1  -2  -3  223.08    5.30
  -1  -2  -3  205.18    7.90
  -1  -2  -3  222.78    5.20
   1   2   3  216.18    8.00
   1   2   3  220.28    5.30
   1   2   3  219.08    5.50
   1   2   3  221.38    5.20
  -2  -2  -3  609.34   14.00
  -2  -2  -3  589.24   14.10
   2   2   3  608.54   17.60
   2   2   3  590.04   14.30
   2   2   3  598.24   14.00
   2   2   3  596.14   14.10
   2   2   3  589.64   14.30
  -3  -2  -3  132.29    3.70
  -3  -2  -3  138.59    3.50
   3   2   3  131.89    4.00
   3   2   3  137.69    4.00
   3   2   3  134.99    7.00
   3   2   3  140.49    4.10
   3   2   3  142.99    7.00
   3   2   3  137.69    3.50
   4   2   3    4.30    0.80
   4   2   3   -1.90    2.00
   4   2   3    3.30    2.30
   5   2   3    0.70    0.80
   5  -3  -3    1.70    1.00
   5  -3  -3    0.70    0.60
  -5   3   3    3.00    0.60
  -5   3   3    2.20    1.10
   4  -3  -3   30.40    1.80
   4  -3  -3   30.50    5.00
   4  -3  -3   28.80    1.40
  -4   3   3   26.30    1.30
  -4   3   3   27.20    1.90
  -4   3   3   28.10    5.00
   3  -3  -3   33.90    1.60
   3  -3  -3   31.40    1.70
   3  -3  -3   34.40    1.60
   3  -3  -3   33.30    1.50
   3  -3  -3   39.00    5.40
  -3   3   3   33.10    1.40
  -3   3   3   34.90    1.80
  -3   3   3   29.00    4.50
   2  -3  -3 1240.88   29.50
   2  -3  -3 1259.97   29.40
   2  -3  -3 1255.37   29.40
   2  -3  -3 1243.98   29.40
   2  -3  -3 1249.38   35.10
  -2   3   3 1292.77   35.20
  -2   3   3 1242.38   29.40
  -2   3   3 1284.97   29.60
   1  -3  -3 4901.01  117.89
  -1   3   3 4899.91  117.89
   0  -3  -3 5463.05  130.19
   0   3   3 5467.35  130.19
  -1  -3  -3    2.20    1.50
   1   3   3    0.30    1.40
   1   3   3    1.60    0.30
   1   3   3    1.00    0.30
   1   3   3    1.00    0.40
  -2  -3  -3  156.58    7.60
  -2  -3  -3  159.08    3.90
  -2  -3  -3  156.18    4.00
   2   3   3  157.18    7.60
   2   3   3  155.98    4.30
   2   3   3  155.18    4.00
   2   3   3  153.28    4.20
  -3  -3  -3  147.19    3.60
  -3  -3  -3  139.29    3.90
   3   3   3  143.99    3.60
   3   3   3  141.29    4.20
   3   3   3  144.29    7.90
   3   3   3  152.48    8.30
   3   3   3  145.49    4.00
   3   3   3  145.39    4.30
   4   3   3  468.85   11.90
   4   3   3  447.66   17.00
   4   3   3  465.75   17.50
   4   3   3  452.55   11.40
   5   3   3   -1.00    0.80
   5   3   3   -0.10    0.90
   5   3   3   -1.70    2.60
   5  -4  -3    0.20    0.70
   5  -4  -3   -0.20    0.90
  -5   4   3    1.60    1.00
   4  -4  -3  124.19   11.00
   4  -4  -3  128.69    4.00
   4  -4  -3  120.79    3.60
  -4   4   3  119.79    4.00
  -4   4   3  114.09    3.50
  -4   4   3  127.39   12.60
   3  -4  -3  579.04   20.50
   3  -4  -3  566.74   13.70
   3  -4  -3  554.64   13.80
  -3   4   3  548.15   13.90
  -3   4   3  580.54   14.00
  -3   4   3  580.44   20.40
   2  -4  -3  538.95   12.90
   2  -4  -3  547.15   18.70
   2  -4  -3  513.65   13.10
   2  -4  -3  540.25   12.90
  -2   4   3  535.45   12.80
  -2   4   3  505.15   13.50
  -2   4   3  564.04   18.80
   1  -4  -3  798.82   18.90
   1  -4  -3  823.22   19.00
   1  -4  -3  815.62   24.50
   1  -4  -3  797.42   19.00
  -1   4   3  795.32   19.00
  -1   4   3  819.82   19.00
  -1   4   3  798.32   24.20
  -1   4   3  798.42   18.90
   0  -4  -3 1449.15   33.50
   0  -4  -3 1383.56   33.50
   0  -4  -3 1467.15   33.50
   0  -4  -3 1466.75   38.90
   0   4   3 1456.65   39.00
   0   4   3 1429.06   33.30
   0   4   3 1427.96   33.50
   0   4   3 1441.36   33.50
  -1  -4  -3  714.73   17.10
  -1  -4  -3  704.93   17.00
  -1  -4  -3  723.93   22.20
  -1  -4  -3  729.63   17.00
   1   4   3  713.83   16.90
   1   4   3  726.93   17.00
   1   4   3  719.43   22.20
   1   4   3  739.73   17.10
  -2  -4  -3   32.50    1.30
  -2  -4  -3   35.70    1.20
   2   4   3   34.30    1.50
   2   4   3   35.20    1.20
   2   4   3   28.90    4.20
   2   4   3   32.70    1.50
   2   4   3   33.70    1.30
   3   4   3  188.58   10.40
   3   4   3  186.78   10.00
   3   4   3  192.08    5.10
   3   4   3  191.48    5.40
   4   4   3  178.28    5.40
   4   4   3  176.08    5.00
   4   4   3  170.08   13.50
   4   4   3  178.48   10.50
   5   4   3    3.90    1.00
   5   4   3    0.80    3.20
   5   4   3    2.40    1.10
   5  -5  -3   -0.10    0.70
   5  -5  -3   -0.70    0.80
  -5   5   3    0.50    1.00
   4  -5  -3   31.10    1.70
   4  -5  -3   27.70    1.90
   4  -5  -3   30.10    5.40
  -4   5   3   30.40    5.50
  -4   5   3   29.70    2.00
   3  -5  -3   89.89    3.00
   3  -5  -3   88.49    3.00
   3  -5  -3   88.39    7.70
  -3   5   3  115.69    8.40
  -3   5   3   90.79    3.10
   2  -5  -3   83.39    2.60
   2  -5  -3   84.19   10.40
   2  -5  -3   79.99    2.60
   2  -5  -3   80.69    2.60
  -2   5   3   86.59    2.70
  -2   5   3   83.19    2.60
  -2   5   3   70.69    9.60
  -2   5   3   81.49    2.60
   1  -5  -3 1088.99   25.60
   1  -5  -3 1091.09   25.60
   1  -5  -3 1085.69   25.70
   1  -5  -3 1094.79   32.20
  -1   5   3 1103.69   32.10
  -1   5   3 1078.39   25.70
  -1   5   3 1106.89   25.70
  -1   5   3 1097.79   25.60
   0  -5  -3 1760.82   40.60
   0  -5  -3 1787.72   40.80
   0  -5  -3 1740.13   40.70
   0  -5  -3 1770.62   47.40
   0   5   3 1749.53   40.70
   0   5   3 1728.83   47.20
   0   5   3 1766.02   40.80
   0   5   3 1722.83   40.80
  -1  -5  -3  137.59    3.50
  -1  -5  -3  138.79    8.10
  -1  -5  -3  133.79    3.70
  -1  -5  -3  150.18    3.70
   1   5   3  132.19    3.50
   1   5   3  133.39    3.70
   1   5   3  129.79    3.60
   1   5   3  123.89    8.50
  -2  -5  -3    0.20    0.40
  -2  -5  -3   -0.40    2.20
  -2  -5  -3    0.10    0.40
   2   5   3    6.20    2.70
   2   5   3    0.00    0.50
   2   5   3    0.60    0.40
   2   5   3   -0.80    0.40
  -3  -5  -3    1.40    0.50
  -3  -5  -3    1.60    0.40
   3   5   3    0.60    0.70
   3   5   3    1.10    0.60
   3   5   3   -1.80    2.40
   3   5   3    0.60    0.40
   3   5   3    3.80    3.20
   4   5   3  183.08   11.80
   4   5   3  165.48    4.80
   4   5   3  144.79   10.60
   5   5   3    9.20    1.50
   5   5   3   10.40    1.30
   5   5   3   12.60    4.50
   4  -6  -3    0.00    0.70
   4  -6  -3    0.70    0.80
   3  -6  -3   79.09    2.80
   3  -6  -3   73.89    7.70
   3  -6  -3   77.19    2.80
  -3   6   3   78.69    7.40
  -3   6   3   83.69    2.90
   2  -6  -3    0.80    0.50
   2  -6  -3    0.10    0.60
   2  -6  -3    0.50    2.90
   2  -6  -3    1.30    0.60
  -2   6   3    4.00    2.80
  -2   6   3    0.70    0.70
  -2   6   3   -0.10    0.60
   1  -6  -3   39.30    1.60
   1  -6  -3   39.60    1.60
   1  -6  -3   47.00    6.00
   1  -6  -3   40.80    1.70
  -1   6   3   38.30    5.40
  -1   6   3   42.80    1.60
  -1   6   3   42.80    1.70
  -1   6   3   41.10    1.70
   0  -6  -3   12.70    1.00
   0  -6  -3   13.20    0.90
   0  -6  -3   10.90    3.40
   0  -6  -3   13.50    0.90
   0   6   3   12.80    0.90
   0   6   3   13.10    1.00
   0   6   3   15.50    1.20
   0   6   3   16.20    3.90
  -1  -6  -3  195.48    5.00
  -1  -6  -3  202.78   10.70
  -1  -6  -3  191.88    5.10
   1   6   3  190.78   10.70
   1   6   3  195.48    5.00
   1   6   3  187.68    5.10
   1   6   3  201.18    5.20
  -2  -6  -3   29.20    1.30
  -2  -6  -3   27.40    4.80
  -2  -6  -3   31.80    1.30
   2   6   3   30.00    1.40
   2   6   3   31.70    1.60
   2   6   3   30.10    1.50
   2   6   3   26.50    4.90
   2   6   3   31.10    1.30
  -3  -6  -3    6.80    0.60
   3   6   3    3.50    3.70
   3   6   3    4.70    1.00
   3   6   3    4.80    3.40
   3   6   3    5.50    0.90
   3   6   3    5.70    0.60
   4   6   3  120.69   10.30
   4   6   3  128.79   11.20
   4   6   3  138.39    4.50
   4   6   3  133.89    4.20
   4  -7  -3    0.70    0.80
   4  -7  -3    0.60    0.90
  -4   7   3    0.50    0.80
   3  -7  -3   46.70    2.20
   3  -7  -3   44.50    2.20
   3  -7  -3   60.39   11.90
  -3   7   3   37.00    9.50
  -3   7   3   48.90    2.20
   2  -7  -3   84.59    8.00
   2  -7  -3   68.99    2.50
   2  -7  -3   68.99    2.60
  -2   7   3   70.89    2.60
  -2   7   3   71.19    7.50
  -2   7   3   72.99    2.60
   1  -7  -3 2405.56   55.49
   1  -7  -3 2416.26   69.39
   1  -7  -3 2441.36   55.69
   1  -7  -3 2379.36   55.49
  -1   7   3 2428.36   55.49
  -1   7   3 2398.16   65.69
  -1   7   3 2248.58   55.59
   0  -7  -3  403.56   17.20
   0  -7  -3  404.76    9.90
   0  -7  -3  393.26    9.70
   0  -7  -3  391.16    9.70
   0   7   3  381.76   16.90
   0   7   3  402.86    9.80
   0   7   3  386.06    9.90
   0   7   3  404.46    9.80
  -1  -7  -3   37.50    1.60
  -1  -7  -3   45.20    5.80
  -1  -7  -3   36.00    1.60
  -1  -7  -3   42.40    1.60
   1   7   3   40.20    1.70
   1   7   3   34.30    5.60
   1   7   3   35.00    1.60
   1   7   3   37.10    1.60
  -2  -7  -3   25.90    5.00
  -2  -7  -3   25.00    1.30
  -2  -7  -3   25.00    1.30
   2   7   3   28.40    5.50
   2   7   3   22.80    1.50
   2   7   3   25.50    1.30
   2   7   3   25.00    1.40
   2   7   3   25.70    1.60
  -3  -7  -3   47.00    1.70
   3   7   3   47.90    2.10
   3   7   3   50.39    2.40
   3   7   3   48.40    1.80
   3   7   3   52.99    7.30
   3   7   3   51.89    7.70
   4   7   3   -3.20    3.40
   4   7   3   -0.70    0.90
   4   7   3    0.30    0.90
   4  -8  -3   -0.50    0.90
   4  -8  -3   -0.10    0.80
  -4   8   3    0.40    0.80
   3  -8  -3   16.00    1.60
   3  -8  -3   12.10    4.60
  -3   8   3   17.00    1.50
  -3   8   3   16.50    1.50
  -3   8   3   19.40    4.70
   2  -8  -3   83.09    3.10
   2  -8  -3   78.39    2.80
   2  -8  -3   94.79    9.20
  -2   8   3   83.89    8.40
  -2   8   3   88.19    3.00
  -2   8   3   85.99    3.00
   1  -8  -3  322.47   16.40
   1  -8  -3  312.07    8.30
  -1   8   3  329.47   16.20
  -1   8   3  307.97    8.10
  -1   8   3  316.17    8.10
   0  -8  -3  811.92   19.30
   0  -8  -3  814.12   28.40
   0  -8  -3  788.02   19.10
   0  -8  -3  776.82   19.10
   0   8   3  800.62   19.10
   0   8   3  792.62   28.60
   0   8   3  811.92   19.10
  -1  -8  -3   88.09    2.80
  -1  -8  -3   86.89    2.90
  -1  -8  -3   95.99    9.00
  -1  -8  -3   93.99    3.00
   1   8   3   90.89    2.90
   1   8   3   94.29    3.00
   1   8   3   98.49    9.10
  -2  -8  -3    6.60    0.80
   2   8   3    7.10    0.90
   2   8   3    6.80    1.00
   2   8   3    9.30    0.90
   2   8   3    3.70    4.10
  -3  -8  -3   34.30    1.50
   3   8   3   32.30    1.90
   3   8   3   29.80    9.70
   3   8   3   22.40    6.00
   3   8   3   32.00    2.00
   4   8   3    4.20    1.10
   4   8   3    5.50    4.70
   4   8   3    4.00    1.00
   3  -9  -3   34.00    2.10
  -3   9   3   30.70    1.90
  -3   9   3   33.70    2.00
   2  -9  -3   10.90    1.30
   2  -9  -3    4.70    4.60
  -2   9   3   10.30    1.10
  -2   9   3   12.60    4.60
   1  -9  -3  708.93   17.80
   1  -9  -3  762.52   28.60
   1  -9  -3  759.52   18.50
  -1   9   3  731.63   27.90
  -1   9   3  738.23   18.00
  -1   9   3  744.33   17.80
   0  -9  -3  260.67   15.30
   0  -9  -3  250.47    6.70
   0  -9  -3  237.58    6.40
   0   9   3  227.38   14.40
   0   9   3  245.68    6.60
   0   9   3  247.78    6.40
  -1  -9  -3   36.20    6.90
  -1  -9  -3   31.90    1.80
   1   9   3   31.60    1.80
   1   9   3   33.60    1.70
   1   9   3   28.90    6.40
  -2  -9  -3    2.60    0.70
   2   9   3    2.10    4.10
   2   9   3    2.90    0.80
   2   9   3    1.80    0.90
  -3  -9  -3   54.19    2.10
   3   9   3   42.80    2.20
   3   9   3   55.99    2.80
   3   9   3   56.29    9.20
   3   9   3   71.79   10.00
   2 -10  -3    2.80    1.00
  -2  10   3    3.10    0.90
  -2  10   3    2.30    0.90
   1 -10  -3    2.40    4.90
   1 -10  -3    5.00    1.00
   1 -10  -3    5.20    0.90
  -1  10   3    6.70    1.80
  -1  10   3    7.00    5.40
  -1  10   3    6.60    1.00
   0 -10  -3   74.99    9.80
   0 -10  -3   73.59    2.60
   0 -10  -3   77.99    3.00
   0  10   3   76.39    2.90
   0  10   3   77.89    2.70
   0  10   3   74.99    9.50
  -1 -10  -3  164.38   13.40
  -1 -10  -3  150.48    4.60
   1  10   3  150.28    4.60
   1  10   3  154.38   13.20
   1  10   3  147.59    4.40
  -2 -10  -3   17.10    1.50
   2  10   3   16.90    1.60
   2  10   3    3.10    5.30
   2  10   3   19.90    2.00
   2  10   3   14.50    6.00
  -3 -10  -3   17.40    1.40
   3  10   3   15.90    1.70
   3  10   3   14.00    6.60
   3  10   3   15.70    1.80
   1 -11  -3    1.90    5.20
   1 -11  -3    3.40    1.00
  -1  11   3    5.10    1.10
  -1  11   3    6.50    1.00
  -1  11   3   15.70    6.70
   0 -11  -3   33.30    8.50
   0 -11  -3   35.00    2.20
   0  11   3   36.40    1.90
   0  11   3   34.80    2.10
   0  11   3   35.90   10.10
  -1 -11  -3    3.90    5.10
  -1 -11  -3    0.40    0.80
   1  11   3    0.90    0.90
   1  11   3    1.10    4.90
   1  11   3    1.50    0.80
  -2 -11  -3   -0.10    0.70
   2  11   3    0.30    0.80
   2  11   3   -8.00    6.80
   2  11   3    0.60    0.90
   0 -11   4   -0.30    0.80
   2  10  -4    4.80    8.50
   2  10  -4    0.90    1.00
   2  10  -4   -3.00    6.50
  -2 -10   4    0.80    0.70
   1  10  -4   24.30    2.00
   1  10  -4   25.10    6.40
   1  10  -4   27.50    7.70
  -1 -10   4   23.40    1.80
   0  10  -4  106.59   11.20
   0  10  -4  110.59    4.00
   0  10  -4  118.19   11.50
   0 -10   4  110.49    3.80
  -1  10  -4   24.40    5.90
  -1  10  -4   40.20    2.30
   1 -10   4   38.60    2.20
  -2  10  -4   14.90    4.70
  -2  10  -4   16.70    1.70
   2 -10   4   12.00    1.40
   3   9  -4    1.20    6.00
   3   9  -4    2.60    1.10
   3   9  -4   -1.80    6.20
   3   9  -4    2.00    0.80
  -3  -9   4    3.30    0.70
   2   9  -4   51.39    8.20
   2   9  -4   37.30   10.00
   2   9  -4   40.90    2.40
  -2  -9   4   41.30    2.00
   1   9  -4   -0.10    3.70
   1   9  -4    3.60    1.00
   1   9  -4    5.20    4.80
  -1  -9   4    4.30    0.90
   0   9  -4    3.30    5.30
   0   9  -4    2.40    0.90
   0   9  -4    6.50    3.70
   0  -9   4    1.50    0.80
  -1   9  -4  167.28   11.90
  -1   9  -4  182.48    5.40
  -1   9  -4  180.08   12.20
   1  -9   4  187.08    5.40
  -2   9  -4    1.40    3.30
  -2   9  -4    2.10    0.90
   2  -9   4    2.80    0.90
  -3   9  -4    4.50    3.60
  -3   9  -4    5.20    1.10
   3  -9   4    4.30    1.00
   3   8  -4   19.90    6.30
   3   8  -4   11.90    1.20
   3   8  -4   11.80    1.50
   3   8  -4    9.30    6.40
  -3  -8   4   13.70    1.00
   2   8  -4  149.59   12.90
   2   8  -4  135.29   12.80
   2   8  -4  148.29    4.60
   2   8  -4  148.09    4.00
   2   8  -4  140.59    3.90
  -2  -8   4  135.89    4.10
  -2  -8   4  153.18    4.20
   1   8  -4   15.20    1.50
   1   8  -4   17.30    5.10
   1   8  -4   20.20    5.00
  -1  -8   4   15.80    1.30
   0   8  -4   52.29    2.30
   0   8  -4   54.49    7.20
   0   8  -4   55.99    6.80
   0  -8   4   51.29    2.20
  -1   8  -4  174.98    5.20
  -1   8  -4  180.98   11.40
  -1   8  -4  182.38   11.00
   1  -8   4  175.48    5.20
  -2   8  -4   21.50    4.40
  -2   8  -4   13.70    3.90
  -2   8  -4   18.50    1.60
   2  -8   4   23.90    1.70
  -3   8  -4   62.09    9.20
  -3   8  -4   56.89    2.60
   3  -8   4   59.79    2.70
   4   7  -4   18.10    7.80
   4   7  -4   12.30    1.50
   4   7  -4   20.80    7.00
  -4  -7   4   15.40    1.80
   3   7  -4   -2.10    4.70
   3   7  -4   -0.60    0.90
   3   7  -4    5.80    4.80
  -3  -7   4    0.40    0.50
   2   7  -4  525.55   12.90
   2   7  -4  507.35   12.30
   2   7  -4  484.55   29.60
   2   7  -4  516.55   12.30
   2   7  -4  560.24   23.40
  -2  -7   4  525.45   12.40
  -2  -7   4  464.05   12.60
   1   7  -4  227.48   13.30
   1   7  -4  208.58   12.80
   1   7  -4  223.28    6.10
  -1  -7   4  221.58    5.80
  -1  -7   4  217.48    5.80
   0   7  -4  493.25   19.70
   0   7  -4  484.25   19.60
   0   7  -4  506.75   12.40
   0  -7   4  511.95   12.40
  -1   7  -4  255.17   12.30
  -1   7  -4  259.97    6.90
  -1   7  -4  256.37   12.60
   1  -7   4  262.17    6.90
  -2   7  -4   68.29    6.10
  -2   7  -4   72.19    2.80
  -2   7  -4   72.39    6.40
   2  -7   4   77.19    2.80
  -3   7  -4    1.20    0.80
  -3   7  -4    3.90    1.90
   3  -7   4    1.50    0.80
   3  -7   4    0.60    0.50
  -4   7  -4   10.10    1.10
  -4   7  -4   11.10    1.40
  -4   7  -4   12.10    2.00
   4  -7   4   10.00    1.40
   4   6  -4   -4.70    5.30
   4   6  -4   -4.90    4.70
   4   6  -4    1.40    1.00
  -4  -6   4    0.50    0.90
   3   6  -4    0.20    1.00
   3   6  -4   -1.40    4.30
   3   6  -4   -1.60    4.10
  -3  -6   4    0.40    0.80
   2   6  -4   29.90    6.10
   2   6  -4   33.50    1.80
   2   6  -4   32.60    1.50
   2   6  -4   30.80    6.40
  -2  -6   4   33.40    1.40
  -2  -6   4   34.30    1.50
  -2  -6   4   34.20    1.50
   1   6  -4   88.79    2.90
   1   6  -4   94.59    8.30
   1   6  -4   77.49    7.70
  -1  -6   4   92.39    2.80
  -1  -6   4   87.49    2.70
   0   6  -4  443.46   17.20
   0   6  -4  438.06   10.70
   0   6  -4  430.46   16.90
   0  -6   4  423.86   10.70
   0  -6   4  428.46   10.70
   0  -6   4  435.26   10.70
  -1   6  -4   48.40    5.10
  -1   6  -4   49.60    5.20
  -1   6  -4   53.19    2.00
   1  -6   4   50.29    2.00
  -2   6  -4  187.08    5.20
  -2   6  -4  186.68    8.80
  -2   6  -4  174.38    8.70
   2  -6   4  187.38    5.20
  -3   6  -4  117.79    3.80
  -3   6  -4  109.99    5.80
  -3   6  -4  115.29    3.30
   3  -6   4  112.09    3.30
   3  -6   4  114.79    3.70
  -4   6  -4   11.60    1.30
   4  -6   4   13.40    1.40
   4  -6   4   13.10    1.50
   4   5  -4    1.00    0.90
   4   5  -4   -7.50    5.00
  -4  -5   4    1.00    0.90
   3   5  -4  272.57    7.30
   3   5  -4  261.07   15.30
   3   5  -4  263.27    7.10
  -3  -5   4  267.97    7.00
  -3  -5   4  269.17   14.90
   2   5  -4  606.04   14.70
   2   5  -4  619.34   15.00
   2   5  -4  652.93   23.70
  -2  -5   4  595.04   14.50
  -2  -5   4  598.14   14.60
  -2  -5   4  623.14   14.60
   1   5  -4  751.42   17.90
   1   5  -4  741.43   25.00
  -1  -5   4  748.83   17.70
  -1  -5   4  747.13   17.90
  -1  -5   4  762.82   17.80
  -1  -5   4  742.43   17.50
   0   5  -4    5.80    0.70
   0   5  -4    5.10    2.40
   0   5  -4    3.90    2.30
   0  -5   4    6.70    0.70
   0  -5   4    5.70    0.80
   0  -5   4    5.90    0.70
  -1   5  -4  305.37   12.00
  -1   5  -4  317.57   12.00
  -1   5  -4  311.27    7.80
   1  -5   4  308.17    7.80
   1  -5   4  305.67    7.80
   1  -5   4  302.57    7.80
  -2   5  -4  165.58    4.50
  -2   5  -4  159.68    7.30
  -2   5  -4  158.38    7.20
   2  -5   4  149.39    4.10
   2  -5   4  155.78    4.50
   2  -5   4  157.08    4.80
  -3   5  -4  892.21   21.30
  -3   5  -4  880.11   21.60
  -3   5  -4  896.11   26.40
  -3   5  -4  872.01   22.90
   3  -5   4  881.31   21.00
   3  -5   4  898.41   21.30
  -4   5  -4   11.20    1.30
   4  -5   4   11.70    1.20
   4  -5   4    8.60    1.10
   5   4  -4    0.70    0.90
  -5  -4   4   -1.00    0.90
   4   4  -4   26.30    6.50
   4   4  -4   29.70    2.00
  -4  -4   4   28.80    6.50
  -4  -4   4   28.70    2.00
   3   4  -4   16.90    1.50
   3   4  -4   14.90    4.90
  -3  -4   4   22.30    1.50
  -3  -4   4   15.80    5.00
   2   4  -4   29.70    1.40
   2   4  -4   24.20    4.80
   2   4  -4   30.00    1.50
  -2  -4   4   28.10    1.10
  -2  -4   4   36.70    5.80
  -2  -4   4   25.20    1.30
  -2  -4   4   27.10    1.10
  -2  -4   4   27.90    1.30
   1   4  -4  280.17   13.30
   1   4  -4  293.47    7.30
   1   4  -4  284.17    6.90
  -1  -4   4  298.77    7.10
  -1  -4   4  273.17   14.60
  -1  -4   4  289.47    7.20
  -1  -4   4  290.97    7.10
  -1  -4   4  290.07    6.90
   0   4  -4   64.99    5.00
   0   4  -4   57.19    1.90
   0  -4   4   58.69    1.90
   0  -4   4   58.89    1.90
   0  -4   4   58.89    1.90
  -1   4  -4   10.60    2.20
  -1   4  -4    6.70    2.00
  -1   4  -4   11.10    0.90
   1  -4   4   12.80    0.90
   1  -4   4   10.70    0.80
   1  -4   4   10.60    0.90
  -2   4  -4  266.97    6.70
  -2   4  -4  264.87    8.80
  -2   4  -4  250.17    8.90
   2  -4   4  263.97    6.70
   2  -4   4  250.97    6.40
   2  -4   4  258.77    6.70
   2  -4   4  259.27    6.70
  -3   4  -4 2621.44   60.59
  -3   4  -4 2667.93   60.59
   3  -4   4 2596.74   60.59
   3  -4   4 2528.65   60.39
  -4   4  -4    3.90    0.80
   4  -4   4    5.50    0.90
   4  -4   4    3.90    1.00
  -5   4  -4    0.60    0.80
   5  -4   4   -1.20    0.80
   5  -4   4    1.20    0.80
   5   3  -4    0.20    0.90
  -5  -3   4    0.40    1.00
   4   3  -4  135.59   10.80
  -4  -3   4  139.79   11.00
  -4  -3   4  137.09    4.40
   3   3  -4  124.49    9.50
   3   3  -4  110.59    3.50
   3   3  -4  105.19    3.50
  -3  -3   4  113.99    3.50
  -3  -3   4  114.69    9.40
   2   3  -4 1953.70   53.09
   2   3  -4 1921.51   45.40
   2   3  -4 2004.10   45.50
  -2  -3   4 1922.61   45.30
  -2  -3   4 1964.10   53.09
  -2  -3   4 1974.90   45.10
  -2  -3   4 1935.01   45.40
   1   3  -4 3991.10  100.69
  -1  -3   4 3901.61   98.29
   0   3  -4 1300.07   30.10
   0  -3   4 1307.57   30.00
   0  -3   4 1265.57   34.50
   0  -3   4 1286.57   30.10
  -1   3  -4    4.80    1.40
  -1   3  -4    5.40    1.50
   1  -3   4    4.40    0.50
   1  -3   4    4.20    0.50
   1  -3   4    3.50    0.50
   1  -3   4    4.20    0.40
  -2   3  -4  246.98    7.20
  -2   3  -4  248.98    6.70
  -2   3  -4  249.78    7.20
   2  -3   4  257.07    6.40
   2  -3   4  258.27    6.40
   2  -3   4  254.17    6.40
   2  -3   4  248.98    6.20
  -3   3  -4  455.65   11.00
   3  -3   4  430.86   10.90
   3  -3   4  439.76   11.00
   3  -3   4  449.16   11.00
   3  -3   4  451.25   11.00
  -4   3  -4  125.09    3.90
   4  -3   4  119.09    3.80
   4  -3   4  123.69    3.70
  -5   3  -4    8.80    1.20
   5  -3   4    9.10    1.30
   5  -3   4    9.60    1.10
   5   2  -4    1.00    0.90
  -5  -2   4    2.30    1.10
   4   2  -4   -0.10    3.40
   4   2  -4    2.60    0.90
  -4  -2   4    1.90    0.90
  -4  -2   4    2.40    3.30
   3   2  -4    4.60    0.90
   3   2  -4    5.20    4.50
   3   2  -4    4.20    0.80
  -3  -2   4    4.50    0.90
  -3  -2   4    1.70    4.80
   2   2  -4   65.39    6.70
   2   2  -4   74.79    2.50
   2   2  -4   79.09    2.10
  -2  -2   4   83.29    7.10
  -2  -2   4   78.19    2.40
  -2  -2   4   81.19    2.50
  -2  -2   4   77.59    2.10
   1   2  -4    0.70    0.40
   1   2  -4   -0.40    0.50
   1   2  -4    0.30    0.40
   1   2  -4    1.90    2.00
  -1  -2   4    0.40    0.30
  -1  -2   4    1.50    2.00
  -1  -2   4    0.70    0.30
   0   2  -4    4.50    0.40
   0   2  -4    3.20    0.40
   0   2  -4    3.10    0.40
   0  -2   4    3.10    0.40
   0  -2   4    2.70    0.30
   0  -2   4    3.40    0.40
  -1   2  -4  137.69    3.50
  -1   2  -4  136.59    3.60
  -1   2  -4  121.49    6.00
   1  -2   4  138.79    3.50
   1  -2   4  141.49    3.40
   1  -2   4  137.59    7.00
   1  -2   4  134.29    3.60
   1  -2   4  137.19    3.40
  -2   2  -4 1354.96   31.40
   2  -2   4 1335.87   31.40
   2  -2   4 1331.37   31.40
   2  -2   4 1376.76   31.40
   2  -2   4 1327.87   31.40
   2  -2   4 1351.66   31.40
  -3   2  -4 1533.55   35.50
   3  -2   4 1508.05   35.90
   3  -2   4 1519.95   35.40
   3  -2   4 1526.35   35.40
   3  -2   4 1491.05   35.50
   3  -2   4 1513.75   35.50
  -4   2  -4   49.60    2.20
   4  -2   4   51.09    2.20
   4  -2   4   48.70    1.90
   4  -2   4   50.99    2.00
  -5   2  -4    0.90    0.90
   5  -2   4    1.30    0.70
   5  -2   4    1.60    0.90
   5   1  -4   18.60    1.80
  -5  -1   4   21.40    2.00
   4   1  -4    1.20    0.80
   4   1  -4    0.70    3.30
  -4  -1   4   -0.10    0.80
  -4  -1   4    0.00    3.20
   3   1  -4  250.47    6.70
   3   1  -4  262.67    6.70
  -3  -1   4  243.08   19.20
  -3  -1   4  263.27    6.80
  -3  -1   4  246.98    6.60
   2   1  -4 7864.71  189.78
  -2  -1   4 8053.09  190.08
   1   1  -4 9999.00  234.88
   0  -1   4 4483.25  106.49
  -1   1  -4  309.27    6.90
  -1   1  -4  276.47    8.60
  -1   1  -4  285.87    7.00
   1  -1   4  278.17    9.20
   1  -1   4  285.07    7.00
   1  -1   4  282.77    6.90
   1  -1   4  291.57    6.90
  -2   1  -4  291.17    7.20
   2  -1   4  292.07    7.30
   2  -1   4  292.67    7.20
   2  -1   4  297.77    7.20
   2  -1   4  298.07    7.30
  -3   1  -4  107.89    3.30
   3  -1   4   99.49    3.20
   3  -1   4  111.49    3.10
   3  -1   4  107.59    3.00
   3  -1   4  104.79    3.10
   3  -1   4  108.49    3.00
  -4   1  -4   72.09    2.80
   4  -1   4   75.59    2.40
   4  -1   4   74.39    2.60
   4  -1   4   70.19    2.30
  -5   1  -4  155.28    5.10
   5  -1   4  158.18    4.40
   5  -1   4  161.48    4.70
   5  -1   4  162.48    4.90
   5   0  -4    0.80    0.90
  -5   0   4   -0.60    0.90
   4   0  -4   29.20    1.80
   4   0  -4   30.50    5.60
  -4   0   4   33.80    5.80
  -4   0   4   27.30    1.90
   3   0  -4    1.20    3.40
   3   0  -4    1.90    0.70
   3   0  -4    1.70    0.40
   3   0  -4    2.30    0.70
  -3   0   4    1.20    0.60
  -3   0   4    1.50    0.60
  -3   0   4    1.60    0.70
  -3   0   4    4.00    3.70
   2   0  -4 1415.36   32.50
   2   0  -4 1420.96   38.70
   2   0  -4 1387.76   32.30
   2   0  -4 1347.37   32.60
  -2   0   4 1418.96   38.70
  -2   0   4 1418.56   32.60
  -2   0   4 1373.76   32.50
  -2   0   4 1370.46   32.50
   1   0  -4  664.63   22.50
   1   0  -4  692.23   16.50
   1   0  -4  708.63   16.40
   1   0  -4  699.43   16.40
  -1   0   4  719.73   16.60
  -1   0   4  725.83   16.40
  -1   0   4  689.73   23.40
  -1   0   4  709.93   16.50
   0   0  -4  262.47    6.40
   0   0  -4  263.07    6.20
   0   0  -4  262.67    6.30
   0   0   4  260.77    6.30
   0   0   4  255.87    6.50
   0   0   4  266.17    9.10
   0   0   4  266.97    6.20
  -1   0  -4 2483.15   59.39
   1   0   4 2508.35   59.39
   2   0   4 2820.92   64.99
   2   0   4 2827.92   65.59
   2   0   4 2834.82   65.59
   2   0   4 2791.22   65.09
   2   0   4 2791.72   64.89
   3   0   4  185.18    4.70
   3   0   4  186.48    5.10
   3   0   4  179.58    5.00
   3   0   4  180.78    5.10
   3   0   4  184.08    4.80
   3   0   4  182.18    5.10
   3   0   4  185.58    5.10
  -4   0  -4  202.38    5.60
   4   0   4  194.98    5.00
   4   0   4  191.18    5.40
   4   0   4  188.98    5.50
   4   0   4  194.68    5.00
   4   0   4  195.38    5.30
   5   0   4    0.60    0.60
   5   0   4    0.30    0.80
   5  -1  -4   26.40    2.00
  -5   1   4   28.80    2.20
   4  -1  -4  143.99    3.80
   4  -1  -4  146.79    4.50
   4  -1  -4  158.18   11.00
  -4   1   4  147.69    4.60
  -4   1   4  138.29   10.10
   3  -1  -4   43.90    2.00
   3  -1  -4   44.90    1.90
   3  -1  -4   44.80    1.50
   3  -1  -4   47.50    6.10
  -3   1   4   44.30    1.80
  -3   1   4   48.60    2.00
  -3   1   4   46.70    1.50
  -3   1   4   41.50    5.70
   2  -1  -4 2934.61   68.09
   2  -1  -4 2858.51   68.19
   2  -1  -4 2998.10   74.49
  -2   1   4 2994.80   74.49
  -2   1   4 2944.71   68.19
  -2   1   4 2948.21   68.09
   1  -1  -4  508.05   12.30
   1  -1  -4  519.25   12.20
   1  -1  -4  524.95   16.70
   1  -1  -4  522.55   12.20
  -1   1   4  528.55   12.20
  -1   1   4  511.85   12.30
  -1   1   4  511.55   12.20
  -1   1   4  518.65   16.60
  -1  -1  -4  254.17    6.40
  -1  -1  -4  269.37    6.40
  -1  -1  -4  266.37    8.70
   1   1   4  253.87    8.50
   1   1   4  262.17    6.40
   1   1   4  261.37    6.40
  -2  -1  -4 3303.37   77.79
   2   1   4 3240.78   77.69
   2   1   4 3265.87   75.39
   2   1   4 3274.77   75.59
  -3  -1  -4  315.17    7.70
   3   1   4  331.07    8.20
   3   1   4  313.57    8.10
   3   1   4  312.07   10.10
   3   1   4  315.87   10.20
   3   1   4  314.67    7.70
   3   1   4  327.67    7.90
   3   1   4  308.97    8.10
   4   1   4    2.60    1.60
   4   1   4    2.70    1.60
   4   1   4    2.50    0.50
   4   1   4    1.30    0.80
   4   1   4    2.40    0.50
   4   1   4    2.90    0.70
   5   1   4  109.99    5.80
   5   1   4  121.79    4.30
   5   1   4  120.69    3.90
   5   1   4  114.99    5.80
   5  -2  -4   41.20    2.40
   5  -2  -4   42.40    1.60
  -5   2   4   46.20    2.60
   4  -2  -4    6.80    1.00
   4  -2  -4    5.20    3.60
   4  -2  -4    7.50    0.70
  -4   2   4   11.50    3.90
  -4   2   4    6.50    0.70
  -4   2   4    6.90    1.20
   3  -2  -4    4.90    3.10
   3  -2  -4    3.90    0.70
   3  -2  -4    6.20    0.80
  -3   2   4    4.70    0.90
  -3   2   4    5.70    0.60
  -3   2   4    4.10    3.00
   2  -2  -4 2524.15   64.09
   2  -2  -4 2503.05   57.59
   2  -2  -4 2442.66   57.79
   2  -2  -4 2428.26   57.69
   2  -2  -4 2522.25   57.69
  -2   2   4 2426.46   57.59
  -2   2   4 2597.84   64.29
   1  -2  -4 1334.17   30.90
   1  -2  -4 1333.37   31.20
   1  -2  -4 1326.27   36.00
   1  -2  -4 1331.87   31.00
   1  -2  -4 1356.16   31.10
  -1   2   4 1310.67   31.10
  -1   2   4 1382.46   36.20
  -1   2   4 1316.17   31.10
   0  -2  -4 1707.53   43.70
   0  -2  -4 1680.33   39.70
   0   2   4 1750.42   43.80
  -1  -2  -4  304.27    7.20
  -1  -2  -4  291.87    7.30
  -1  -2  -4  306.07   10.40
   1   2   4  294.37    7.20
   1   2   4  299.67    7.30
   1   2   4  284.27   10.10
  -2  -2  -4  664.13   19.10
  -2  -2  -4  675.43   15.60
  -2  -2  -4  665.33   15.60
   2   2   4  658.03   15.90
   2   2   4  655.63   15.90
   2   2   4  662.23   15.60
   2   2   4  664.33   19.10
   2   2   4  662.43   15.60
  -3  -2  -4  646.34   15.40
  -3  -2  -4  651.63   15.30
   3   2   4  655.03   15.80
   3   2   4  641.94   15.70
   3   2   4  649.74   19.30
   3   2   4  637.84   15.20
   3   2   4  650.93   19.40
   3   2   4  646.94   15.50
   4   2   4   52.19    1.60
   4   2   4   54.39    5.00
   4   2   4   53.59    2.10
   4   2   4   52.59    4.80
   4   2   4   49.90    2.40
   5   2   4   22.50    1.70
   5   2   4   22.30    2.00
   5   2   4   15.90    3.30
   5  -3  -4    6.40    0.80
   5  -3  -4    6.00    1.20
  -5   3   4    4.70    0.70
  -5   3   4    6.20    1.30
   4  -3  -4    0.70    0.80
   4  -3  -4    1.00    3.20
   4  -3  -4    0.60    0.60
  -4   3   4    2.10    2.80
  -4   3   4    0.60    0.90
   3  -3  -4  797.62   19.40
   3  -3  -4  814.92   26.60
   3  -3  -4  799.02   19.20
  -3   3   4  770.22   19.00
  -3   3   4  818.72   26.50
  -3   3   4  816.92   19.40
   2  -3  -4   20.00    1.10
   2  -3  -4   18.80    1.00
   2  -3  -4   18.00    1.00
   2  -3  -4   17.60    1.20
   2  -3  -4   24.50    4.20
  -2   3   4   18.20    1.00
  -2   3   4   19.50    1.30
  -2   3   4   21.00    3.80
   1  -3  -4  537.85   13.10
   1  -3  -4  540.25   12.90
   1  -3  -4  555.74   13.10
   1  -3  -4  545.55   12.90
   1  -3  -4  561.44   18.30
  -1   3   4  546.25   13.10
  -1   3   4  544.95   13.10
  -1   3   4  561.44   18.20
   0  -3  -4  131.59    3.50
   0  -3  -4  131.69    3.20
   0  -3  -4  129.99    3.50
   0  -3  -4  135.79    7.10
   0   3   4  129.99    3.20
   0   3   4  135.49    3.50
   0   3   4  125.39    6.90
  -1  -3  -4 1821.72   42.60
   1   3   4 1800.42   42.50
   1   3   4 1873.41   47.30
   1   3   4 1849.11   42.70
  -2  -3  -4   14.60    0.80
  -2  -3  -4   14.60    0.80
  -2  -3  -4   15.70    2.80
   2   3   4   13.40    1.00
   2   3   4   14.30    0.80
   2   3   4   15.10    0.80
   2   3   4   13.00    1.00
   2   3   4   14.20    2.80
  -3  -3  -4  362.76    8.60
  -3  -3  -4  356.56    8.80
   3   3   4  361.96    9.20
   3   3   4  348.17   13.60
   3   3   4  360.96    8.60
   3   3   4  359.66   13.60
   4   3   4  241.48   11.30
   4   3   4  231.38   11.30
   4   3   4  248.48    7.00
   4   3   4  252.87    6.50
   5   3   4    2.30    1.10
   5   3   4    2.70    0.90
   5  -4  -4   25.20    1.60
   5  -4  -4   23.90    2.00
  -5   4   4   28.90    2.20
   4  -4  -4  103.69    3.30
   4  -4  -4  103.19    4.30
   4  -4  -4  114.59    9.40
  -4   4   4  109.99    9.20
  -4   4   4  110.39    4.10
   3  -4  -4  110.39    3.40
   3  -4  -4   96.49    8.30
   3  -4  -4  112.19    3.30
  -3   4   4  103.09    3.20
  -3   4   4  107.79    8.50
  -3   4   4  113.79    3.60
   2  -4  -4   97.59    7.50
   2  -4  -4  100.89    2.90
   2  -4  -4   96.19    3.10
   2  -4  -4   97.49    2.90
  -2   4   4   95.89    2.90
  -2   4   4  100.69    7.40
  -2   4   4  100.79    3.10
   1  -4  -4  656.43   15.90
   1  -4  -4  683.03   21.80
   1  -4  -4  669.13   15.90
   1  -4  -4  653.93   15.70
  -1   4   4  665.53   15.70
  -1   4   4  693.43   21.90
  -1   4   4  659.33   15.90
  -1   4   4  661.83   15.90
   0  -4  -4 2946.61   68.09
   0  -4  -4 2994.60   74.19
   0   4   4 2899.31   73.89
  -1  -4  -4 1493.55   34.20
  -1  -4  -4 1517.75   40.30
  -1  -4  -4 1443.36   34.50
  -1  -4  -4 1481.95   34.40
   1   4   4 1453.85   34.40
   1   4   4 1476.05   40.10
   1   4   4 1503.15   34.50
   1   4   4 1454.25   34.20
  -2  -4  -4  822.52   18.90
  -2  -4  -4  784.52   18.90
   2   4   4  810.02   18.90
   2   4   4  794.02   18.90
   2   4   4  815.42   19.20
   2   4   4  799.82   24.80
  -3  -4  -4  591.54   13.90
  -3  -4  -4  576.04   14.10
   3   4   4  596.24   14.50
   3   4   4  603.24   20.50
   3   4   4  576.54   14.10
   3   4   4  580.34   13.90
   3   4   4  595.24   20.70
   4   4   4   54.89    3.10
   4   4   4   47.40    6.90
   4   4   4   54.89    2.30
   4   4   4   63.79    6.70
   5   4   4   38.40    5.80
   5   4   4   47.60    2.70
   5   4   4   41.80    2.20
   4  -5  -4    2.00    0.90
   4  -5  -4    2.20    0.80
   4  -5  -4    4.10    3.60
  -4   5   4    3.70    1.00
  -4   5   4    4.50    3.40
   3  -5  -4  222.68    6.00
   3  -5  -4  219.28    6.00
   3  -5  -4  231.28   12.70
  -3   5   4  212.08   12.10
  -3   5   4  226.78    6.20
   2  -5  -4  137.39    4.20
   2  -5  -4  146.69    4.00
   2  -5  -4  147.69    4.10
   2  -5  -4  139.09   11.50
   2  -5  -4  140.19    4.10
  -2   5   4  141.39   10.60
  -2   5   4  150.08    4.20
  -2   5   4  141.99    4.00
   1  -5  -4    4.90    3.00
   1  -5  -4    5.90    0.70
   1  -5  -4    4.50    0.70
   1  -5  -4    4.40    0.60
  -1   5   4    6.90    0.80
  -1   5   4    5.60    0.80
  -1   5   4    6.30    2.80
  -1   5   4    4.10    0.80
   0  -5  -4   26.40    4.50
   0  -5  -4   23.40    1.00
   0  -5  -4   23.30    1.20
   0   5   4   25.70    1.20
   0   5   4   24.80    1.00
   0   5   4   21.60    4.10
   0   5   4   24.10    1.20
  -1  -5  -4  520.35   18.50
  -1  -5  -4  519.45   12.30
  -1  -5  -4  519.75   12.10
  -1  -5  -4  498.45   12.40
   1   5   4  507.75   18.30
   1   5   4  501.85   12.30
   1   5   4  522.55   13.40
   1   5   4  501.35   12.10
  -2  -5  -4  438.06   16.50
  -2  -5  -4  426.26   10.10
  -2  -5  -4  411.96   10.10
   2   5   4  417.96   16.50
   2   5   4  400.86   10.40
   2   5   4  402.46   10.10
   2   5   4  418.06   10.10
   2   5   4  428.06   10.40
  -3  -5  -4   26.40    1.40
  -3  -5  -4   25.50    1.20
   3   5   4   28.10    1.20
   3   5   4   25.50    1.40
   3   5   4   24.90    1.80
   3   5   4   24.30    5.20
   3   5   4   22.00    4.30
   4   5   4  383.86   10.00
   4   5   4  355.56   17.20
   4   5   4  365.16   17.20
   4   5   4  364.46    9.40
   5   5   4    6.80    3.70
   5   5   4    4.70    1.00
   5   5   4    4.80    1.30
   4  -6  -4   13.90    1.60
   4  -6  -4   14.20    1.50
  -4   6   4   16.40    1.70
   3  -6  -4  199.58    5.60
   3  -6  -4  208.78   12.70
   3  -6  -4  195.58    5.60
  -3   6   4  197.88    5.70
  -3   6   4  193.58   12.00
   2  -6  -4  112.19    3.40
   2  -6  -4  133.29    9.50
   2  -6  -4  119.19    3.60
   2  -6  -4  114.79    3.50
  -2   6   4  115.39    8.80
  -2   6   4  113.29    3.40
  -2   6   4  113.19    3.60
   1  -6  -4  815.62   18.90
   1  -6  -4  783.12   18.60
   1  -6  -4  765.12   18.70
   1  -6  -4  788.72   26.50
  -1   6   4  766.92   18.80
  -1   6   4  795.92   18.80
  -1   6   4  785.72   26.30
   0  -6  -4  346.47    8.80
   0  -6  -4  347.57    8.50
   0  -6  -4  351.96   15.20
   0  -6  -4  369.56    9.30
   0   6   4  360.66   15.30
   0   6   4  339.77    8.70
   0   6   4  349.67    8.60
  -1  -6  -4    9.60    0.90
  -1  -6  -4   10.00    0.70
  -1  -6  -4    9.10    0.90
  -1  -6  -4    5.00    3.00
   1   6   4    9.90    0.90
   1   6   4    7.90    0.80
   1   6   4    9.30    1.00
   1   6   4    8.20    3.30
  -2  -6  -4  337.07   15.10
  -2  -6  -4  331.67    8.20
   2   6   4  328.47   15.20
   2   6   4  325.97    8.20
   2   6   4  343.07    8.60
   2   6   4  331.17    8.50
  -3  -6  -4   50.69    1.80
  -3  -6  -4   47.10    1.90
   3   6   4   55.99    7.00
   3   6   4   53.19    7.60
   3   6   4   45.80    1.70
   3   6   4   48.90    2.00
   3   6   4   54.49    2.40
   4   6   4    7.00    5.00
   4   6   4   14.20    4.40
   4   6   4    9.80    1.10
   4   6   4   12.30    1.50
   4  -7  -4    4.70    1.10
   4  -7  -4    5.20    1.00
  -4   7   4    6.10    1.20
   3  -7  -4   32.00    1.90
   3  -7  -4   27.70    6.80
   3  -7  -4   32.20    1.90
  -3   7   4   27.40    6.20
  -3   7   4   28.50    1.90
   2  -7  -4  143.49    4.40
   2  -7  -4  160.28   11.30
  -2   7   4  139.09    4.20
  -2   7   4  144.99    4.30
  -2   7   4  138.19   10.50
   1  -7  -4    6.10    0.80
   1  -7  -4    6.30    0.80
   1  -7  -4    8.20    1.00
   1  -7  -4    0.90    6.40
  -1   7   4    7.70    0.90
  -1   7   4    6.90    1.00
  -1   7   4    3.70    5.10
   0  -7  -4   23.70    1.40
   0  -7  -4   20.40    1.40
   0  -7  -4   19.70    4.90
   0  -7  -4   22.70    1.20
   0   7   4   23.90    4.90
   0   7   4   21.20    1.20
   0   7   4   21.80    1.40
  -1  -7  -4   36.40    6.00
  -1  -7  -4   37.90    1.50
  -1  -7  -4   34.60    1.60
  -1  -7  -4   38.80    1.70
   1   7   4   37.40    1.60
   1   7   4   35.30    6.00
   1   7   4   38.40    1.80
   1   7   4   39.60    1.60
  -2  -7  -4   86.79    2.70
  -2  -7  -4   82.49    2.60
  -2  -7  -4   80.39    8.10
   2   7   4   84.49    3.00
   2   7   4   82.99    2.70
   2   7   4   95.99    8.80
   2   7   4   81.69    2.70
  -3  -7  -4    6.60    0.80
   3   7   4    4.70    0.80
   3   7   4    7.70    4.10
   3   7   4    6.70    3.50
   3   7   4    8.90    1.20
   3   7   4    6.50    0.70
   4   7   4   23.40    6.00
   4   7   4   23.60    2.10
   4   7   4   20.90    1.70
   3  -8  -4   21.00    1.80
   3  -8  -4   21.80    1.80
   3  -8  -4   25.80    5.80
  -3   8   4   25.40    1.80
  -3   8   4   22.00    5.40
   2  -8  -4 1213.88   38.70
   2  -8  -4 1152.58   27.70
  -2   8   4 1142.99   37.90
  -2   8   4 1149.98   27.60
  -2   8   4 1137.49   27.50
   1  -8  -4  384.76    9.90
   1  -8  -4  395.06   10.10
   1  -8  -4  404.96   18.80
  -1   8   4  396.96   10.00
  -1   8   4  401.36    9.90
  -1   8   4  392.96   18.20
   0  -8  -4  131.89    3.90
   0  -8  -4  148.89   10.90
   0  -8  -4  137.69    3.90
   0  -8  -4  139.69    4.20
   0   8   4  139.89    4.10
   0   8   4  135.89    3.90
   0   8   4  140.79   10.40
  -1  -8  -4   51.39    1.90
  -1  -8  -4   53.59    2.10
  -1  -8  -4   53.79    7.10
  -1  -8  -4   46.10    2.00
   1   8   4   51.39    2.00
   1   8   4   47.20    2.10
   1   8   4   40.50    6.60
  -2  -8  -4   45.20    7.00
  -2  -8  -4   54.69    2.20
   2   8   4   55.49    8.20
   2   8   4   55.29    2.40
   2   8   4   53.79    2.20
  -3  -8  -4    0.90    0.60
   3   8   4   -1.30    5.70
   3   8   4    1.70    4.60
   3   8   4   -1.30    0.50
   3   8   4    0.30    0.70
   3   8   4    1.00    0.90
   4   8   4    4.00    4.40
   4   8   4    4.30    1.20
   4   8   4    3.00    1.00
   3  -9  -4   11.10    1.40
  -3   9   4   13.10    1.80
   2  -9  -4    3.10    4.80
   2  -9  -4    3.50    1.00
  -2   9   4    1.90    4.20
  -2   9   4    5.30    1.10
  -2   9   4    4.80    1.10
   1  -9  -4   35.60    2.70
   1  -9  -4   42.00    7.80
  -1   9   4   42.40    7.30
  -1   9   4   36.70    2.00
  -1   9   4   37.70    1.90
   0  -9  -4   53.39    3.20
   0  -9  -4   62.19    2.50
   0  -9  -4   62.89    8.20
   0   9   4   54.39    8.10
   0   9   4   62.89    2.30
   0   9   4   59.19    2.30
  -1  -9  -4   12.40    1.30
  -1  -9  -4   17.50    5.60
   1   9   4   14.10    1.40
   1   9   4   15.00    1.40
   1   9   4   27.60    6.40
  -2  -9  -4   67.89    8.70
  -2  -9  -4   54.89    2.30
   2   9   4   70.19    9.00
   2   9   4   56.19    2.50
   2   9   4   57.49    2.40
  -3  -9  -4    5.40    0.80
   3   9   4    2.60    4.70
   3   9   4    4.70    1.00
   3   9   4    5.60    1.20
   3   9   4   -0.90    5.40
   2 -10  -4    4.70    1.10
  -2  10   4    5.00    1.00
  -2  10   4    4.70    1.00
   1 -10  -4   10.30    5.20
   1 -10  -4    6.20    1.10
  -1  10   4    6.20    1.10
  -1  10   4    2.60    4.70
  -1  10   4    8.90    1.10
   0 -10  -4   98.19    3.50
   0 -10  -4  105.29   11.10
   0  10   4   99.29    3.20
   0  10   4   83.79    9.80
   0  10   4   92.19    3.20
  -1 -10  -4   94.99   10.80
   1  10   4   99.29    3.30
   1  10   4   96.69    3.30
   1  10   4   90.59   11.00
  -2 -10  -4   45.30    2.20
   2  10   4   45.90    2.20
   2  10   4   42.90    8.10
   2  10   4   47.00    2.30
   1 -11  -4    0.80    0.90
   1 -11  -4    6.80    5.20
  -1  11   4    5.40    5.60
  -1  11   4    1.40    0.90
  -1  11   4    0.00    0.80
   0 -11  -4    9.50    1.30
   0 -11  -4    3.40    5.50
   0  11   4    8.90    1.20
   0  11   4   11.50    5.60
   0  11   4   10.00    1.20
  -1 -11  -4   24.30    1.80
  -1 -11  -4   26.80    7.30
   1  11   4   25.80    1.90
   1  11   4   24.60    1.80
   1  11   4   20.40    6.90
   1  10  -5   -7.30    4.80
   1  10  -5   -4.90    5.00
   1  10  -5   -1.10    0.80
  -1 -10   5   -0.50    0.70
   0  10  -5  147.19    4.90
   0  10  -5  162.38   13.10
   0 -10   5  152.68    4.80
  -1  10  -5    3.00    1.00
  -1  10  -5   -2.80    4.10
   1 -10   5    2.50    1.00
   2   9  -5    1.90    4.60
   2   9  -5    0.30    0.90
  -2  -9   5    0.70    0.70
   1   9  -5   43.00    2.30
   1   9  -5   38.10    8.00
   1   9  -5   45.20   11.60
  -1  -9   5   39.80    2.00
   0   9  -5   16.40    5.50
   0   9  -5   30.90    2.00
   0   9  -5   29.20    6.00
   0  -9   5   31.10    1.90
  -1   9  -5   29.40    2.00
  -1   9  -5   27.30    6.10
   1  -9   5   28.80    2.00
  -2   9  -5    4.90    3.50
  -2   9  -5    1.40    0.90
   2  -9   5    0.50    0.80
   3   8  -5  198.98    5.60
   3   8  -5  203.38   16.90
   3   8  -5  225.38   16.90
   3   8  -5  201.08    6.20
  -3  -8   5  199.78    5.30
   2   8  -5    1.40    4.50
   2   8  -5    1.70    0.50
   2   8  -5   -3.80    4.80
   2   8  -5    2.50    1.00
  -2  -8   5    1.60    0.70
   1   8  -5   14.60    1.80
   1   8  -5   12.00    4.50
   1   8  -5    8.60    4.80
  -1  -8   5   13.60    1.30
   0   8  -5  204.78   12.70
   0   8  -5  202.58   12.60
   0   8  -5  203.88    5.80
   0  -8   5  205.98    5.80
  -1   8  -5  163.28   12.40
  -1   8  -5  152.68   11.00
  -1   8  -5  165.98    5.40
   1  -8   5  157.18    5.50
  -2   8  -5   58.09    6.70
  -2   8  -5   63.19    2.60
  -2   8  -5   66.59    6.40
   2  -8   5   61.09    2.70
  -3   8  -5   75.39    6.40
  -3   8  -5   80.39    3.10
   3  -8   5   76.69    3.20
   4   7  -5    0.70    1.00
   3   7  -5    0.90    1.00
   3   7  -5    0.80    5.00
   3   7  -5   -1.80    4.70
  -3  -7   5   -0.20    0.50
  -3  -7   5    0.00    0.50
  -3  -7   5   -0.80    0.70
   2   7  -5    8.80    1.30
   2   7  -5    6.70    4.70
   2   7  -5    7.20    0.80
   2   7  -5    9.10    1.00
   2   7  -5    8.80    5.00
  -2  -7   5    7.60    0.80
  -2  -7   5    8.00    0.90
   1   7  -5    5.70    1.00
   1   7  -5    3.90    3.60
   1   7  -5    2.40    3.40
  -1  -7   5    3.70    0.80
   0   7  -5    1.00    0.70
   0   7  -5    2.80    2.90
   0   7  -5    0.60    2.50
   0  -7   5    1.10    0.70
  -1   7  -5  204.28   11.50
  -1   7  -5  217.18   11.40
  -1   7  -5  220.98    6.10
   1  -7   5  226.18    6.10
  -2   7  -5    5.90    1.00
  -2   7  -5    6.40    2.70
   2  -7   5    7.90    1.10
  -3   7  -5    1.40    2.00
  -3   7  -5   -2.80    1.60
  -3   7  -5    1.80    0.80
   3  -7   5    2.30    0.90
  -4   7  -5   38.60    2.30
   4  -7   5   41.10    1.90
   4  -7   5   41.20    2.40
   4   6  -5    2.90    1.10
   4   6  -5    3.60    6.10
   4   6  -5   13.50    6.40
   3   6  -5  303.97    8.20
   3   6  -5  296.77   17.60
  -3  -6   5  293.97    7.40
  -3  -6   5  312.17    7.90
   2   6  -5  164.38   12.20
   2   6  -5  167.48    4.80
   2   6  -5  160.18    4.30
   2   6  -5  168.58   12.30
  -2  -6   5  159.98    4.30
  -2  -6   5  166.48    4.40
  -2  -6   5  155.58    4.70
   1   6  -5    9.60    3.80
   1   6  -5   12.10    1.20
   1   6  -5    7.00    3.50
  -1  -6   5   13.00    1.10
  -1  -6   5   12.10    1.00
   0   6  -5   66.29    6.60
   0   6  -5   65.39    6.60
   0   6  -5   67.69    2.40
   0  -6   5   68.09    2.40
   0  -6   5   68.39    2.40
  -1   6  -5   16.00    3.50
  -1   6  -5   17.00    1.30
  -1   6  -5   13.10    3.40
   1  -6   5   19.10    1.30
  -2   6  -5  184.88    8.80
  -2   6  -5  190.68    5.30
  -2   6  -5  187.88    9.00
   2  -6   5  182.18    5.30
  -3   6  -5   55.99    4.00
  -3   6  -5   60.69    3.90
  -3   6  -5   60.19    2.50
   3  -6   5   60.59    2.10
   3  -6   5   63.69    2.10
   3  -6   5   65.79    2.60
   4  -6   5  345.57    8.90
   4  -6   5  343.57    9.20
   4   5  -5    0.20    0.90
  -4  -5   5    2.20    1.00
   3   5  -5  172.58   12.90
   3   5  -5  167.48    5.10
  -3  -5   5  168.78   12.70
  -3  -5   5  168.08    4.80
   2   5  -5  171.98   11.70
   2   5  -5  174.68    5.00
   2   5  -5  181.38    4.70
  -2  -5   5  174.48    4.60
  -2  -5   5  182.18    4.60
  -2  -5   5  177.38    4.70
  -2  -5   5  175.98   11.90
   1   5  -5   69.89    6.80
   1   5  -5   63.29    2.20
  -1  -5   5   63.69    2.20
  -1  -5   5   59.79    2.30
  -1  -5   5   59.39    2.00
  -1  -5   5   62.29    1.80
  -1  -5   5   59.89    6.20
   0   5  -5   -4.00    3.10
   0   5  -5    0.00    0.50
   0   5  -5    1.70    1.90
   0  -5   5    1.00    0.50
   0  -5   5    0.10    0.40
   0  -5   5   -0.10    0.40
  -1   5  -5  289.77   11.90
  -1   5  -5  300.77    7.60
  -1   5  -5  307.47   12.00
   1  -5   5  301.27    7.60
   1  -5   5  295.47    7.60
   1  -5   5  292.57    7.50
  -2   5  -5 1248.18   33.10
  -2   5  -5 1233.98   33.10
  -2   5  -5 1266.77   29.50
   2  -5   5 1254.77   29.60
  -3   5  -5   90.19    3.00
   3  -5   5   82.19    2.60
   3  -5   5   87.39    3.00
   3  -5   5   82.69    2.90
   4  -5   5    7.00    1.20
   4   4  -5  130.29   12.30
   4   4  -5  131.99    4.40
  -4  -4   5  127.09    4.30
  -4  -4   5  144.79   12.60
   3   4  -5   51.19    2.30
   3   4  -5   50.29    7.60
   3   4  -5   43.50    2.60
  -3  -4   5   41.90    7.00
  -3  -4   5   48.60    2.10
   2   4  -5  327.47   15.40
   2   4  -5  334.17    8.30
   2   4  -5  314.27    8.00
  -2  -4   5  321.07    8.00
  -2  -4   5  320.07    7.80
  -2  -4   5  308.57    8.40
  -2  -4   5  317.97   15.30
  -2  -4   5  328.47    7.90
   1   4  -5  140.79    3.80
   1   4  -5  120.19   12.50
   1   4  -5  125.59    3.50
  -1  -4   5  135.99    3.70
  -1  -4   5  144.19    3.50
  -1  -4   5  140.19    3.70
  -1  -4   5  139.49    3.80
   0   4  -5   27.00    1.50
   0   4  -5   18.10    3.20
   0  -4   5   24.40    1.10
   0  -4   5   25.30    1.10
   0  -4   5   23.40    3.70
  -1   4  -5  881.91   25.50
  -1   4  -5  846.62   20.80
  -1   4  -5  857.31   25.50
   1  -4   5  892.81   20.60
   1  -4   5  877.51   20.50
   1  -4   5  840.62   20.90
  -2   4  -5   60.79    2.20
  -2   4  -5   60.59    3.80
  -2   4  -5   57.29    3.70
   2  -4   5   55.29    2.10
   2  -4   5   57.89    1.80
   2  -4   5   56.29    2.10
   2  -4   5   58.39    1.80
   2  -4   5   58.19    2.20
  -3   4  -5   14.70    1.30
   3  -4   5   12.60    1.10
   3  -4   5   13.70    1.20
   3  -4   5   14.20    1.30
   4  -4   5  122.59    3.80
   4  -4   5  113.19    5.00
   5  -4   5  186.98    5.50
   5  -4   5  184.38    5.70
   5  -4   5  186.28    5.70
   5   3  -5    0.40    0.90
  -5  -3   5    0.50    1.00
   4   3  -5   -2.90    4.10
   4   3  -5   -0.30    0.80
  -4  -3   5    4.00    4.20
  -4  -3   5    0.00    0.90
   3   3  -5   95.99    3.80
   3   3  -5  107.99    9.80
   3   3  -5  116.09    3.50
  -3  -3   5   91.69    8.60
  -3  -3   5  101.39    3.40
   2   3  -5  640.04   14.80
   2   3  -5  624.44   15.10
   2   3  -5  659.03   22.90
   2   3  -5  613.34   15.00
  -2  -3   5  632.94   15.00
  -2  -3   5  607.44   15.00
  -2  -3   5  602.64   22.30
  -2  -3   5  625.74   14.70
   1   3  -5  880.61   20.80
   1   3  -5  887.21   20.70
   1   3  -5  895.91   27.90
   1   3  -5  899.51   20.80
  -1  -3   5  865.41   27.20
  -1  -3   5  878.31   20.70
  -1  -3   5  881.71   20.70
  -1  -3   5  878.71   20.80
   0   3  -5 2628.34   60.59
   0  -3   5 2564.04   60.59
   0  -3   5 2663.53   60.49
   0  -3   5 2616.44   65.79
  -1   3  -5 2190.58   50.89
   1  -3   5 2161.38   50.69
   1  -3   5 2214.98   50.69
   1  -3   5 2199.18   50.99
   1  -3   5 2219.58   50.89
  -2   3  -5 1893.61   45.50
  -2   3  -5 1893.31   45.50
  -2   3  -5 1869.41   44.80
   2  -3   5 1950.10   44.40
   2  -3   5 1914.81   44.50
   2  -3   5 1906.91   44.90
   2  -3   5 1966.60   44.60
   2  -3   5 1914.01   44.40
  -3   3  -5   98.09    3.10
   3  -3   5  104.39    3.10
   3  -3   5   99.59    3.10
   3  -3   5   97.39    3.10
   3  -3   5   97.19    3.10
   3  -3   5   96.99    3.40
   4  -3   5  124.69    3.80
   4  -3   5  131.79    4.00
   5  -3   5   -0.60    0.80
   5  -3   5    4.20    1.10
   5  -3   5   -0.30    0.80
   5   2  -5    2.30    1.00
  -5  -2   5    1.60    1.10
   4   2  -5  118.29   10.90
  -4  -2   5  134.89    4.30
  -4  -2   5  118.59   10.30
   3   2  -5  385.06   11.00
   3   2  -5  426.06   19.10
   3   2  -5  418.56   10.40
  -3  -2   5  428.96   10.50
  -3  -2   5  413.26   18.90
   2   2  -5   95.99    2.60
   2   2  -5   91.09    7.50
   2   2  -5   91.99    2.90
   2   2  -5   95.49    2.90
  -2  -2   5   91.99    7.70
  -2  -2   5   95.09    2.90
  -2  -2   5   95.69    2.80
  -2  -2   5   95.89    2.60
   1   2  -5  135.39    3.60
   1   2  -5  140.79    7.90
   1   2  -5  141.59    3.70
   1   2  -5  137.19    3.60
  -1  -2   5  133.99    7.90
  -1  -2   5  140.19    3.60
  -1  -2   5  138.49    3.70
  -1  -2   5  143.29    3.60
   0   2  -5  634.04   14.70
   0   2  -5  625.54   14.80
   0   2  -5  615.04   14.60
   0  -2   5  617.44   14.80
   0  -2   5  640.54   14.70
   0  -2   5  624.44   19.00
   0  -2   5  621.24   14.60
  -1   2  -5    1.00    0.40
  -1   2  -5    2.00    1.90
  -1   2  -5    2.10    0.40
   1  -2   5    0.30    0.30
   1  -2   5    0.80    0.30
   1  -2   5    2.50    2.00
   1  -2   5    0.50    0.30
   1  -2   5    0.70    0.40
  -2   2  -5  270.27    8.00
  -2   2  -5  295.47    7.10
   2  -2   5  288.77    7.10
   2  -2   5  286.77    7.20
   2  -2   5  292.47    7.10
   2  -2   5  284.27    7.10
   3  -2   5   99.89    3.20
   3  -2   5  102.39    3.10
   3  -2   5   98.49    3.10
   3  -2   5  104.29    3.10
   3  -2   5  105.89    3.10
   3  -2   5  109.19    3.20
   4  -2   5   19.90    1.50
   4  -2   5   20.30    1.30
   4  -2   5   21.50    1.60
   4  -2   5   18.90    1.40
   5  -2   5   56.79    2.70
   5  -2   5   55.19    2.30
   5  -2   5   57.19    2.50
   5   1  -5    2.40    1.00
  -5  -1   5    2.30    1.10
   4   1  -5    7.50    4.20
   4   1  -5    7.60    1.10
  -4  -1   5    7.60    1.20
  -4  -1   5    9.70    4.10
   3   1  -5   92.59    3.00
   3   1  -5   82.19    8.40
  -3  -1   5   92.19    3.10
  -3  -1   5   91.19    8.80
   2   1  -5  184.88    5.00
   2   1  -5  186.28    4.70
   2   1  -5  187.28    5.20
   2   1  -5  196.88   10.40
  -2  -1   5  183.28    4.90
  -2  -1   5  191.88    5.10
  -2  -1   5  191.18    4.70
  -2  -1   5  190.58   10.50
   1   1  -5  742.93   18.00
   1   1  -5  755.02   18.00
   1   1  -5  764.42   18.00
   1   1  -5  757.12   23.30
  -1  -1   5  774.12   18.00
  -1  -1   5  782.32   18.00
  -1  -1   5  794.02   23.60
  -1  -1   5  760.32   18.00
   0   1  -5  574.14   13.70
   0   1  -5  577.94   13.80
   0   1  -5  607.24   13.90
   0  -1   5  589.74   13.90
   0  -1   5  581.54   17.60
   0  -1   5  591.44   13.70
   0  -1   5  586.34   13.80
  -2   1  -5  138.59    3.70
  -2   1  -5  138.19    3.60
   2  -1   5  134.29    3.70
   2  -1   5  137.09    3.70
   2  -1   5  138.69    3.70
   2  -1   5  136.99    3.60
   3  -1   5   46.90    1.70
   3  -1   5   45.40    1.90
   3  -1   5   45.10    1.70
   3  -1   5   43.90    1.80
   3  -1   5   44.00    1.70
   3  -1   5   45.10    1.70
   4  -1   5    0.20    0.60
   4  -1   5    0.10    0.60
   4  -1   5    0.00    0.70
   5  -1   5   20.60    1.30
   5  -1   5   22.60    1.70
   5  -1   5   30.70    2.10
   5  -1   5   22.90    1.40
   5   0  -5    5.40    1.10
  -5   0   5    6.90    1.30
   4   0  -5  196.98    5.80
   4   0  -5  215.88   13.40
  -4   0   5  205.78    6.00
  -4   0   5  218.48   13.00
   3   0  -5 1568.74   36.20
   3   0  -5 1561.34   44.90
   3   0  -5 1524.35   35.70
  -3   0   5 1557.34   36.30
  -3   0   5 1450.75   36.20
  -3   0   5 1539.85   35.70
  -3   0   5 1592.44   45.10
   2   0  -5   20.10    4.10
   2   0  -5   21.70    1.00
   2   0  -5   22.90    1.30
   2   0  -5   22.70    1.20
  -2   0   5   22.90    1.10
  -2   0   5   21.20    1.00
  -2   0   5   18.70    4.00
   1   0  -5 1985.70   46.00
   1   0  -5 1973.10   45.90
   1   0  -5 1960.10   46.00
  -1   0   5 2014.10   46.10
  -1   0   5 1992.60   45.90
  -1   0   5 1990.80   46.00
   0   0  -5  845.12   19.70
   0   0  -5  840.62   19.90
   0   0  -5  850.91   19.90
   0   0   5  851.61   19.70
   0   0   5  865.81   19.90
   0   0   5  844.12   23.70
   0   0   5  845.92   19.90
  -1   0  -5   93.49    2.70
  -1   0  -5   99.19    2.50
  -1   0  -5  103.19    4.80
  -1   0  -5  102.29    2.80
   1   0   5   99.89    4.80
   1   0   5   97.89    2.80
   1   0   5   98.59    2.50
   1   0   5  109.59    2.80
  -2   0  -5 1414.76   32.70
  -2   0  -5 1398.96   33.60
   2   0   5 1388.86   32.50
   2   0   5 1399.56   32.80
   2   0   5 1397.86   32.50
   2   0   5 1404.96   32.70
   2   0   5 1393.96   33.70
   2   0   5 1407.86   32.70
  -3   0  -5  523.15   12.50
   3   0   5  521.05   12.50
   3   0   5  506.15   12.70
   3   0   5  521.15   12.50
   3   0   5  528.55   12.80
   4   0   5  301.97    7.90
   4   0   5  290.07    7.40
   4   0   5  281.27    7.30
   4   0   5  296.67    7.60
   5   0   5    0.20    0.70
   5   0   5    1.10    1.00
   5   0   5    1.00    0.60
   5  -1  -5    0.30    0.90
  -5   1   5    0.50    1.00
   4  -1  -5  154.48   11.60
   4  -1  -5  159.18    4.20
   4  -1  -5  164.28    4.80
  -4   1   5  168.08    5.10
  -4   1   5  162.88   11.60
  -4   1   5  158.78    4.20
   3  -1  -5 1075.19   25.30
   3  -1  -5 1068.59   25.00
   3  -1  -5 1112.39   33.80
  -3   1   5 1071.79   33.50
  -3   1   5 1095.79   25.50
  -3   1   5 1018.10   25.20
  -3   1   5 1033.60   24.90
   2  -1  -5 1526.85   35.00
   2  -1  -5 1451.75   35.20
   2  -1  -5 1515.65   35.10
   2  -1  -5 1511.05   42.00
  -2   1   5 1515.35   35.30
  -2   1   5 1519.45   35.10
  -2   1   5 1522.15   42.10
  -2   1   5 1488.45   35.00
   1  -1  -5   79.69    2.30
   1  -1  -5   78.99    2.40
   1  -1  -5   79.49    5.90
   1  -1  -5   77.49    2.20
  -1   1   5   84.79    2.30
  -1   1   5   89.19    2.20
  -1   1   5   96.99    6.30
  -1   1   5   82.89    2.50
   0  -1  -5 1327.47   35.20
   0  -1  -5 1324.17   31.10
   0  -1  -5 1351.56   31.10
   0   1   5 1334.67   31.10
   0   1   5 1346.97   31.10
   0   1   5 1333.17   35.20
  -1  -1  -5 4534.75  106.89
   1   1   5 4465.75  106.89
  -2  -1  -5 1505.85   37.10
  -2  -1  -5 1505.85   34.70
   2   1   5 1493.85   37.10
   2   1   5 1485.75   34.80
   2   1   5 1445.86   34.90
   2   1   5 1498.05   34.70
   2   1   5 1495.15   34.90
   2   1   5 1494.15   34.50
  -3  -1  -5  252.17    6.30
   3   1   5  255.47    6.30
   3   1   5  244.08    6.30
   3   1   5  244.08    8.20
   3   1   5  254.57    8.30
   3   1   5  244.98    6.20
   3   1   5  253.67    6.70
   3   1   5  245.98    6.60
   4   1   5    9.40    1.00
   4   1   5    9.50    0.90
   4   1   5   10.00    1.70
   4   1   5   10.10    1.80
   4   1   5    8.50    0.80
   4   1   5    9.60    1.20
   5   1   5    9.60    1.20
   5   1   5    8.20    0.80
   5   1   5    9.10    1.40
   5  -2  -5   11.40    1.40
  -5   2   5   10.90    1.50
   4  -2  -5  176.28   11.90
   4  -2  -5  178.98    5.10
  -4   2   5  170.28   11.80
  -4   2   5  162.38    4.50
  -4   2   5  174.18    5.60
   3  -2  -5  623.84   22.70
   3  -2  -5  626.54   15.00
   3  -2  -5  600.54   15.50
   3  -2  -5  623.64   14.80
  -3   2   5  624.64   15.20
  -3   2   5  645.04   23.00
  -3   2   5  600.64   14.80
   2  -2  -5   11.40    0.90
   2  -2  -5   10.10    0.90
   2  -2  -5    4.10    3.10
   2  -2  -5    9.90    0.90
   2  -2  -5   10.10    1.10
  -2   2   5   10.80    1.20
  -2   2   5    9.60    3.30
  -2   2   5   10.00    0.80
   1  -2  -5    7.70    0.60
   1  -2  -5    7.30    0.80
   1  -2  -5    6.70    0.70
   1  -2  -5    8.50    2.70
  -1   2   5    6.60    0.60
  -1   2   5    6.20    0.70
  -1   2   5    7.40    2.50
   0  -2  -5  239.78    9.70
   0  -2  -5  236.08    5.90
   0  -2  -5  236.18    5.90
   0   2   5  236.48    5.90
   0   2   5  227.28    9.50
   0   2   5  236.78    5.90
  -1  -2  -5  289.37    7.20
  -1  -2  -5  287.27   10.40
  -1  -2  -5  295.37    7.10
   1   2   5  292.67    7.20
   1   2   5  288.07    7.10
   1   2   5  275.07   10.30
  -2  -2  -5 2024.40   46.10
  -2  -2  -5 1946.31   54.69
   2   2   5 1962.70   46.30
   2   2   5 2043.80   46.30
   2   2   5 1961.50   46.10
   2   2   5 1980.50   45.90
  -3  -2  -5 1091.99   25.40
   3   2   5 1094.99   25.90
   3   2   5 1076.39   29.40
   3   2   5 1079.99   25.40
   3   2   5 1054.49   25.40
   3   2   5 1101.49   29.40
   3   2   5 1097.59   25.50
   4   2   5   62.09    2.00
   4   2   5   61.09    4.80
   4   2   5   69.19    5.00
   4   2   5   65.69    2.40
   4   2   5   68.79    2.80
   5   2   5   -0.50    0.80
   5   2   5   -1.00    1.70
   5   2   5   -1.10    0.90
   5  -3  -5    0.30    0.60
   5  -3  -5    0.50    0.90
  -5   3   5    0.50    0.60
  -5   3   5    1.00    1.00
   4  -3  -5  144.49    4.10
   4  -3  -5  149.59    4.50
  -4   3   5  122.99   16.20
  -4   3   5  143.09    4.00
  -4   3   5  138.79    5.70
   3  -3  -5  388.66   17.10
   3  -3  -5  386.06    9.70
   3  -3  -5  390.36    9.60
  -3   3   5  390.86   17.00
  -3   3   5  387.76    9.90
  -3   3   5  375.46    9.60
   2  -3  -5   18.10    1.00
   2  -3  -5   16.20    1.00
   2  -3  -5   15.30    1.20
   2  -3  -5   17.70    3.80
  -2   3   5   19.00    1.30
  -2   3   5   16.60    1.00
  -2   3   5   13.80    3.70
   1  -3  -5 6371.56  153.68
  -1   3   5 6392.26  153.58
   0  -3  -5  536.45   17.80
   0  -3  -5  529.75   12.90
   0  -3  -5  546.35   12.90
   0   3   5  538.85   12.90
   0   3   5  535.75   17.80
   0   3   5  541.15   12.90
   1   3   5   33.80    4.00
   1   3   5   35.10    1.30
   1   3   5   36.80    1.50
  -2  -3  -5 1566.04   36.50
  -2  -3  -5 1612.04   36.70
  -2  -3  -5 1604.74   41.80
   2   3   5 1504.75   37.90
   2   3   5 1608.04   41.80
   2   3   5 1595.64   36.90
   2   3   5 1554.14   36.50
   2   3   5 1562.24   36.60
  -3  -3  -5  441.26   10.80
  -3  -3  -5  436.96   10.80
   3   3   5  442.66   10.90
   3   3   5  458.55   16.00
   3   3   5  442.96   15.60
   3   3   5  436.96   10.80
   3   3   5  487.25   11.40
  -4  -3  -5  191.18    4.90
   4   3   5  200.68    5.90
   4   3   5  183.38    4.90
   4   3   5  193.38    5.30
   4   3   5  201.68    9.70
   5   3   5    7.40    2.90
   5   3   5    3.50    1.00
   5   3   5    5.70    1.20
   5  -4  -5   19.50    1.50
   5  -4  -5   18.60    1.90
  -5   4   5   18.30    2.10
   4  -4  -5    3.70    1.50
   4  -4  -5    4.90    3.80
   4  -4  -5    3.40    0.80
  -4   4   5    4.20    1.10
  -4   4   5    0.30    3.50
   3  -4  -5   52.19    2.10
   3  -4  -5   51.69    2.00
   3  -4  -5   52.19    7.00
  -3   4   5   48.20    2.30
  -3   4   5   48.90    6.90
  -3   4   5   46.60    1.90
   2  -4  -5  594.24   21.50
   2  -4  -5  592.94   14.40
   2  -4  -5  595.14   14.40
   2  -4  -5  614.44   14.50
   2  -4  -5  599.04   14.60
  -2   4   5  581.44   14.70
  -2   4   5  617.14   14.60
  -2   4   5  605.14   21.50
   1  -4  -5   24.00    1.20
   1  -4  -5   20.00    1.00
   1  -4  -5   20.20    1.00
   1  -4  -5   19.30    1.20
   1  -4  -5   25.30    4.50
  -1   4   5   18.80    1.10
  -1   4   5   21.90    4.00
  -1   4   5   15.30    1.60
   0  -4  -5   13.10    0.90
   0  -4  -5   12.60    0.60
   0  -4  -5   13.00    0.90
   0  -4  -5   12.70    3.40
   0   4   5   11.20    2.90
   0   4   5   12.20    1.00
   0   4   5   15.60    0.90
   0   4   5   12.10    0.60
  -1  -4  -5  148.29    3.90
  -1  -4  -5  148.99    3.50
  -1  -4  -5  145.09    8.10
  -1  -4  -5  141.99    3.90
   1   4   5  144.59    3.80
   1   4   5  123.19    4.30
   1   4   5  138.99    8.00
   1   4   5  146.69    3.50
  -2  -4  -5   31.80    1.30
  -2  -4  -5   29.00    1.10
  -2  -4  -5   26.90    4.30
   2   4   5   24.30    3.90
   2   4   5   28.40    1.50
   2   4   5   28.10    1.50
   2   4   5   30.50    1.20
   2   4   5   27.30    1.10
  -3  -4  -5 1749.03   40.80
  -3  -4  -5 1796.02   40.80
   3   4   5 1656.03   49.80
   3   4   5 1823.52   41.40
   3   4   5 1782.22   47.90
   3   4   5 1704.03   40.70
  -4  -4  -5    7.60    0.80
   4   4   5    8.80    0.80
   4   4   5    9.20    1.00
   4   4   5    8.80    1.30
   4   4   5    8.90    3.00
   4   4   5    9.90    3.40
   5   4   5   -0.10    0.70
   5   4   5   -7.80    3.60
   5   4   5   -1.00    1.00
   4  -5  -5    7.70    4.80
   4  -5  -5    7.90    1.00
   4  -5  -5    5.90    1.10
  -4   5   5    3.80    4.10
  -4   5   5    8.20    1.20
   3  -5  -5   10.20    1.00
   3  -5  -5   10.40    1.10
   3  -5  -5   14.20    4.70
  -3   5   5   11.50    1.30
  -3   5   5    9.90    3.90
   2  -5  -5    1.50    0.60
   2  -5  -5    0.70    0.60
   2  -5  -5   -0.60    3.20
   2  -5  -5    0.80    0.60
   2  -5  -5    1.10    0.60
  -2   5   5    0.60    0.50
  -2   5   5    2.30    3.10
  -2   5   5    0.50    0.70
   1  -5  -5 1026.50   23.90
   1  -5  -5 1025.60   31.40
   1  -5  -5  981.40   24.10
   1  -5  -5  996.00   23.60
  -1   5   5 1021.00   23.60
  -1   5   5 1010.50   23.80
  -1   5   5  983.10   23.80
  -1   5   5 1011.10   31.20
   0  -5  -5  703.83   16.60
   0  -5  -5  681.73   16.60
   0  -5  -5  724.83   23.50
   0  -5  -5  685.43   16.30
   0   5   5  686.43   16.60
   0   5   5  685.13   16.60
   0   5   5  688.63   16.30
   0   5   5  702.33   23.30
  -1  -5  -5  506.65   12.80
  -1  -5  -5  532.75   18.90
  -1  -5  -5  519.25   12.50
  -1  -5  -5  520.45   12.20
   1   5   5  531.75   12.60
   1   5   5  499.05   12.40
   1   5   5  504.15   12.10
   1   5   5  506.55   18.70
  -2  -5  -5   14.30    0.90
  -2  -5  -5   15.30    1.00
  -2  -5  -5   15.80    3.40
   2   5   5   12.90    0.90
   2   5   5   12.60    1.30
   2   5   5   15.20    3.90
   2   5   5   13.40    1.00
   2   5   5   14.20    1.20
  -3  -5  -5   44.40    1.80
  -3  -5  -5   44.70    1.70
   3   5   5   35.70    5.60
   3   5   5   47.40    2.40
   3   5   5   47.20    1.70
   3   5   5   43.30    1.80
   3   5   5   50.39    6.80
   4   5   5  161.48    4.40
   4   5   5  168.08   10.60
   4   5   5  170.98   11.10
   4   5   5  169.08    4.80
   4   5   5  178.98    5.40
   5   5   5    0.10    1.00
   5   5   5    1.00    3.70
   5   5   5    1.00    0.90
   4  -6  -5    9.40    1.30
   4  -6  -5    8.30    1.30
  -4   6   5    9.80    1.30
   3  -6  -5   23.90    1.70
   3  -6  -5   25.60    1.70
   3  -6  -5   20.30    5.60
  -3   6   5   28.40    5.50
  -3   6   5   26.50    1.90
   2  -6  -5  662.93   15.60
   2  -6  -5  670.03   24.50
   2  -6  -5  608.64   15.60
   2  -6  -5  657.63   15.80
  -2   6   5  654.13   15.80
  -2   6   5  634.04   23.90
   1  -6  -5 1172.08   28.20
   1  -6  -5 1212.68   28.30
   1  -6  -5 1194.28   28.00
   1  -6  -5 1236.18   37.00
  -1   6   5 1217.08   28.30
  -1   6   5 1127.19   28.20
  -1   6   5 1224.98   36.80
   0  -6  -5    1.50    0.80
   0  -6  -5    1.40    2.50
   0   6   5    0.80    0.50
   0   6   5    2.80    0.50
   0   6   5    2.30    0.60
   0   6   5   -1.70    2.20
  -1  -6  -5    4.00    0.70
  -1  -6  -5    5.00    0.70
  -1  -6  -5    5.60    2.80
   1   6   5    4.40    0.60
   1   6   5    5.00    0.80
   1   6   5    3.30    2.90
   1   6   5    5.20    0.60
  -2  -6  -5   18.30    1.00
  -2  -6  -5   17.80    1.20
  -2  -6  -5   19.20    4.40
   2   6   5   16.60    4.40
   2   6   5   18.50    1.40
   2   6   5   14.80    1.00
  -3  -6  -5  286.17    7.70
  -3  -6  -5  289.17    7.40
   3   6   5  286.77    7.30
   3   6   5  298.17    7.90
   3   6   5  301.37   14.80
   3   6   5  294.97    7.40
  -4  -6  -5   26.10    1.20
   4   6   5   27.30    1.70
   4   6   5   29.70    2.20
   4  -7  -5    3.90    0.90
   4  -7  -5    3.40    1.00
  -4   7   5    3.30    1.10
   3  -7  -5   14.70    5.50
   3  -7  -5   19.60    1.70
  -3   7   5   20.30    1.90
  -3   7   5   18.30    5.10
   2  -7  -5  521.85   21.80
   2  -7  -5  509.85   12.60
  -2   7   5  500.65   12.40
  -2   7   5  502.45   12.60
  -2   7   5  475.45   20.60
   1  -7  -5  131.49    4.00
   1  -7  -5  138.99    4.10
   1  -7  -5  137.89    3.80
  -1   7   5  135.09    3.80
  -1   7   5  138.49    4.10
  -1   7   5  110.59   15.70
   0  -7  -5    5.50    0.80
   0  -7  -5    5.90    0.70
   0  -7  -5    8.10    3.80
   0  -7  -5    6.00    0.80
   0   7   5    5.60    0.80
   0   7   5    8.40    3.80
   0   7   5    5.90    0.90
  -1  -7  -5  238.28    6.30
  -1  -7  -5  232.48    6.40
  -1  -7  -5  247.78   13.40
  -1  -7  -5  238.68    6.00
   1   7   5  237.28    6.10
   1   7   5  243.28   13.30
   1   7   5  239.38    6.40
  -2  -7  -5   22.70    1.20
  -2  -7  -5   26.60    1.50
  -2  -7  -5   20.30    4.80
   2   7   5   23.60    1.70
   2   7   5   25.40    1.40
   2   7   5   24.60    1.30
   2   7   5   15.70    4.70
  -3  -7  -5   27.70    1.40
   3   7   5   23.70    1.40
   3   7   5   25.90    1.80
   3   7   5   35.90   10.10
   3   7   5   24.80    5.20
   3   7   5   24.90    1.30
  -4  -7  -5   20.90    1.10
   4   7   5   13.30    4.70
   4   7   5   23.90    2.10
   4   7   5   22.10    1.60
   4   7   5   21.90    1.20
   3  -8  -5   47.60    2.40
   3  -8  -5   51.79    8.70
   3  -8  -5   43.60    2.30
  -3   8   5   45.40    9.30
   2  -8  -5   18.80    2.50
   2  -8  -5   17.40    5.60
  -2   8   5   16.70    1.50
  -2   8   5   18.90    5.40
  -2   8   5   17.20    1.80
   1  -8  -5  109.49   10.10
   1  -8  -5  105.49    3.50
  -1   8   5   99.89    9.40
  -1   8   5  106.09    3.30
  -1   8   5  107.39    3.50
   0  -8  -5   88.09    9.00
   0  -8  -5   81.99    2.60
   0  -8  -5   85.49    3.00
   0   8   5   87.69    2.70
   0   8   5   79.29    8.60
   0   8   5   85.89    3.00
  -1  -8  -5    9.60    1.00
  -1  -8  -5    9.90    0.90
  -1  -8  -5    9.80    4.00
   1   8   5    0.40    3.70
   1   8   5    9.50    0.90
   1   8   5    7.20    1.00
  -2  -8  -5  301.27   16.40
  -2  -8  -5  291.67    7.70
  -2  -8  -5  311.07    7.90
   2   8   5  306.37   16.80
   2   8   5  309.87    8.20
   2   8   5  303.67    7.80
  -3  -8  -5   -0.20    0.50
   3   8   5   -2.40    4.00
   3   8   5   -0.40    0.60
   3   8   5    1.50    3.60
   3   8   5   -0.50    0.80
  -4  -8  -5   18.60    1.20
   4   8   5   19.80    2.00
   4   8   5   11.50    5.30
   4   8   5   22.40    1.70
   3  -9  -5    1.30    1.00
   3  -9  -5    1.40    1.00
  -3   9   5    2.10    1.00
   2  -9  -5  221.38   15.80
   2  -9  -5  234.68    6.70
  -2   9   5  231.78   15.10
  -2   9   5  241.98    6.60
  -2   9   5  233.18    6.60
   1  -9  -5    1.80    0.80
   1  -9  -5   -6.80    3.30
  -1   9   5    2.10    0.80
  -1   9   5    2.60    0.90
  -1   9   5    0.50    3.50
   0  -9  -5   25.80    6.40
   0  -9  -5   24.80    1.70
   0   9   5   29.30    1.80
   0   9   5   28.30    1.60
   0   9   5   30.50    6.70
  -1  -9  -5   63.29    9.00
  -1  -9  -5   57.19    2.50
   1   9   5   59.69    2.30
   1   9   5   61.29    9.10
   1   9   5   62.29    2.50
  -2  -9  -5   49.40    2.20
  -2  -9  -5   33.70    6.90
   2   9   5   36.70    7.40
   2   9   5   45.70    2.10
   2   9   5   50.19    2.40
  -3  -9  -5   17.80    1.40
   3   9   5   18.80    1.60
   3   9   5   20.80    5.90
   3   9   5   17.70    1.80
   2 -10  -5    0.30    0.90
  -2  10   5    0.00    0.80
  -2  10   5    1.40    1.00
   1 -10  -5    0.60    0.80
   1 -10  -5   -1.70    4.20
  -1  10   5    0.20    3.80
  -1  10   5   -0.80    0.80
  -1  10   5    0.20    0.80
   0 -10  -5    1.10    0.80
   0 -10  -5    1.60    4.30
   0  10   5    1.20    0.90
   0  10   5    0.70    4.40
   0  10   5    1.20    0.70
  -1 -10  -5   47.80    2.30
  -1 -10  -5   50.29    8.70
   1  10   5   41.30    7.90
   1  10   5   47.00    2.30
   1  10   5   50.39    2.20
  -2 -10  -5    6.70    1.20
  -2 -10  -5    1.20    5.20
   2  10   5   11.60    6.00
   2  10   5    8.00    1.30
   2  10   5    5.50    1.00
   1 -11  -5   13.80    7.00
   1 -11  -5   26.70    2.10
  -1  11   5   22.50    1.90
  -1  11   5   26.40    1.80
  -1  11   5   13.70    5.70
   0 -11  -5   13.10    5.70
   0 -11  -5    7.50    1.20
   0  11   5    5.90    1.00
   0  11   5    6.90    1.10
   0  11   5   11.40    6.30
  -1 -11  -5   47.70    8.90
  -1 -11  -5   50.09    2.50
   1  11   5   49.80    2.60
   1  11   5   43.60    8.90
   1  11   5   56.29    2.90
   1  10  -6   -8.20    5.80
   1  10  -6   -0.20    0.90
  -1 -10   6    1.10    0.90
   0  10  -6    8.40    1.40
   0  10  -6   -0.30    5.00
   0 -10   6    6.70    1.20
  -1  10  -6    1.80    1.00
  -1  10  -6   -3.40    4.60
   1 -10   6    0.70    0.90
   2   9  -6   -0.10    0.90
   2   9  -6    6.20    8.00
   2   9  -6   -5.40    4.40
  -2  -9   6    0.90    0.70
   1   9  -6    7.30    4.80
   1   9  -6   16.60    6.20
   1   9  -6   15.40    1.70
   0   9  -6    3.50    4.40
   0   9  -6    1.60    1.00
   0   9  -6    1.10    3.90
   0  -9   6    0.30    0.80
  -1   9  -6    2.80    1.00
  -1   9  -6    2.80    4.20
   1  -9   6    2.20    0.90
  -2   9  -6   -0.30    0.80
  -2   9  -6    4.90    3.70
   2  -9   6    0.70    0.90
   3   8  -6    0.80    5.20
   3   8  -6    5.40    1.30
   3   8  -6    6.40    6.60
   3   8  -6    2.90    0.90
  -3  -8   6    3.30    0.90
  -3  -8   6    3.50    0.80
   2   8  -6    2.20    1.00
   2   8  -6    3.80    4.10
   2   8  -6   -2.70    4.80
  -2  -8   6    1.30    0.70
   1   8  -6   22.20    5.70
   1   8  -6   22.70    1.70
   1   8  -6   13.90    5.10
  -1  -8   6   20.40    1.60
   0   8  -6    4.10    1.10
   0   8  -6    6.10    4.00
   0  -8   6    3.00    0.90
  -1   8  -6  666.33   25.40
  -1   8  -6  688.23   16.90
  -1   8  -6  688.53   25.00
   1  -8   6  688.33   16.90
  -2   8  -6   59.39    2.60
  -2   8  -6   54.89    6.70
   2  -8   6   58.29    2.60
  -3   8  -6    7.30    1.20
  -3   8  -6    4.50    2.60
   3  -8   6   10.60    1.40
   3   7  -6   43.20    8.80
   3   7  -6   48.10    2.60
   3   7  -6   47.30    8.90
  -3  -7   6   49.90    1.90
  -3  -7   6   49.60    2.20
  -3  -7   6   45.80    1.80
   2   7  -6   22.30    1.20
   2   7  -6   17.80    6.00
   2   7  -6   24.20    1.80
   2   7  -6   22.50    6.30
  -2  -7   6   20.60    1.40
  -2  -7   6   20.60    1.40
   1   7  -6    6.10    3.70
   1   7  -6    1.00    0.80
   1   7  -6   -4.80    2.80
   0   7  -6    0.60    0.70
   0   7  -6    0.30    2.80
   0   7  -6    3.60    3.10
   0  -7   6    0.80    0.70
  -1   7  -6    1.00    0.80
  -1   7  -6    0.10    2.60
  -1   7  -6   -3.40    3.00
   1  -7   6    1.10    0.80
  -2   7  -6  150.78    4.70
  -2   7  -6  141.39    8.40
  -2   7  -6  147.29    8.60
   2  -7   6  145.29    4.50
  -3   7  -6  166.08    7.50
  -3   7  -6  174.38    5.20
   3  -7   6  173.48    5.30
   4   6  -6   -0.70    0.90
   4   6  -6    0.50    6.10
  -4  -6   6   -0.20    0.90
   3   6  -6   14.00    1.50
   3   6  -6    7.30    5.40
  -3  -6   6   12.90    1.00
  -3  -6   6   15.60    1.50
  -3  -6   6   16.50    1.10
   2   6  -6   20.40    5.50
   2   6  -6   16.10    1.20
   2   6  -6   18.50    1.60
  -2  -6   6   19.30    1.30
  -2  -6   6   16.70    1.20
  -2  -6   6   16.40    1.10
   1   6  -6   21.50    1.50
   1   6  -6   18.30    5.00
   1   6  -6   18.90    5.20
  -1  -6   6   19.50    1.20
  -1  -6   6   23.40    1.40
   0   6  -6  135.09    4.00
   0   6  -6  136.29    8.90
   0   6  -6  111.59    8.50
   0  -6   6  138.19    4.00
  -1   6  -6  274.47    7.10
  -1   6  -6  269.17   12.20
  -1   6  -6  261.87   18.30
   1  -6   6  268.37    7.20
  -2   6  -6 1162.28   27.70
  -2   6  -6 1170.08   32.50
  -2   6  -6 1152.08   32.50
   2  -6   6 1178.08   27.80
  -3   6  -6   14.80    1.90
   3  -6   6   11.50    1.00
   3  -6   6   12.20    1.00
   3  -6   6   13.30    1.30
   4  -6   6  200.88    5.60
   4  -6   6  201.38    6.00
   4   5  -6    2.10    6.20
   4   5  -6    5.80    1.20
  -4  -5   6    0.80    5.40
  -4  -5   6    3.90    1.20
   3   5  -6   57.09    8.70
  -3  -5   6   58.39    9.00
  -3  -5   6   56.79    1.90
  -3  -5   6   63.09    1.90
  -3  -5   6   60.09    2.40
   2   5  -6   62.09    8.00
   2   5  -6   77.49    2.80
   2   5  -6   72.69    2.40
  -2  -5   6   72.09    2.30
  -2  -5   6   71.39    2.40
  -2  -5   6   72.49    8.60
   1   5  -6   11.00    3.90
   1   5  -6   13.30    1.20
  -1  -5   6   18.00    4.50
  -1  -5   6   10.80    1.00
  -1  -5   6   13.30    1.10
   0   5  -6  482.85   11.70
   0  -5   6  462.65   11.70
   0  -5   6  488.95   11.70
   0  -5   6  469.95   11.70
  -1   5  -6  291.17   16.80
  -1   5  -6  289.57    7.40
  -1   5  -6  294.77   12.10
   1  -5   6  282.07    7.40
   1  -5   6  294.67    7.50
  -2   5  -6  452.75   11.10
  -2   5  -6  442.46   14.40
  -2   5  -6  434.86   14.40
   2  -5   6  455.75   11.30
  -3   5  -6   74.69    2.70
   3  -5   6   74.89    2.80
   3  -5   6   73.49    2.40
   3  -5   6   80.19    2.70
   4  -5   6   30.00    2.00
   4  -5   6   30.30    2.00
   4  -5   6   31.60    1.80
   4   4  -6    0.20    4.90
   4   4  -6    2.50    1.10
  -4  -4   6    5.70    4.50
   3   4  -6   31.20    6.60
   3   4  -6   38.00    2.10
  -3  -4   6   35.20    1.90
  -3  -4   6   35.80    1.40
  -3  -4   6   42.40    7.40
   2   4  -6  473.25   11.50
   2   4  -6  452.25   11.30
   2   4  -6  486.55   20.00
  -2  -4   6  455.35   11.30
  -2  -4   6  451.65   11.10
  -2  -4   6  463.45   19.80
  -2  -4   6  468.15   11.20
   1   4  -6  175.68    4.40
   1   4  -6  179.78    4.80
   1   4  -6  163.08   14.30
  -1  -4   6  165.38   12.40
  -1  -4   6  166.28    5.50
  -1  -4   6  174.08    4.70
  -1  -4   6  174.18    4.60
  -1  -4   6  176.48    4.40
   0   4  -6  236.88    6.00
   0  -4   6  223.78   10.90
   0  -4   6  238.28    6.00
   0  -4   6  235.38    6.10
  -1   4  -6  952.20   22.30
  -1   4  -6  929.81   28.50
  -1   4  -6  928.01   26.80
   1  -4   6  938.31   22.40
   1  -4   6  949.71   22.30
   1  -4   6  956.10   22.40
  -2   4  -6 1252.37   32.20
  -2   4  -6 1291.97   29.70
  -2   4  -6 1251.67   32.20
   2  -4   6 1258.47   29.40
   2  -4   6 1289.97   29.80
   2  -4   6 1240.68   29.40
   2  -4   6 1240.68   29.70
  -3   4  -6   18.90    1.30
   3  -4   6   14.90    1.10
   3  -4   6   18.20    1.40
   3  -4   6   18.40    1.20
   4  -4   6    0.50    0.80
   4  -4   6    1.70    1.00
   4  -4   6    1.80    0.80
   4   3  -6    4.70    1.10
   4   3  -6    2.10    4.40
  -4  -3   6    2.70    1.80
  -4  -3   6    6.80    4.70
   3   3  -6  115.49    3.70
   3   3  -6  120.89   10.60
  -3  -3   6  117.59   10.10
  -3  -3   6  112.79    3.10
  -3  -3   6  118.09    3.70
   2   3  -6  432.06   10.60
   2   3  -6  450.95   18.50
   2   3  -6  449.06   10.50
   2   3  -6  444.16   10.80
  -2  -3   6  444.76   10.50
  -2  -3   6  444.26   18.40
  -2  -3   6  430.26   10.70
  -2  -3   6  384.66   11.60
   1   3  -6   -0.50    0.40
   1   3  -6    0.20    0.40
   1   3  -6   -0.10    0.50
   1   3  -6    1.90    2.40
  -1  -3   6    0.50    0.40
  -1  -3   6    0.80    0.40
  -1  -3   6    5.10    2.80
  -1  -3   6    2.30    0.50
   0   3  -6    2.00    0.30
   0   3  -6    2.80    0.70
   0   3  -6    1.70    0.50
   0  -3   6    2.60    0.50
   0  -3   6    0.90    1.80
   0  -3   6    2.50    0.40
   0  -3   6    1.70    0.40
  -1   3  -6  403.26    9.60
  -1   3  -6  396.16    9.70
  -1   3  -6  387.16   13.40
   1  -3   6  396.86    9.40
   1  -3   6  389.06   13.20
   1  -3   6  389.86    9.50
   1  -3   6  390.96    9.30
  -2   3  -6  963.10   24.20
  -2   3  -6  984.90   22.80
  -2   3  -6  969.20   24.20
   2  -3   6  958.00   22.70
   2  -3   6  947.81   22.80
   2  -3   6  984.90   22.90
   2  -3   6  949.11   22.90
   2  -3   6  964.20   22.70
  -3   3  -6   62.59    2.30
   3  -3   6   65.79    2.40
   3  -3   6   64.99    2.50
   3  -3   6   69.19    2.30
   4  -3   6    0.20    0.70
   4  -3   6    1.00    0.80
   4  -3   6    0.40    0.70
   5  -3   6    1.70    1.00
   5  -3   6   -0.60    1.40
   5  -3   6    1.40    0.90
   5   2  -6    9.30    1.40
  -5  -2   6    7.90    1.40
   4   2  -6   26.90    1.90
   4   2  -6   34.20    7.00
  -4  -2   6   36.80    7.30
  -4  -2   6   25.80    2.60
   3   2  -6  312.97   15.90
   3   2  -6  304.07    7.90
   3   2  -6  295.97    7.30
  -3  -2   6  307.47   15.80
  -3  -2   6  285.37    7.20
  -3  -2   6  302.07    7.90
   2   2  -6  996.30   23.00
   2   2  -6  956.60   23.20
   2   2  -6  984.10   23.30
   2   2  -6  994.50   31.30
  -2  -2   6 1001.00   23.40
  -2  -2   6  985.70   23.00
  -2  -2   6  989.10   31.40
  -2  -2   6  963.40   23.40
   1   2  -6   68.09    5.80
   1   2  -6   67.49    2.10
   1   2  -6   67.89    2.10
   1   2  -6   69.19    2.10
  -1  -2   6   66.19    5.90
  -1  -2   6   69.19    2.10
  -1  -2   6   66.39    2.10
  -1  -2   6   68.19    2.10
   0   2  -6   25.60    1.10
   0   2  -6   24.90    1.20
   0  -2   6   22.80    3.50
   0  -2   6   25.00    1.00
   0  -2   6   24.90    1.10
   0  -2   6   25.00    1.10
  -1   2  -6  151.18    6.90
  -1   2  -6  161.08    4.10
  -1   2  -6  160.88    4.10
   1  -2   6  159.48    4.10
   1  -2   6  156.28    4.30
   1  -2   6  162.48    7.20
   1  -2   6  163.68    4.10
  -2   2  -6   79.59    2.90
  -2   2  -6   80.99    2.40
  -2   2  -6   82.59    2.60
  -2   2  -6   76.99    2.80
   2  -2   6   81.99    2.40
   2  -2   6   80.89    2.60
   2  -2   6   81.89    2.40
   2  -2   6   82.79    2.50
   3  -2   6   38.30    1.70
   3  -2   6   40.30    1.70
   3  -2   6   37.40    1.70
   3  -2   6   38.00    1.60
   3  -2   6   39.90    1.70
   3  -2   6   40.60    1.70
   4  -2   6  200.98    5.60
   4  -2   6  203.88    5.60
   4  -2   6  202.38    5.80
   5  -2   6    0.40    0.80
   5  -2   6   -0.30    0.90
   5  -2   6   -0.10    0.80
   5   1  -6    0.90    0.90
  -5  -1   6    0.50    1.00
   4   1  -6    9.80    4.90
  -4  -1   6   12.60    2.30
  -4  -1   6   16.20    5.10
   3   1  -6    7.10    4.40
   3   1  -6    7.80    0.80
   3   1  -6   11.30    1.10
  -3  -1   6    5.90    4.10
  -3  -1   6    7.20    1.10
  -3  -1   6    7.70    0.80
   2   1  -6   12.40    1.00
   2   1  -6   11.70    0.80
   2   1  -6    7.10    3.30
   2   1  -6   13.10    1.10
  -2  -1   6    6.90    3.40
  -2  -1   6   11.70    0.90
  -2  -1   6   12.60    1.20
   1   1  -6  475.15   11.30
   1   1  -6  465.25   11.30
   1   1  -6  450.75   17.20
   1   1  -6  469.35   11.20
  -1  -1   6  464.85   17.60
  -1  -1   6  469.55   11.20
  -1  -1   6  468.45   11.20
  -1  -1   6  480.25   11.30
   0   1  -6    9.70    0.70
   0   1  -6   11.80    0.70
   0  -1   6    6.80    2.40
   0  -1   6   10.50    0.90
   0  -1   6   11.30    0.80
   0  -1   6   10.30    0.80
  -1   1  -6  414.66   10.10
  -1   1  -6  433.46   10.00
  -1   1  -6  380.76   16.10
  -1   1  -6  423.26   10.20
   1  -1   6  425.46   16.80
   1  -1   6  423.96   10.10
   1  -1   6  425.96   10.10
   1  -1   6  421.86   10.20
  -2   1  -6  679.53   16.80
  -2   1  -6  683.13   16.10
  -2   1  -6  682.73   16.30
   2  -1   6  691.73   16.10
   2  -1   6  677.83   16.30
   2  -1   6  692.43   16.30
   2  -1   6  681.63   16.30
   2  -1   6  679.93   16.90
  -3   1  -6  227.18    5.80
   3  -1   6  229.98    6.00
   3  -1   6  221.48    5.70
   3  -1   6  216.08    5.70
   3  -1   6  216.88    5.80
   3  -1   6  212.88    5.90
   4  -1   6   70.29    2.80
   4  -1   6   73.39    2.60
   4  -1   6   69.19    2.50
   4  -1   6   69.29    2.70
   5  -1   6    3.20    0.80
   5  -1   6    4.00    1.10
   5  -1   6    2.40    0.90
   5   0  -6    1.10    1.00
  -5   0   6   -0.20    1.00
   4   0  -6  191.88   13.10
   4   0  -6  181.78    5.50
  -4   0   6  172.48    7.20
  -4   0   6  199.38   13.30
   3   0  -6  536.75   13.00
   3   0  -6  525.15   21.60
   3   0  -6  534.05   13.40
  -3   0   6  567.64   13.60
  -3   0   6  564.34   13.00
  -3   0   6  534.85   21.70
   2   0  -6   97.89    7.60
   2   0  -6   94.39    2.70
   2   0  -6   88.39    3.10
   2   0  -6   91.99    3.00
  -2   0   6   94.89    7.60
  -2   0   6   92.99    2.70
  -2   0   6   92.89    2.60
  -2   0   6   95.59    3.00
   1   0  -6   75.39    7.50
   1   0  -6   73.49    2.20
   1   0  -6   72.79    2.30
   1   0  -6   75.69    2.30
  -1   0   6   81.29    2.20
  -1   0   6   77.99    7.50
  -1   0   6   83.19    2.30
  -1   0   6   79.59    2.40
   0   0  -6   85.29    2.50
   0   0  -6   84.79    2.20
   0   0  -6   85.09    2.50
   0   0  -6   91.69    5.50
   0   0   6   88.09    2.50
   0   0   6   88.99    5.80
   0   0   6   87.69    2.50
   0   0   6   86.99    2.20
  -1   0  -6 3646.84   86.89
   1   0   6 3582.14   86.79
  -2   0  -6   13.30    1.70
  -2   0  -6   10.40    0.90
   2   0   6   11.20    0.80
   2   0   6   11.00    0.70
   2   0   6   10.90    0.70
   2   0   6   10.60    1.60
   2   0   6   12.30    0.90
  -3   0  -6    8.90    0.80
   3   0   6    7.30    0.80
   3   0   6    9.60    1.00
   3   0   6    9.60    1.10
   3   0   6    8.80    0.90
   4   0   6   64.49    2.20
   4   0   6   64.09    2.30
   4   0   6   62.29    2.30
   4   0   6   65.09    2.70
   5   0   6   40.20    1.90
   5   0   6   47.40    1.90
   5   0   6   45.10    2.20
   5   0   6   50.49    2.60
   5  -1  -6    7.20    1.30
  -5   1   6    9.40    1.50
   4  -1  -6    4.00    1.00
   4  -1  -6    9.30    4.80
   4  -1  -6    5.70    0.70
  -4   1   6    6.50    4.30
  -4   1   6    3.10    1.10
  -4   1   6    5.80    0.70
   3  -1  -6   27.20    1.40
   3  -1  -6   28.90    5.90
   3  -1  -6   27.70    1.70
  -3   1   6   26.60    1.30
  -3   1   6   25.40    5.70
  -3   1   6   28.60    1.90
   2  -1  -6   10.10    0.90
   2  -1  -6    9.10    3.50
   2  -1  -6   12.50    1.10
   2  -1  -6   10.90    0.90
  -2   1   6   12.90    3.80
  -2   1   6   11.70    0.80
  -2   1   6   11.50    1.10
   1  -1  -6 1317.97   36.20
   1  -1  -6 1282.07   29.90
   1  -1  -6 1254.17   29.90
   1  -1  -6 1272.87   29.70
  -1   1   6 1283.07   29.90
  -1   1   6 1268.27   29.80
  -1   1   6 1287.97   36.00
  -1   1   6 1264.77   29.70
   0  -1  -6 4164.98  100.09
   0   1   6 4058.89   99.99
  -1  -1  -6 3884.51   93.79
   1   1   6 3909.81   93.89
  -2  -1  -6   18.00    2.40
  -2  -1  -6   16.30    1.00
   2   1   6   15.10    0.80
   2   1   6   16.40    0.90
   2   1   6   15.60    0.70
   2   1   6   15.70    1.00
   2   1   6   16.80    1.10
   2   1   6   17.90    2.40
  -3  -1  -6   96.69    3.10
   3   1   6   95.99    3.20
   3   1   6   95.99    4.30
   3   1   6   96.29    2.80
   3   1   6   96.39    2.80
   3   1   6   94.19    4.50
   3   1   6   96.09    2.80
   4   1   6   34.90    2.00
   4   1   6   35.30    1.60
   5   1   6    2.50    0.70
   5   1   6    2.40    1.10
   5   1   6    2.50    1.00
   5   1   6    3.00    0.70
   5  -2  -6    0.40    0.60
   5  -2  -6   -0.30    0.90
  -5   2   6   -0.20    0.90
   4  -2  -6   21.80    6.50
   4  -2  -6   17.20    1.20
   4  -2  -6   19.70    1.70
  -4   2   6   18.10    1.40
  -4   2   6    7.60    5.10
  -4   2   6   16.70    1.90
   3  -2  -6    1.10    0.70
   3  -2  -6    0.50    3.60
   3  -2  -6    1.10    0.60
  -3   2   6    0.80    0.60
  -3   2   6    0.70    0.90
  -3   2   6   -1.30    3.20
   2  -2  -6    3.00    0.60
   2  -2  -6    5.30    0.80
   2  -2  -6    1.00    2.80
   2  -2  -6    3.20    0.60
  -2   2   6    6.90    0.90
   1  -2  -6   51.89    1.80
   1  -2  -6   50.79    5.40
   1  -2  -6   47.90    1.50
   1  -2  -6   46.70    1.70
   1  -2  -6   51.09    1.50
  -1   2   6   47.20    5.20
  -1   2   6   44.00    2.00
  -1   2   6   48.20    1.60
   0  -2  -6  532.35   17.60
   0  -2  -6  538.75   12.70
   0  -2  -6  522.65   12.70
   0   2   6  532.55   17.60
   0   2   6  529.35   12.70
   0   2   6  526.65   12.70
  -1  -2  -6   36.70    1.50
  -1  -2  -6   38.30    4.00
  -1  -2  -6   41.20    1.50
   1   2   6   36.50    1.40
   1   2   6   39.50    1.60
   1   2   6   41.40    3.90
  -2  -2  -6    2.70    1.70
  -2  -2  -6    4.40    0.60
   2   2   6    4.60    0.40
   2   2   6    3.30    0.50
   2   2   6   -0.10    1.40
   2   2   6    3.60    0.40
   2   2   6    3.50    0.70
   2   2   6    4.30    0.70
  -3  -2  -6    0.20    0.60
   3   2   6    0.20    1.60
   3   2   6    0.60    0.50
   3   2   6   -0.90    0.50
   3   2   6    0.00    0.40
   3   2   6   -0.80    1.60
   3   2   6    0.10    0.70
  -4  -2  -6   49.99    2.00
   4   2   6   46.70    2.20
   4   2   6   44.40    1.70
   4   2   6   49.00    1.90
   4   2   6   48.90    2.60
   4   2   6   47.60    4.60
   4   2   6   49.00    4.10
   5   2   6   31.40    1.70
   5   2   6   26.20    2.20
   5  -3  -6    8.50    0.90
   5  -3  -6    8.70    1.30
  -5   3   6    8.00    1.40
   4  -3  -6   -2.90    3.60
   4  -3  -6    5.10    0.80
  -4   3   6    2.80    4.00
  -4   3   6    5.30    0.80
  -4   3   6    3.00    1.00
   3  -3  -6  183.98    4.90
   3  -3  -6  186.88   12.10
   3  -3  -6  179.68    5.00
  -3   3   6  178.08    5.30
  -3   3   6  170.78    4.80
  -3   3   6  191.48   12.10
   2  -3  -6  131.89    3.70
   2  -3  -6  129.79    3.60
   2  -3  -6  129.89    9.10
   2  -3  -6  125.59    3.80
   2  -3  -6  134.49    3.70
  -2   3   6  128.19    3.70
  -2   3   6  139.49    9.30
  -2   3   6  132.89    3.90
   1  -3  -6  388.56   10.20
   1  -3  -6  414.36    9.60
   1  -3  -6  419.66   16.10
   1  -3  -6  392.96    9.90
   1  -3  -6  394.26    9.60
  -1   3   6  423.56   15.90
  -1   3   6  398.56    9.90
  -1   3   6  405.56   10.00
   0  -3  -6 1233.08   28.80
   0  -3  -6 1220.08   28.80
   0  -3  -6 1250.37   34.80
   0   3   6 1234.58   28.80
   0   3   6 1198.28   28.70
   0   3   6 1229.08   34.60
  -1  -3  -6 2478.35   58.69
   1   3   6 2595.04   58.69
   1   3   6 2519.55   58.59
   1   3   6 2520.05   64.09
  -2  -3  -6  762.22   17.80
  -2  -3  -6  743.03   22.70
  -2  -3  -6  745.43   17.50
   2   3   6  746.73   17.50
   2   3   6  773.02   22.90
   2   3   6  747.93   18.10
   2   3   6  737.93   17.80
  -3  -3  -6 1126.59   27.30
   3   3   6 1129.99   27.10
   3   3   6 1133.59   27.00
   3   3   6 1202.48   32.60
   3   3   6 1192.28   27.70
  -4  -3  -6   15.40    1.20
   4   3   6   14.40    1.00
   4   3   6   14.60    1.20
   4   3   6   14.50    3.30
   4   3   6   17.00    3.40
   4   3   6   17.90    1.70
   5   3   6    0.70    1.00
   5   3   6   -2.80    2.10
   4  -4  -6  206.48   13.60
   4  -4  -6  196.68    5.60
   4  -4  -6  188.38    5.30
  -4   4   6  194.98    5.90
  -4   4   6  162.38   12.30
   3  -4  -6   20.20    5.00
   3  -4  -6   13.70    1.30
   3  -4  -6   11.30    1.20
  -3   4   6    7.20    3.90
  -3   4   6   10.70    1.30
   2  -4  -6    5.60    0.80
   2  -4  -6    6.70    0.80
   2  -4  -6   13.70    4.30
  -2   4   6    8.20    3.90
  -2   4   6   10.80    1.00
  -2   4   6    6.90    1.00
   1  -4  -6    6.50    0.60
   1  -4  -6    5.40    0.80
   1  -4  -6    4.60    0.70
   1  -4  -6    5.50    0.60
   1  -4  -6    7.50    3.10
  -1   4   6    8.30    0.90
  -1   4   6    4.20    0.80
  -1   4   6   10.70    3.10
   0  -4  -6 1301.77   29.70
   0  -4  -6 1235.88   40.40
   0  -4  -6 1254.57   29.70
   0   4   6 1263.97   29.70
   0   4   6 1296.87   29.70
   0   4   6 1228.18   37.10
  -1  -4  -6  106.99    3.10
  -1  -4  -6  104.79    7.20
   1   4   6  101.59    3.00
   1   4   6  104.29    7.20
   1   4   6  105.09    3.20
  -2  -4  -6    0.40    0.60
  -2  -4  -6    0.60    0.60
  -2  -4  -6   -2.00    2.30
  -2  -4  -6   -0.10    0.40
   2   4   6    0.50    2.40
   2   4   6    1.10    0.70
   2   4   6   -0.10    0.40
   2   4   6    1.40    0.50
  -3  -4  -6    9.10    0.80
   3   4   6    6.10    3.00
   3   4   6    9.30    1.00
   3   4   6   11.70    1.00
   3   4   6    8.40    1.20
  -4  -4  -6   45.20    1.70
   4   4   6   40.20    1.60
   4   4   6   46.40    2.40
   4   4   6   38.70    5.40
   4   4   6   37.50    5.30
   4   4   6   41.20    1.80
   5   4   6   33.80    5.10
   5   4   6   35.80    2.00
   5   4   6   37.10    2.60
   4  -5  -6   16.00    1.70
   4  -5  -6   17.10    1.60
   4  -5  -6   20.10   10.00
  -4   5   6   17.80    2.00
   3  -5  -6   39.50    1.90
   3  -5  -6   44.80    7.40
   3  -5  -6   40.30    1.90
  -3   5   6   39.40    2.20
  -3   5   6   35.40    6.30
   2  -5  -6   77.39    8.50
   2  -5  -6   74.99    2.50
   2  -5  -6   78.79    2.50
   2  -5  -6   79.39    2.70
  -2   5   6   84.09    8.40
  -2   5   6   78.89    2.90
   1  -5  -6  620.74   15.50
   1  -5  -6  647.04   15.50
   1  -5  -6  667.63   23.30
   1  -5  -6  630.64   15.10
   1  -5  -6  653.03   15.10
  -1   5   6  602.74   15.40
  -1   5   6  655.23   23.00
  -1   5   6  643.44   15.50
   0  -5  -6   86.49    2.70
   0  -5  -6   89.39    7.30
   0  -5  -6   81.09    2.70
   0   5   6   83.79    2.70
   0   5   6   89.59    7.40
   0   5   6   81.79    2.60
   0   5   6   81.69    2.30
  -1  -5  -6  122.29    3.50
  -1  -5  -6  115.29    3.50
  -1  -5  -6  110.49    8.20
   1   5   6  118.59    3.50
   1   5   6  123.49    3.60
   1   5   6  121.19    8.20
  -2  -5  -6  865.71   20.30
  -2  -5  -6  834.42   19.90
   2   5   6  841.02   27.40
   2   5   6  847.12   19.90
   2   5   6  865.01   20.50
  -3  -5  -6  536.95   12.80
  -3  -5  -6  518.25   12.70
   3   5   6  530.15   13.30
   3   5   6  542.05   20.10
   3   5   6  530.25   13.00
   3   5   6  505.85   12.80
   4   5   6   45.40    2.00
   4   5   6   44.00    1.70
   4   5   6   45.50    2.60
   4   5   6   46.50    5.90
   4  -6  -6   51.89    2.50
   4  -6  -6   55.09    2.60
  -4   6   6   56.59    2.90
   3  -6  -6  191.98   13.60
   3  -6  -6  195.98    5.60
   3  -6  -6  200.98    5.70
  -3   6   6  204.68   13.30
  -3   6   6  206.38    6.00
   2  -6  -6  351.56   17.20
   2  -6  -6  329.17    8.70
   2  -6  -6  349.67    8.70
   2  -6  -6  350.66    9.00
  -2   6   6  345.67    9.00
  -2   6   6  357.26   17.10
   1  -6  -6  264.47    7.00
   1  -6  -6  284.67   14.40
   1  -6  -6  269.57    8.20
   1  -6  -6  260.07    6.70
  -1   6   6  265.37    7.00
  -1   6   6  259.77    6.70
  -1   6   6  266.17   14.00
   0  -6  -6  283.07    6.90
   0  -6  -6  272.17    7.30
   0  -6  -6  292.77    7.40
   0  -6  -6  292.07   14.20
   0   6   6  278.57    6.90
   0   6   6  287.37    7.40
   0   6   6  282.57   14.00
  -1  -6  -6   59.99    1.80
  -1  -6  -6   53.19    2.60
  -1  -6  -6   68.19    8.70
  -1  -6  -6   63.09    2.20
   1   6   6   59.19    1.80
   1   6   6   62.19    2.30
   1   6   6   64.19    7.20
   1   6   6   55.19    2.10
  -2  -6  -6   18.90    1.00
  -2  -6  -6   19.60    4.50
  -2  -6  -6   19.90    1.30
   2   6   6   19.00    1.60
   2   6   6   10.90    3.90
   2   6   6   20.20    1.10
   2   6   6   20.00    1.20
  -3  -6  -6   58.79    2.10
   3   6   6   59.89    2.10
   3   6   6   54.29    2.00
   3   6   6   58.19    2.60
   3   6   6   52.79    6.70
  -4  -6  -6    8.50    1.00
   4   6   6    7.90    1.30
   4   6   6    7.50    0.80
   4   6   6    6.50    0.90
   4   6   6    9.80    3.70
   4  -7  -6    3.20    1.10
   4  -7  -6    1.70    0.90
  -4   7   6    0.90    1.00
   3  -7  -6  257.97    7.20
   3  -7  -6  260.97    7.00
   3  -7  -6  260.77   16.20
  -3   7   6  253.27   15.50
  -3   7   6  252.17    7.40
   2  -7  -6   28.10    1.70
   2  -7  -6   31.40    6.60
   2  -7  -6   27.20    1.80
  -2   7   6   29.90    6.00
  -2   7   6   28.50    1.90
   1  -7  -6  314.27    8.10
  -1   7   6  307.17    7.70
  -1   7   6  310.17    8.10
  -1   7   6  272.87   21.60
   0  -7  -6  218.58    5.90
   0  -7  -6  224.88   13.20
   0  -7  -6  212.78    5.50
   0   7   6  212.98    5.50
   0   7   6  218.58    5.90
   0   7   6  212.58   12.80
  -1  -7  -6   75.49    2.60
  -1  -7  -6   71.89    8.00
  -1  -7  -6   67.49    2.20
   1   7   6   73.79    2.70
   1   7   6   70.19    2.20
   1   7   6   80.99    8.50
  -2  -7  -6   19.40    1.10
  -2  -7  -6   21.00    1.40
  -2  -7  -6   18.60    4.50
   2   7   6   14.30    4.70
   2   7   6   19.70    1.60
  -3  -7  -6    3.30    0.70
  -3  -7  -6    2.50    0.60
   3   7   6    2.20    1.00
   3   7   6    2.50    3.40
   3   7   6    2.70    0.70
   3   7   6    2.50    0.80
  -4  -7  -6   32.70    1.40
   4   7   6   22.30    5.70
   4   7   6   29.10    1.70
   4   7   6   23.10    1.50
   4   7   6   26.60    2.20
   3  -8  -6  126.29    4.10
   3  -8  -6  120.89    4.20
  -3   8   6  122.09    4.30
   2  -8  -6   72.99    2.90
   2  -8  -6   85.39   10.20
  -2   8   6   65.59    8.20
  -2   8   6   69.79    2.90
   1  -8  -6   77.39    2.90
   1  -8  -6   65.09    9.10
   1  -8  -6   70.89    2.50
  -1   8   6   78.09    2.60
  -1   8   6   75.09    2.90
  -1   8   6   73.59    8.30
   0  -8  -6   10.50    4.80
   0  -8  -6   10.40    1.10
   0   8   6   10.90    1.10
   0   8   6   12.70    1.30
   0   8   6    9.90    4.10
  -1  -8  -6  183.68   12.60
  -1  -8  -6  186.58    5.30
  -1  -8  -6  174.98    4.80
   1   8   6  183.68    5.30
   1   8   6  181.58   12.60
   1   8   6  184.28    4.90
  -2  -8  -6    9.40    0.90
  -2  -8  -6    5.50    4.30
  -2  -8  -6    7.90    1.00
   2   8   6    7.40    0.90
   2   8   6    8.60    1.20
   2   8   6    7.00    4.20
  -3  -8  -6    6.00    0.90
   3   8   6    2.80    1.00
   3   8   6    4.80    0.80
   3   8   6    7.60    4.50
   3  -9  -6   17.80    1.80
   3  -9  -6   16.40    1.90
  -3   9   6   16.70    2.00
   2  -9  -6   37.50    2.20
   2  -9  -6   46.70    8.10
  -2   9   6   38.70    2.00
  -2   9   6   37.30    3.00
  -2   9   6   35.40    7.50
   1  -9  -6    4.30    4.70
   1  -9  -6    6.90    1.10
  -1   9   6    6.90    4.50
  -1   9   6    7.90    0.90
  -1   9   6    8.60    1.20
   0  -9  -6   42.20    2.50
   0  -9  -6   41.30    7.80
   0   9   6   29.40    6.60
   0   9   6   41.40    1.80
   0   9   6   41.00    2.10
  -1  -9  -6  106.99    3.60
  -1  -9  -6   95.99   10.90
  -1  -9  -6  103.39    3.20
   1   9   6  109.89    3.30
   1   9   6   93.59   10.20
   1   9   6  108.19    3.70
  -2  -9  -6   57.19    8.30
  -2  -9  -6   47.70    2.20
   2   9   6   49.00    2.70
   2   9   6   43.50    7.70
   2   9   6   49.90    2.00
  -3  -9  -6   11.10    1.10
   3   9   6   10.80    1.50
   3   9   6   14.10    6.90
   3   9   6   11.30    1.20
   2 -10  -6    7.00    1.20
  -2  10   6    5.60    1.00
  -2  10   6    6.90    1.20
   1 -10  -6   35.20    8.10
   1 -10  -6   37.20    2.20
  -1  10   6   32.30    1.80
  -1  10   6   33.30    2.10
  -1  10   6   30.80    6.90
   0 -10  -6   -2.00    4.40
   0 -10  -6    4.00    1.00
   0  10   6    1.40    3.90
   0  10   6    5.30    0.90
   0  10   6    4.60    1.00
  -1 -10  -6    0.60    0.80
  -1 -10  -6    0.50    5.60
   1  10   6   -0.10    1.00
   1  10   6    0.00    0.70
   1  10   6    4.40    4.80
  -2 -10  -6    8.70    6.00
  -2 -10  -6   17.70    1.60
   2  10   6   18.10    1.50
   2  10   6   16.50    1.80
   2  10   6    8.20    6.30
   0 -11  -6   56.29    9.30
   0 -11  -6   55.59    2.70
   0  11   6   48.50    3.50
   0  11   6   51.99    8.90
   0  11   6   59.39    2.60
  -1 -11  -6    0.80    5.90
  -1 -11  -6    2.30    0.90
   1  11   6    2.80    1.00
   1  11   6   -0.10    5.10
   1  11   6    2.70    0.80
   1   9  -7    9.20    5.70
   1   9  -7    2.70    1.10
  -1  -9   7    2.10    0.90
   0   9  -7   47.20    2.50
   0   9  -7   51.09    8.10
   0  -9   7   47.00    2.40
  -1   9  -7   18.30    5.20
  -1   9  -7   16.50    1.70
   1  -9   7   15.60    1.70
  -2   9  -7   12.10    4.80
  -2   9  -7   19.40    1.80
   2  -9   7   20.90    1.90
   2   8  -7    5.00    7.90
   2   8  -7    0.50    0.90
   2   8  -7   -0.50    5.50
  -2  -8   7   -0.40    0.70
   1   8  -7    4.40    4.10
   1   8  -7   -3.10    3.50
   1   8  -7    1.10    1.00
  -1  -8   7   -1.00    0.70
   0   8  -7   80.19    8.70
   0   8  -7   82.29    3.20
   0   8  -7   83.39    9.00
   0  -8   7   80.69    3.10
  -1   8  -7  170.88   11.40
  -1   8  -7  174.98    5.20
   1  -8   7  174.08    5.30
  -2   8  -7   54.49    7.00
  -2   8  -7   69.49    2.90
   2  -8   7   68.69    2.90
   3   7  -7    9.30    5.70
   3   7  -7   10.80    6.50
   3   7  -7    4.80    1.10
  -3  -7   7    4.40    0.70
  -3  -7   7    7.70    1.00
  -3  -7   7    5.90    0.80
   2   7  -7   20.30    1.70
   2   7  -7   20.80    6.30
   2   7  -7   19.70    6.20
  -2  -7   7   17.00    1.40
  -2  -7   7   19.10    1.10
   1   7  -7   40.10    7.20
   1   7  -7   39.50    2.50
   1   7  -7   47.20    7.60
  -1  -7   7   42.40    2.00
   0   7  -7  440.06   11.10
   0   7  -7  447.36   19.30
   0  -7   7  427.26   11.10
  -1   7  -7   25.80    1.70
  -1   7  -7   24.30    4.70
  -1   7  -7   17.90    4.30
  -2   7  -7   35.40    5.10
  -2   7  -7   36.60    4.90
  -2   7  -7   40.20    2.10
   2  -7   7   39.90    2.20
  -3   7  -7    3.60    1.00
  -3   7  -7    3.20    1.80
   3  -7   7    3.60    1.10
   3   6  -7   16.00    1.80
   3   6  -7   12.00    6.20
  -3  -6   7   10.40    5.70
  -3  -6   7   17.10    1.50
  -3  -6   7   13.70    1.00
  -3  -6   7   15.70    1.20
   2   6  -7   66.19    2.20
   2   6  -7   68.89    3.10
   2   6  -7   72.19    9.30
  -2  -6   7   69.89    2.40
  -2  -6   7   64.39    2.30
  -2  -6   7   54.99    8.40
  -2  -6   7   65.89    2.20
   1   6  -7  219.18    6.10
   1   6  -7  213.88   13.00
  -1  -6   7  216.98    5.90
   0   6  -7  241.68   12.90
   0   6  -7  242.28    6.50
   0  -6   7  243.98    6.60
  -1   6  -7  764.42   25.00
  -1   6  -7  774.32   18.50
  -1   6  -7  734.63   24.70
   1  -6   7  776.42   18.60
  -2   6  -7  270.17   11.20
  -2   6  -7  232.68   14.10
  -2   6  -7  284.77    7.30
   2  -6   7  293.57    8.70
  -3   6  -7   18.90    1.60
   3  -6   7   19.70    1.70
   4  -6   7   96.79    3.70
   4  -6   7   95.99    3.20
   4   5  -7   43.20    2.50
   4   5  -7   49.50    9.40
  -4  -5   7   34.30    7.90
  -4  -5   7   43.10    2.40
   3   5  -7   39.70    8.10
   3   5  -7   35.60    2.10
  -3  -5   7   36.10    1.40
  -3  -5   7   40.00    1.60
  -3  -5   7   37.60    2.00
  -3  -5   7   37.50    7.40
   2   5  -7  171.88   12.10
   2   5  -7  150.58    4.60
   2   5  -7  146.79    4.20
  -2  -5   7  148.09    4.20
  -2  -5   7  147.99   11.90
  -2  -5   7  157.08    4.20
   1   5  -7   30.50    1.60
   1   5  -7   28.80    1.10
   1   5  -7   25.80    7.70
  -1  -5   7   27.90    1.40
  -1  -5   7   28.40    8.90
  -1  -5   7   26.20    1.50
  -1  -5   7   28.40    1.20
   0   5  -7   64.99    2.30
   0  -5   7   59.59    2.50
   0  -5   7   61.99    2.30
  -1   5  -7  178.38    9.40
  -1   5  -7  179.88    5.00
  -1   5  -7  173.68    9.30
   1  -5   7  184.38    5.10
  -2   5  -7   70.59    4.90
  -2   5  -7   78.89    2.70
  -2   5  -7   74.09    5.20
   2  -5   7   72.19    2.80
  -3   5  -7    2.00    0.80
   3  -5   7    1.20    1.30
   3  -5   7    2.30    0.60
   3  -5   7    1.70    0.60
   4  -5   7    2.30    1.10
   4  -5   7    1.60    0.80
   4  -5   7    3.80    1.10
   4   4  -7    2.60    1.00
  -4  -4   7    3.00    1.10
   3   4  -7    3.70    0.90
   3   4  -7    0.90    4.30
  -3  -4   7    1.10    0.80
  -3  -4   7    3.30    0.60
  -3  -4   7    3.20    0.50
  -3  -4   7    4.60    4.40
   2   4  -7   65.69    7.90
   2   4  -7   71.89    2.60
   2   4  -7   71.19    2.40
  -2  -4   7   71.69    2.30
  -2  -4   7   70.99    2.40
  -2  -4   7   70.99    8.50
   1   4  -7 1062.69   24.60
   1   4  -7 1006.60   24.20
   1   4  -7 1075.69   24.50
   1   4  -7 1014.80   36.50
  -1  -4   7 1015.50   24.50
  -1  -4   7 1020.70   24.50
  -1  -4   7 1023.80   36.20
  -1  -4   7 1064.59   24.30
   0   4  -7  848.52   19.70
   0   4  -7  852.21   19.80
   0  -4   7  812.02   19.70
   0  -4   7  795.92   20.40
   0  -4   7  831.02   26.50
  -1   4  -7  434.16   10.60
  -1   4  -7  428.66   15.30
   1  -4   7  423.66   10.80
   1  -4   7  437.06   10.80
  -2   4  -7  391.26   12.30
  -2   4  -7  399.86    9.80
  -2   4  -7  379.96   12.30
   2  -4   7  391.66    9.50
   2  -4   7  397.56    9.50
   2  -4   7  395.36    9.80
   2  -4   7  399.46   10.00
  -3   4  -7   92.69    3.10
   3  -4   7   95.99    3.30
   3  -4   7   97.79    3.00
   4  -4   7  184.08    5.20
   4  -4   7  170.68    5.10
   4  -4   7  176.58    5.30
   4   3  -7   28.60    7.20
   4   3  -7   39.50    2.30
  -4  -3   7   37.10    2.30
  -4  -3   7   41.10    7.60
   3   3  -7  227.28    5.80
   3   3  -7  237.38   15.00
   3   3  -7  235.78    6.40
  -3  -3   7  235.08   14.50
  -3  -3   7  221.18    5.80
  -3  -3   7  236.58    6.40
   2   3  -7    3.80    0.70
   2   3  -7    2.90    0.80
   2   3  -7    6.60    3.90
   2   3  -7    3.70    0.70
  -2  -3   7    0.60    3.30
  -2  -3   7    3.70    0.60
  -2  -3   7    4.00    0.70
   1   3  -7    9.30    0.90
   1   3  -7    8.30    0.90
   1   3  -7    8.80    0.80
   1   3  -7    6.70    3.00
  -1  -3   7    9.50    0.80
  -1  -3   7    6.20    2.90
  -1  -3   7    9.90    0.90
  -1  -3   7    9.40    0.90
   0   3  -7  277.47    6.80
   0   3  -7  274.67    6.70
   0   3  -7  268.77    6.90
   0  -3   7  269.27    6.60
   0  -3   7  258.67    6.90
   0  -3   7  263.37   11.80
   0  -3   7  268.37    6.70
  -1   3  -7  345.77    8.40
  -1   3  -7  347.67    8.70
  -1   3  -7  328.37   12.30
   1  -3   7  340.17    8.30
   1  -3   7  350.76    8.40
   1  -3   7  337.57    8.60
   1  -3   7  347.47   12.60
  -2   3  -7   19.30    2.30
  -2   3  -7   16.80    2.10
  -2   3  -7   18.50    1.20
   2  -3   7   18.40    1.40
   2  -3   7   17.70    1.10
   2  -3   7   18.10    1.10
  -3   3  -7  250.27    6.50
   3  -3   7  249.08    6.60
   3  -3   7  236.08    6.40
   3  -3   7  250.87    6.50
   4  -3   7   27.50    1.80
   4  -3   7   28.80    1.80
   4  -3   7   28.20    1.80
   4   2  -7   27.00    2.00
   4   2  -7   31.90    7.50
  -4  -2   7   24.30    2.10
  -4  -2   7   23.90    6.40
   3   2  -7    3.10    0.90
   3   2  -7    3.50    0.60
   3   2  -7    3.60    4.20
  -3  -2   7    0.20    3.60
  -3  -2   7    4.10    1.00
  -3  -2   7    4.20    0.60
   2   2  -7    8.20    0.90
   2   2  -7    9.30    1.00
   2   2  -7   15.40    4.30
  -2  -2   7   10.60    1.00
  -2  -2   7    9.80    0.80
  -2  -2   7    8.70    1.00
  -2  -2   7    5.60    3.80
   1   2  -7  180.38    4.70
   1   2  -7  179.78    4.70
   1   2  -7  166.48    5.60
   1   2  -7  191.48   10.70
  -1  -2   7  180.38    4.70
  -1  -2   7  178.58   10.10
  -1  -2   7  182.08    4.70
  -1  -2   7  179.08    4.70
   0   2  -7 3129.69   72.59
   0   2  -7 3075.39   72.39
   0   2  -7 3179.58   72.39
   0  -2   7 3171.58   72.39
   0  -2   7 3136.69   72.59
   0  -2   7 3119.39   78.69
  -1   2  -7  595.84   14.00
  -1   2  -7  585.04   14.30
  -1   2  -7  588.54   14.00
  -1   2  -7  595.24   18.00
   1  -2   7  582.54   14.30
   1  -2   7  595.34   14.00
   1  -2   7  594.44   18.10
  -2   2  -7 1346.77   31.10
  -2   2  -7 1326.37   32.60
  -2   2  -7 1320.27   31.30
   2  -2   7 1315.87   31.30
   2  -2   7 1336.97   31.10
   2  -2   7 1327.77   31.10
   2  -2   7 1338.47   31.10
   3  -2   7  115.59    3.40
   3  -2   7  110.59    3.50
   3  -2   7  114.29    3.50
   3  -2   7  121.19    3.40
   3  -2   7  118.39    3.50
   4  -2   7    1.70    0.80
   4  -2   7    2.40    0.80
   4  -2   7    3.10    0.80
   5  -2   7  153.98    4.90
   5  -2   7  136.89    4.80
   5  -2   7  143.79    4.60
   4   1  -7  180.88    5.50
   4   1  -7  210.08   14.40
  -4  -1   7  177.68    5.60
  -4  -1   7  179.78   13.30
   3   1  -7   93.29    2.80
   3   1  -7   96.09    3.20
   3   1  -7  115.19   10.10
  -3  -1   7   93.89    3.30
  -3  -1   7   93.39    2.70
  -3  -1   7  101.49    9.40
   2   1  -7   98.19    8.40
   2   1  -7   95.79    2.80
   2   1  -7   92.29    3.00
   2   1  -7  103.19    3.00
  -2  -1   7   99.79    3.10
  -2  -1   7  103.89    8.50
  -2  -1   7   93.19    2.80
   1   1  -7   17.00    6.00
   1   1  -7   19.90    1.10
   1   1  -7   18.60    1.00
   1   1  -7   17.70    1.10
  -1  -1   7   24.40    5.30
  -1  -1   7   23.00    1.00
  -1  -1   7   21.80    1.00
  -1  -1   7   22.70    1.20
   0   1  -7 2899.91   66.89
   0   1  -7 2791.02   67.49
   0  -1   7 2918.11   66.79
   0  -1   7 2969.80   72.99
   0  -1   7 2898.41   66.99
  -1   1  -7 1487.85   34.40
  -1   1  -7 1482.05   34.70
  -1   1  -7 1435.36   34.50
   1  -1   7 1452.35   34.70
   1  -1   7 1492.05   34.60
   1  -1   7 1465.75   34.40
   1  -1   7 1578.24   44.60
  -2   1  -7  253.37    6.20
  -2   1  -7  253.97    7.90
  -2   1  -7  248.08    6.50
   2  -1   7  250.77    7.90
   2  -1   7  251.17    6.40
   2  -1   7  244.98    6.40
   2  -1   7  251.97    6.70
   2  -1   7  244.68    6.20
  -3   1  -7  224.28    5.90
   3  -1   7  225.48    6.00
   3  -1   7  219.58    5.70
   3  -1   7  216.48    6.90
   3  -1   7  219.58    5.80
   3  -1   7  215.98    6.40
   4  -1   7   84.09    2.90
   4  -1   7   81.69    3.10
   4  -1   7   87.19    2.80
   5  -1   7    4.20    1.10
   5  -1   7    4.00    0.90
   5  -1   7    6.00    1.00
   4   0  -7    2.90    1.00
   4   0  -7   -3.60    4.20
  -4   0   7   -3.00    4.00
  -4   0   7    1.60    0.50
  -4   0   7    3.10    1.10
   3   0  -7  372.16   17.80
   3   0  -7  344.17    8.70
   3   0  -7  360.56    9.00
  -3   0   7  337.97    8.60
  -3   0   7  357.96    9.20
  -3   0   7  356.56   17.50
   2   0  -7  199.68    5.40
   2   0  -7  198.78    5.20
   2   0  -7  197.98    5.20
   2   0  -7  200.18   11.60
  -2   0   7  203.08    5.50
  -2   0   7  197.68    5.10
  -2   0   7  198.48   11.30
  -2   0   7  197.28    5.20
   1   0  -7  123.89    8.40
   1   0  -7  135.29    3.60
   1   0  -7  129.29    3.40
   1   0  -7  127.79    3.60
  -1   0   7  132.19    3.70
  -1   0   7  132.59    3.40
  -1   0   7  146.89    9.10
  -1   0   7  128.89    3.60
   0   0  -7 4453.95  110.19
   0   0   7 4598.84  110.39
  -1   0  -7  564.84   13.40
  -1   0  -7  546.35   17.00
  -1   0  -7  545.35   13.30
   1   0   7  554.14   13.40
   1   0   7  555.24   13.30
   1   0   7  563.84   17.20
  -2   0  -7   40.20    1.60
  -2   0  -7   41.30    3.00
   2   0   7   37.60    1.60
   2   0   7   38.70    1.30
   2   0   7   37.00    1.60
   2   0   7   33.70    2.90
   2   0   7   39.00    1.30
   2   0   7   36.20    1.70
  -3   0  -7  966.10   22.50
   3   0   7  988.80   22.70
   3   0   7  942.81   22.40
   3   0   7  882.31   23.10
   3   0   7  942.51   22.20
   4   0   7   16.40    1.50
   4   0   7   16.70    1.20
   4   0   7   18.00    1.30
   5   0   7   30.90    1.70
   5   0   7   31.50    2.30
   5   0   7   31.50    1.80
   4  -1  -7  207.98    7.00
   4  -1  -7  204.38   16.60
   4  -1  -7  196.08    5.30
  -4   1   7  209.58    6.10
  -4   1   7  204.88   14.60
  -4   1   7  191.18    5.20
   3  -1  -7  228.28    5.90
   3  -1  -7  239.18   14.30
   3  -1  -7  229.08    6.10
  -3   1   7  221.18    5.90
  -3   1   7  227.58    6.40
  -3   1   7  235.78   13.70
   2  -1  -7    1.20    3.10
   2  -1  -7    1.40    0.70
   2  -1  -7    3.30    0.70
  -2   1   7    2.80    0.80
  -2   1   7    1.70    0.50
  -2   1   7    3.80    3.20
   1  -1  -7  315.37    8.00
   1  -1  -7  316.87    7.70
   1  -1  -7  321.37    8.60
   1  -1  -7  319.07   13.70
  -1   1   7  320.27    7.60
  -1   1   7  317.47    8.00
  -1   1   7  316.37    7.90
  -1   1   7  308.27   13.40
   0  -1  -7   35.60    1.40
   0  -1  -7   34.50    4.50
   0   1   7   34.70    4.50
   0   1   7   35.40    1.40
   0   1   7   37.20    1.50
  -1  -1  -7 1059.99   25.30
  -1  -1  -7 1072.89   25.30
  -1  -1  -7 1100.79   29.70
   1   1   7 1073.49   25.20
   1   1   7 1072.09   29.70
   1   1   7 1061.29   25.40
  -2  -1  -7 1088.69   25.60
  -2  -1  -7 1088.99   28.90
   2   1   7 1095.89   28.90
   2   1   7 1064.79   25.70
   2   1   7 1089.89   25.70
   2   1   7 1081.49   25.20
   2   1   7 1096.99   25.90
  -3  -1  -7  162.18    4.40
   3   1   7  157.78    4.40
   3   1   7  162.98    4.20
   3   1   7  159.28    4.70
   3   1   7  157.18    6.10
   3   1   7  155.58    4.20
   3   1   7  161.78    6.20
  -4  -1  -7    4.80    0.70
   4   1   7    2.40    0.70
   4   1   7    3.70    1.50
   4   1   7    4.00    0.60
   5   1   7   11.10    1.50
   5   1   7    9.00    1.00
   4  -2  -7    0.30    1.30
   4  -2  -7    1.70    0.70
   4  -2  -7   -0.50    4.80
  -4   2   7    0.50    1.00
  -4   2   7    1.30    0.60
  -4   2   7   -0.50    6.40
   3  -2  -7  655.53   16.10
   3  -2  -7  674.63   16.20
   3  -2  -7  703.03   26.00
  -3   2   7  680.93   16.60
  -3   2   7  686.33   25.80
  -3   2   7  631.34   16.00
   2  -2  -7 1957.10   53.19
   2  -2  -7 1716.33   44.70
   2  -2  -7 1918.41   44.10
   2  -2  -7 1884.81   44.10
  -2   2   7 1903.61   44.30
  -2   2   7 1935.01   44.40
  -2   2   7 1934.91   52.99
   1  -2  -7  746.53   17.40
   1  -2  -7  738.93   17.40
   1  -2  -7  759.82   24.70
   1  -2  -7  758.22   17.80
   1  -2  -7  701.93   18.10
  -1   2   7  772.62   24.70
  -1   2   7  728.83   17.70
  -1   2   7  754.82   17.80
   0  -2  -7  590.04   19.70
   0  -2  -7  595.24   14.20
   0  -2  -7  578.14   14.20
   0   2   7  588.94   14.10
   0   2   7  607.44   19.80
   0   2   7  578.44   14.60
  -1  -2  -7   27.10    1.30
  -1  -2  -7   27.40    3.80
  -1  -2  -7   25.40    1.30
   1   2   7   25.00    3.60
   1   2   7   25.70    1.20
   1   2   7   28.30    1.40
  -2  -2  -7  120.99    3.50
  -2  -2  -7  126.79    6.80
  -2  -2  -7  117.89    3.60
   2   2   7  121.49    6.70
   2   2   7  115.49    3.40
   2   2   7  121.09    3.60
  -3  -2  -7  113.29    3.30
   3   2   7  114.19    3.10
   3   2   7  112.99    3.10
   3   2   7  105.59    6.00
   3   2   7  111.39    3.30
   3   2   7  114.69    3.70
  -4  -2  -7  141.29    4.00
   4   2   7  142.19    4.00
   4   2   7  138.29    3.90
   4   2   7  139.09    6.30
   4   2   7  135.99    4.00
   4   2   7  142.69    4.60
   4   2   7  146.99    7.40
   5   2   7   63.69    2.90
   5   2   7   61.09    2.30
   5   2   7   64.79    3.20
   4  -3  -7    3.40    1.00
   4  -3  -7    2.40    0.80
   4  -3  -7    5.70    4.70
  -4   3   7    4.00    1.10
  -4   3   7    7.80    4.50
   3  -3  -7  158.98    4.40
   3  -3  -7  152.28   11.40
   3  -3  -7  152.38    4.30
  -3   3   7  155.58   11.50
  -3   3   7  151.88    4.70
  -3   3   7  141.89    4.30
   2  -3  -7   24.60    1.20
   2  -3  -7   36.30    6.10
   2  -3  -7   25.20    1.40
  -2   3   7   26.40    1.70
  -2   3   7   23.90    1.30
  -2   3   7   25.00    5.30
   1  -3  -7  151.48    9.50
   1  -3  -7  157.58    4.30
   1  -3  -7  155.58    3.90
   1  -3  -7  157.48    3.90
   1  -3  -7  153.68    4.30
  -1   3   7  158.68    4.40
  -1   3   7  154.68    9.50
  -1   3   7  146.49    4.20
   0  -3  -7  249.48   11.50
   0  -3  -7  243.78    6.50
   0  -3  -7  247.98    6.40
   0   3   7  245.48   11.50
   0   3   7  246.68    6.60
   0   3   7  251.77    6.40
  -1  -3  -7    7.40    0.80
  -1  -3  -7    5.90    0.70
   1   3   7    7.00    0.80
   1   3   7    6.70    0.80
   1   3   7    8.30    2.60
  -2  -3  -7 1617.04   36.90
  -2  -3  -7 1486.45   37.60
  -2  -3  -7 1599.94   42.70
   2   3   7 1597.34   42.60
   2   3   7 1596.94   37.20
  -3  -3  -7  423.66   10.20
  -3  -3  -7  411.46   14.80
   3   3   7  424.86   10.70
   3   3   7  404.36   10.20
   3   3   7  417.86   10.00
   3   3   7  414.36   10.00
   3   3   7  406.96   14.80
  -4  -3  -7   30.70    1.50
   4   3   7   28.60    1.40
   4   3   7   29.30    1.50
   4   3   7   32.90    2.20
   4   3   7   25.70    4.00
   4   3   7   30.00    1.50
   5   3   7    0.60    1.10
   5   3   7    1.70    0.70
   5   3   7    0.90    0.80
   5   3   7   -2.40    2.10
   4  -4  -7    0.40    0.90
   4  -4  -7    1.10    0.80
   4  -4  -7    1.00    4.40
  -4   4   7    1.30    1.00
  -4   4   7   -4.90    3.80
   3  -4  -7  158.78    4.50
   3  -4  -7  153.58    4.40
   3  -4  -7  150.28   11.70
  -3   4   7  144.69   11.20
  -3   4   7  151.48    4.80
   2  -4  -7 1765.72   40.60
   2  -4  -7 1705.23   40.80
   2  -4  -7 1793.72   50.89
   2  -4  -7 1651.63   40.60
  -2   4   7 1823.42   50.89
  -2   4   7 1733.03   41.00
   1  -4  -7   32.90    1.20
   1  -4  -7   36.40    5.50
   1  -4  -7   32.50    1.50
   1  -4  -7   32.90    1.50
   1  -4  -7   33.20    1.20
  -1   4   7   33.30    1.70
  -1   4   7   33.40    1.50
  -1   4   7   35.90    5.50
   0  -4  -7    0.40    0.50
   0  -4  -7    2.50    3.10
   0  -4  -7    1.00    0.50
   0   4   7   -0.30    0.60
   0   4   7   -0.40    2.30
   0   4   7    0.40    0.40
  -1  -4  -7    1.70    0.60
  -1  -4  -7    3.10    2.50
  -1  -4  -7    2.40    0.60
   1   4   7    5.10    2.60
   1   4   7    2.30    0.60
   1   4   7    1.70    0.70
  -2  -4  -7 1381.36   39.00
  -2  -4  -7 1400.56   32.30
   2   4   7 1381.76   39.00
   2   4   7 1391.36   32.50
   2   4   7 1313.87   32.20
  -3  -4  -7   23.00    1.30
  -3  -4  -7   24.40    4.20
   3   4   7   17.30    3.50
   3   4   7   23.10    1.10
   3   4   7   22.80    1.70
   3   4   7   25.10    1.30
  -4  -4  -7   56.89    2.10
   4   4   7   56.09    2.80
   4   4   7   58.39    2.10
   4   4   7   52.79    2.00
   4   4   7   63.29    6.30
   4   4   7   55.29    2.10
   4  -5  -7   10.20    1.20
   4  -5  -7   12.20    1.40
  -4   5   7   11.80    1.50
   3  -5  -7    9.50    1.10
   3  -5  -7   11.90    4.80
   3  -5  -7    8.50    1.00
  -3   5   7    9.40    4.30
  -3   5   7    8.90    1.80
   2  -5  -7  234.58    5.90
   2  -5  -7  217.18    5.90
   2  -5  -7  213.68   13.30
   2  -5  -7  228.48    6.20
  -2   5   7  225.68    6.30
  -2   5   7  233.08   13.60
   1  -5  -7  112.59    9.10
   1  -5  -7  115.89    3.10
   1  -5  -7  110.69    3.50
   1  -5  -7  113.59    3.10
  -1   5   7  121.09    9.20
  -1   5   7  114.39    3.60
   0  -5  -7  214.88   11.50
   0  -5  -7  208.78    5.80
   0  -5  -7  226.88    5.80
   0   5   7  219.18    5.80
   0   5   7  201.38   11.40
   0   5   7  208.28    6.00
  -1  -5  -7  190.98    5.10
  -1  -5  -7  186.98   10.60
   1   5   7  178.48   10.80
   1   5   7  184.18    5.10
   1   5   7  190.48    5.20
  -2  -5  -7  870.21   28.20
  -2  -5  -7  895.41   20.90
   2   5   7  850.01   20.80
   2   5   7  899.71   21.20
   2   5   7  860.41   28.30
  -3  -5  -7  155.18    4.10
  -3  -5  -7  159.68    4.30
   3   5   7  144.59   14.80
   3   5   7  154.28    4.80
   3   5   7  151.28    4.30
   3   5   7  153.48    4.10
  -4  -5  -7  116.69    3.40
   4   5   7  115.09    3.50
   4   5   7  113.19    4.20
   4   5   7  118.99    9.90
   4   5   7  111.79    3.30
   4  -6  -7   13.30    1.40
   4  -6  -7   17.20    1.80
  -4   6   7   13.70    1.60
   3  -6  -7   65.99    2.70
   3  -6  -7   68.89    2.70
   3  -6  -7   69.89    9.10
  -3   6   7   63.49    8.60
  -3   6   7   70.29    3.00
   2  -6  -7  370.76    9.00
   2  -6  -7  340.77    9.00
   2  -6  -7  372.16   18.10
   2  -6  -7  355.76    9.30
  -2   6   7  352.66    9.40
  -2   6   7  376.66   18.00
   1  -6  -7  168.08    4.50
   1  -6  -7  183.48   11.80
   1  -6  -7  174.08    4.50
   1  -6  -7  169.38    5.00
  -1   6   7  168.08    5.00
  -1   6   7  191.78   11.70
   0  -6  -7   12.00    0.70
   0  -6  -7   11.00    1.20
   0  -6  -7   10.60    4.10
   0   6   7   11.80    1.30
   0   6   7    9.60    0.80
   0   6   7   15.90    4.30
  -1  -6  -7   57.89    8.10
  -1  -6  -7   66.89    2.50
   1   6   7   69.89    2.60
   1   6   7   76.19   12.80
  -2  -6  -7   57.09    1.80
  -2  -6  -7   76.49    7.10
  -2  -6  -7   58.69    2.30
   2   6   7   53.39    7.00
   2   6   7   61.09    1.90
   2   6   7   58.39    2.50
  -3  -6  -7    3.70    3.20
  -3  -6  -7    3.50    0.60
  -3  -6  -7    3.60    0.70
   3   6   7    5.60    0.70
   3   6   7    8.80    3.50
   3   6   7    2.20    0.90
  -4  -6  -7    7.30    0.80
   4   6   7    5.90    0.80
   4   6   7    8.30    4.00
   4   6   7    5.90    0.90
   4   6   7    7.70    1.40
   3  -7  -7   80.99    3.20
   3  -7  -7   76.79    3.00
   3  -7  -7   94.19   11.40
  -3   7   7   77.09    3.30
  -3   7   7   76.79   10.10
   2  -7  -7   12.90    1.30
   2  -7  -7   11.00    4.80
   2  -7  -7   12.70    1.50
  -2   7   7   17.60    5.30
  -2   7   7   12.40    1.40
   1  -7  -7   78.39   14.40
   1  -7  -7   99.19    3.30
   1  -7  -7   95.69    2.90
  -1   7   7   96.09    3.40
  -1   7   7  112.39   15.20
  -1   7   7   96.79    2.90
   0  -7  -7    6.40    4.00
   0  -7  -7    4.80    0.60
   0  -7  -7    5.40    0.90
   0   7   7    5.40    1.00
   0   7   7    5.60    0.60
   0   7   7   10.10    4.20
  -1  -7  -7  419.46   10.30
  -1  -7  -7  454.75   19.60
  -1  -7  -7  432.76   10.90
   1   7   7  425.86   10.40
   1   7   7  430.76   19.30
   1   7   7  436.96   11.00
  -2  -7  -7  201.58    5.50
  -2  -7  -7  190.98   12.10
  -2  -7  -7  189.28    5.00
   2   7   7  190.88   12.50
   2   7   7  201.98    5.80
   2   7   7  192.28    5.00
  -3  -7  -7   83.69    2.70
  -3  -7  -7   75.69    8.40
  -3  -7  -7   86.49    2.90
   3   7   7   87.29    3.40
   3   7   7   85.39    8.60
   3   7   7   85.99    2.70
  -4  -7  -7    2.10    0.60
   4   7   7    4.70    4.20
   4   7   7    3.20    0.80
   4   7   7    2.90    1.10
   3  -8  -7  186.68    5.80
   3  -8  -7  188.58    5.60
  -3   8   7  192.58    5.90
   2  -8  -7   -2.70    3.80
   2  -8  -7    2.40    0.90
   2  -8  -7    2.00    0.80
  -2   8   7    3.10    3.90
   1  -8  -7  249.78    6.70
   1  -8  -7  268.77    7.50
   1  -8  -7  277.17   16.00
  -1   8   7  260.97    7.20
  -1   8   7  258.97    6.70
  -1   8   7  257.37   15.50
   0  -8  -7  201.18   13.70
   0  -8  -7  186.28    5.40
   0  -8  -7  178.08    4.90
   0   8   7  191.28    5.50
   0   8   7  182.28    4.90
   0   8   7  190.88   13.30
  -1  -8  -7  174.88    4.60
  -1  -8  -7  178.28    5.20
  -1  -8  -7  191.08   13.10
   1   8   7  179.88   12.60
   1   8   7  162.68    4.90
   1   8   7  181.48    5.30
  -2  -8  -7    4.10    0.80
  -2  -8  -7    3.10    3.80
  -2  -8  -7    4.50    0.60
   2   8   7    2.50    1.20
   2   8   7    2.90    0.60
   2   8   7    5.90    4.10
  -3  -8  -7    1.60    0.70
  -3  -8  -7    2.70    0.90
  -3  -8  -7    3.90    4.20
   3   8   7    2.40    1.10
   3   8   7    5.00    4.40
   3   8   7    2.50    0.70
   2  -9  -7   10.20    1.20
   2  -9  -7    3.60    5.20
   2  -9  -7    5.80    1.10
  -2   9   7    8.10    4.80
  -2   9   7    7.90    1.30
   1  -9  -7    0.80    0.80
   1  -9  -7    1.60    4.50
  -1   9   7   -1.00    0.90
  -1   9   7    0.80    0.60
  -1   9   7    5.10    4.50
   0  -9  -7   67.99    2.80
   0  -9  -7   74.39   10.30
   0  -9  -7   63.29    2.30
   0   9   7   68.69    2.80
   0   9   7   58.19    8.80
   0   9   7   66.29    2.30
  -1  -9  -7   28.00    1.90
  -1  -9  -7   26.50    1.30
  -1  -9  -7   28.30    6.30
   1   9   7   24.90    2.70
   1   9   7   27.90    1.50
   1   9   7   24.00    6.50
  -2  -9  -7   49.80    1.90
  -2  -9  -7   46.00    8.50
  -2  -9  -7   50.09    2.60
   2   9   7   54.89    2.60
   2   9   7   53.19    2.00
   2   9   7   48.40    8.10
  -3  -9  -7   49.60    2.20
   3   9   7   50.79    2.80
   3   9   7   47.70    2.10
   3   9   7   44.00    8.30
   1 -10  -7   23.60    1.90
   1 -10  -7   18.50    6.60
  -1  10   7   21.90    1.50
  -1  10   7   26.90    6.90
  -1  10   7   21.90    2.00
   0 -10  -7   64.19   10.20
   0 -10  -7   60.49    2.80
   0  10   7   60.39    2.80
   0  10   7   64.29    2.40
   0  10   7   61.69    9.40
  -1 -10  -7   -1.20    0.70
  -1 -10  -7   -9.00    7.90
   1  10   7    0.80    0.70
   1  10   7   -0.50    0.90
   1  10   7   -4.10    7.30
  -2 -10  -7   34.40    8.20
  -2 -10  -7   42.90    2.30
   2  10   7   39.60    8.20
   2  10   7   46.50    2.10
   2  10   7   43.70    2.60
   1   9  -8    2.20    1.10
   1   9  -8   13.60    6.60
  -1  -9   8    2.20    1.00
   0   9  -8   28.30    2.10
   0  -9   8   23.40    1.90
  -1   9  -8    6.90    5.10
  -1   9  -8    6.60    1.20
   1  -9   8   11.10    1.40
   2   8  -8   14.80    7.00
   2   8  -8    6.20    1.20
   2   8  -8    2.70    5.00
  -2  -8   8    6.20    1.00
   1   8  -8   49.70    2.50
   1   8  -8   34.60    7.50
   1   8  -8   49.20    8.30
  -1  -8   8   48.10    2.40
   0   8  -8   48.70    2.40
   0  -8   8   46.40    2.30
  -1   8  -8    0.00    0.80
  -1   8  -8    3.20    3.80
   1  -8   8   -0.20    0.80
  -2   8  -8    6.70    1.20
   2  -8   8    7.20    1.20
   3   7  -8    0.10    0.90
   3   7  -8    9.80    6.80
  -3  -7   8    0.40    0.70
  -3  -7   8    0.90    0.60
   2   7  -8   18.00    1.70
   2   7  -8   10.60    5.00
   2   7  -8   14.20    6.40
  -2  -7   8   21.50    1.50
   1   7  -8  161.08    5.00
   1   7  -8  156.38   12.10
  -1  -7   8  165.68    4.80
   0   7  -8   -5.40    2.80
   0   7  -8    0.30    1.00
   0  -7   8   -0.10    0.90
  -1   7  -8   28.20    4.80
  -1   7  -8   26.10    4.80
   1  -7   8   28.30    1.80
  -2   7  -8   45.00    6.10
  -2   7  -8   63.09    2.60
   2  -7   8   66.19    2.80
  -3   7  -8   77.59    4.20
  -3   7  -8   80.99    3.10
   3  -7   8   78.39    3.30
   3   6  -8   41.30    9.00
   3   6  -8   45.50    2.50
  -3  -6   8   44.10    1.80
  -3  -6   8   46.50    1.90
  -3  -6   8   53.79    9.30
  -3  -6   8   46.10    2.10
   2   6  -8    1.10    0.60
   2   6  -8    1.40    0.90
   2   6  -8    0.60    4.80
  -2  -6   8    1.50    0.70
  -2  -6   8   -1.60    3.80
   1   6  -8   30.90    1.90
   1   6  -8   38.00    6.70
  -1  -6   8   29.80    1.80
   0   6  -8    7.90    1.10
   0   6  -8    6.30    3.70
   0   6  -8    3.80    3.10
   0  -6   8    8.30    1.10
  -1   6  -8   83.39    2.90
  -1   6  -8   68.29   10.70
  -1   6  -8   79.09    7.10
   1  -6   8   82.59    3.10
  -2   6  -8   47.60    4.80
  -2   6  -8   50.09    5.10
  -2   6  -8   52.19    2.20
   2  -6   8   48.30    2.40
  -3   6  -8    3.10    0.90
   3  -6   8    2.50    0.90
   3  -6   8    3.40    0.60
   3   5  -8   13.20    1.40
   3   5  -8    6.00    5.60
  -3  -5   8   15.30    1.50
  -3  -5   8   13.70    1.20
  -3  -5   8   11.20    5.90
   2   5  -8   85.39    9.70
   2   5  -8   70.89    2.70
   2   5  -8   65.09    2.30
  -2  -5   8   64.99    8.70
  -2  -5   8   69.99    2.40
  -2  -5   8   68.09    2.40
  -2  -5   8   73.89    2.50
   1   5  -8  293.57    7.30
   1   5  -8  315.87    7.90
   1   5  -8  294.57   22.00
  -1  -5   8  261.37   23.30
  -1  -5   8  307.67    7.80
  -1  -5   8  304.87    7.40
   0   5  -8  133.49    4.00
   0   5  -8  130.09    8.80
   0  -5   8  135.89    4.00
   0  -5   8  132.79    9.30
  -1   5  -8  771.52   25.10
  -1   5  -8  789.92   25.40
  -1   5  -8  813.02   19.20
   1  -5   8  807.62   19.30
  -2   5  -8   38.20    1.80
  -2   5  -8   36.90    3.80
  -2   5  -8   32.50    3.90
   2  -5   8   44.00    2.10
  -3   5  -8   48.20    2.20
   3  -5   8   50.59    1.90
   3  -5   8   53.89    2.40
   3  -5   8   50.49    1.90
   4  -5   8    7.80    1.30
   4  -5   8    7.50    1.00
   4  -5   8    3.70    1.10
   4   4  -8    5.00    1.10
   4   4  -8   -4.50    5.50
  -4  -4   8    9.10    1.30
  -4  -4   8    3.80    5.60
   3   4  -8  162.28    5.10
   3   4  -8  160.08   13.50
  -3  -4   8  172.68    4.60
  -3  -4   8  183.68   13.70
  -3  -4   8  167.78    4.90
  -3  -4   8  159.28    4.40
   2   4  -8    8.20    0.90
   2   4  -8    8.40    1.00
   2   4  -8    9.50    4.10
  -2  -4   8    8.90    1.00
  -2  -4   8    9.50    4.40
  -2  -4   8    8.70    0.90
   1   4  -8   75.49    2.30
   1   4  -8   78.99    2.70
   1   4  -8   80.39    2.70
   1   4  -8   75.99    8.00
  -1  -4   8   83.49    8.50
  -1  -4   8   74.99    2.60
  -1  -4   8   78.19    2.40
   0   4  -8   20.30    1.50
   0   4  -8   22.70    1.40
   0   4  -8   21.30    3.90
   0  -4   8   19.90    1.10
   0  -4   8   22.10    1.30
   0  -4   8   20.50    4.30
  -1   4  -8    9.90    3.10
  -1   4  -8    6.80    0.90
   1  -4   8    6.60    0.70
   1  -4   8    6.20    0.80
  -2   4  -8   14.30    2.50
  -2   4  -8   18.20    1.20
  -2   4  -8   19.80    2.70
   2  -4   8   15.60    1.00
   2  -4   8   14.90    1.30
   2  -4   8   15.10    1.00
  -3   4  -8   42.40    2.00
   3  -4   8   40.00    1.80
   3  -4   8   46.60    1.80
   3  -4   8   40.30    3.30
   4  -4   8    0.30    0.90
   4  -4   8    3.40    0.90
   4  -4   8    1.00    0.90
   4   3  -8    2.40    1.00
  -4  -3   8   -2.10    8.30
  -4  -3   8    1.60    1.10
   3   3  -8   22.40    1.50
   3   3  -8   22.50    1.70
   3   3  -8   26.70    6.30
  -3  -3   8   21.80    1.70
  -3  -3   8   19.50    1.10
  -3  -3   8   21.80    6.10
   2   3  -8    8.60    1.00
   2   3  -8    7.60    3.90
   2   3  -8   10.80    1.00
   2   3  -8    9.50    0.90
  -2  -3   8    8.80    1.00
  -2  -3   8    6.80    4.10
  -2  -3   8   10.50    1.00
   1   3  -8  132.49    3.90
   1   3  -8  137.29    9.90
   1   3  -8  134.19    3.90
   1   3  -8  129.79    3.70
  -1  -3   8  144.89    3.90
  -1  -3   8  135.39    3.80
  -1  -3   8  141.69   10.00
  -1  -3   8  135.89    3.80
   0   3  -8   19.60    1.00
   0   3  -8   20.80    1.30
   0   3  -8   15.40    3.30
   0   3  -8   19.40    1.40
   0  -3   8   23.20    4.20
   0  -3   8   18.60    1.10
   0  -3   8   21.80    1.20
   0  -3   8   21.30    1.20
  -1   3  -8 2319.37   59.39
  -1   3  -8 2317.17   54.19
   1  -3   8 2291.77   53.69
   1  -3   8 2359.56   53.89
   1  -3   8 2328.27   59.49
  -2   3  -8   47.60    2.00
  -2   3  -8   50.19    1.80
  -2   3  -8   47.80    3.40
  -2   3  -8   46.30    3.40
   2  -3   8   47.00    1.70
   2  -3   8   46.30    1.70
   2  -3   8   45.70    1.80
  -3   3  -8  303.57    7.70
   3  -3   8  306.17    7.70
   3  -3   8  303.07    8.00
   3  -3   8  289.37    7.70
   4  -3   8   52.29    2.40
   4  -3   8   53.89    2.30
   4  -3   8   50.49    2.30
   4   2  -8  -11.90    7.10
  -4  -2   8   -1.20    7.70
   3   2  -8   12.10    1.20
   3   2  -8   11.30    1.20
   3   2  -8   13.00    5.30
  -3  -2   8   16.00    1.00
  -3  -2   8   10.30    1.20
  -3  -2   8   11.00    4.90
   2   2  -8  126.59    3.50
   2   2  -8  128.99    9.80
   2   2  -8  116.89    3.60
   2   2  -8  120.39    3.60
  -2  -2   8  121.69   10.00
  -2  -2   8  126.29    3.70
  -2  -2   8  115.69    3.40
  -2  -2   8  119.29    3.50
   1   2  -8  145.99    4.10
   1   2  -8  157.78    4.20
   1   2  -8  147.59   10.00
  -1  -2   8  149.99    4.10
  -1  -2   8  151.88   10.50
  -1  -2   8  158.08    4.20
  -1  -2   8  149.99    4.20
   0   2  -8   55.29    1.80
   0   2  -8   53.79    2.10
   0   2  -8   51.59    1.80
   0  -2   8   54.79    2.00
   0  -2   8   55.59    1.90
   0  -2   8   57.59    5.80
   0  -2   8   51.49    1.70
  -1   2  -8   46.30    1.60
  -1   2  -8   47.20    1.90
  -1   2  -8   47.00    1.60
  -1   2  -8   50.19    4.70
   1  -2   8   45.30    1.70
   1  -2   8   44.60    1.80
   1  -2   8   46.40    1.60
   1  -2   8   48.00    4.60
  -2   2  -8  306.27    7.80
  -2   2  -8  291.07    9.60
  -2   2  -8  304.07    7.50
   2  -2   8  310.57    7.70
   2  -2   8  303.37    9.90
   2  -2   8  303.37    7.50
   2  -2   8  297.17    7.60
   3  -2   8    5.10    0.80
   3  -2   8    3.70    0.60
   3  -2   8    3.60    0.70
   4  -2   8   40.60    2.00
   4  -2   8   40.30    2.10
   4  -2   8   39.20    1.90
   4   1  -8   39.70    2.30
   4   1  -8   34.20    1.50
   4   1  -8   26.10    8.40
  -4  -1   8   37.10    2.40
  -4  -1   8   35.60    9.40
  -4  -1   8   33.00    1.40
   3   1  -8   15.80    5.50
   3   1  -8   13.30    1.10
   3   1  -8   12.20    1.20
  -3  -1   8   12.50    0.90
  -3  -1   8   15.90    5.10
  -3  -1   8   11.80    1.30
   2   1  -8   29.90    5.60
   2   1  -8   29.60    1.60
   2   1  -8   28.70    1.40
   2   1  -8   30.30    1.50
  -2  -1   8   28.60    1.70
  -2  -1   8   29.70    1.40
  -2  -1   8   30.60    5.70
  -2  -1   8   29.60    1.40
   1   1  -8   47.80    1.80
   1   1  -8   50.59    1.90
   1   1  -8   50.49    1.70
  -1  -1   8   49.50    1.70
  -1  -1   8   46.80    2.00
   0   1  -8  111.99    3.20
   0   1  -8  121.79    3.40
   0   1  -8  118.09    3.10
   0  -1   8  109.69    3.30
   0  -1   8  113.89    3.30
   0  -1   8  112.99    3.00
   0  -1   8  106.59    7.40
  -1   1  -8   17.40    3.60
  -1   1  -8   20.30    1.10
  -1   1  -8   21.20    0.90
  -1   1  -8   20.80    1.30
   1  -1   8   21.20    1.20
   1  -1   8   21.20    0.90
   1  -1   8   20.40    1.10
   1  -1   8   21.90    3.50
  -2   1  -8  487.85   11.90
  -2   1  -8  466.65   14.00
  -2   1  -8  485.95   11.50
   2  -1   8  492.25   11.80
   2  -1   8  478.95   14.20
   2  -1   8  480.15   11.50
  -3   1  -8  100.79    3.30
   3  -1   8  107.39    3.10
   3  -1   8  100.89    3.30
   3  -1   8  103.39    3.10
   4  -1   8   65.29    2.40
   4  -1   8   68.79    2.60
   4  -1   8   66.29    2.80
   4   0  -8   97.19    3.00
   4   0  -8  105.59    3.70
   4   0  -8  130.99   18.60
  -4   0   8  103.49    3.90
  -4   0   8  100.29    3.00
  -4   0   8   85.39   16.60
   3   0  -8   80.29    2.80
   3   0  -8   80.59    2.60
   3   0  -8  101.99   10.10
  -3   0   8   81.59    3.10
  -3   0   8   90.39    9.50
  -3   0   8   76.89    2.80
   2   0  -8   42.60    6.40
   2   0  -8   46.40    1.80
   2   0  -8   45.60    1.80
   2   0  -8   38.80    2.30
  -2   0   8   47.40    2.10
  -2   0   8   43.90    1.90
  -2   0   8   46.80    6.40
   1   0  -8 1138.99   27.60
   1   0  -8 1176.18   27.40
   1   0  -8 1180.28   27.60
   1   0  -8 1189.58   35.40
  -1   0   8 1203.28   35.60
  -1   0   8 1175.68   27.60
  -1   0   8 1148.19   27.30
   0   0  -8  449.06   11.00
   0   0  -8  460.15   11.10
   0   0  -8  433.06   16.20
   0   0  -8  460.15   10.70
   0   0   8  459.45   16.80
   0   0   8  445.06   11.10
   0   0   8  457.95   11.30
   0   0   8  458.05   10.70
  -1   0  -8  132.29    3.70
  -1   0  -8  128.59    7.00
  -1   0  -8  137.79    3.80
   1   0   8  129.49    7.20
   1   0   8  132.89    3.80
   1   0   8  132.89    4.00
  -2   0  -8    2.10    1.40
  -2   0  -8    2.60    0.60
   2   0   8    1.50    0.60
   2   0   8    2.00    0.40
   2   0   8    1.90    0.40
   2   0   8    3.10    0.60
   2   0   8    3.20    0.70
   2   0   8    0.30    1.40
  -3   0  -8    7.30    0.90
   3   0   8    5.00    0.60
   3   0   8    5.40    0.90
   3   0   8    5.60    0.70
   4   0   8    7.30    1.80
   4   0   8    5.90    0.80
   4  -1  -8   47.80    2.00
   4  -1  -8   52.59    2.50
   4  -1  -8   56.99   11.70
  -4   1   8   60.29   10.80
  -4   1   8   47.90    1.90
  -4   1   8   51.49    2.70
   3  -1  -8   31.40    6.50
   3  -1  -8   32.10    1.60
   3  -1  -8   36.10    1.80
  -3   1   8   23.60    5.90
  -3   1   8   30.90    1.40
  -3   1   8   32.30    2.10
   2  -1  -8  140.69    4.00
   2  -1  -8  146.49   10.30
   2  -1  -8  141.39    3.90
  -2   1   8  131.99    3.90
  -2   1   8  138.09   10.20
  -2   1   8  141.49    4.20
  -2   1   8  140.19    3.80
   1  -1  -8   30.30    4.90
   1  -1  -8   14.90    1.10
   1  -1  -8   14.80    1.10
   1  -1  -8   15.60    0.80
  -1   1   8   14.90    1.30
  -1   1   8   14.30    0.80
  -1   1   8   15.20    1.00
  -1   1   8   15.20    4.00
   0  -1  -8  930.11   22.60
   0  -1  -8  959.80   29.00
   0  -1  -8  966.80   22.60
   0   1   8  962.70   22.60
   0   1   8  975.40   29.00
   0   1   8  938.21   22.60
  -1  -1  -8  118.69    3.50
  -1  -1  -8  122.19    7.00
  -1  -1  -8  118.59    3.50
   1   1   8  119.79    3.50
   1   1   8  110.29    6.80
   1   1   8  116.29    3.40
  -2  -1  -8   97.69    5.70
  -2  -1  -8   99.49    3.10
  -2  -1  -8  100.09    3.10
   2   1   8   96.19    5.70
   2   1   8  100.79    3.20
   2   1   8   99.99    3.00
  -3  -1  -8  249.78    6.50
   3   1   8  242.58    6.70
   3   1   8  246.28    6.10
   3   1   8  238.98    6.10
  -4  -1  -8  166.68    4.70
   4   1   8  169.78    5.20
   4   1   8  159.58    4.60
   4   1   8  165.48    4.60
   4  -2  -8   20.70    1.50
   4  -2  -8   28.30    6.60
   4  -2  -8   19.10    1.80
  -4   2   8   29.40    6.70
  -4   2   8   20.10    2.10
   3  -2  -8   66.29    2.40
   3  -2  -8   62.49    2.30
   3  -2  -8   58.19    8.40
  -3   2   8   58.59    8.30
  -3   2   8   67.89    2.90
  -3   2   8   63.99    2.30
   2  -2  -8  219.18    5.90
   2  -2  -8  219.28   13.20
   2  -2  -8  223.48    5.80
  -2   2   8  219.08    6.00
  -2   2   8  211.48    5.70
  -2   2   8  206.38   12.70
   1  -2  -8   10.20    1.00
   1  -2  -8   11.50    0.70
   1  -2  -8   10.80    3.80
   1  -2  -8   11.60    1.10
  -1   2   8    8.50    3.50
  -1   2   8   10.10    0.90
  -1   2   8   12.20    1.30
   0  -2  -8 1074.59   31.70
   0  -2  -8 1065.19   24.90
   0  -2  -8 1055.69   25.00
   0   2   8 1034.80   31.40
   0   2   8 1059.99   24.90
   0   2   8 1016.10   24.80
  -1  -2  -8  268.67    6.80
  -1  -2  -8  272.27   11.50
  -1  -2  -8  254.37    6.80
   1   2   8  257.07    6.70
   1   2   8  264.27    6.90
   1   2   8  267.57   11.40
  -2  -2  -8  458.15   11.20
  -2  -2  -8  457.95   15.60
   2   2   8  450.55   15.60
   2   2   8  434.56   11.10
   2   2   8  463.45   11.30
  -3  -2  -8  129.49    6.60
  -3  -2  -8  131.69    3.80
   3   2   8  132.19    6.80
   3   2   8  133.19    3.50
   3   2   8  130.19    4.10
   3   2   8  129.49    3.50
  -4  -2  -8   10.10    1.10
   4   2   8    7.20    0.80
   4   2   8    8.60    0.90
   4   2   8    6.10    1.70
   4   2   8    7.40    1.30
   4   2   8    8.50    1.90
   4  -3  -8   16.90    1.50
   4  -3  -8   20.00    6.50
   4  -3  -8   19.30    1.70
  -4   3   8   17.80    2.00
  -4   3   8   18.20    5.60
   3  -3  -8    2.90    0.80
   3  -3  -8   -1.40    3.90
   3  -3  -8    3.30    0.80
  -3   3   8    2.30    1.00
  -3   3   8   -2.30    3.40
   2  -3  -8   33.50    1.70
   2  -3  -8   31.30    1.40
   2  -3  -8   37.70    6.50
   2  -3  -8   34.40    1.50
  -2   3   8   32.60    2.00
  -2   3   8   31.90    6.10
   1  -3  -8   29.40    5.30
   1  -3  -8   28.50    1.70
   1  -3  -8   31.30    1.50
   1  -3  -8   28.50    1.10
   1  -3  -8   29.70    1.10
  -1   3   8   32.10    1.70
  -1   3   8   31.60    5.30
  -1   3   8   29.00    1.40
   0  -3  -8  606.54   14.50
   0  -3  -8  585.14   14.50
   0  -3  -8  601.94   21.20
   0   3   8  580.14   14.50
   0   3   8  613.04   21.20
   0   3   8  606.64   14.60
  -1  -3  -8 1244.48   38.70
  -1  -3  -8 1389.76   33.10
  -1  -3  -8 1467.65   33.00
   1   3   8 1459.45   39.80
   1   3   8 1446.26   33.10
   1   3   8 1407.56   33.00
  -2  -3  -8   90.49    2.90
  -2  -3  -8   92.79    9.70
   2   3   8   94.19    3.20
   2   3   8   90.69    2.90
  -3  -3  -8  129.09    3.70
  -3  -3  -8  123.29    7.30
   3   3   8  130.49    4.10
   3   3   8  124.59    3.40
   3   3   8  129.09    7.60
   3   3   8  125.79    3.40
  -4  -3  -8  153.28    4.30
   4   3   8  145.29    4.10
   4   3   8  151.98    9.70
   4   3   8  149.19    4.90
   4   3   8  144.09    7.80
   4   3   8  149.79    4.10
   4  -4  -8   10.20    1.10
   4  -4  -8   10.10    1.30
  -4   4   8    6.50    1.30
  -4   4   8   20.70    8.20
   3  -4  -8   33.00    6.60
   3  -4  -8   37.30    1.90
   3  -4  -8   37.00    1.90
  -3   4   8   38.30    2.40
  -3   4   8   37.40    6.90
   2  -4  -8   55.89    2.20
   2  -4  -8   51.09    2.00
   2  -4  -8   52.39    1.90
   2  -4  -8   52.69    8.90
  -2   4   8   58.69    2.50
  -2   4   8   49.99    9.20
   1  -4  -8    5.10    3.80
   1  -4  -8    7.40    0.70
   1  -4  -8    7.70    0.70
   1  -4  -8    9.90    1.10
  -1   4   8    9.90    3.80
   0  -4  -8  293.17    7.40
   0  -4  -8  276.57   19.40
   0   4   8  250.97   15.20
   0   4   8  297.47    7.50
  -1  -4  -8 1888.31   44.30
  -1  -4  -8 1939.01   52.19
   1   4   8 1900.11   44.50
   1   4   8 1871.51   44.70
   1   4   8 1884.41   51.99
  -2  -4  -8  230.08    6.10
  -2  -4  -8  224.68   11.40
   2   4   8  232.88    6.40
   2   4   8  230.68   11.40
  -3  -4  -8    2.90    0.70
  -3  -4  -8    3.30    2.50
   3   4   8    3.60    0.90
   3   4   8    1.40    2.30
  -4  -4  -8    7.30    0.90
   4   4   8    6.70    0.80
   4   4   8    5.10    1.20
   4   4   8    6.80    2.90
   4   4   8    5.70    0.80
   4  -5  -8   53.29    2.40
   4  -5  -8   50.09    2.50
  -4   5   8   49.30    2.80
   3  -5  -8    8.20    5.20
   3  -5  -8    9.20    1.10
   3  -5  -8    8.60    1.10
  -3   5   8   13.20    5.10
  -3   5   8    9.00    1.40
   2  -5  -8  543.05   12.80
   2  -5  -8  505.85   12.80
   2  -5  -8  526.35   13.10
   2  -5  -8  553.14   22.90
  -2   5   8  521.45   22.40
  -2   5   8  524.55   13.30
   1  -5  -8    4.10    0.50
   1  -5  -8    4.40    0.60
   1  -5  -8    3.00    0.70
   1  -5  -8    0.60    3.40
  -1   5   8    4.60    1.00
  -1   5   8    6.00    3.70
   0  -5  -8    6.00    0.90
   0  -5  -8    1.90    2.70
   0   5   8    4.10    3.00
   0   5   8    5.00    0.90
  -1  -5  -8  554.34   21.00
  -1  -5  -8  550.54   13.50
   1   5   8  545.85   13.60
   1   5   8  531.15   20.80
  -2  -5  -8    4.20    2.90
  -2  -5  -8    3.50    0.80
   2   5   8   -3.80    2.20
   2   5   8    1.90    0.90
  -3  -5  -8    1.10    0.60
  -3  -5  -8    3.90    3.00
   3   5   8    1.90    0.90
   3   5   8    2.30    2.40
  -4  -5  -8    7.20    0.90
   4   5   8    6.70    0.90
   4   5   8    7.80    1.30
   4   5   8    4.10    3.50
   4   5   8    8.70    0.80
   3  -6  -8    5.80    1.00
   3  -6  -8    5.60    1.00
  -3   6   8    5.50    1.20
   2  -6  -8    2.10    4.10
   2  -6  -8    2.30    0.60
   2  -6  -8    2.00    0.80
   2  -6  -8    2.70    0.70
  -2   6   8    4.00    1.10
  -2   6   8    4.80    3.90
   1  -6  -8   12.30    1.30
   1  -6  -8   12.90    1.00
   1  -6  -8   11.80    0.90
   1  -6  -8   15.30    4.80
  -1   6   8    9.10    1.20
  -1   6   8    4.70    3.70
   0  -6  -8  247.38    6.80
   0  -6  -8  259.67   14.00
   0   6   8  252.57   14.10
   0   6   8  247.68    6.80
  -1  -6  -8  322.97   15.70
  -1  -6  -8  303.27    8.10
   1   6   8  306.27    8.20
   1   6   8  305.17   15.40
  -2  -6  -8   -0.60    2.50
  -2  -6  -8    1.90    0.70
   2   6   8    1.30    0.80
   2   6   8   -1.40    2.60
  -3  -6  -8    0.00    0.60
  -3  -6  -8    5.00    3.60
  -3  -6  -8    0.20    0.50
   3   6   8    0.40    0.90
   3   6   8   -2.30    2.80
   3   6   8    0.40    0.50
  -4  -6  -8   -0.30    0.60
   4   6   8    0.20    1.00
   4   6   8   -0.30    0.60
   4   6   8    3.70    3.40
   3  -7  -8   15.20    6.60
   3  -7  -8   16.30    1.70
   3  -7  -8   20.90    1.80
  -3   7   8   21.50    6.30
  -3   7   8   19.50    2.00
   2  -7  -8   11.50    5.50
   2  -7  -8   11.00    1.20
   2  -7  -8   10.20    1.20
  -2   7   8   11.00    4.80
  -2   7   8   10.90    1.40
   1  -7  -8   32.70    1.90
   1  -7  -8   29.00    8.60
   1  -7  -8   29.00    1.40
   1  -7  -8   32.40    1.70
  -1   7   8   28.60    6.90
  -1   7   8   33.70    2.10
   0  -7  -8   19.40    5.50
   0  -7  -8   15.40    0.90
   0  -7  -8   17.10    1.50
   0   7   8   12.90    1.40
   0   7   8   11.70    4.60
   0   7   8   14.40    0.90
  -1  -7  -8   34.80    6.30
  -1  -7  -8   28.20    1.70
   1   7   8   35.00    6.60
   1   7   8   28.70    1.90
  -2  -7  -8   26.40    6.00
  -2  -7  -8   20.40    1.50
   2   7   8   19.80    2.10
   2   7   8   19.70    5.20
  -3  -7  -8    9.50    1.00
  -3  -7  -8   10.30    4.40
   3   7   8   13.30    4.50
   3   7   8   11.10    1.50
   3   7   8   13.40    1.30
   3  -8  -8    1.90    0.90
   3  -8  -8    2.20    1.00
  -3   8   8    0.30    1.10
   2  -8  -8    0.80    0.90
   2  -8  -8    0.70    0.70
   2  -8  -8    9.90    5.10
  -2   8   8    0.80    1.00
  -2   8   8   -1.20    3.90
   1  -8  -8   23.50    6.50
   1  -8  -8   19.10    1.20
   1  -8  -8   21.70    1.70
  -1   8   8   16.10    5.60
  -1   8   8   18.50    2.60
   0  -8  -8   63.29    2.10
   0  -8  -8   68.99    2.80
   0  -8  -8   74.49    9.90
   0   8   8   64.89    2.90
   0   8   8   58.09    8.30
   0   8   8   59.99    2.20
  -1  -8  -8    0.10    0.40
  -1  -8  -8   -0.20    0.70
  -1  -8  -8    1.90    3.90
   1   8   8    0.00    0.40
   1   8   8    0.20    1.50
   1   8   8   -2.30    3.60
  -2  -8  -8   44.20    2.10
  -2  -8  -8   38.30    8.20
  -2  -8  -8   38.10    1.50
   2   8   8   29.40   10.60
   2   8   8   45.50    2.40
  -3  -8  -8   12.80    1.10
  -3  -8  -8   14.70    1.40
   3   8   8   14.50    5.10
   3   8   8   13.10    1.50
   3   8   8   11.30    1.10
   2  -9  -8    2.60    1.00
   2  -9  -8    4.90    0.90
   2  -9  -8    6.00    5.20
  -2   9   8    3.60    1.10
  -2   9   8   -1.00    4.50
   1  -9  -8   -0.60    0.70
   1  -9  -8   -0.70    4.80
  -1   9   8   -0.60    0.60
  -1   9   8    0.00    0.90
  -1   9   8   -2.50    3.90
   0  -9  -8   61.39    9.40
   0  -9  -8   53.19    2.00
   0  -9  -8   54.99    2.60
   0   9   8   64.99    9.20
   0   9   8   54.29    2.70
   0   9   8   55.89    2.00
  -1  -9  -8    6.70    1.10
  -1  -9  -8   -1.20    4.70
  -1  -9  -8    5.30    0.60
   1   9   8    7.70    4.90
   1   9   8    5.60    0.70
   1   9   8    5.90    1.20
  -2  -9  -8    0.20    4.30
  -2  -9  -8    0.00    0.70
   2   9   8   -2.30    4.20
   2   9   8    0.60    1.00
   2   9   8    0.20    0.60
   1 -10  -8    3.50    6.20
   1 -10  -8    0.50    0.90
  -1  10   8    0.20    1.00
  -1  10   8    4.70    6.20
   0 -10  -8   -0.40    0.80
   0 -10  -8    5.70    5.90
   0  10   8    1.50    0.70
   0  10   8   -0.40    1.00
   0  10   8    8.60    5.10
  -1 -10  -8    2.10    0.70
  -1 -10  -8    4.90    1.00
  -1 -10  -8    8.20    6.00
   1  10   8    2.70    0.70
   1  10   8   -3.60    7.80
   1  10   8    3.90    1.10
   1   8  -9   93.69   11.10
   1   8  -9   86.79    3.50
  -1  -8   9   84.39    3.30
   0   8  -9   30.70    2.10
   0   8  -9   38.00    6.90
   0  -8   9   31.00    2.00
  -1   8  -9   36.30    6.30
  -1   8  -9   31.50    2.10
   1  -8   9   28.20    2.10
   2   7  -9   -3.80    5.30
   2   7  -9    6.60    1.20
  -2  -7   9   10.40    1.10
   1   7  -9   24.70    1.90
   1   7  -9   25.70    6.80
   1   7  -9   22.60    6.50
   0   7  -9   10.10    4.20
   0   7  -9   11.30    1.30
   0   7  -9   10.50    6.20
   0  -7   9   10.80    1.30
  -1   7  -9   28.40    5.60
  -1   7  -9   27.80    1.90
   1  -7   9   28.80    2.00
  -2   7  -9   50.39    6.00
  -2   7  -9   53.79    2.50
   2  -7   9   54.09    2.60
   3   6  -9    0.90    0.90
   3   6  -9   -7.20    5.50
  -3  -6   9    7.30    5.60
  -3  -6   9    2.10    0.70
  -3  -6   9    1.00    0.80
   2   6  -9    2.50    0.60
   2   6  -9    1.30    0.90
   2   6  -9   -8.60    4.90
  -2  -6   9    0.70    0.60
  -2  -6   9    4.60    4.80
  -2  -6   9    2.30    0.80
   1   6  -9   43.70    2.30
   1   6  -9   44.10   11.40
  -1  -6   9   41.00    2.10
   0   6  -9  123.89    3.90
   0   6  -9  111.99    9.30
   0   6  -9  122.49   10.00
   0  -6   9  117.89    3.90
  -1   6  -9   57.49    6.20
  -1   6  -9   56.89    6.70
  -1   6  -9   58.19    2.40
   1  -6   9   60.59    2.60
  -2   6  -9    0.70    2.80
  -2   6  -9    0.60    0.80
   2  -6   9   -0.30    0.80
  -3   6  -9    0.60    0.80
   3  -6   9    0.00    0.80
   3   5  -9   -6.30    5.10
   3   5  -9    0.50    0.90
  -3  -5   9   -0.70    0.60
  -3  -5   9    0.90    0.80
  -3  -5   9   -3.40    4.80
  -3  -5   9   -0.30    0.60
   2   5  -9    2.70    0.70
   2   5  -9    7.20    4.90
  -2  -5   9    4.60    0.80
  -2  -5   9    3.30    4.40
  -2  -5   9    3.00    0.80
   1   5  -9   37.80    7.60
   1   5  -9   39.40    2.00
  -1  -5   9   44.70    8.90
  -1  -5   9   38.60    1.90
  -1  -5   9   38.50    1.50
   0   5  -9   88.19    3.00
   0   5  -9   81.69    7.90
   0  -5   9   76.79    7.80
   0  -5   9   84.79    3.00
  -1   5  -9  150.88    9.30
  -1   5  -9  148.19    4.30
   1  -5   9  149.59    4.60
  -2   5  -9    1.90    1.90
  -2   5  -9    5.70    0.90
   2  -5   9    6.00    1.10
  -3   5  -9  120.39    4.40
   3  -5   9  129.19    4.20
   3  -5   9  122.69    3.60
   3   4  -9    0.20    4.90
   3   4  -9    0.30    0.90
  -3  -4   9    4.00    4.60
  -3  -4   9    0.40    0.80
  -3  -4   9   -0.20    0.60
  -3  -4   9    0.20    0.50
   2   4  -9    1.70    0.70
   2   4  -9    0.80    0.70
   2   4  -9    4.00    3.70
   2   4  -9    0.80    0.60
  -2  -4   9    1.20    0.70
  -2  -4   9   -4.00    2.70
   1   4  -9  300.27    7.60
   1   4  -9  319.37    8.00
   1   4  -9  278.17   15.50
   1   4  -9  318.17    8.00
  -1  -4   9  314.27    7.70
  -1  -4   9  296.57   16.20
   0   4  -9 1349.96   39.80
   0   4  -9 1281.67   31.00
   0   4  -9 1345.17   31.60
   0   4  -9 1372.66   31.50
   0  -4   9 1313.07   39.80
   0  -4   9 1318.87   31.40
   0  -4   9 1364.76   31.10
  -1   4  -9   19.40    3.80
  -1   4  -9   19.30    1.50
  -1   4  -9   20.60    1.30
   1  -4   9   18.10    3.50
   1  -4   9   16.50    1.20
   1  -4   9   19.00    1.00
   1  -4   9   19.40    1.10
  -2   4  -9  608.14   18.90
  -2   4  -9  608.64   18.50
  -2   4  -9  623.64   15.00
   2  -4   9  613.94   14.70
   2  -4   9  632.84   15.40
   2  -4   9  605.34   14.70
  -3   4  -9   41.20    1.90
   3  -4   9   41.20    2.20
   3  -4   9   40.50    1.80
   3  -4   9   41.30    1.80
   4  -4   9   24.30    1.80
   4  -4   9   29.10    2.00
   4  -4   9   27.50    2.10
   4   3  -9    1.20    5.20
   4   3  -9    1.00    1.00
  -4  -3   9    4.00    5.30
  -4  -3   9    1.40    1.10
   3   3  -9    9.70    4.80
   3   3  -9    2.60    0.70
  -3  -3   9    1.60    0.90
  -3  -3   9    2.20    0.60
  -3  -3   9    6.70    4.80
   2   3  -9   23.70    1.40
   2   3  -9   18.00    5.30
   2   3  -9   27.90    1.60
   2   3  -9   24.10    1.40
  -2  -3   9   17.90    5.30
  -2  -3   9   24.10    1.60
  -2  -3   9   22.00    1.30
   1   3  -9    8.20    3.80
   1   3  -9    6.90    0.80
   1   3  -9    7.90    0.90
   1   3  -9    6.70    0.90
  -1  -3   9    7.30    4.00
  -1  -3   9    9.00    1.00
   0   3  -9    0.20    0.50
   0   3  -9    4.10    2.40
   0   3  -9    0.10    0.60
   0   3  -9    1.10    0.70
   0  -3   9    6.70    3.30
   0  -3   9    1.10    0.50
   0  -3   9    1.40    0.60
  -1   3  -9  513.85   17.80
  -1   3  -9  502.85   12.60
  -1   3  -9  499.95   12.20
  -1   3  -9  514.45   12.30
   1  -3   9  519.55   18.00
   1  -3   9  502.65   12.30
   1  -3   9  500.05   12.20
  -2   3  -9   22.60    2.90
  -2   3  -9   15.20    2.60
  -2   3  -9   18.00    1.50
  -2   3  -9   20.30    1.20
   2  -3   9   19.40    1.20
   2  -3   9   21.90    1.20
   2  -3   9   22.30    1.20
  -3   3  -9   15.70    1.30
   3  -3   9   16.40    1.30
   4  -3   9   97.19    3.50
   4  -3   9  105.19    3.60
   4  -3   9   96.89    3.80
   4   2  -9    7.60    5.80
   4   2  -9    2.00    1.00
   4   2  -9    0.40    0.70
  -4  -2   9    1.70    4.90
  -4  -2   9    1.50    1.10
  -4  -2   9    2.00    0.60
   3   2  -9   16.10    6.00
   3   2  -9   22.10    1.30
   3   2  -9   20.80    1.70
  -3  -2   9   17.90    5.70
  -3  -2   9   23.20    1.80
  -3  -2   9   20.70    1.20
   2   2  -9    5.40    0.80
   2   2  -9    5.10    3.90
   2   2  -9    6.60    0.90
  -2  -2   9    5.80    1.00
  -2  -2   9    5.00    4.10
  -2  -2   9    8.10    0.90
   1   2  -9  628.04   14.90
   1   2  -9  606.54   14.80
   1   2  -9  610.84   26.10
   1   2  -9  644.54   14.80
  -1  -2   9  589.04   15.10
  -1  -2   9  559.14   26.30
  -1  -2   9  611.64   14.70
  -1  -2   9  640.44   14.90
   0   2  -9 1747.93   40.40
   0   2  -9 1655.73   40.10
   0   2  -9 1740.03   40.10
   0  -2   9 1773.62   40.20
   0  -2   9 1711.13   47.90
   0  -2   9 1705.23   40.00
  -1   2  -9   67.09    5.60
  -1   2  -9   74.49    2.20
  -1   2  -9   66.49    2.20
  -1   2  -9   73.89    2.60
   1  -2   9   71.89    2.30
   1  -2   9   69.49    2.20
   1  -2   9   63.89    5.70
  -2   2  -9   85.49    4.90
  -2   2  -9   86.29    3.00
  -2   2  -9   88.59    2.90
   2  -2   9   88.89    2.60
   2  -2   9   83.89    3.00
   2  -2   9   93.49    5.20
   2  -2   9   84.29    2.80
  -3   2  -9   34.00    1.90
   3  -2   9   35.40    1.60
   3  -2   9   39.90    1.70
   3  -2   9   39.20    1.80
   4  -2   9    6.30    1.10
   4  -2   9   10.20    1.10
   4   1  -9    0.70    0.60
   4   1  -9    3.50    5.80
   4   1  -9    0.80    1.00
  -4  -1   9   -5.70    4.20
  -4  -1   9    1.70    1.10
   3   1  -9   14.00    1.40
   3   1  -9   16.30    1.20
   3   1  -9    6.70    4.60
  -3  -1   9   14.20    1.70
  -3  -1   9   13.70    1.00
  -3  -1   9   17.50    5.40
   2   1  -9  150.38    4.20
   2   1  -9  150.38    4.20
   2   1  -9  145.49   10.90
  -2  -1   9  144.59    4.10
  -2  -1   9  164.28   11.80
  -2  -1   9  154.88    4.50
  -2  -1   9  142.09    4.10
   1   1  -9  375.66    9.10
   1   1  -9  369.76    9.30
   1   1  -9  369.66   20.00
   1   1  -9  371.26    9.30
  -1  -1   9  366.96    9.00
  -1  -1   9  367.76   19.60
  -1  -1   9  357.56    9.20
  -1  -1   9  379.96    9.30
   0   1  -9   55.59    2.10
   0   1  -9   48.80    1.90
   0   1  -9   55.29    1.70
   0  -1   9   53.39    1.70
   0  -1   9   53.89    2.10
   0  -1   9   52.29    5.80
  -1   1  -9  377.06    9.70
  -1   1  -9  393.46   14.50
  -1   1  -9  399.36    9.40
  -1   1  -9  395.26    9.90
   1  -1   9  385.56   14.50
   1  -1   9  399.86    9.40
   1  -1   9  397.46    9.70
  -2   1  -9  567.64   13.30
  -2   1  -9  560.54   13.80
  -2   1  -9  547.35   16.70
   2  -1   9  570.04   13.70
   2  -1   9  564.94   13.30
   2  -1   9  555.24   13.70
   2  -1   9  558.04   16.90
  -3   1  -9   21.20    1.50
   3  -1   9   22.50    1.50
   3  -1   9   21.90    1.40
   3  -1   9   22.00    1.20
   4  -1   9   41.10    1.90
   4  -1   9   42.70    2.20
   4  -1   9   38.20    2.40
   4   0  -9   33.20    1.60
   4   0  -9   31.00    2.20
   4   0  -9   33.00    7.90
  -4   0   9   33.30    2.40
  -4   0   9   25.20    6.90
  -4   0   9   32.30    1.50
   3   0  -9    5.80    4.50
   3   0  -9    5.00    0.90
   3   0  -9    6.60    0.80
  -3   0   9    6.70    0.80
  -3   0   9    5.20    1.10
  -3   0   9    8.80    4.60
   2   0  -9    1.10    3.40
   2   0  -9    3.30    0.70
   2   0  -9    1.00    0.60
  -2   0   9    3.90    3.60
  -2   0   9    1.00    0.80
  -2   0   9    1.00    0.50
  -2   0   9    1.10    0.50
   1   0  -9  169.28   10.70
   1   0  -9  168.58    4.80
   1   0  -9  177.78    4.50
   1   0  -9  173.98    4.80
  -1   0   9  176.48    4.90
  -1   0   9  166.08    4.70
  -1   0   9  175.18    4.50
  -1   0   9  170.98   11.00
   0   0  -9   44.80    4.80
   0   0  -9   34.00    1.10
   0   0  -9   31.60    1.70
   0   0  -9   34.70    1.60
   0   0   9   27.00    4.50
   0   0   9   34.20    1.60
   0   0   9   32.20    1.50
  -1   0  -9 1408.76   32.80
  -1   0  -9 1362.46   38.20
  -1   0  -9 1366.26   32.50
   1   0   9 1385.36   32.50
   1   0   9 1382.56   38.90
  -2   0  -9  139.49    7.00
  -2   0  -9  142.89    4.20
   2   0   9  141.79    7.10
   2   0   9  146.99    4.20
  -3   0  -9    0.40    0.60
   3   0   9    0.00    0.40
   3   0   9    0.00    0.60
   3   0   9    0.60    0.40
  -4   0  -9   26.20    1.70
   4   0   9   25.60    1.40
   4   0   9   25.40    1.90
   4  -1  -9   25.20    7.40
   4  -1  -9   35.10    1.80
   4  -1  -9   31.80    2.20
  -4   1   9   31.40    2.40
  -4   1   9   32.40    7.80
   3  -1  -9   26.90    6.40
   3  -1  -9   27.30    1.70
   3  -1  -9   29.40    1.60
  -3   1   9   26.70    2.20
  -3   1   9   35.60    6.80
   2  -1  -9    0.10    0.60
   2  -1  -9    0.90    3.40
   2  -1  -9   -0.50    0.50
  -2   1   9    0.70    3.30
  -2   1   9   -0.30    0.80
  -2   1   9    1.50    0.60
  -2   1   9    1.30    0.60
   1  -1  -9  270.77    6.60
   1  -1  -9  255.07    7.00
   1  -1  -9  271.47    7.00
   1  -1  -9  262.57   13.50
  -1   1   9  264.97    6.50
  -1   1   9  260.77    6.90
  -1   1   9  273.17   13.80
  -1   1   9  272.77    7.00
   0  -1  -9  223.88    6.00
   0  -1  -9  215.78    5.90
   0  -1  -9  238.28   11.70
   0   1   9  209.68    6.00
   0   1   9  235.28   11.60
   0   1   9  230.48    6.00
  -1  -1  -9 1141.09   32.40
  -1  -1  -9 1068.59   26.30
  -1  -1  -9 1103.49   26.40
   1   1   9 1104.39   32.20
   1   1   9 1145.19   26.40
  -2  -1  -9 1149.89   31.60
  -2  -1  -9 1137.59   27.20
   2   1   9 1137.19   31.80
   2   1   9 1169.28   27.30
  -3  -1  -9   10.80    1.10
  -3  -1  -9    8.20    1.80
   3   1   9    9.90    1.10
   3   1   9   10.70    2.10
   3   1   9    9.70    0.80
   3   1   9    9.80    0.80
  -4  -1  -9   25.80    1.60
   4   1   9   28.50    1.40
   4   1   9   28.60    1.50
   4   1   9   25.70    2.00
   4  -2  -9   14.40    6.30
   4  -2  -9    5.20    1.10
   4  -2  -9    5.40    0.90
  -4   2   9    2.10    5.30
  -4   2   9    3.50    1.20
   3  -2  -9   12.00    5.40
   3  -2  -9   11.50    1.30
   3  -2  -9   11.40    1.20
  -3   2   9   16.20    5.40
  -3   2   9   10.30    1.40
   2  -2  -9   69.69    8.50
   2  -2  -9   63.19    2.10
   2  -2  -9   60.19    2.30
  -2   2   9   60.89    2.60
  -2   2   9   67.19    8.30
   1  -2  -9  378.76    9.50
   1  -2  -9  368.46    9.00
   1  -2  -9  389.36   17.00
   1  -2  -9  363.76    9.00
  -1   2   9  378.56   16.80
  -1   2   9  381.36    9.60
   0  -2  -9   63.19    2.30
   0  -2  -9   74.29    6.90
   0  -2  -9   65.99    2.40
   0   2   9   58.19    6.30
   0   2   9   68.39    2.50
  -1  -2  -9  480.35   11.80
  -1  -2  -9  455.95   12.00
  -1  -2  -9  478.85   17.50
   1   2   9  473.95   17.50
   1   2   9  493.15   11.90
  -2  -2  -9 1094.19   26.10
  -2  -2  -9 1092.49   31.40
   2   2   9 1111.79   26.30
   2   2   9 1098.29   31.50
  -3  -2  -9   66.79    4.90
  -3  -2  -9   72.19    2.50
   3   2   9   64.99    5.10
   3   2   9   68.29    2.70
  -4  -2  -9   65.89    2.50
   4   2   9   69.69    2.30
   4   2   9   66.69    2.30
   4   2   9   66.09    3.00
   4   2   9   73.19    3.70
   4   2   9   67.99    3.70
   4  -3  -9    8.70    1.10
   4  -3  -9    5.60    6.10
   4  -3  -9    9.20    1.20
  -4   3   9    9.70    1.50
  -4   3   9   15.00    6.30
   3  -3  -9  185.48    5.10
   3  -3  -9  180.68    5.20
   3  -3  -9  183.68   13.80
  -3   3   9  179.88    5.60
  -3   3   9  167.68   13.40
   2  -3  -9   12.00    1.00
   2  -3  -9    9.80    0.90
   2  -3  -9   12.90    1.30
   2  -3  -9    6.90    4.20
  -2   3   9   11.10    1.30
  -2   3   9    6.70    4.00
   1  -3  -9   22.80    1.50
   1  -3  -9   23.80    5.30
   1  -3  -9   20.90    1.00
  -1   3   9   22.70    1.70
  -1   3   9   19.30    5.00
   0  -3  -9  111.59    8.30
   0  -3  -9  102.69    3.30
   0   3   9   99.49    8.20
   0   3   9  101.19    3.30
  -1  -3  -9 1214.98   35.60
  -1  -3  -9 1187.58   28.40
   1   3   9 1193.68   35.50
   1   3   9 1199.18   28.50
  -2  -3  -9  171.28    9.30
  -2  -3  -9  166.28    4.80
   2   3   9  167.28    4.90
   2   3   9  163.48    9.30
  -3  -3  -9  108.19    3.50
  -3  -3  -9  110.99    7.10
   3   3   9  109.19    4.30
   3   3   9  118.09    7.40
  -4  -3  -9    7.00    0.90
   4   3   9    4.20    2.40
   4   3   9    6.00    1.30
   4   3   9    4.60    0.70
   4  -4  -9   16.90    1.80
  -4   4   9   18.60    1.90
   3  -4  -9   94.09   10.50
   3  -4  -9   98.99    3.30
   3  -4  -9   95.39    3.30
  -3   4   9   99.99    3.70
  -3   4   9   91.99   10.60
   2  -4  -9    5.10    7.70
   2  -4  -9    5.70    0.80
   2  -4  -9    6.60    1.00
   2  -4  -9    6.60    0.80
  -2   4   9    2.90    4.50
  -2   4   9    5.90    1.10
   1  -4  -9  529.05   21.80
   1  -4  -9  532.65   12.70
   1  -4  -9  533.85   12.70
   1  -4  -9  531.05   13.30
  -1   4   9  533.15   13.40
  -1   4   9  558.14   22.00
   0  -4  -9  671.33   16.00
   0  -4  -9  606.14   31.60
   0   4   9  669.03   16.00
   0   4   9  633.84   33.00
  -1  -4  -9   29.20    1.70
  -1  -4  -9   37.30    5.30
   1   4   9   32.10    1.90
   1   4   9   29.10    5.10
  -2  -4  -9  153.88    4.50
  -2  -4  -9  153.48    9.30
   2   4   9  145.39    9.20
   2   4   9  158.78    4.70
  -3  -4  -9   80.39    6.90
  -3  -4  -9   85.79    2.90
   3   4   9   90.99    3.40
   3   4   9   80.89    7.10
  -4  -4  -9    8.40    1.00
   4   4   9    7.00    1.00
   4   4   9    9.60    3.30
   4   4   9    7.40    0.80
   4   4   9    6.90    1.30
   3  -5  -9  185.98   14.60
   3  -5  -9  202.88    5.60
  -3   5   9  200.48    6.10
  -3   5   9  196.58   14.20
   2  -5  -9  158.78    4.70
   2  -5  -9  155.28   12.50
   2  -5  -9  155.38    4.30
   2  -5  -9  149.79    4.30
  -2   5   9  166.68   12.70
  -2   5   9  157.58    5.50
   1  -5  -9    4.40    3.80
   1  -5  -9    1.30    0.40
   1  -5  -9    2.60    0.50
   1  -5  -9    1.80    0.70
  -1   5   9    6.00    3.90
  -1   5   9    2.90    1.00
   0  -5  -9   -1.20    3.10
   0  -5  -9    1.60    0.70
   0   5   9    1.10    0.90
   0   5   9   -2.50    2.70
  -1  -5  -9  341.47   16.00
  -1  -5  -9  336.47    8.80
   1   5   9  341.87    8.90
   1   5   9  340.47   15.80
  -2  -5  -9   30.00    1.60
  -2  -5  -9   26.30    5.10
   2   5   9   31.90    5.10
   2   5   9   28.30    1.90
  -3  -5  -9  154.18   10.10
  -3  -5  -9  157.18    4.60
   3   5   9  151.68   10.00
   3   5   9  163.98    5.10
  -4  -5  -9   35.00    1.80
   4   5   9   22.10    4.70
   4   5   9   36.70    2.40
   4   5   9   35.90    1.50
   3  -6  -9   26.70    1.80
   3  -6  -9   29.40    2.00
   3  -6  -9   25.90    7.40
  -3   6   9   28.00    7.10
  -3   6   9   27.10    2.20
   2  -6  -9    0.20    0.60
   2  -6  -9   -0.10    0.80
   2  -6  -9    0.30    0.50
   2  -6  -9   -7.70    3.60
  -2   6   9    0.00    0.90
  -2   6   9   -3.50    3.50
   1  -6  -9   35.00    1.40
   1  -6  -9   37.10    1.50
   1  -6  -9   33.10    6.50
   1  -6  -9   42.90    2.10
  -1   6   9   37.70    2.20
  -1   6   9   27.70    6.40
   0  -6  -9  141.69    4.40
   0  -6  -9  136.09   10.90
   0   6   9  143.19    4.50
   0   6   9  140.39   10.80
  -1  -6  -9  129.39   10.30
  -1  -6  -9  148.09    4.40
   1   6   9  142.49    4.50
   1   6   9  141.19   10.70
  -2  -6  -9   -4.50    2.10
  -2  -6  -9    0.70    0.70
   2   6   9    1.10    0.90
   2   6   9    1.70    2.60
  -3  -6  -9    6.40    4.90
  -3  -6  -9    6.50    1.00
   3   6   9    5.60    1.20
   3  -7  -9    0.40    0.90
   3  -7  -9   -8.60    4.60
   3  -7  -9   -0.80    0.80
  -3   7   9    5.70    5.70
  -3   7   9    0.50    1.10
   2  -7  -9   72.59   10.40
   2  -7  -9   70.49    3.00
   2  -7  -9   74.99    2.60
  -2   7   9   71.59    3.20
  -2   7   9   88.39    9.70
   1  -7  -9  153.48    4.30
   1  -7  -9  175.98    4.40
   1  -7  -9  161.48   13.50
   1  -7  -9  161.48    5.00
  -1   7   9  167.58    5.50
  -1   7   9  171.08   12.90
   0  -7  -9  193.28   13.60
   0   7   9  203.78    6.00
   0   7   9  199.98   13.70
  -1  -7  -9   53.99    2.40
  -1  -7  -9   53.49    7.90
   1   7   9   37.10    6.60
  -2  -7  -9   18.50    1.50
  -2  -7  -9   13.90    4.60
   2   7   9    9.50    5.00
   2   7   9   17.90    1.80
  -3  -7  -9    0.20    0.70
  -3  -7  -9    2.10    4.00
   3   7   9    2.10    3.40
   3   7   9    0.70    1.00
   2  -8  -9    8.60    1.30
   2  -8  -9    4.30    5.50
   2  -8  -9   11.20    1.10
  -2   8   9   18.70    5.70
  -2   8   9   14.70    1.60
   1  -8  -9   13.00    1.40
   1  -8  -9   19.90    6.90
   1  -8  -9   13.60    1.10
   1  -8  -9   18.50    1.30
  -1   8   9   13.30    5.90
  -1   8   9   16.50    2.00
   0  -8  -9   21.90    6.60
   0  -8  -9   27.00    1.90
   0   8   9   22.70    6.20
   0   8   9   25.50    2.00
  -1  -8  -9   15.80    5.40
  -1  -8  -9   26.00    1.80
   1   8   9   26.60    2.00
   1   8   9   25.10    6.10
  -2  -8  -9   23.50    1.80
  -2  -8  -9   23.90    6.30
   2   8   9   25.50    2.10
   2   8   9   23.60    6.00
  -3  -8  -9   29.70    1.80
  -3  -8  -9   24.50    6.30
   3   8   9   20.70    6.10
   3   8   9   29.40    2.30
   1  -9  -9   39.50    2.30
   1  -9  -9   40.80    1.90
   1  -9  -9   47.20    8.90
  -1   9   9   40.50    2.50
  -1   9   9   53.69    8.90
   0  -9  -9    4.60    1.10
   0  -9  -9    4.20    5.70
   0   9   9    0.30    4.80
   0   9   9    4.10    0.70
   0   9   9    4.40    1.20
  -1  -9  -9    6.80    5.20
  -1  -9  -9    6.50    1.10
   1   9   9    8.00    4.80
   1   9   9    6.10    1.20
  -2  -9  -9   17.60    1.70
  -2  -9  -9    7.70    5.60
   2   9   9   12.50    6.00
   2   9   9   16.70    1.90
   0 -10  -9   31.20    2.10
   0 -10  -9   33.40    8.70
   0  10   9   30.90    2.30
   0  10   9   28.80    1.50
   0  10   9   33.40    7.80
   1   7 -10   10.00    1.30
   1   7 -10   15.80    9.10
  -1  -7  10    9.20    1.20
   0   7 -10    2.70    0.90
   0   7 -10    2.50    4.20
   0  -7  10    3.80    1.10
  -1   7 -10  110.59    3.80
  -1   7 -10  102.59    9.40
   1  -7  10  107.19    3.90
  -2   7 -10   27.10    1.90
  -2   7 -10   27.60    4.60
   2  -7  10   23.20    1.90
   2   6 -10    5.10    1.10
   2   6 -10    7.10    5.70
  -2  -6  10    4.30    0.90
  -2  -6  10    3.90    0.80
  -2  -6  10    8.20    6.00
   1   6 -10    7.30    5.10
   1   6 -10    9.50    1.30
  -1  -6  10    7.60    5.40
   0   6 -10  135.29   10.50
   0   6 -10  132.19    4.30
   0  -6  10  137.59    4.40
  -1   6 -10   40.40    2.10
  -1   6 -10   35.90    5.80
   1  -6  10   40.40    2.20
  -2   6 -10   29.40    1.80
  -2   6 -10   24.00    4.20
   2  -6  10   32.50    2.10
   3   5 -10    2.40    1.00
   3   5 -10   -2.70    6.20
  -3  -5  10    4.30    0.90
  -3  -5  10    3.50    1.00
  -3  -5  10    7.00    5.60
   2   5 -10   -6.30    4.60
   2   5 -10    3.80    0.70
   2   5 -10    3.50    1.00
  -2  -5  10    2.60    4.30
  -2  -5  10    3.90    0.80
  -2  -5  10    3.10    0.80
   1   5 -10   26.10    6.20
   1   5 -10   31.70    1.90
  -1  -5  10   31.70    1.80
  -1  -5  10   30.20    6.70
  -1  -5  10   30.80    1.40
   0   5 -10    8.70    4.00
   0   5 -10   -0.10    0.70
   0  -5  10   -0.50    2.80
   0  -5  10    0.70    0.90
  -1   5 -10  108.79    3.40
  -1   5 -10   97.99    7.90
  -1   5 -10  100.49    7.90
   1  -5  10  108.59    3.70
  -2   5 -10    7.80    2.60
  -2   5 -10    9.70    1.10
   2  -5  10    9.60    1.30
  -3   5 -10    1.10    0.80
   3  -5  10   -0.10    0.60
   3  -5  10    0.40    0.90
   3  -5  10    1.90    0.80
   3   4 -10   10.20    1.30
   3   4 -10   14.00    6.40
  -3  -4  10    5.90    5.50
  -3  -4  10   11.50    1.30
   2   4 -10   -0.10    0.70
   2   4 -10    0.50    0.80
   2   4 -10    5.40    4.40
  -2  -4  10   -2.10    3.80
  -2  -4  10    0.00    0.70
   1   4 -10    9.20    1.10
   1   4 -10    7.60    0.80
   1   4 -10    9.20    1.10
   1   4 -10   12.50    4.30
  -1  -4  10    7.40    3.80
  -1  -4  10    9.40    1.00
   0   4 -10  689.23   16.70
   0   4 -10  658.73   24.60
   0   4 -10  707.13   16.50
   0   4 -10  657.93   16.10
   0  -4  10  651.13   24.60
   0  -4  10  702.43   16.20
  -1   4 -10    2.00    0.70
  -1   4 -10    1.70    0.90
  -1   4 -10    0.20    2.40
   1  -4  10    2.10    2.50
   1  -4  10    2.10    0.60
   1  -4  10    1.90    0.50
  -2   4 -10    0.00    1.90
  -2   4 -10    7.70    1.00
  -2   4 -10    3.40    2.70
   2  -4  10    6.80    1.10
   2  -4  10    5.50    0.70
  -3   4 -10    7.50    1.00
   3  -4  10    7.50    1.20
   3  -4  10    7.20    0.90
   3   3 -10    0.40    5.20
   3   3 -10   -0.20    0.70
   3   3 -10    0.10    0.80
  -3  -3  10    0.10    0.80
  -3  -3  10   -4.80    4.20
   2   3 -10   97.49   10.20
   2   3 -10   99.99    3.20
   2   3 -10   95.29    3.30
  -2  -3  10   99.89    3.30
  -2  -3  10  105.19   10.50
   1   3 -10  101.09    9.40
   1   3 -10   94.59    3.10
   1   3 -10   98.79    3.30
  -1  -3  10   82.59    9.50
  -1  -3  10   99.69    3.10
   0   3 -10    6.90    0.80
   0   3 -10    5.60    0.80
   0   3 -10    5.30    1.00
   0   3 -10    6.60    3.40
   0  -3  10    2.20    3.10
   0  -3  10    6.20    0.90
   0  -3  10    6.70    0.80
  -1   3 -10  465.15   11.40
  -1   3 -10  485.95   11.50
  -1   3 -10  470.45   11.90
  -1   3 -10  489.95   17.60
   1  -3  10  488.65   12.40
   1  -3  10  471.65   17.50
   1  -3  10  427.16   11.50
  -2   3 -10    8.50    3.70
  -2   3 -10    8.30    0.90
   2  -3  10    8.70    0.90
   2  -3  10    6.90    0.80
   2  -3  10    5.80    0.90
   3  -3  10  162.58    4.70
   3  -3  10  162.68    5.00
   4  -3  10   40.10    2.50
   4  -3  10   45.40    2.50
   4  -3  10   41.40    2.30
   3   2 -10    6.10    0.90
   3   2 -10    3.20    5.00
  -3  -2  10    6.00    1.30
  -3  -2  10    4.50    4.70
   2   2 -10    2.00    4.10
  -2  -2  10    4.30    3.90
   1   2 -10    3.20    0.80
   1   2 -10    4.80    0.80
   1   2 -10    3.10    0.70
   1   2 -10    7.20    5.60
  -1  -2  10    2.30    0.60
  -1  -2  10    3.20    0.90
   0   2 -10   73.39    2.50
   0   2 -10   82.19    7.20
   0   2 -10   78.59    2.40
   0   2 -10   79.39    2.80
   0  -2  10   76.39    2.60
   0  -2  10   78.89    7.60
   0  -2  10   74.99    2.40
  -1   2 -10   30.50    4.40
  -1   2 -10   29.70    1.40
  -1   2 -10   32.00    1.70
  -1   2 -10   32.60    1.40
   1  -2  10   23.10    4.10
   1  -2  10   30.60    1.30
   1  -2  10   29.30    1.50
  -2   2 -10   31.20    3.60
  -2   2 -10   26.30    1.70
  -2   2 -10   26.70    1.60
   2  -2  10   28.10    1.30
   2  -2  10   30.20    1.50
   2  -2  10   29.50    1.50
   2  -2  10   29.40    3.80
  -3   2 -10   -0.10    0.70
   3  -2  10    0.50    0.70
   3  -2  10    0.20    0.60
   3  -2  10    0.20    0.50
   4  -2  10   16.80    1.70
   4  -2  10   15.40    1.50
   4  -2  10   18.20    1.70
   4   1 -10   12.40    1.40
   4   1 -10   15.00    7.10
   4   1 -10   14.60    1.30
  -4  -1  10   13.30    1.60
  -4  -1  10   14.70    6.40
   3   1 -10    0.60    0.70
   3   1 -10    0.90    4.60
   3   1 -10    1.50    0.80
  -3  -1  10   -4.50    4.20
  -3  -1  10    1.40    1.70
   2   1 -10  146.19    4.20
   2   1 -10  144.19    4.20
   2   1 -10  144.29   11.70
  -2  -1  10  145.79    4.50
  -2  -1  10  137.69   11.80
   1   1 -10    3.20    3.20
   1   1 -10    2.40    0.70
   1   1 -10    2.10    0.70
  -1  -1  10    1.20    0.50
  -1  -1  10    0.80    0.80
  -1  -1  10    3.30    3.60
   0   1 -10   13.20    1.10
   0   1 -10   11.00    1.30
   0   1 -10   12.90    0.90
   0  -1  10   15.50    1.40
   0  -1  10   15.60    4.10
   0  -1  10   12.60    0.90
  -1   1 -10   15.40    1.10
  -1   1 -10   16.50    1.30
  -1   1 -10   16.00    0.90
  -1   1 -10   11.40    3.30
   1  -1  10   16.90    1.30
   1  -1  10   14.80    0.80
   1  -1  10   16.60    3.60
  -2   1 -10    6.50    2.20
  -2   1 -10   10.30    0.80
  -2   1 -10    7.30    1.00
   2  -1  10    9.70    2.40
   2  -1  10    8.10    0.70
   2  -1  10    8.20    1.00
  -3   1 -10  165.98    5.00
   3  -1  10  153.28    4.60
   3  -1  10  169.18    4.90
   3  -1  10  173.38    4.50
   4  -1  10  187.88    5.50
   4  -1  10  184.58    5.10
   4  -1  10  185.38    5.60
   4   0 -10   -4.90    5.60
   4   0 -10    1.80    0.80
   4   0 -10    2.50    1.00
  -4   0  10   -2.20    5.20
  -4   0  10    0.30    1.10
   3   0 -10    0.80    0.70
   3   0 -10    0.40    0.70
   3   0 -10   -1.50    4.60
  -3   0  10    1.20    1.00
  -3   0  10    0.30    4.70
   2   0 -10    2.00    3.90
   2   0 -10    1.10    0.60
   2   0 -10    4.40    0.80
  -2   0  10    3.00    0.60
  -2   0  10   -1.20    3.60
  -2   0  10    1.10    0.90
   1   0 -10  799.32   27.80
   1   0 -10  774.22   18.70
   1   0 -10  775.82   18.30
  -1   0  10  783.32   27.80
  -1   0  10  755.72   18.30
  -1   0  10  773.12   18.70
   0   0 -10   10.80    3.10
   0   0 -10   13.90    1.20
   0   0 -10   12.40    1.10
   0   0  10   14.60    3.90
  -1   0 -10   89.19    3.00
  -1   0 -10   81.99    2.80
   1   0  10   88.49    2.90
   1   0  10   72.09   10.90
  -2   0 -10    2.30    0.70
  -2   0 -10    0.30    1.80
   2   0  10    1.60    0.70
   2   0  10    0.30    1.90
  -3   0 -10  116.09    3.70
   3   0  10  110.29    3.90
   3   0  10  113.19    3.10
   3   0  10  106.79    3.10
   3   0  10  117.09    3.80
  -4   0 -10    1.90    0.80
   4   0  10    2.10    1.00
   4   0  10    2.60    0.70
   4  -1 -10   78.29    2.90
   4  -1 -10   85.69    3.30
   4  -1 -10   80.79   11.70
  -4   1  10   82.59    3.60
  -4   1  10   68.69   10.80
   3  -1 -10   12.80    1.40
   3  -1 -10   14.00    5.70
   3  -1 -10   12.80    1.30
  -3   1  10   17.30    5.60
  -3   1  10   12.20    1.40
   2  -1 -10  158.98    4.40
   2  -1 -10  170.38   12.50
   2  -1 -10  159.28    4.60
  -2   1  10  154.48    4.30
  -2   1  10  176.48   12.70
  -2   1  10  158.58    4.90
   1  -1 -10   71.79    2.60
   1  -1 -10   71.19    7.80
   1  -1 -10   68.09    2.10
  -1   1  10   71.19    2.10
  -1   1  10   68.69    2.70
  -1   1  10   70.09    8.20
   0  -1 -10  242.58   12.30
   0  -1 -10  232.18    6.30
   0   1  10  229.58    6.30
   0   1  10  241.28   12.50
  -1  -1 -10   51.79    2.10
  -1  -1 -10   43.50    5.50
   1   1  10   47.90    5.60
   1   1  10   48.80    2.10
  -2  -1 -10   48.80    2.10
  -2  -1 -10   42.90    4.70
   2   1  10   52.89    2.20
   2   1  10   44.90    4.80
  -3  -1 -10  104.69    3.50
  -3  -1 -10  105.69    5.40
   3   1  10  102.69    5.60
   3   1  10  113.99    3.70
  -4  -1 -10  137.19    4.70
   4   1  10  138.09    4.60
   4   1  10  136.49    3.80
   4   1  10  127.79    3.80
   4  -2 -10   -1.40    6.70
   4  -2 -10    0.70    0.80
   4  -2 -10   -0.30    0.90
  -4   2  10   -3.10    5.70
  -4   2  10    1.20    1.10
   3  -2 -10   28.10    1.70
   3  -2 -10   26.30    1.60
   3  -2 -10   23.10    6.90
  -3   2  10   28.20    6.80
  -3   2  10   23.60    2.00
   2  -2 -10    0.40    0.70
   2  -2 -10   -0.10    0.80
   2  -2 -10    0.30    0.50
   2  -2 -10   -1.20    3.50
  -2   2  10   -2.00    3.60
  -2   2  10    0.80    0.90
   1  -2 -10  321.37    8.10
   1  -2 -10  334.57    8.70
   1  -2 -10  330.97    8.10
   1  -2 -10  350.76   16.60
  -1   2  10  360.16   16.80
  -1   2  10  340.17    8.80
   0  -2 -10  749.82   18.30
   0  -2 -10  750.02   26.10
   0   2  10  767.72   18.40
   0   2  10  757.62   26.20
  -1  -2 -10   11.30    1.20
  -1  -2 -10   11.50    3.40
   1   2  10   11.70    3.60
   1   2  10    7.60    1.00
  -2  -2 -10   45.00    2.00
  -2  -2 -10   43.50    5.10
   2   2  10   48.40    2.20
   2   2  10   44.60    5.30
  -3  -2 -10   30.60    1.80
   3   2  10   34.10    2.50
  -4  -2 -10    3.70    0.90
   4   2  10    7.10    2.10
   4   2  10    3.00    0.70
   4   2  10    5.30    0.70
   4   2  10    3.70    1.20
   3  -3 -10   74.39    2.70
   3  -3 -10   82.79   10.90
   3  -3 -10   72.09    2.80
  -3   3  10   66.19    9.50
  -3   3  10   62.79    3.10
   2  -3 -10  135.69    4.60
   2  -3 -10  164.98    4.40
   2  -3 -10  168.18    4.80
   2  -3 -10  190.88   12.80
  -2   3  10  160.78    5.00
  -2   3  10  175.18   12.50
   1  -3 -10  633.84   24.50
   1  -3 -10  617.94   15.10
  -1   3  10  602.74   24.10
  -1   3  10  604.74   15.20
   0  -3 -10  283.27    7.60
   0  -3 -10  288.27   14.30
   0   3  10  294.07    7.80
   0   3  10  289.87   14.80
  -1  -3 -10    0.70    2.70
  -1  -3 -10    1.00    0.70
   1   3  10    1.60    0.80
   1   3  10    5.20    2.80
  -2  -3 -10    6.60    1.00
  -2  -3 -10    7.20    3.00
   2   3  10    4.60    2.70
   2   3  10    7.70    1.10
  -3  -3 -10  100.69    7.20
  -3  -3 -10  114.49    3.60
   3   3  10  105.39    7.40
   3   3  10  111.49    3.90
  -4  -3 -10  190.18    5.40
   4   3  10  178.88    8.60
   4   3  10  189.48    5.90
   3  -4 -10   45.80    2.10
   3  -4 -10   36.50    7.90
  -3   4  10   42.40    2.60
  -3   4  10   38.70    7.50
   2  -4 -10    4.50    4.30
   2  -4 -10   -0.70    0.70
   2  -4 -10    0.70    0.50
  -2   4  10    0.80    0.90
  -2   4  10    1.70    4.00
   1  -4 -10   23.40    5.70
   1  -4 -10   17.30    1.50
  -1   4  10   16.70    1.80
  -1   4  10   24.60    6.00
   0  -4 -10  381.46   10.10
   0  -4 -10  417.66   26.60
   0   4  10  392.96   10.20
   0   4  10  388.66   24.70
  -1  -4 -10  162.88    4.80
   1   4  10  158.28   10.50
   1   4  10  166.98    4.90
  -2  -4 -10   49.99    2.20
  -2  -4 -10   53.29    6.80
   2   4  10   42.90    6.10
   2   4  10   49.00    2.40
  -3  -4 -10    2.50    0.80
  -3  -4 -10    4.20    2.80
   3   4  10    4.10    2.70
   3   4  10    3.40    1.10
  -4  -4 -10   -0.10    0.70
   4   4  10    1.90    2.70
   4   4  10   -0.90    1.00
   3  -5 -10   24.50    1.90
   3  -5 -10   26.70    1.70
   3  -5 -10   27.50    8.70
  -3   5  10   27.40    2.20
  -3   5  10   26.30    8.00
   2  -5 -10    3.10    4.50
   2  -5 -10    0.20    0.90
  -2   5  10    4.80    4.20
   1  -5 -10  229.58   14.80
   1  -5 -10  228.38    6.30
  -1   5  10  208.18   13.70
  -1   5  10  216.78    6.40
   0  -5 -10  323.07   17.10
   0  -5 -10  336.77    8.90
   0   5  10  346.47   17.10
   0   5  10  338.67    9.00
  -1  -5 -10  175.58   11.80
  -1  -5 -10  196.88    5.60
   1   5  10  200.28    5.70
   1   5  10  187.68   12.00
  -2  -5 -10   46.60    6.70
  -2  -5 -10   40.70    2.00
   2   5  10   38.20    5.90
   2   5  10   37.20    2.20
  -3  -5 -10   27.10    4.90
  -3  -5 -10   24.70    1.70
   3   5  10   19.20    4.50
   3   5  10   26.30    2.10
   3  -6 -10   15.60    6.40
  -3   6  10   10.10    5.30
   2  -6 -10    0.70    5.10
   2  -6 -10    3.90    0.70
   2  -6 -10    5.20    1.00
   2  -6 -10    3.50    0.70
  -2   6  10    3.50    1.20
  -2   6  10    1.80    4.80
   1  -6 -10   49.40    2.30
   1  -6 -10   46.80    8.20
  -1   6  10   40.60    7.20
  -1   6  10   46.00    2.50
   0  -6 -10   -3.20    3.40
   0   6  10    0.50    3.50
  -1  -6 -10   27.00    5.70
  -1  -6 -10   24.40    1.70
   1   6  10   21.20    1.80
   1   6  10   26.60    5.30
  -2  -6 -10   64.69    7.70
  -2  -6 -10   50.49    2.40
   2   6  10   58.09    7.70
   2   6  10   56.29    2.70
  -3  -6 -10   32.60    6.10
   3   6  10   26.50    5.10
   3   6  10   31.00    2.20
   2  -7 -10    9.70    6.50
   2  -7 -10   21.60    1.90
   2  -7 -10   21.90    1.50
  -2   7  10   23.20    2.20
  -2   7  10   18.30    6.30
   1  -7 -10   -0.40    0.80
   1  -7 -10   -4.40    4.60
  -1   7  10    2.20    4.50
  -1   7  10    0.90    1.10
   0  -7 -10   71.29    9.60
   0  -7 -10   64.19    2.80
   0   7  10   62.29    9.10
   0   7  10   66.79    3.00
  -1  -7 -10    9.60    1.20
  -1  -7 -10   17.80    5.00
   1   7  10    8.10    4.80
   1   7  10    9.90    1.30
  -2  -7 -10  119.49    4.10
  -2  -7 -10  122.49   10.60
   2   7  10  134.29   11.10
   2   7  10  127.19    4.40
  -3  -7 -10   -7.30    3.90
  -3  -7 -10    2.10    0.80
   3   7  10    1.20    1.00
   3   7  10    0.80    3.70
   2  -8 -10   24.30    2.00
   2  -8 -10   21.00    1.50
  -2   8  10   25.10   10.80
  -2   8  10   21.00    2.20
   1  -8 -10   49.50    1.90
   1  -8 -10   42.30    1.70
   1  -8 -10   45.30    2.50
   1  -8 -10   48.40    9.10
  -1   8  10   48.50    2.70
  -1   8  10   49.20    8.50
   0  -8 -10    1.40    0.80
   0  -8 -10   -3.40    4.40
   0   8  10    5.70    4.20
   0   8  10   -0.20    0.90
  -1  -8 -10    7.80    1.20
  -1  -8 -10    4.60    5.40
   1   8  10    7.50    4.80
   1   8  10   10.70    1.40
  -2  -8 -10    1.10    0.80
   2   8  10    4.50    4.10
   2   8  10    0.50    1.00
   1  -9 -10    4.00    5.60
  -1   9  10    7.90    5.30
   0  -9 -10   12.80    1.40
   0  -9 -10   13.00    6.70
   0   9  10   13.70    5.90
   0   9  10   13.80    1.60
  -1  -9 -10   -2.80    6.30
  -1  -9 -10   15.40    1.70
   1   9  10   17.40    6.20
   1   9  10   13.70    1.60
   0   7 -11   41.10    6.90
   0   7 -11   54.19    2.60
   0  -7  11   55.79    2.70
   1   6 -11    5.60    1.20
   1   6 -11   -1.00    4.70
  -1  -6  11    4.50    1.10
  -1  -6  11    4.90    4.20
   0   6 -11    1.50    0.80
   0   6 -11    8.90    4.70
   0  -6  11    1.30    0.90
  -1   6 -11    0.70    3.30
  -1   6 -11    0.90    0.80
   1  -6  11    1.70    0.90
  -2   6 -11    8.40    1.10
  -2   6 -11   10.80    3.40
   2  -6  11    9.10    1.30
   2   5 -11   56.29    9.30
   2   5 -11   69.49    2.90
  -2  -5  11   59.69    2.90
  -2  -5  11   64.69    2.50
  -2  -5  11   67.99   10.40
   1   5 -11  288.77   17.00
   1   5 -11  251.47    6.90
   1   5 -11  282.37    7.60
  -1  -5  11  283.57    7.50
  -1  -5  11  271.97   16.90
   0   5 -11   50.19    2.20
   0   5 -11   45.40    7.10
   0  -5  11   46.60    6.90
   0  -5  11   48.50    2.40
  -1   5 -11    3.80    2.90
  -1   5 -11    0.70    0.70
   1  -5  11    3.40    1.00
  -2   5 -11    0.60    2.50
  -2   5 -11    0.70    0.70
   2  -5  11    1.20    0.90
   2   4 -11    9.40    5.60
   2   4 -11    2.00    1.10
   2   4 -11    2.40    0.90
  -2  -4  11    3.90    0.90
  -2  -4  11   -1.60    3.80
   1   4 -11   46.90    2.20
   1   4 -11   48.50    7.90
   1   4 -11   48.70    2.20
   1   4 -11   48.20    2.40
  -1  -4  11   46.60    2.00
  -1  -4  11   46.70    7.50
   0   4 -11   26.70    1.90
   0   4 -11   26.50    5.60
   0   4 -11   27.30    1.60
   0   4 -11   24.70    1.20
   0  -4  11   25.10    1.50
   0  -4  11   28.00    5.50
  -1   4 -11   11.20    1.20
  -1   4 -11   11.30    1.30
  -1   4 -11   10.10    3.70
   1  -4  11   10.20    1.10
   1  -4  11   10.90    3.60
   1  -4  11   12.60    1.00
  -2   4 -11   92.99    6.20
  -2   4 -11   91.59    3.00
   2  -4  11   88.09    2.80
   2  -4  11   92.49    3.40
  -3   4 -11   55.89    2.30
   3  -4  11   60.29    2.80
   3  -4  11   51.69    2.20
   3   3 -11    1.50    6.10
   3   3 -11    0.70    0.90
   3   3 -11   -0.10    0.70
  -3  -3  11    1.60    5.30
  -3  -3  11    0.80    0.90
   2   3 -11   14.00    1.50
   2   3 -11    7.80    5.40
   2   3 -11   16.10    1.50
  -2  -3  11   16.20    1.60
  -2  -3  11   17.20    5.70
   1   3 -11  307.67    8.30
   1   3 -11  305.37   17.50
   1   3 -11  330.27    8.60
   1   3 -11  345.77    8.40
  -1  -3  11  340.87    8.40
  -1  -3  11  301.27   17.70
   0   3 -11  175.38    5.10
   0   3 -11  186.68   11.80
   0   3 -11  190.98    5.50
   0   3 -11  200.28    5.20
   0  -3  11  187.48    5.10
   0  -3  11  200.88    5.20
   0  -3  11  181.88   11.80
  -1   3 -11   22.50    1.20
  -1   3 -11   21.00    1.30
  -1   3 -11   21.30    1.70
  -1   3 -11   17.90    4.10
   1  -3  11   20.60    1.40
   1  -3  11   18.90    1.20
   1  -3  11   13.90    3.70
  -2   3 -11   99.99    3.60
  -2   3 -11   98.19    6.40
  -2   3 -11  101.49    3.10
   2  -3  11  100.29    3.10
   2  -3  11   96.89    3.10
   2  -3  11  101.19    3.20
   3  -3  11   75.29    2.80
   3  -3  11   80.39    3.20
   3   2 -11   49.50    2.20
   3   2 -11   48.00    2.40
   3   2 -11   46.40    9.00
  -3  -2  11   48.80    8.60
  -3  -2  11   47.70    2.50
   2   2 -11   22.60    6.40
   2   2 -11   11.10    1.10
   2   2 -11    9.90    1.10
  -2  -2  11   10.70    1.20
  -2  -2  11    4.70    4.90
   1   2 -11   88.19   14.60
   1   2 -11  112.09    3.40
   1   2 -11  116.49    3.70
  -1  -2  11  111.89    3.30
  -1  -2  11  113.39    3.60
  -1  -2  11  112.29   17.20
   0   2 -11  264.37    6.80
   0   2 -11  267.77   13.70
   0   2 -11  262.17    7.20
   0   2 -11  250.37    6.80
   0  -2  11  262.87    6.70
   0  -2  11  270.07    7.00
   0  -2  11  287.97   14.30
  -1   2 -11  154.78    4.70
  -1   2 -11  159.98    4.20
  -1   2 -11  150.38    4.40
  -1   2 -11  157.88    9.50
   1  -2  11  160.48    4.40
   1  -2  11  153.78    4.10
   1  -2  11  161.98    9.60
  -2   2 -11  118.49    3.30
  -2   2 -11  109.39    9.00
  -2   2 -11  112.89    3.80
   2  -2  11  114.49    3.50
   2  -2  11  112.59    3.20
   2  -2  11  102.59   10.00
  -3   2 -11  179.18    5.30
   3  -2  11  157.48    4.70
   3  -2  11  181.48    4.80
   3  -2  11  171.08    5.00
   3   1 -11   -1.50    5.10
   3   1 -11    3.70    1.10
   3   1 -11    2.50    0.80
  -3  -1  11    2.30    1.10
  -3  -1  11    7.10    5.20
   2   1 -11   52.99    2.30
   2   1 -11   53.29    2.20
   2   1 -11   37.40    7.50
  -2  -1  11   44.90    7.70
  -2  -1  11   57.89    2.60
   1   1 -11    5.60    3.80
   1   1 -11    0.30    0.70
   1   1 -11   -0.20    0.50
  -1  -1  11    0.10    0.80
  -1  -1  11    0.10    0.50
  -1  -1  11    0.80    3.60
   0   1 -11   29.40    1.60
   0   1 -11   38.20    1.90
   0   1 -11   32.70    1.40
   0  -1  11   36.20    1.90
   0  -1  11   32.20    5.50
   0  -1  11   33.00    1.30
  -1   1 -11   14.00    1.40
  -1   1 -11   18.30    4.00
  -1   1 -11   14.70    1.50
  -1   1 -11   16.20    0.90
   1  -1  11   15.20    3.70
   1  -1  11   16.10    1.40
   1  -1  11   16.50    0.90
  -2   1 -11   60.69    5.10
   2  -1  11   47.90    4.90
   2  -1  11   59.19    2.30
  -3   1 -11  113.59    3.90
   3  -1  11  108.29    3.30
   3  -1  11  122.99    3.90
   3  -1  11  119.89    3.30
   3   0 -11    2.30    0.90
   3   0 -11    2.60    0.90
   3   0 -11    9.30    5.40
  -3   0  11    3.60    1.10
  -3   0  11   -3.90    5.30
   2   0 -11   22.00    1.60
   2   0 -11   21.10    1.40
   2   0 -11   14.20    5.50
  -2   0  11   20.80    6.10
  -2   0  11   18.00    1.20
  -2   0  11   23.10    1.90
   1   0 -11   -0.20    3.00
   1   0 -11    1.10    0.50
   1   0 -11    2.20    0.80
  -1   0  11    0.90    3.60
  -1   0  11    1.60    0.90
   0   0 -11  559.84   14.00
   0   0  11  563.94   21.90
   0   0  11  568.74   13.90
  -1   0 -11  985.50   32.80
  -1   0 -11  985.50   23.80
   1   0  11  987.40   33.30
   1   0  11  993.10   23.60
  -2   0 -11   31.90    4.40
  -2   0 -11   31.10    1.80
   2   0  11   34.10    1.80
   2   0  11   29.70    4.30
  -3   0 -11   31.80    2.50
  -3   0 -11   32.90    1.90
   3   0  11   34.60    2.80
   3   0  11   26.80    2.70
  -4   0 -11   14.10    1.40
   4   0  11   13.10    1.10
   4   0  11   15.10    1.70
   3  -1 -11   44.00    8.70
   3  -1 -11   39.20    2.00
   3  -1 -11   37.60    2.00
  -3   1  11   47.80    8.70
  -3   1  11   40.30    2.50
   2  -1 -11  139.09   12.30
   2  -1 -11  150.78    4.20
   2  -1 -11  155.68    4.60
  -2   1  11  146.89    4.10
  -2   1  11  155.68    4.80
  -2   1  11  135.69   12.20
   1  -1 -11   26.20    1.20
   1  -1 -11   27.40    1.70
   1  -1 -11   19.10    5.10
  -1   1  11   32.40    6.40
  -1   1  11   25.30    1.10
  -1   1  11   24.70    1.90
   0  -1 -11    2.10    0.80
   0  -1 -11    4.90    2.90
   0   1  11    3.50    3.20
   0   1  11    1.70    0.90
  -1  -1 -11    3.70    3.10
  -1  -1 -11    1.80    0.80
   1   1  11   -0.30    0.80
   1   1  11    0.10    2.40
  -2  -1 -11    1.50    0.70
  -2  -1 -11    3.60    2.60
   2   1  11    4.40    2.60
   2   1  11    1.70    0.80
  -3  -1 -11  168.08    5.30
  -3  -1 -11  156.28    7.20
   3   1  11  157.58    7.50
   3   1  11  163.28    5.10
  -4  -1 -11   68.39    2.80
   4   1  11   66.09    3.00
   4   1  11   66.29    2.20
   3  -2 -11   10.80    6.40
   3  -2 -11   16.40    1.50
   3  -2 -11   16.10    1.50
  -3   2  11   18.80    6.30
  -3   2  11   15.00    1.70
   2  -2 -11    8.90    5.30
   2  -2 -11   14.60    1.10
   2  -2 -11   13.70    1.50
   2  -2 -11   13.50    1.10
  -2   2  11   12.10    5.30
  -2   2  11   12.90    1.60
   1  -2 -11   15.80    5.00
   1  -2 -11   27.50    1.80
  -1   2  11   23.20    5.80
  -1   2  11   30.60    2.00
   0  -2 -11  168.98   11.10
   0  -2 -11  168.68    5.00
   0   2  11  165.38   10.80
   0   2  11  173.48    5.10
  -1  -2 -11  650.03   16.10
  -1  -2 -11  651.93   23.40
   1   2  11  667.23   23.50
   1   2  11  650.03   16.10
  -2  -2 -11  275.17    7.50
  -2  -2 -11  282.67   12.90
   2   2  11  286.67    7.70
   2   2  11  279.07   12.70
  -3  -2 -11   25.40    3.70
  -3  -2 -11   22.10    2.40
   3   2  11   22.60    3.70
   3   2  11   26.70    2.00
  -4  -2 -11   14.40    1.50
   4   2  11    9.70    1.40
   3  -3 -11   28.50    1.90
   3  -3 -11   15.60    6.70
   3  -3 -11   24.00    1.60
  -3   3  11   29.80    7.00
  -3   3  11   22.60    2.20
   2  -3 -11   28.20    1.80
   2  -3 -11   31.00    1.50
   2  -3 -11   33.40    2.20
   2  -3 -11   27.30   10.70
  -2   3  11   32.00    2.20
   1  -3 -11    1.70    0.90
   1  -3 -11   -3.60    3.40
  -1   3  11    0.20    1.00
  -1   3  11   -2.70    3.90
   0  -3 -11  367.56    9.60
   0  -3 -11  363.06   17.30
   0   3  11  374.26   17.60
   0   3  11  377.76    9.70
  -1  -3 -11    5.50    0.90
  -1  -3 -11    7.50    3.50
   1   3  11    6.60    1.10
   1   3  11    1.40    3.00
  -2  -3 -11   12.90    1.40
  -2  -3 -11   16.80    4.30
   2   3  11   14.60    4.00
  -3  -3 -11   49.60    3.30
  -3  -3 -11   44.60    5.60
   3   3  11   53.79    2.70
   3   3  11   59.59    6.10
   3  -4 -11   40.40    8.40
   3  -4 -11   33.20    2.10
   3  -4 -11   35.90    1.80
  -3   4  11   34.90    7.90
  -3   4  11   35.60    2.50
   2  -4 -11    9.10    1.20
   2  -4 -11    9.10    1.00
   2  -4 -11    5.90    5.40
  -2   4  11    9.90    1.40
  -2   4  11   10.20    4.60
   1  -4 -11    3.80    4.30
   1  -4 -11    2.20    1.10
  -1   4  11    2.20    4.20
  -1   4  11    1.90    1.80
   0  -4 -11  581.84   33.50
   0  -4 -11  609.24   15.20
   0   4  11  624.54   15.30
   0   4  11  614.44   34.60
  -1  -4 -11   17.70    1.50
   1   4  11   12.00    4.00
   1   4  11   20.40    1.70
  -2  -4 -11  381.26   10.30
  -2  -4 -11  374.96   18.10
   2   4  11  383.56   10.00
   2   4  11  361.66   18.10
  -3  -4 -11  153.98   10.10
  -3  -4 -11  141.79    4.60
   3   4  11  148.39    5.00
   3   4  11  148.49    9.80
   3  -5 -11    0.40    6.10
   3  -5 -11    0.00    0.90
   3  -5 -11   -1.00    0.60
  -3   5  11   -0.20    1.00
  -3   5  11  -11.20    4.50
   2  -5 -11   35.90    1.50
   2  -5 -11   33.80    2.10
   2  -5 -11   34.50    1.50
   2  -5 -11   32.80    7.60
  -2   5  11   29.80    7.30
  -2   5  11   36.50    2.40
   1  -5 -11   -3.20    4.40
   1  -5 -11    0.40    0.80
  -1   5  11    0.40    1.10
  -1   5  11    0.80    4.10
   0  -5 -11  219.68   14.10
   0  -5 -11  208.68    6.30
   0   5  11  219.38    6.40
   0   5  11  208.08   13.80
  -1  -5 -11   16.70    1.80
  -1  -5 -11   19.80    5.30
   1   5  11   26.00    5.60
   1   5  11   20.30    1.80
  -2  -5 -11    9.00    1.20
  -2  -5 -11   16.20    4.50
   2   5  11    7.20    1.20
   2   5  11    6.10    3.30
  -3  -5 -11   21.50    1.70
  -3  -5 -11   15.60    4.80
   3   5  11   14.00    4.60
   3   5  11   22.20    2.20
   2  -6 -11    3.40    0.70
   2  -6 -11    3.80    5.50
   2  -6 -11    3.20    0.70
   2  -6 -11    3.00    1.00
  -2   6  11   -5.20    4.80
  -2   6  11    3.30    1.20
   1  -6 -11   17.80    6.30
   1  -6 -11   22.70    1.80
  -1   6  11   22.30    6.50
  -1   6  11   21.90    2.10
   0  -6 -11  324.77    9.00
   0  -6 -11  340.67   18.30
   0   6  11  363.76   18.50
   0   6  11  332.07    9.20
  -1  -6 -11   75.29    9.10
  -1  -6 -11   75.89    3.00
   1   6  11   66.39    8.40
   1   6  11   75.89    3.20
  -2  -6 -11   18.20    1.60
  -2  -6 -11   18.20    5.20
   2   6  11   20.40    1.90
   2   6  11   11.40    4.30
  -3  -6 -11   49.80    7.40
  -3  -6 -11   55.19    2.60
   3   6  11   56.09    7.60
   3   6  11   59.29    3.00
   2  -7 -11   29.90    8.50
   2  -7 -11   42.50    2.50
   2  -7 -11   45.00    1.80
  -2   7  11   49.50    2.80
  -2   7  11   45.60    8.30
   1  -7 -11    3.10    5.10
   1  -7 -11    7.90    1.20
  -1   7  11    9.90    1.40
  -1   7  11    8.80    5.00
   0  -7 -11    1.20    0.90
   0  -7 -11    6.60    5.40
   0   7  11   -0.80    4.30
   0   7  11    3.20    1.10
  -1  -7 -11    3.80    4.40
  -1  -7 -11    9.70    1.30
   1   7  11   10.40    1.50
   1   7  11   10.10    4.90
  -2  -7 -11    1.00    0.80
   2   7  11   -1.40    3.90
   2   7  11    0.40    0.90
   1  -8 -11   33.60    2.20
   1  -8 -11   39.50    9.00
  -1   8  11   38.60    7.90
  -1   8  11   35.10    2.50
   0  -8 -11    0.30    0.80
   0  -8 -11    4.70    6.20
   0   8  11    0.40    1.00
   0   8  11   -0.20    4.50
  -1  -8 -11   70.89    3.10
  -1  -8 -11   90.19   11.10
   1   8  11   81.49   10.10
   1   8  11   72.29    3.40
   0   6 -12    0.50    4.90
   0   6 -12    2.30    1.00
   0  -6  12    4.60    1.10
   1   5 -12   -6.40    4.50
   1   5 -12   -0.10    0.90
  -1  -5  12    0.20    0.70
  -1  -5  12    1.60    4.50
   0   5 -12   -0.30    0.70
   0   5 -12    1.30    3.60
   0  -5  12    0.90    3.40
   0  -5  12    0.00    0.80
  -1   5 -12    0.50    0.70
  -1   5 -12    5.10    3.60
   1  -5  12    0.70    0.90
  -2   5 -12    0.50    0.80
   2  -5  12    3.40    1.10
   2   4 -12   40.60    2.30
   2   4 -12   31.70    8.50
   2   4 -12   45.20    2.30
  -2  -4  12   52.09    8.50
  -2  -4  12   40.50    2.20
   1   4 -12   71.29    2.70
   1   4 -12   88.69    3.30
   1   4 -12   89.49   10.50
   1   4 -12   88.69    3.10
  -1  -4  12   84.29    2.90
  -1  -4  12   79.59    9.60
   0   4 -12   17.20    1.10
   0   4 -12   23.20    5.30
   0   4 -12   15.70    1.30
   0   4 -12   14.50    1.60
   0  -4  12   16.20    1.30
   0  -4  12   15.10    4.40
  -1   4 -12  173.28    4.70
  -1   4 -12  158.08   10.50
  -1   4 -12  169.78    5.20
   1  -4  12  139.99   10.40
   1  -4  12  161.88    4.50
   1  -4  12  164.18    4.50
  -2   4 -12  135.49    8.40
  -2   4 -12  158.08    4.50
   2  -4  12  154.98    4.30
   2  -4  12  146.59    4.30
   2  -4  12  162.48    5.10
   2   3 -12   12.30    5.80
  -2  -3  12   11.90    5.50
   1   3 -12   31.40    6.80
   1   3 -12   18.10    1.60
   1   3 -12   20.70    1.80
  -1  -3  12   21.90    6.30
  -1  -3  12   20.40    1.70
   0   3 -12    5.10    0.70
   0   3 -12    4.10    3.30
   0   3 -12    5.70    0.80
   0   3 -12    6.00    1.10
   0  -3  12    5.40    0.90
   0  -3  12    8.60    3.40
   0  -3  12    6.20    0.90
  -1   3 -12   99.09    8.30
  -1   3 -12  100.19    3.20
  -1   3 -12  109.09    3.20
  -1   3 -12  108.99    3.80
   1  -3  12  107.09    3.30
   1  -3  12  117.69    8.50
   1  -3  12   96.99    3.10
  -2   3 -12   32.20    1.60
  -2   3 -12   38.70    5.10
  -2   3 -12   29.80    2.10
   2  -3  12   29.50    1.70
   3  -3  12   36.50    2.30
   3  -3  12   36.30    1.90
   3  -3  12   36.70    1.90
   2   2 -12    2.40    5.50
   2   2 -12    8.40    1.10
  -2  -2  12    8.00    1.20
  -2  -2  12    3.80    4.80
   1   2 -12   19.70    1.40
   1   2 -12   14.40    2.10
  -1  -2  12   14.70    1.40
  -1  -2  12   19.70    1.70
   0   2 -12   30.70    5.70
   0   2 -12   46.60    1.80
   0   2 -12   44.20    2.20
   0  -2  12   41.40    2.10
   0  -2  12   50.09    7.00
   0  -2  12   43.80    1.70
  -1   2 -12  119.49    8.70
  -1   2 -12  124.29    4.00
   1  -2  12  103.49    8.30
   1  -2  12  112.29    3.30
   1  -2  12  125.09    3.70
  -2   2 -12  261.17    6.50
  -2   2 -12  260.97    7.20
  -2   2 -12  260.67   11.20
   2  -2  12  241.88   11.10
   2  -2  12  242.68    6.40
   2  -2  12  259.57    6.90
  -3   2 -12   46.40    2.50
   3  -2  12   47.00    2.30
   3  -2  12   45.20    1.90
   3   1 -12    1.00    0.80
   3   1 -12   -2.40    5.80
   3   1 -12   -1.30    0.90
  -3  -1  12   -0.10    1.00
  -3  -1  12    0.60    5.30
   2   1 -12   87.09    3.30
   2   1 -12   86.59   10.60
   2   1 -12   91.19    3.00
  -2  -1  12   78.89   10.50
  -2  -1  12   77.79    3.90
   1   1 -12  175.18    4.70
   1   1 -12  159.38   12.50
   1   1 -12  172.28    5.60
  -1  -1  12  176.68    5.20
  -1  -1  12  172.78   12.70
  -1  -1  12  182.68    4.90
   0   1 -12   76.99    4.30
   0   1 -12   73.89    2.20
   0   1 -12   63.89    7.30
   0  -1  12   75.19    2.80
   0  -1  12   71.29    2.20
   0  -1  12   60.69    7.90
  -1   1 -12    2.00    2.60
  -1   1 -12   -0.60    0.70
   1  -1  12    0.20    2.60
   1  -1  12    0.30    0.70
  -2   1 -12   81.59    7.80
  -2   1 -12   86.79    3.30
   2  -1  12   68.89    8.10
   2  -1  12   87.29    3.10
  -3   1 -12    1.90    0.90
   3  -1  12    2.00    0.90
   3   0 -12   36.90    2.50
   3   0 -12   45.90    9.20
  -3   0  12   38.10    2.50
  -3   0  12   30.20    8.20
   2   0 -12   49.99    2.70
   2   0 -12   50.29    2.10
   2   0 -12   35.20    7.50
  -2   0  12   49.50    2.60
  -2   0  12   62.19    9.50
   1   0 -12    2.60    0.60
   1   0 -12    0.10    3.70
   1   0 -12    1.50    0.90
  -1   0  12    2.10    1.00
  -1   0  12    3.60    4.10
  -1   0  12    3.80    0.60
   0   0 -12   29.40    2.20
   0   0  12   32.50    2.00
   0   0  12   39.70    6.60
  -1   0 -12    3.90    1.00
  -1   0 -12    6.00    3.50
   1   0  12    5.00    1.00
   1   0  12    6.70    2.90
  -2   0 -12  339.17   13.90
  -2   0 -12  334.17    9.10
   2   0  12  340.87   14.10
   2   0  12  348.87    9.00
  -3   0 -12  160.78    5.10
  -3   0 -12  155.78    6.60
   3   0  12  164.28    6.80
   3   0  12  171.88    5.10
   3  -1 -12    5.50    1.00
   3  -1 -12    7.00    6.10
   3  -1 -12    6.00    1.10
  -3   1  12    4.40    1.30
  -3   1  12    6.30    5.90
   2  -1 -12   34.70    7.40
   2  -1 -12   49.20    1.90
  -2   1  12   42.90    7.60
  -2   1  12   45.30    1.90
  -2   1  12   48.80    2.60
   1  -1 -12  197.68   13.50
   1  -1 -12  204.38    5.20
   1  -1 -12  207.38    6.40
  -1   1  12  214.68    6.00
  -1   1  12  202.78   13.50
   0  -1 -12  178.88    5.70
   0  -1 -12  185.98   11.80
   0   1  12  167.38   11.70
   0   1  12  169.68    5.20
  -1  -1 -12   54.89    2.70
  -1  -1 -12   58.29    7.90
   1   1  12   43.70    6.70
   1   1  12   52.99    2.40
  -2  -1 -12    1.70    2.50
  -2  -1 -12    1.30    0.80
   2   1  12    0.30    0.80
   2   1  12    1.20    2.50
  -3  -1 -12    2.90    2.10
  -3  -1 -12    0.50    0.90
   3   1  12   -1.80    1.90
   3   1  12    0.70    1.00
   3  -2 -12   17.90    7.30
   3  -2 -12   20.30    1.70
  -3   2  12   19.30    2.10
  -3   2  12    8.90    6.00
   2  -2 -12    2.50    0.60
   2  -2 -12    3.10    1.00
   2  -2 -12    3.50    0.70
   2  -2 -12    0.60    4.80
  -2   2  12    5.80    5.00
  -2   2  12    2.50    1.20
   1  -2 -12   36.90    3.00
   1  -2 -12   49.80    7.90
  -1   2  12   33.30    6.60
   0  -2 -12   13.10    4.30
   0   2  12   15.90    1.70
   0   2  12   16.40    4.60
  -1  -2 -12    1.70    3.10
  -1  -2 -12    1.10    0.70
   1   2  12    1.90    2.60
   1   2  12   -1.10    0.70
  -2  -2 -12   92.09    3.40
  -2  -2 -12   95.99    7.70
   2   2  12   91.49    7.50
   2   2  12   95.49    3.50
  -3  -2 -12  222.58   10.70
  -3  -2 -12  233.68    6.70
   3   2  12  227.78   10.90
   3   2  12  246.68    7.00
   3  -3 -12    7.40    1.20
   3  -3 -12   -0.80    5.80
   3  -3 -12    9.10    1.10
  -3   3  12   10.00    1.50
  -3   3  12   11.10    5.90
   2  -3 -12    2.20    0.90
   2  -3 -12    3.50    0.70
   2  -3 -12    5.70    5.50
   2  -3 -12    4.00    0.70
  -2   3  12    2.70    1.20
  -2   3  12   10.80    5.30
   1  -3 -12  335.07   18.40
   1  -3 -12  338.67    9.00
  -1   3  12  344.87    9.20
  -1   3  12  327.97   18.20
   0  -3 -12    6.10    1.10
   0  -3 -12    8.20    4.20
   0   3  12   12.90    4.10
  -1  -3 -12  139.49    4.50
  -1  -3 -12  148.49   10.70
   1   3  12  142.79   10.30
   1   3  12  150.38    5.00
  -2  -3 -12    0.00    0.70
  -2  -3 -12   -1.50    2.70
   2   3  12   -1.40    2.30
   2   3  12   -0.90    0.80
  -3  -3 -12   53.29    2.60
  -3  -3 -12   54.59    7.00
   3   3  12   53.89    6.50
   3   3  12   54.59    2.90
   2  -4 -12    4.20    1.00
   2  -4 -12    4.30    0.70
   2  -4 -12    7.00    5.80
   2  -4 -12    2.20    1.00
  -2   4  12    5.40    5.10
  -2   4  12    5.70    1.30
   1  -4 -12    6.40    1.10
   1  -4 -12   15.80    5.80
  -1   4  12    7.20    1.40
  -1   4  12    2.30    4.40
   0  -4 -12   16.60    1.60
   0  -4 -12   15.00    8.80
   0   4  12   16.80    1.80
   0   4  12   20.50    7.80
  -1  -4 -12   92.69    3.50
   1   4  12  109.09    3.70
   1   4  12   83.49    8.70
  -2  -4 -12    2.00    3.80
  -2  -4 -12    8.20    1.20
   2   4  12   10.50    4.00
   2   4  12   12.80    1.50
  -3  -4 -12   40.60    6.10
  -3  -4 -12   45.80    2.40
   3   4  12   46.10    2.80
   3   4  12   50.29    7.00
   2  -5 -12   17.40    1.30
   2  -5 -12   11.50    1.40
   2  -5 -12    5.70    6.50
   2  -5 -12   14.50    1.10
  -2   5  12   13.10    1.60
  -2   5  12   16.10    6.50
   1  -5 -12  259.47    7.60
   1  -5 -12  274.57   18.00
  -1   5  12  267.27    7.70
  -1   5  12  284.57   17.60
   0  -5 -12    1.50    0.90
   0  -5 -12   -3.70    3.70
   0   5  12    1.80    1.00
   0   5  12    8.30    4.50
  -1  -5 -12  186.88    5.60
  -1  -5 -12  182.18   12.70
   1   5  12  180.88   12.60
   1   5  12  188.88    5.80
  -2  -5 -12   33.80    6.80
  -2  -5 -12   28.50    2.00
   2   5  12   23.90    5.70
   2   5  12   32.00    2.30
   2  -6 -12    2.90    0.60
   2  -6 -12    3.40    1.10
   2  -6 -12    0.90    5.80
  -2   6  12    1.80    5.20
  -2   6  12    1.70    1.20
   1  -6 -12    0.40    5.60
   1  -6 -12    6.70    1.20
  -1   6  12   10.80    1.50
  -1   6  12    9.60    5.80
   0  -6 -12    4.70    4.40
   0  -6 -12    2.60    0.90
   0   6  12    2.70    1.20
   0   6  12   -3.70    4.00
  -1  -6 -12   29.10    6.80
  -1  -6 -12   31.20    2.10
   1   6  12   37.80    6.50
   1   6  12   35.30    2.40
  -2  -6 -12   15.80    5.70
  -2  -6 -12   15.90    1.70
   2   6  12   16.10    4.90
   2   6  12   12.40    1.50
   1  -7 -12    6.60    6.30
  -1   7  12    7.40    5.70
   0  -7 -12   41.60    8.60
   0  -7 -12   38.00    2.30
   0   7  12   42.10    2.60
   0   7  12   28.00    7.80
  -1  -7 -12    5.20    1.10
  -1  -7 -12    6.80    5.30
   1   7  12    6.00    1.30
   1   7  12   -4.30    4.20
   1   4 -13   84.79    3.40
   1   4 -13   86.19    3.50
   1   4 -13   82.59   10.50
  -1  -4  13   86.49    3.00
  -1  -4  13   77.99   10.70
   0   4 -13    1.90    1.00
   0   4 -13    1.50    0.60
   0   4 -13    4.40    4.40
   0   4 -13    0.70    0.70
   0  -4  13    4.40    3.60
   0  -4  13    1.40    0.70
  -1   4 -13    5.80    4.00
  -1   4 -13    2.30    1.00
  -1   4 -13    3.30    0.80
   1  -4  13    2.50    0.80
   1  -4  13    4.10    3.60
   1   3 -13    3.30    1.10
   1   3 -13    1.00    0.80
   1   3 -13    2.70    4.60
  -1  -3  13    2.70    1.00
  -1  -3  13    9.30    5.10
   0   3 -13  123.49    4.20
   0   3 -13  125.89    3.70
   0   3 -13  108.29   10.30
   0  -3  13  127.29    3.80
   0  -3  13  105.29   10.30
  -1   3 -13   42.70    2.40
  -1   3 -13   42.00    1.80
  -1   3 -13   37.00    6.30
   1  -3  13   28.30    5.20
   1  -3  13   43.50    2.10
  -2   3 -13   12.70    1.20
  -2   3 -13   10.70    1.50
  -2   3 -13   10.60    3.60
   2  -3  13   11.20    1.20
   2   2 -13   15.50    1.70
   2   2 -13   19.30    1.60
   2   2 -13   18.00    7.60
  -2  -2  13   17.50    6.40
  -2  -2  13   17.50    1.90
   1   2 -13   38.80    1.80
   1   2 -13   36.10    2.20
  -1  -2  13   37.00    2.10
  -1  -2  13   31.30   11.60
   0   2 -13   15.00    4.60
   0   2 -13   12.10    1.30
   0   2 -13   13.50    1.10
   0  -2  13   12.90    4.20
   0  -2  13   12.40    1.00
   0  -2  13   12.20    1.30
  -1   2 -13    1.20    0.90
  -1   2 -13    0.10    3.00
   1  -2  13   -1.80    2.60
   1  -2  13    0.30    0.80
   1  -2  13    1.20    0.50
  -2   2 -13   20.80    4.20
  -2   2 -13   18.10    1.80
  -2   2 -13   17.00    1.10
   2  -2  13   15.90    1.60
   2  -2  13   17.30    1.10
   2  -2  13   18.20    4.00
   2   1 -13    4.60    6.00
  -2  -1  13    2.70    5.30
   1   1 -13   13.00    1.20
   1   1 -13   12.40    1.40
   1   1 -13    9.40    4.90
  -1  -1  13    6.60    5.20
  -1  -1  13   13.90    1.10
  -1  -1  13   15.60    1.80
   0   1 -13  124.19    4.10
   0   1 -13  131.69   10.40
   0  -1  13  125.49    4.00
   0  -1  13  117.19    3.30
   0  -1  13  110.99   10.00
  -1   1 -13   40.00    6.10
  -1   1 -13   47.70    2.40
   1  -1  13   49.20    2.30
   1  -1  13   42.80    6.20
  -2   1 -13    2.00    2.80
  -2   1 -13    1.50    1.00
   2  -1  13    3.10    2.70
   2  -1  13    2.40    0.90
   2   0 -13    0.20    0.80
   2   0 -13    3.40    6.00
   2   0 -13   -0.10    0.60
  -2   0  13    0.20    5.00
  -2   0  13    0.10    1.00
   1   0 -13    0.90    3.90
   1   0 -13   -0.60    0.70
  -1   0  13    0.50    0.40
  -1   0  13    1.10    4.20
   0   0 -13  183.58    5.60
   0   0  13  200.98   12.90
   0   0  13  191.78    5.60
  -1   0 -13   11.70    4.10
  -1   0 -13    9.50    1.30
   1   0  13   10.70    3.70
   1   0  13   11.10    1.20
  -2   0 -13   31.20    2.10
  -2   0 -13   31.50    5.20
   2   0  13   39.90    2.10
   2   0  13   33.60    5.10
  -3   0 -13   17.20    1.70
   3   0  13   18.60    1.80
   2  -1 -13    8.00    5.80
   2  -1 -13    0.60    0.60
   2  -1 -13   -1.40    0.80
  -2   1  13    0.10    1.00
   1  -1 -13   11.90    1.40
   1  -1 -13   11.60    5.40
  -1   1  13   14.10    5.30
  -1   1  13   10.40    1.40
   0  -1 -13   98.59    9.10
   0  -1 -13   82.49    3.20
   0   1  13   67.19    4.30
   0   1  13   81.69    8.90
  -1  -1 -13  119.09    4.00
  -1  -1 -13  117.09   11.20
   1   1  13  123.09   11.50
  -2  -1 -13    6.50    3.50
  -2  -1 -13   12.70    1.40
   2   1  13   13.20    3.80
   2   1  13   13.20    1.40
  -3  -1 -13   45.50    4.90
  -3  -1 -13   45.80    2.40
   3   1  13   40.30    4.70
   3   1  13   45.80    2.60
   2  -2 -13    9.30    0.90
   2  -2 -13    9.10    1.30
   2  -2 -13    7.80    0.80
   2  -2 -13   -0.20   10.00
  -2   2  13   -2.50    8.80
  -2   2  13   10.40    1.50
   1  -2 -13   33.40    2.10
   1  -2 -13   24.80    6.30
  -1   2  13   38.70    7.70
  -1   2  13   35.20    2.30
   0  -2 -13   -5.70    3.00
   0  -2 -13   -0.90    0.70
   0   2  13    0.90    0.90
   0   2  13   -1.00    3.10
  -1  -2 -13   46.90    2.30
  -1  -2 -13   43.00    6.60
   1   2  13   41.00    2.30
   1   2  13   39.50    6.20
  -2  -2 -13  109.29    9.00
  -2  -2 -13  108.19    3.80
   2   2  13  111.09    9.10
   2   2  13  107.39    3.90
  -3  -2 -13    0.50    0.90
   3   2  13    1.60    1.10
   2  -3 -13   11.90    1.10
   2  -3 -13   11.70    1.40
   2  -3 -13   12.40    1.10
   2  -3 -13    9.90    6.50
  -2   3  13   14.00    1.70
  -2   3  13   17.60    7.00
   1  -3 -13   68.59    3.00
   1  -3 -13   66.39    9.70
  -1   3  13   70.99    3.20
  -1   3  13   69.79    9.80
   0  -3 -13   25.00    6.00
   0  -3 -13   21.90    1.80
   0   3  13   28.20    5.90
   0   3  13   23.10    2.00
  -1  -3 -13   10.30    4.70
  -1  -3 -13   20.30    1.80
   1   3  13   18.50    1.90
   1   3  13   13.40    4.60
  -2  -3 -13   27.90    2.00
  -2  -3 -13   20.90    5.30
   2   3  13   22.70    4.70
   2   3  13   27.70    2.20
   2  -4 -13    8.00    1.30
   2  -4 -13   11.10    7.00
  -2   4  13   10.60    6.40
  -2   4  13    6.40    1.50
   1  -4 -13  230.88   16.50
   1  -4 -13  210.08    6.40
  -1   4  13  205.78   15.30
  -1   4  13  217.58    6.60
   0  -4 -13  147.49    4.80
   0   4  13  154.48    5.00
   0   4  13  134.89   20.30
  -1  -4 -13    2.60    1.00
  -1  -4 -13    2.90    3.80
   1   4  13    3.20    1.10
   1   4  13   -0.60    3.50
  -2  -4 -13  129.59    4.50
  -2  -4 -13  119.69   10.60
   2   4  13  136.29    4.70
   2   4  13  146.49   10.80
   1  -5 -13   37.90    2.40
   1  -5 -13   44.20    8.90
  -1   5  13   39.60    2.70
  -1   5  13   25.80    7.60
   0  -5 -13   -3.90    4.10
   0  -5 -13    2.40    0.90
   0   5  13    4.70    4.30
   0   5  13    2.40    1.20
  -1  -5 -13   -0.90    0.80
  -1  -5 -13   12.20    4.60
   1   5  13   -0.10    1.00
   1   5  13    2.10    3.80
  -2  -5 -13    1.40    0.90
  -2  -5 -13    5.10    5.00
   2   5  13    1.30    1.10
   2   5  13   -0.70    4.00
   1  -6 -13   29.10    2.20
  -1   6  13   26.80    2.40
  -1   6  13   19.90   11.30
   0  -6 -13    1.30    4.70
   0  -6 -13    0.60    0.80
   0   6  13   -2.80    4.10
   0   6  13    0.70    1.10
  -1  -6 -13    2.00    4.80
  -1  -6 -13    1.20    0.90
   1   6  13    1.80    1.10
   1   6  13    3.70    4.70
   0   3 -14    2.30    4.90
   0   3 -14   10.50    1.40
   0   3 -14   12.00    1.30
   0  -3  14   11.50    1.30
   0  -3  14    5.20    4.70
   1   2 -14   36.90    2.40
   1   2 -14   38.30    1.90
  -1  -2  14   41.70    2.80
   0   2 -14   -1.10    0.80
   0   2 -14   -0.90    0.50
   0   2 -14    0.20    4.40
   0  -2  14   -3.40    3.60
   0  -2  14    0.10    0.90
  -1   2 -14    5.30    4.10
  -1   2 -14    8.50    1.30
   1  -2  14    8.20    1.20
   1  -2  14    1.30    3.80
   1   1 -14    4.90    0.80
   1   1 -14    4.80    5.10
   1   1 -14    3.40    1.10
  -1  -1  14    5.70    1.30
  -1  -1  14    8.90    5.00
   0   1 -14   18.00    5.40
   0   1 -14   10.30    1.40
   0  -1  14   11.70    4.30
  -1   1 -14  115.19   10.10
  -1   1 -14  101.99    3.80
   1  -1  14   95.59    9.30
   1   0 -14   32.80    2.10
   1   0 -14   21.70    6.50
  -1   0  14   30.20    2.20
  -1   0  14   36.80    7.80
  -1   0  14   28.30    1.40
   0   0 -14    4.80    4.00
   0   0 -14    4.70    1.10
   0   0  14    5.10    1.20
   0   0  14    2.50    4.30
  -1   0 -14   12.90    4.90
  -1   0 -14   17.30    1.70
   1   0  14   11.00    4.40
   1   0  14   14.90    1.80
  -2   0 -14   98.89    3.80
  -2   0 -14  110.39    9.10
   2   0  14   98.19    8.50
   2   0  14  102.49    3.70
   1  -1 -14   13.10    1.40
   1  -1 -14   16.10    5.60
  -1   1  14   20.10    6.80
  -1   1  14   13.60    1.60
   0  -1 -14    1.80    1.00
   0  -1 -14   11.90    4.80
   0   1  14    1.60    1.00
   0   1  14   -3.20    3.70
  -1  -1 -14   59.29    8.20
  -1  -1 -14   56.59    2.70
   1   1  14   59.09    2.80
   1   1  14   48.50    7.10
  -2  -1 -14   71.29    3.10
  -2  -1 -14   73.99    8.00
   2   1  14   67.09    3.10
   2   1  14   60.79    7.80
   1  -2 -14   25.30    6.70
   1  -2 -14   18.20    1.80
  -1   2  14   13.10    5.90
  -1   2  14   18.20    2.10
   0  -2 -14   -4.50    3.70
   0  -2 -14    1.60    0.90
   0   2  14   -0.20    1.00
   0   2  14   -3.80    4.00
  -1  -2 -14    1.10    0.90
  -1  -2 -14    3.90    4.90
   1   2  14    3.50    4.50
   1   2  14    2.40    1.10
  -2  -2 -14  104.19    3.90
  -2  -2 -14   97.79    9.70
   2   2  14  112.39    4.00
   2   2  14   88.69    9.20
   1  -3 -14   18.10    7.00
   1  -3 -14   21.00    2.00
  -1   3  14   27.00    2.30
  -1   3  14   17.90    6.60
   0  -3 -14   31.50    2.10
   0  -3 -14   27.50    6.60
   0   3  14   30.40    6.70
   0   3  14   34.60    2.40
  -1  -3 -14   47.90    2.50
  -1  -3 -14   45.60    7.90
   1   3  14   47.90    2.70
   1   3  14   58.79    7.90
  -2  -3 -14    7.90    1.30
   2   3  14    7.20    1.40
   1  -4 -14   -7.60    5.60
   1  -4 -14   -0.70    0.90
  -1   4  14    1.00    1.20
  -1   4  14    5.90    5.10
   0  -4 -14   -0.80    0.90
   0   4  14   -0.20    1.10
   0   4  14    3.30    8.40
  -1  -4 -14   27.30    2.10
  -1  -4 -14   16.60    5.70
   1   4  14   24.60    2.20
   1   4  14   26.30    5.80
   0  -5 -14   19.60    7.30
   0  -5 -14   29.60    2.20
   0   5  14   20.50    6.90
   0   5  14   33.00    2.50
   0   0   0    0.00    0.00

_computing_structure_solution     'SHELXT 2018/2 (Sheldrick, 2018)'
;
_shelx_hkl_checksum              40436
loop_
_space_group_symop_operation_xyz
'x, y, z'
'-x, -y, -z'
loop_
_atom_site_label
_atom_site_type_symbol
_atom_site_fract_x
_atom_site_fract_y
_atom_site_fract_z
_atom_site_U_iso_or_equiv
_atom_site_adp_type
_atom_site_occupancy
_atom_site_site_symmetry_order
_atom_site_calc_flag
_atom_site_refinement_flags_posn
_atom_site_refinement_flags_adp
Cl1 Cl 0.92394(13) 0.74910(7) 1.05369(4) 0.0846(2) Uani 1 1 d . .
F1 F -0.2438(2) 0.85773(11) 0.51849(8) 0.0647(3) Uani 1 1 d . .
O1 O 0.2705(3) 0.58807(11) 0.58296(10) 0.0583(3) Uani 1 1 d . .
O2 O 0.0586(3) 0.90087(12) 0.33347(11) 0.0718(4) Uani 1 1 d . .
N1 N 0.1713(3) 0.79486(12) 0.66150(10) 0.0447(3) Uani 1 1 d . .
H1A H 0.067642 0.871504 0.654181 0.054 Uiso 1 1 calc R U
C1 C 0.6293(4) 0.63859(18) 0.89199(14) 0.0586(4) Uani 1 1 d . .
H1 H 0.693438 0.550191 0.923544 0.070 Uiso 1 1 calc R U
C2 C 0.7111(4) 0.76093(19) 0.93535(13) 0.0550(4) Uani 1 1 d . .
C3 C 0.6251(4) 0.89192(19) 0.88822(15) 0.0613(4) Uani 1 1 d . .
H3 H 0.685869 0.974416 0.917135 0.074 Uiso 1 1 calc R U
C4 C 0.4477(4) 0.90093(16) 0.79763(14) 0.0544(4) Uani 1 1 d . .
H4 H 0.387612 0.989965 0.765920 0.065 Uiso 1 1 calc R U
C5 C 0.3580(3) 0.77889(15) 0.75324(12) 0.0423(3) Uani 1 1 d . .
C6 C 0.4511(4) 0.64708(16) 0.80114(13) 0.0539(4) Uani 1 1 d . .
H6 H 0.393580 0.564136 0.772057 0.065 Uiso 1 1 calc R U
C7 C 0.1415(3) 0.70162(14) 0.58518(12) 0.0417(3) Uani 1 1 d . .
C8 C -0.0721(3) 0.74405(15) 0.49277(13) 0.0465(3) Uani 1 1 d . .
H8 H -0.198639 0.662549 0.486142 0.056 Uiso 1 1 calc R U
C9 C 0.0818(3) 0.78233(15) 0.37906(12) 0.0455(3) Uani 1 1 d . .
C10 C 0.2450(4) 0.66744(18) 0.32621(14) 0.0609(4) Uani 1 1 d . .
H10A H 0.110638 0.604905 0.296485 0.091 Uiso 1 1 calc R U
H10B H 0.358651 0.614118 0.381600 0.091 Uiso 1 1 calc R U
H10C H 0.371165 0.709112 0.266436 0.091 Uiso 1 1 calc R U
loop_
_atom_site_aniso_label
_atom_site_aniso_U_11
_atom_site_aniso_U_22
_atom_site_aniso_U_33
_atom_site_aniso_U_23
_atom_site_aniso_U_13
_atom_site_aniso_U_12
Cl1 0.0870(4) 0.1093(5) 0.0590(3) -0.0068(3) -0.0257(2) 0.0004(3)
F1 0.0521(5) 0.0729(7) 0.0682(6) -0.0063(5) -0.0023(4) 0.0290(5)
O1 0.0749(8) 0.0417(6) 0.0608(7) -0.0118(5) -0.0217(5) 0.0187(5)
O2 0.0963(10) 0.0465(7) 0.0686(8) 0.0094(6) 0.0062(7) 0.0179(6)
N1 0.0485(6) 0.0372(6) 0.0482(7) -0.0040(5) -0.0023(5) 0.0113(5)
C1 0.0715(11) 0.0539(9) 0.0490(9) 0.0023(7) -0.0059(7) 0.0126(8)
C2 0.0524(8) 0.0706(10) 0.0419(8) -0.0044(7) -0.0015(6) 0.0013(7)
C3 0.0691(11) 0.0558(9) 0.0608(10) -0.0128(8) -0.0073(8) -0.0053(8)
C4 0.0640(9) 0.0409(8) 0.0583(9) -0.0042(6) -0.0053(7) 0.0027(7)
C5 0.0443(7) 0.0414(7) 0.0405(7) -0.0034(5) 0.0038(5) 0.0050(5)
C6 0.0693(10) 0.0415(8) 0.0513(9) -0.0049(6) -0.0084(7) 0.0072(7)
C7 0.0408(7) 0.0379(7) 0.0458(7) -0.0005(5) -0.0016(5) 0.0032(5)
C8 0.0407(7) 0.0429(7) 0.0558(8) -0.0026(6) -0.0064(6) 0.0070(5)
C9 0.0455(7) 0.0403(7) 0.0507(8) -0.0019(6) -0.0116(6) 0.0074(6)
C10 0.0720(11) 0.0568(9) 0.0543(9) -0.0081(7) -0.0076(8) 0.0201(8)
loop_
_atom_type_symbol
_atom_type_description
_atom_type_scat_dispersion_real
_atom_type_scat_dispersion_imag
_atom_type_scat_source
C C 0.0033 0.0016 'International Tables Vol C Tables 4.2.6.8 and 6.1.1.4'
H H 0.0000 0.0000 'International Tables Vol C Tables 4.2.6.8 and 6.1.1.4'
N N 0.0061 0.0033 'International Tables Vol C Tables 4.2.6.8 and 6.1.1.4'
O O 0.0106 0.0060 'International Tables Vol C Tables 4.2.6.8 and 6.1.1.4'
F F 0.0171 0.0103 'International Tables Vol C Tables 4.2.6.8 and 6.1.1.4'
Cl Cl 0.1484 0.1585 'International Tables Vol C Tables 4.2.6.8 and 6.1.1.4'
loop_
_geom_angle_atom_site_label_1
_geom_angle_atom_site_label_2
_geom_angle_atom_site_label_3
_geom_angle
C7 N1 C5 125.93(12)
C2 C1 C6 119.73(15)
C3 C2 C1 120.91(15)
C3 C2 Cl1 119.59(14)
C1 C2 Cl1 119.50(13)
C2 C3 C4 119.55(15)
C3 C4 C5 120.73(15)
C4 C5 C6 118.85(14)
C4 C5 N1 118.12(13)
C6 C5 N1 123.02(13)
C1 C6 C5 120.20(15)
O1 C7 N1 125.71(13)
O1 C7 C8 118.16(13)
N1 C7 C8 116.13(12)
F1 C8 C9 108.57(11)
F1 C8 C7 111.51(12)
C9 C8 C7 112.19(11)
O2 C9 C10 122.44(15)
O2 C9 C8 119.60(13)
C10 C9 C8 117.89(13)
loop_
_geom_bond_atom_site_label_1
_geom_bond_atom_site_label_2
_geom_bond_distance
Cl1 C2 1.7464(17)
F1 C8 1.3750(17)
O1 C7 1.2193(16)
O2 C9 1.1996(18)
N1 C7 1.3372(19)
N1 C5 1.4154(19)
C1 C2 1.370(2)
C1 C6 1.382(2)
C2 C3 1.367(2)
C3 C4 1.377(2)
C4 C5 1.385(2)
C5 C6 1.387(2)
C7 C8 1.5291(19)
C8 C9 1.522(2)
C9 C10 1.487(2)
