#------------------------------------------------------------------------------
#$Date: 2019-11-11 15:28:55 +0200 (Mon, 11 Nov 2019) $
#$Revision: 226381 $
#$URL: file:///home/coder/svn-repositories/cod/cif/4/03/48/4034861.cif $
#------------------------------------------------------------------------------
#
# This file is available in the Crystallography Open Database (COD),
# http://www.crystallography.net/
#
# All data on this site have been placed in the public domain by the
# contributors.
#
data_4034861
loop_
_publ_author_name
'Sharp, Phillip P.'
'Mikusek, Jiri'
'Ho, Junming'
'Krenske, Elizabeth H.'
'Banwell, Martin G.'
'Coote, Michelle L.'
'Ward, Jas S.'
'Willis, Anthony C.'
_publ_section_title
;
 Mechanistic Studies on the Base-Promoted Conversion of
 Alkoxy-Substituted, Ring-Fused gem-Dihalocyclopropanes into Furans:
 Evidence for a Process Involving Electrocyclic Ring Closure of a Carbonyl
 Ylide Intermediate.
;
_journal_issue                   22
_journal_name_full               'The Journal of organic chemistry'
_journal_page_first              13678
_journal_page_last               13690
_journal_paper_doi               10.1021/acs.joc.8b01766
_journal_volume                  83
_journal_year                    2018
_chemical_formula_moiety         'C10 H13 Br2 Cl O'
_chemical_formula_sum            'C10 H13 Br2 Cl O'
_chemical_formula_weight         344.47
_space_group_crystal_system      triclinic
_space_group_IT_number           2
_space_group_name_Hall           '-P 1'
_space_group_name_H-M_alt        'P -1'
_atom_sites_solution_hydrogens   geom
_atom_sites_solution_primary     dual
_audit_creation_date             2018-05-22
_audit_creation_method
;
Olex2 1.2
(compiled 2018.05.18 svn.r3508 for OlexSys, GUI svn.r5497)
;
_cell_angle_alpha                83.085(6)
_cell_angle_beta                 86.309(6)
_cell_angle_gamma                81.870(6)
_cell_formula_units_Z            2
_cell_length_a                   7.4888(5)
_cell_length_b                   8.8924(6)
_cell_length_c                   9.2043(6)
_cell_measurement_reflns_used    1581
_cell_measurement_temperature    150.00(10)
_cell_measurement_theta_max      29.0860
_cell_measurement_theta_min      4.4330
_cell_volume                     601.67(7)
_computing_cell_refinement       'CrysAlisPro 1.171.39.46 (Rigaku OD, 2018)'
_computing_data_collection       'CrysAlisPro 1.171.39.46 (Rigaku OD, 2018)'
_computing_data_reduction        'CrysAlisPro 1.171.39.46 (Rigaku OD, 2018)'
_computing_molecular_graphics    'Olex2 (Dolomanov et al., 2009)'
_computing_publication_material  'Olex2 (Dolomanov et al., 2009)'
_computing_structure_refinement  'ShelXL (Sheldrick, 2015)'
_computing_structure_solution    'ShelXT (Sheldrick, 2015)'
_diffrn_ambient_environment      N~2~
_diffrn_ambient_temperature      150.00(10)
_diffrn_detector                 'CCD plate'
_diffrn_detector_area_resol_mean 10.3744
_diffrn_detector_type            Atlas
_diffrn_measured_fraction_theta_full 0.998
_diffrn_measured_fraction_theta_max 0.795
_diffrn_measurement_details
;
List of Runs (angles in degrees, time in seconds):

  # Type    Start    End  Width  t~exp~   \w     \q     \k     \f   Frames
--------------------------------------------------------------------------
  1  \w    -79.00  12.00   1.00    3.50    --  -11.22 -57.00 -60.00   91
  2  \w    -75.00  14.00   1.00    3.50    --  -11.22 -77.00-180.00   89
  3  \w    -39.00  61.00   1.00    3.50    --  -11.22  57.00  90.00  100
;
_diffrn_measurement_device       'four-circle diffractometer'
_diffrn_measurement_device_type  'New Xcalibur, Atlas'
_diffrn_measurement_method       '\w scans'
_diffrn_orient_matrix_type
'CrysAlisPro convention (1999,Acta A55,543-557)'
_diffrn_orient_matrix_UB_11      -0.0712556000
_diffrn_orient_matrix_UB_12      0.0114231000
_diffrn_orient_matrix_UB_13      -0.0490002000
_diffrn_orient_matrix_UB_21      -0.0533839000
_diffrn_orient_matrix_UB_22      0.0473102000
_diffrn_orient_matrix_UB_23      0.0476095000
_diffrn_orient_matrix_UB_31      0.0353295000
_diffrn_orient_matrix_UB_32      0.0648607000
_diffrn_orient_matrix_UB_33      -0.0370426000
_diffrn_radiation_monochromator  graphite
_diffrn_radiation_probe          x-ray
_diffrn_radiation_type           MoK\a
_diffrn_radiation_wavelength     0.71073
_diffrn_reflns_av_R_equivalents  0.0307
_diffrn_reflns_av_unetI/netI     0.0625
_diffrn_reflns_Laue_measured_fraction_full 0.998
_diffrn_reflns_Laue_measured_fraction_max 0.795
_diffrn_reflns_limit_h_max       8
_diffrn_reflns_limit_h_min       -10
_diffrn_reflns_limit_k_max       12
_diffrn_reflns_limit_k_min       -11
_diffrn_reflns_limit_l_max       11
_diffrn_reflns_limit_l_min       -8
_diffrn_reflns_number            4866
_diffrn_reflns_point_group_measured_fraction_full 0.998
_diffrn_reflns_point_group_measured_fraction_max 0.795
_diffrn_reflns_theta_full        25.242
_diffrn_reflns_theta_max         30.122
_diffrn_reflns_theta_min         3.403
_diffrn_source                   'fine-focus sealed X-ray tube'
_diffrn_source_type              'Enhance (Mo) X-ray Source'
_exptl_absorpt_coefficient_mu    6.925
_exptl_absorpt_correction_T_max  0.48372
_exptl_absorpt_correction_T_min  0.47280
_exptl_absorpt_correction_type   sphere
_exptl_absorpt_process_details
;
CrysAlisPro 1.171.39.46 (Rigaku Oxford Diffraction, 2018)
Spherical absorption correction
 using equivalent radius and absorption coefficient.
Empirical absorption correction using spherical harmonics,
 implemented in SCALE3 ABSPACK scaling algorithm.
;
_exptl_crystal_colour            colourless
_exptl_crystal_colour_primary    colourless
_exptl_crystal_density_diffrn    1.901
_exptl_crystal_description       plate
_exptl_crystal_F_000             336
_exptl_crystal_size_max          0.565
_exptl_crystal_size_mid          0.335
_exptl_crystal_size_min          0.098
_exptl_crystal_size_rad          0.073
_refine_diff_density_max         0.700
_refine_diff_density_min         -0.986
_refine_diff_density_rms         0.147
_refine_ls_extinction_method     none
_refine_ls_goodness_of_fit_ref   1.064
_refine_ls_hydrogen_treatment    constr
_refine_ls_matrix_type           full
_refine_ls_number_parameters     128
_refine_ls_number_reflns         2828
_refine_ls_number_restraints     0
_refine_ls_restrained_S_all      1.064
_refine_ls_R_factor_all          0.0623
_refine_ls_R_factor_gt           0.0404
_refine_ls_shift/su_max          0.000
_refine_ls_shift/su_mean         0.000
_refine_ls_structure_factor_coef Fsqd
_refine_ls_weighting_details
'w=1/[\s^2^(Fo^2^)+(0.0380P)^2^+0.0565P] where P=(Fo^2^+2Fc^2^)/3'
_refine_ls_weighting_scheme      calc
_refine_ls_wR_factor_gt          0.0820
_refine_ls_wR_factor_ref         0.0982
_reflns_Friedel_coverage         0.000
_reflns_number_gt                2142
_reflns_number_total             2828
_reflns_threshold_expression     'I > 2\s(I)'
_cod_data_source_file            jo8b01766_si_004.cif
_cod_data_source_block           JM-PSF-10_scale
_cod_database_code               4034861
_shelxl_version_number           2014/6
_shelx_space_group_comment
;
The symmetry employed for this shelxl refinement is uniquely defined
by the following loop, which should always be used as a source of
symmetry information in preference to the above space-group names.
They are only intended as comments.
;
_reflns_odcompleteness_completeness 99.80
_reflns_odcompleteness_iscentric 1
_reflns_odcompleteness_theta     26.32
_olex2_refinement_description
;
1. Fixed Uiso
 At 1.2 times of:
  All C(H) groups, All C(H,H) groups
 At 1.5 times of:
  All C(H,H,H) groups
2.a Ternary CH refined with riding coordinates:
 C6(H6)
2.b Secondary CH2 refined with riding coordinates:
 C3(H3A,H3B), C4(H4A,H4B), C5(H5A,H5B), C9(H9A,H9B)
2.c Aromatic/amide H refined with riding coordinates:
 C11(H11)
2.d Idealised Me refined as rotating group:
 C10(H10A,H10B,H10C)
;
_shelx_res_file
;
TITL jm-psf-10_scale_a.res in P-1
REM Old TITL JM-PSF-10_scale in P-1
REM SHELXT solution in P-1
REM R1 0.107, Rweak 0.004, Alpha 0.028, Orientation as input
REM Formula found by SHELXT: C10 O Cl Br2
CELL 0.71073 7.4888 8.8924 9.2043 83.085 86.309 81.87
ZERR 2 0.0005 0.0006 0.0006 0.006 0.006 0.006
LATT 1
SFAC C H Br Cl O
UNIT 20 26 4 2 2

L.S. 4 0 0
PLAN  20
list 4
fmap 2 53
ACTA
REM <olex2.extras>
REM <HklSrc "%.\\JM-PSF-10_scale.hkl">
REM </olex2.extras>

WGHT    0.038000    0.056500
FVAR       0.73882
C1    1    0.607017    0.269795    0.350866    11.00000    0.02138    0.01884 =
         0.01341   -0.00732   -0.00107   -0.00164
C2    1    0.734598    0.364702    0.263610    11.00000    0.01916    0.02077 =
         0.01335   -0.00459   -0.00236   -0.00171
C3    1    0.843753    0.299931    0.136575    11.00000    0.02411    0.03091 =
         0.01887   -0.00620    0.00269   -0.00664
AFIX  23
H3A   2    0.957620    0.341216    0.124093    11.00000   -1.20000
H3B   2    0.778940    0.331761    0.047732    11.00000   -1.20000
AFIX   0
C4    1    0.881415    0.125345    0.158623    11.00000    0.02891    0.03068 =
         0.02899   -0.01456    0.00326    0.00390
AFIX  23
H4A   2    0.951757    0.093276    0.244530    11.00000   -1.20000
H4B   2    0.952039    0.089248    0.074534    11.00000   -1.20000
AFIX   0
C5    1    0.705899    0.053586    0.177954    11.00000    0.03599    0.02079 =
         0.02950   -0.00818   -0.00482    0.00123
AFIX  23
H5A   2    0.640625    0.077519    0.088596    11.00000   -1.20000
H5B   2    0.733998   -0.056692    0.196403    11.00000   -1.20000
AFIX   0
C6    1    0.588862    0.113237    0.304173    11.00000    0.02734    0.01675 =
         0.01909    0.00102   -0.00531   -0.00359
AFIX  13
H6    2    0.569183    0.035011    0.385918    11.00000   -1.20000
AFIX   0
C7    1    0.435315    0.240926    0.284628    11.00000    0.01842    0.02376 =
         0.01060    0.00045    0.00009   -0.00193
O8    5    0.583932    0.286596    0.499436    11.00000    0.02038    0.02822 =
         0.01087   -0.00412   -0.00338   -0.00247
C9    1    0.739422    0.223271    0.581621    11.00000    0.02532    0.03731 =
         0.01564   -0.00317   -0.00641   -0.00185
AFIX  23
H9A   2    0.836649    0.284521    0.556287    11.00000   -1.20000
H9B   2    0.781182    0.119911    0.559262    11.00000   -1.20000
AFIX   0
C10   1    0.685908    0.222739    0.739961    11.00000    0.03582    0.04992 =
         0.01522    0.00045   -0.00624   -0.01086
AFIX 137
H10A  2    0.644885    0.325453    0.760980    11.00000   -1.50000
H10B  2    0.787904    0.181205    0.797100    11.00000   -1.50000
H10C  2    0.590364    0.161215    0.764091    11.00000   -1.50000
AFIX   0
C11   1    0.748895    0.498010    0.306525    11.00000    0.01898    0.02418 =
         0.02038   -0.00209    0.00295   -0.00236
AFIX  43
H11   2    0.675853    0.529555    0.385807    11.00000   -1.20000
AFIX   0
CL12  4    0.897768    0.617761    0.222035    11.00000    0.03652    0.02666 =
         0.02703   -0.00181    0.00217   -0.01226
BR13  3    0.223425    0.235733    0.412305    11.00000    0.02315    0.03530 =
         0.02167   -0.00289    0.00154   -0.00870
BR14  3    0.375183    0.333761    0.093622    11.00000    0.02709    0.03660 =
         0.01753    0.00165   -0.00449   -0.00228
HKLF 4

REM  jm-psf-10_scale_a.res in P-1
REM R1 =  0.0404 for    2142 Fo > 4sig(Fo)  and  0.0623 for all    2828 data
REM    128 parameters refined using      0 restraints

END

WGHT      0.0380      0.0565

REM Highest difference peak  0.700,  deepest hole -0.986,  1-sigma level  0.147
Q1    1   0.4800  0.2529  0.1409  11.00000  0.05    0.70
Q2    1   0.1238  0.3150  0.3628  11.00000  0.05    0.69
Q3    1   0.4459  0.2570  0.0265  11.00000  0.05    0.68
Q4    1   0.3562  0.3639  0.1146  11.00000  0.05    0.67
Q5    1   0.1282  0.3191  0.4879  11.00000  0.05    0.66
Q6    1   0.3552  0.2331  0.3357  11.00000  0.05    0.62
Q7    1   0.2555  0.4031  0.0413  11.00000  0.05    0.60
Q8    1   0.2080  0.2608  0.4375  11.00000  0.05    0.59
Q9    1   0.3382  0.1471  0.4566  11.00000  0.05    0.58
Q10   1   0.3204  0.2271  0.4627  11.00000  0.05    0.57
Q11   1   0.2388  0.3095  0.0763  11.00000  0.05    0.56
Q12   1   0.3005  0.1604  0.3418  11.00000  0.05    0.56
Q13   1   0.6817  0.2630  0.5273  11.00000  0.05    0.54
Q14   1   0.2690  0.1792  0.3635  11.00000  0.05    0.54
Q15   1   0.4854  0.1858  0.7311  11.00000  0.05    0.53
Q16   1   0.8457  0.4940 -0.0948  11.00000  0.05    0.53
Q17   1   1.0051  0.4168  0.4173  11.00000  0.05    0.52
Q18   1   0.1866  0.2036  0.0855  11.00000  0.05    0.51
Q19   1   1.0361  0.0967  0.4074  11.00000  0.05    0.51
Q20   1   0.2388  0.2022  0.3800  11.00000  0.05    0.49
;
_shelx_res_checksum              87257
_shelx_hkl_file
;
   0   0   2  152.89   11.21
   0   0  -2  148.71   11.16
   0   0  -3  392.78   22.62
   0   0   3  391.86   22.01
   0   0  -4  863.57   38.67
   0   0   4  846.37   37.22
   0   0  -5   38.18   10.58
   0   0   5   38.08    9.96
   0   0   6 2762.21   84.46
   0   0  -6 2827.76   89.67
   0   0   7    6.02    9.05
   0   0   8    7.53   10.91
   0   0   9   53.18   19.10
   0   0  10  732.85   61.85
   0   0  11   46.33   20.66
   0  -1  11   12.65   11.38
   0  -1  10   72.81   24.39
   0  -1   9 1396.73   83.93
   0  -1   8   -7.92    9.52
   0  -1   7  107.68   20.99
   0  -1   6   -5.94   11.57
   0   1  -6   -6.00    8.41
   0  -1   5  332.31   30.37
   0   1  -5  307.44   30.13
   0   1  -4   77.62   13.85
   0  -1   4  117.15   17.40
   0   1  -3 6740.74  119.33
   0  -1   3 6799.54  113.63
   0  -1   2    8.27    4.75
   0   1  -2   16.71    6.91
   0  -1   1 1446.37   47.38
   0   1   2   27.16    4.68
   0  -1  -2   28.19    4.77
   0   1   3 6732.56   81.98
   0  -1  -3 6703.95   84.88
   0  -1  -4  252.13   19.62
   0   1   4  246.88   18.71
   0  -1  -5  429.38   29.39
   0   1   5  384.33   26.69
   0   1   6 1157.22   51.17
   0  -1  -6 1211.27   55.11
   0   1   7 1904.86   72.70
   0   1   8  195.96   26.54
   0   1   9  284.46   34.61
   0   1  10   26.79    9.99
   0   1  11    9.42   12.16
   0  -2  11   42.34   21.03
   0  -2  10    4.98   11.97
   0  -2   9   69.18   21.49
   0  -2   8  160.76   27.88
   0  -2   7   28.01   10.26
   0   2  -6 2933.15  117.71
   0  -2   6 2940.52  107.54
   0  -2   5   56.59   15.69
   0  -2   5   63.77   20.14
   0   2  -5   33.17   11.92
   0  -2   4   66.28   16.52
   0   2  -4   57.61   13.57
   0  -2   4   48.48   13.62
   0  -2   3 1185.47   61.09
   0  -2   3 1192.20   67.79
   0   2  -2 3582.26   94.57
   0  -2   2 3830.10  109.36
   0  -2   2 3621.19   89.41
   0  -2   1 1552.76   39.62
   0   2  -1 1533.07   41.83
   0  -2   0 8789.47   76.38
   0   2   0 8891.15   78.45
   0  -2   0 8917.88   52.37
   0  -2  -1  887.87   26.95
   0   2   1  945.30   24.38
   0  -2  -1  932.49   24.05
   0   2   2   17.66    4.41
   0  -2  -2   19.19    4.36
   0   2   2   19.85    5.52
   0   2   3 1950.20   53.33
   0   2   3 2080.65   47.60
   0  -2  -3 2023.61   46.75
   0   2   4 4210.42   76.50
   0  -2  -4 4196.77   78.00
   0   2   4 4115.11   86.97
   0  -2  -5    9.21    4.88
   0   2   5    4.33    4.77
   0   2   6  458.00   31.86
   0  -2  -6  483.27   34.20
   0   2   6  505.48   37.36
   0   2   7  905.24   48.87
   0   2   8  296.29   30.96
   0   2   9   24.88   12.15
   0   2  10  753.20   59.67
   0   2  11   19.53   14.80
   0  -3  10   -2.87   14.34
   0  -3   9  470.75   55.40
   0  -3   8   -0.84   11.02
   0  -3   7  106.04   26.38
   0  -3   6  806.20   63.30
   0  -3   5 1480.63   83.21
   0  -3   5 1946.94  110.77
   0  -3   4  158.64   27.83
   0  -3   4  172.17   29.44
   0  -3   3 1956.79   80.16
   0  -3   3 2370.46  104.76
   0   3  -2 1492.53   59.47
   0  -3   2 1533.20   54.41
   0   3  -1  504.28   26.34
   0  -3   1  513.15   25.14
   0  -3   0 1823.96   30.10
   0   3   0 1910.31   45.11
   0  -3   0 1850.65   43.12
   0   3   1 4523.10   57.14
   0  -3  -1 4674.56   65.42
   0   3   1 4733.92   67.78
   0  -3  -1 4502.43   75.43
   0   3   2  597.43   25.10
   0  -3  -2  562.83   23.90
   0  -3  -3   15.23    5.20
   0   3   3    6.87    4.09
   0   3   3   19.08    6.07
   0  -3  -4 1268.43   43.20
   0   3   4 1271.16   44.24
   0   3   4 1280.41   44.32
   0   3   4 1253.47   52.63
   0   3   5  405.08   27.47
   0  -3  -5  440.67   28.88
   0   3   5  403.16   32.47
   0   3   6   24.21    9.66
   0   3   6   43.82   12.90
   0  -3  -6   31.45    9.20
   0   3   7 1947.60   72.11
   0   3   8  276.58   30.07
   0   3   9   18.53   13.44
   0   3  10  615.58   53.91
   0   3  11  235.27   35.54
   0  -4  10   -1.03   16.63
   0  -4   9  289.65   46.84
   0  -4   8  623.23   65.85
   0  -4   7  193.83   36.18
   0  -4   6  119.34   29.34
   0  -4   5  482.70   53.43
   0  -4   5  585.77   59.83
   0  -4   4   62.97   17.60
   0  -4   4  104.46   26.35
   0  -4   3  860.34   69.40
   0   4  -3  773.48   53.78
   0  -4   3  863.69   51.17
   0  -4   2 3645.87   86.01
   0   4  -2 3688.76   95.36
   0  -4   1  725.02   33.51
   0  -4   1  786.01   23.16
   0   4  -1  773.23   36.90
   0  -4   0  101.96   11.64
   0   4   0  105.31   12.48
   0  -4   0  100.44    8.46
   0   4   1 7349.97   98.99
   0  -4  -1 7235.27   95.17
   0  -4  -1 7075.36  104.90
   0   4   1 7091.98   67.12
   0  -4  -2  257.20   18.43
   0   4   2  268.20   19.41
   0   4   2  232.69   20.02
   0  -4  -2  245.16   17.81
   0  -4  -3    0.92    3.02
   0   4   3   -1.75    3.90
   0   4   3    0.81    6.83
   0  -4  -4 1362.17   46.87
   0   4   4 1299.32   47.90
   0   4   4 1199.19   60.72
   0   4   5  636.82   36.04
   0   4   5  635.73   45.54
   0  -4  -5  658.96   35.85
   0   4   6   11.56    8.23
   0   4   6   15.08    9.44
   0   4   6    7.88    6.63
   0   4   7 1317.14   60.48
   0   4   8  240.33   28.45
   0   4   9   85.44   20.07
   0   4  10  146.81   27.23
   0   4  11  201.35   35.56
   0  -5   9  -33.14   22.03
   0  -5   8  483.95   63.45
   0  -5   7  122.97   32.83
   0  -5   6   23.81   21.04
   0  -5   5 1210.32   93.45
   0  -5   4  598.83   66.13
   0  -5   4  432.32   43.11
   0  -5   3    8.39   15.87
   0   5  -3   -0.25   12.17
   0  -5   3    5.09    6.85
   0   5  -2 2591.44   85.71
   0  -5   2 2618.89   77.55
   0  -5   1  165.57   17.94
   0  -5   1  177.08   12.14
   0   5  -1  177.04   19.68
   0  -5   0   41.39    7.65
   0   5   0   26.58    8.47
   0  -5   0   37.24    8.42
   0   5   1  569.92   18.69
   0   5   1  578.12   31.84
   0  -5  -1  561.43   30.69
   0  -5  -1  609.71   31.13
   0  -5  -2 1071.94   41.21
   0   5   2 1070.96   35.53
   0  -5  -2 1024.08   36.07
   0   5   2 1111.39   44.05
   0   5   3   30.78    9.11
   0  -5  -3   31.10    8.42
   0   5   3   16.72    6.56
   0  -5  -3   29.33    7.35
   0  -5  -4 2258.84   63.95
   0   5   4 2237.90   97.76
   0   5   4 2241.68   67.09
   0   5   5 1067.72   49.47
   0  -5  -5 1104.94   47.93
   0   5   5 1056.49   68.96
   0   5   6 1019.05   51.44
   0   5   6 1149.36   73.30
   0   5   7    2.96    6.89
   0   5   8  531.35   42.61
   0   5   9    0.44    9.47
   0   5  10  269.04   36.16
   0  -6   9   42.07   25.59
   0  -6   8  176.45   39.49
   0  -6   7  449.96   63.52
   0  -6   6    1.85   15.28
   0  -6   5 1265.20  103.49
   0  -6   4  139.62   35.00
   0   6  -4   43.03   13.55
   0   6  -3   64.02   16.25
   0  -6   2   78.63    9.96
   0   6  -2   80.00   18.30
   0  -6   2   67.57   13.99
   0  -6   1  920.44   31.41
   0   6  -1 1045.29   53.01
   0  -6   1  997.73   47.60
   0   6   0   35.71   10.05
   0  -6   0   14.35    6.60
   0  -6   0   37.22    9.05
   0  -6  -1 2197.93   59.04
   0  -6  -1 2341.22   67.27
   0   6   1 2427.51   72.41
   0   6   2  251.12   23.37
   0   6   2  240.24   15.51
   0  -6  -2  276.40   23.39
   0   6   3  460.00   30.10
   0   6   3  495.48   33.42
   0  -6  -3  486.28   31.24
   0  -6  -4   -1.11    4.21
   0   6   4    2.69    5.73
   0   6   4    9.87    7.50
   0   6   5 1688.33   97.58
   0   6   5 1581.67   64.00
   0   6   6   12.37    9.12
   0   6   6    0.02    7.41
   0   6   7  159.98   22.90
   0   6   8   52.55   15.74
   0   6   9  264.57   33.99
   0   6  10   43.96   18.04
   0  -7   8  442.37   68.17
   0  -7   7  108.19   33.87
   0  -7   6  581.44   74.62
   0  -7   5    2.04   15.08
   0  -7   4  369.96   58.54
   0   7  -4  223.00   37.49
   0   7  -3   12.73   12.09
   0  -7   3    7.85    5.25
   0  -7   2 1217.72   41.30
   0   7  -2 1180.91   68.75
   0  -7   1   16.56    4.61
   0   7  -1   14.55    8.47
   0   7   0  761.11   47.38
   0  -7   0  760.81   42.39
   0   7   1   27.05   10.18
   0  -7  -1   17.67    5.82
   0   7   2 1087.59   30.84
   0   7   2 1103.04   53.43
   0   7   3   -1.64    3.37
   0   7   3   -7.40    7.79
   0   7   4   33.55    9.50
   0   7   4   51.36   13.43
   0   7   5   67.88   19.00
   0   7   5   63.48   14.03
   0   7   6  603.25   44.33
   0   7   6  608.58   64.05
   0   7   7   -2.51    7.69
   0   7   8  928.79   60.65
   0   7   9   17.88   12.38
   0  -8   7  429.09   68.30
   0  -8   6  -12.98   21.25
   0  -8   5   62.37   34.92
   0  -8   4   26.98   24.69
   0  -8   4    7.79    6.41
   0  -8   3  151.60   17.36
   0   8  -3  125.73   27.30
   0  -8   2  206.98   19.40
   0   8  -2  249.92   34.66
   0   8  -1 1004.02   62.68
   0  -8   1  971.15   46.27
   0   8   0  274.79   31.49
   0  -8   0  287.95   21.02
   0   8   1   18.01   11.39
   0   8   2   15.64    9.76
   0   8   3  546.09   25.23
   0   8   3  532.65   41.40
   0   8   4   43.58   12.39
   0   8   4   58.75   11.38
   0   8   5  656.98   48.30
   0   8   5  672.53   46.54
   0   8   6  105.81   22.57
   0   8   7   26.40   13.44
   0   8   8   19.38   13.89
   0   8   9  218.15   33.55
   0  -9   6  411.68   69.73
   0  -9   5   15.94   26.16
   0   9  -4  260.26   43.49
   0  -9   4  327.05   60.44
   0   9  -3   69.93   21.81
   0   9  -2    5.92   10.94
   0   9  -1   85.41   23.26
   0   9   0  208.96   29.36
   0   9   1   11.60   10.11
   0   9   2  522.48   44.04
   0   9   3   17.49    9.60
   0   9   4  164.08   26.28
   0   9   5   62.27   17.70
   0   9   6  307.81   36.63
   0   9   7  146.60   27.41
   0   9   8  130.89   26.34
   0  10  -4  -25.97   24.40
   0 -10   4   17.84   20.13
   0  10  -3   62.04   22.96
   0 -10   3   87.64   35.82
   0  10  -2   -4.38   10.20
   0  10  -1  179.44   32.06
   0  10   0   41.63   16.13
   0  10   1  127.19   24.80
   0  10   2   54.83   16.16
   0  10   3  116.11   23.28
   0  10   4  141.14   25.91
   0  10   5   47.10   17.02
   0  10   6  101.91   23.85
   0  11  -2   62.53   22.93
   0  11  -1   66.92   22.75
   0  11   0  140.03   31.19
   0  11   1   98.10   23.17
   0  11   2   -1.80   10.90
   0  11   3   59.87   20.52
   0  11   4   40.21   17.12
  -1  11   2   50.01   17.79
  -1  11   1  -36.91   22.57
  -1  11   0  117.21   30.58
  -1  10   5   33.93   15.48
  -1  10   4    2.63    8.83
  -1  10   3    1.53   11.41
  -1  10   2  128.92   24.87
  -1  10   1   16.71   12.80
  -1  10   0  246.84   35.78
  -1  10  -1  152.90   31.13
  -1  10  -2    7.99   10.96
  -1  10  -3   13.68   15.30
  -1   9   7    3.53   11.50
  -1   9   6   11.00   10.58
  -1   9   5  387.21   40.97
  -1   9   4   32.57   15.10
  -1   9   3   92.86   21.09
  -1   9   2   50.34   15.94
  -1   9   1    8.09   10.68
  -1   9   0  -18.07   14.65
  -1   9  -1 1348.50   80.61
  -1   9  -2   29.32   15.89
  -1   9  -3   87.23   26.20
   1  -9   4  -18.37   24.72
  -1   9  -4  -19.35   26.59
   1  -9   5   16.79   19.23
  -1   8   8  313.64   38.50
  -1   8   7   16.61   10.74
  -1   8   6  123.56   23.89
  -1   8   5   18.16   11.57
  -1   8   4   89.59   19.26
  -1   8   3  -11.14   11.22
  -1   8   2 1114.06   61.11
  -1   8   1   -0.92    7.40
  -1   8   0   69.43   15.97
  -1   8  -1   93.99   21.58
  -1   8  -2  149.45   28.16
   1  -8   2  113.43    7.29
   1  -8   2  128.75    9.86
   1  -8   3   56.51    9.28
  -1   8  -3   51.12   16.64
   1  -8   4 1099.08  105.41
  -1   8  -4  862.98   75.16
   1  -8   4 1013.55   42.82
   1  -8   5   24.99   20.89
   1  -8   6   85.28   34.12
   1  -8   7   78.71   27.35
  -1   7   9    3.04    9.00
  -1   7   8   21.81   13.55
  -1   7   7   15.91    8.92
  -1   7   6   -4.26   10.22
  -1   7   6   -6.01   17.09
  -1   7   5 1134.70   72.69
  -1   7   5 1062.07   58.67
  -1   7   4    8.61    7.38
  -1   7   4   -4.81    7.15
  -1   7   3    6.95    7.44
  -1   7   3    9.81    4.02
  -1   7   2  262.24   27.18
  -1   7   1  503.21   37.72
  -1   7   0   24.39   10.32
  -1   7  -1 1421.62   69.97
   1  -7   2  108.55   10.05
  -1   7  -2  145.00   25.41
  -1   7  -3    3.50    9.24
   1  -7   4  289.98   50.87
  -1   7  -4  268.73   39.09
   1  -7   5  843.21   88.70
   1  -7   6    4.83   16.65
   1  -7   7   79.42   28.27
   1  -7   8   37.22   23.20
  -1   6  10   67.47   19.83
  -1   6   9    4.81    8.28
  -1   6   8  679.59   49.74
  -1   6   7   50.46   13.44
  -1   6   6  163.40   23.02
  -1   6   6  155.44   28.29
  -1   6   5   90.57   17.20
  -1   6   5   37.49    9.62
  -1   6   4  362.81   30.69
  -1   6   4  309.86   35.10
  -1   6   3   69.81   11.63
  -1   6   3   69.12   13.84
  -1   6   2 1575.27   60.24
  -1   6   2 1521.33   26.27
   1  -6  -2 1636.44   60.13
  -1   6   1  318.47   27.96
   1  -6  -1  313.72   26.16
   1  -6   0    9.13    6.47
  -1   6   0    9.31    6.27
   1  -6   1  637.61   40.51
  -1   6  -1  616.84   42.53
   1  -6   2 2126.34   41.28
  -1   6  -2 2167.80   85.85
  -1   6  -3  100.82   20.72
  -1   6  -4   58.29   10.98
   1  -6   4  103.08   29.92
   1  -6   5  259.42   48.17
   1  -6   6  102.03   30.42
   1  -6   7   76.84   30.83
   1  -6   8  730.43   80.06
  -1   5  10  124.84   24.91
  -1   5   9    6.17   11.09
  -1   5   8  629.33   46.33
  -1   5   7  781.95   48.47
  -1   5   6  313.95   34.56
  -1   5   6  285.52   27.71
  -1   5   5   52.95   14.09
  -1   5   5   48.27   11.62
  -1   5   4  220.01   27.14
  -1   5   4  198.80   21.20
   1  -5  -4  195.66   20.30
   1  -5  -3    9.24    5.49
  -1   5   3    6.65    5.89
   1  -5  -2  861.34   40.14
  -1   5   2  857.29   27.14
  -1   5   2  855.58   40.16
   1  -5  -1 1396.34   51.36
  -1   5   1 1333.00   50.57
   1  -5   0  545.61   32.88
  -1   5   0  566.04   34.31
   1  -5   1  629.96   15.82
  -1   5  -1  667.90   40.44
   1  -5   1  661.40   37.85
  -1   5  -2 1464.61   65.36
   1  -5   2 1485.03   62.25
   1  -5   3  166.94   24.07
  -1   5  -3  147.64   24.94
   1  -5   4  150.27   31.65
  -1   5  -4  127.99   23.70
   1  -5   5 1057.43   86.33
   1  -5   6  140.68   36.06
   1  -5   7   27.53   17.15
   1  -5   8 1029.96   90.13
   1  -5   9  204.18   41.48
  -1   4  10  266.40   33.86
  -1   4  10  246.85   34.81
  -1   4   9   74.23   18.36
  -1   4   9   89.69   18.98
  -1   4   8   95.15   19.88
  -1   4   8   76.11   17.12
  -1   4   7  629.08   41.50
  -1   4   6  320.44   31.47
  -1   4   6  282.29   26.95
  -1   4   5  123.12   18.52
  -1   4   5   98.99   15.58
   1  -4  -5  119.97   16.20
   1  -4  -4 2021.12   60.64
  -1   4   4 1979.86   60.61
  -1   4   4 1888.86   64.41
  -1   4   3 1281.40   49.07
   1  -4  -3 1290.75   45.59
  -1   4   3 1310.43   46.26
  -1   4   2   -2.81    6.98
  -1   4   2    8.92    5.36
   1  -4  -2    3.94    4.15
   1  -4  -1 4196.56   80.66
  -1   4   1 4296.26   80.23
   1  -4   0   83.65   11.92
  -1   4   0   82.51   12.39
   1  -4   1   14.10    5.68
  -1   4  -1   12.56    5.73
   1  -4   2 1513.22   59.11
  -1   4  -2 1530.33   61.36
   1  -4   3  330.77   32.82
  -1   4  -3  339.94   33.91
   1  -4   4   -0.32   12.39
   1  -4   4    3.37   10.58
   1  -4   5 2798.63  130.09
   1  -4   6  622.45   63.34
   1  -4   7  199.52   38.00
   1  -4   8  198.49   37.39
   1  -4   9  642.44   70.78
   1  -4  10    6.29   16.28
  -1   3  11   11.61   10.10
  -1   3  10  388.13   41.54
  -1   3   9   21.55   11.30
  -1   3   8   68.59   16.59
  -1   3   7  455.97   34.70
   1  -3  -6  526.24   35.91
  -1   3   6  527.20   34.45
  -1   3   5   17.91    7.81
   1  -3  -5   30.93    8.39
  -1   3   5   22.59    7.71
  -1   3   4 3514.28   76.12
   1  -3  -4 3566.33   76.05
   1  -3  -3  241.32   18.72
  -1   3   3  269.37   19.45
   1  -3  -2   97.35   11.09
  -1   3   2   84.01   10.45
  -1   3   1  191.20   11.15
  -1   3   1  237.88   16.70
   1  -3  -1  223.54   15.96
  -1   3   0 2371.59   54.37
   1  -3   0 2349.22   54.14
  -1   3  -1   -6.25    5.99
   1  -3   1    4.67    4.03
  -1   3  -2 3529.71   87.06
   1  -3   2 3702.02   88.62
   1  -3   3  213.91   26.21
   1  -3   3  227.44   32.76
  -1   3  -3  218.66   26.11
   1  -3   4  297.05   37.28
   1  -3   4  347.44   43.81
   1  -3   5   -5.49   12.10
   1  -3   5   18.41   12.97
   1  -3   6 1312.41   84.94
   1  -3   7   -0.79   13.34
   1  -3   8  695.58   66.92
   1  -3   9  261.61   42.88
   1  -3  10  254.42   44.67
  -1   2  11   26.17   17.72
  -1   2  10  138.59   26.39
  -1   2   9  643.77   49.22
  -1   2   8   78.34   16.45
  -1   2   7 1435.36   61.57
   1  -2  -6   49.04   11.73
  -1   2   6   52.43   12.44
   1  -2  -5 1664.70   57.30
  -1   2   5 1547.07   53.42
  -1   2   4 1097.89   40.63
   1  -2  -4 1177.68   42.75
  -1   2   3 1860.87   47.53
  -1   2   3 1901.52   47.76
   1  -2  -3 1933.28   48.43
  -1   2   2   34.45    6.06
   1  -2  -2   36.62    6.25
   1  -2  -1 9999.00   90.82
  -1   2   1 9923.61   90.56
   1  -2   0   96.90    9.51
  -1   2   0  103.24    9.81
   1  -2   1 2415.59   38.02
  -1   2  -1 2433.33   53.46
   1  -2   1 2491.23   54.43
  -1   2  -2   44.53   10.19
   1  -2   2   84.39   13.49
   1  -2   3 4395.18  131.32
   1  -2   3 3699.17  111.81
   1  -2   4   -0.86    8.26
   1  -2   4   -0.21    6.13
   1  -2   5  432.69   43.97
   1  -2   5  668.17   58.91
  -1   2  -6  120.01   24.35
   1  -2   6   88.63   22.19
   1  -2   6  136.49   27.14
   1  -2   7  889.87   67.25
   1  -2   8   -6.30   12.11
   1  -2   9 1472.85   95.34
   1  -2  10   -3.28   11.75
   1  -2  11  -12.88   16.55
  -1   1  11   32.17   15.42
  -1   1  10  877.96   62.57
  -1   1   9   -9.55   12.15
  -1   1   8  508.27   40.35
  -1   1   7   20.01    8.08
  -1   1   6 2193.26   69.63
   1  -1  -6 2361.89   77.02
   1  -1  -5  217.70   21.39
  -1   1   5  202.94   19.29
  -1   1   4  933.37   36.10
   1  -1  -4  992.46   39.14
   1  -1  -3  191.45   14.82
  -1   1   3  206.58   15.13
  -1   1   2 1690.51   36.32
   1  -1  -2 1649.21   36.69
  -1   1   1 1456.26   27.44
   1  -1  -1 1447.60   28.31
  -1   1   0 1487.35   20.28
   1  -1   0 1478.31   18.79
  -1   1   0 1543.60   28.44
   1  -1   0 1539.60   29.09
   1  -1   1  766.27   27.13
  -1   1  -1  795.43   27.82
  -1   1  -1  755.41   23.92
   1  -1   1  773.35   27.61
   1  -1   2 3263.34   57.90
   1  -1   2 3195.67   91.01
   1  -1   3  183.78   23.01
  -1   1  -3  150.27   21.20
   1  -1   3  178.53   25.05
  -1   1  -4 3754.63  108.65
   1  -1   4 3622.53  104.75
   1  -1   5  178.40   25.40
  -1   1  -5  190.50   25.97
   1  -1   6 2204.50   91.78
  -1   1  -6 2404.72   98.05
   1  -1   7   27.46   12.17
   1  -1   8   25.48   13.15
   1  -1   9   90.95   23.50
   1  -1  10  464.99   54.64
   1  -1  11   -8.73   12.13
  -1   0  11  272.60   39.66
  -1   0  10   48.65   19.20
  -1   0   9  799.09   57.84
  -1   0   8   60.64   16.89
  -1   0   7  588.10   40.49
  -1   0   6    6.93    6.83
   1   0  -6    4.72    6.68
  -1   0   5 4835.00   94.97
   1   0  -5 5006.36  104.06
   1   0  -4    4.62    5.20
  -1   0   4    6.15    5.47
   1   0  -3 4596.56   74.44
  -1   0   3 4522.29   70.10
   1   0  -2 1978.08   39.02
  -1   0   2 1962.83   36.95
   1   0  -1   11.37    2.37
  -1   0   1    8.90    2.16
  -1   0  -1  178.33   15.78
   1   0   1  169.93   15.82
   1   0   2   63.86    9.35
  -1   0  -2   49.25    9.17
  -1   0  -2   65.41   10.76
   1   0   2   56.83    9.20
   1   0   3 8673.17  121.72
   1   0   3 8567.42  114.03
  -1   0  -3 8427.58  117.12
   1   0   4  482.78   30.85
   1   0   4  496.01   32.73
  -1   0  -4  457.97   30.65
   1   0   5  396.20   30.14
  -1   0  -5  392.87   32.21
   1   0   5  414.71   32.99
  -1   0  -6  155.25   22.00
   1   0   6  207.27   23.84
   1   0   6  179.73   23.45
   1   0   7 1949.23   84.91
   1   0   8   47.26   16.90
   1   0   9  750.36   61.72
   1   0  10  223.10   38.21
   1   0  11  157.08   33.25
  -1  -1  11   42.12   21.70
  -1  -1  10   75.95   22.86
  -1  -1   9   71.81   21.49
  -1  -1   8 1288.76   70.18
  -1  -1   7   27.86   11.70
  -1  -1   6 1947.70   71.63
   1   1  -6 2081.76   83.05
  -1  -1   5  783.54   40.98
   1   1  -5  795.99   46.79
  -1  -1   4  166.10   17.12
   1   1  -4  164.97   19.15
   1   1  -3  837.76   37.35
  -1  -1   3  809.83   32.86
   1   1  -2 2491.19   54.73
  -1  -1   2 2451.56   47.14
  -1  -1   1   37.57    4.74
   1   1  -1   31.94    5.32
  -1  -1  -1 1538.30   21.87
  -1  -1  -1 1545.76   44.03
   1   1   1 1502.39   42.73
   1   1   1 1543.17   21.12
  -1  -1  -2 1592.24   33.47
   1   1   2 1596.41   55.32
   1   1   2 1525.83   32.13
  -1  -1  -2 1567.31   53.89
   1   1   3  425.55   21.80
   1   1   3  456.46   28.94
  -1  -1  -3  442.49   22.61
  -1  -1  -4 2697.52   66.23
   1   1   4 2702.85   64.83
   1   1   4 2768.14   75.62
   1   1   5 1075.85   51.21
   1   1   5  990.92   45.44
  -1  -1  -5 1041.16   47.34
   1   1   6 1067.52   55.27
  -1  -1  -6  996.99   51.71
   1   1   6  940.73   49.89
   1   1   7  259.21   30.09
   1   1   8  322.93   36.75
   1   1   9  498.27   49.05
   1   1  10  870.67   69.21
   1   1  11  206.37   36.39
  -1  -2  11  240.72   41.07
  -1  -2  10   33.51   18.30
  -1  -2   9  868.00   65.72
  -1  -2   8  888.34   61.88
  -1  -2   7  376.95   37.28
   1   2  -6   86.24   21.29
  -1  -2   6   81.87   16.92
  -1  -2   5 1739.21   68.52
   1   2  -5 1839.94   85.84
   1   2  -4  287.85   33.23
  -1  -2   4  334.89   28.19
   1   2  -3 1654.25   74.48
  -1  -2   3 1639.55   56.85
  -1  -2   3 1643.48   86.36
  -1  -2   2 2689.44   69.69
  -1  -2   2 2623.30   80.95
  -1  -2   1  293.97   24.03
   1   2  -1  297.32   20.87
  -1  -2   1  314.39   16.14
  -1  -2   0 3638.77   40.05
   1   2   0 3722.65   49.02
   1   2   0 3772.84   43.46
  -1  -2   0 3676.85   50.85
  -1  -2  -1 3291.78   37.20
   1   2   1 3329.04   40.19
  -1  -2  -1 3324.86   65.09
  -1  -2  -1 3406.41   39.82
   1   2   1 3355.65   60.52
  -1  -2  -2 4770.62   56.09
   1   2   2 4593.85  107.34
   1   2   2 4718.94   56.89
  -1  -2  -2 4678.23  105.33
   1   2   3  293.66   17.21
  -1  -2  -3  291.59   17.11
   1   2   3  260.29   25.24
  -1  -2  -3  324.98   27.05
  -1  -2  -4  852.37   35.46
   1   2   4  825.75   33.77
   1   2   4  826.52   45.51
   1   2   5  635.59   34.05
  -1  -2  -5  716.22   36.67
   1   2   5  663.61   42.87
   1   2   6  356.36   28.74
   1   2   6  391.62   35.71
  -1  -2  -6  410.57   31.59
   1   2   7 1033.86   54.87
   1   2   8 1173.36   64.74
   1   2   9   20.28   11.71
   1   2  10  476.16   50.11
   1   2  11  127.23   28.20
  -1  -3  10  158.20   33.82
  -1  -3   9  313.15   43.25
  -1  -3   8  513.43   51.12
  -1  -3   7  732.11   57.19
  -1  -3   6  764.11   81.49
  -1  -3   6  537.85   46.96
  -1  -3   5  822.07   54.74
  -1  -3   5  999.36   86.63
   1   3  -5 1001.17   76.20
  -1  -3   4 1226.75   84.47
  -1  -3   4 1420.52   69.26
  -1  -3   3 1054.45   61.08
  -1  -3   3 1076.79   60.31
   1   3  -2  210.92   24.73
  -1  -3   2  245.53   30.07
  -1  -3   2  259.28   21.33
   1   3  -1 2727.47   62.83
  -1  -3   1 2817.70   52.97
   1   3   0   14.73    4.49
   1   3   0    8.29    3.26
  -1  -3   0   14.42    4.43
  -1  -3   0    7.47    2.25
   1   3   1  522.14   23.37
  -1  -3  -1  507.16   18.93
   1   3   1  521.07   20.53
  -1  -3  -1  559.54   28.37
  -1  -3  -2 1240.44   59.56
   1   3   2 1222.15   51.34
   1   3   2 1283.38   34.33
  -1  -3  -2 1280.77   31.83
   1   3   3   68.90   13.80
   1   3   3   74.57    9.78
  -1  -3  -3   83.42   15.69
  -1  -3  -3   76.56    9.17
   1   3   3   93.97   10.82
   1   3   4 1980.14   80.34
   1   3   4 2086.17   54.61
  -1  -3  -4 2120.84   54.21
  -1  -3  -5 3433.02   78.65
   1   3   5 3273.67   76.83
   1   3   5 3180.07  103.16
  -1  -3  -6   94.08   15.44
   1   3   6   75.11   16.74
   1   3   6  102.13   15.54
   1   3   7  908.34   50.16
   1   3   8   44.64   13.59
   1   3   9   20.86   11.39
   1   3  10  206.09   32.81
   1   3  11  387.13   48.61
  -1  -4  10  198.55   39.93
  -1  -4   9  -15.23   18.16
  -1  -4   8  605.61   60.62
  -1  -4   7  219.50   36.56
  -1  -4   6  168.19   30.24
  -1  -4   5  634.34   65.34
  -1  -4   5  630.00   56.26
  -1  -4   4 3198.81  125.01
  -1  -4   4 2829.56  113.18
  -1  -4   3   91.37   22.65
  -1  -4   3   81.14   14.53
  -1  -4   2  929.58   40.68
   1   4  -2  926.70   52.40
   1   4  -1   32.24    9.23
  -1  -4   1   18.53    5.26
  -1  -4   1   22.15    5.48
  -1  -4   0    9.92    3.74
  -1  -4   0   12.75    4.40
   1   4   0    3.40    4.02
   1   4   1  993.69   32.40
  -1  -4  -1  975.54   41.58
  -1  -4  -1  953.86   31.00
   1   4   1 1053.43   34.87
  -1  -4  -2 3425.24   61.47
   1   4   2 3492.54   79.46
   1   4   2 3449.81   64.46
  -1  -4  -2 3531.03  105.94
   1   4   3  314.34   32.49
  -1  -4  -3  330.02   20.18
   1   4   3  374.97   22.85
  -1  -4  -3  335.30   32.66
   1   4   4 1265.10   45.80
   1   4   4 1340.68   74.54
  -1  -4  -4 1276.55   43.35
  -1  -4  -5   24.91    7.78
   1   4   5   29.87    9.01
   1   4   5   25.22   10.08
   1   4   5   32.66    9.45
   1   4   6  144.13   26.02
   1   4   6  178.98   21.42
  -1  -4  -6  173.47   19.88
   1   4   7  353.56   32.09
   1   4   8 1536.46   72.56
   1   4   9   82.88   19.86
   1   4  10  223.68   34.09
   1   4  11   17.92   14.61
  -1  -5   9  -29.45   23.23
  -1  -5   8   73.38   26.05
  -1  -5   7 1702.04  106.95
  -1  -5   6   33.77   16.49
  -1  -5   5  591.44   62.11
  -1  -5   4    1.00   16.15
  -1  -5   4   -6.77   12.80
  -1  -5   3  116.49   18.06
   1   5  -3   53.06   14.38
  -1  -5   3  110.61   28.88
   1   5  -2  142.67   21.33
  -1  -5   2  160.52   18.31
   1   5  -1 2771.72   77.18
  -1  -5   1 2776.76   58.96
  -1  -5   1 2725.10   66.94
  -1  -5   0  433.41   25.01
   1   5   0  451.08   28.05
  -1  -5   0  437.59   23.87
  -1  -5  -1  239.51   17.49
   1   5   1  246.90   16.44
  -1  -5  -1  255.60   24.04
   1   5   1  245.24   19.66
   1   5   2   27.82    6.94
   1   5   2   17.88    5.33
  -1  -5  -2   24.92    6.48
  -1  -5  -2   13.07    9.43
  -1  -5  -3 1467.62   45.33
   1   5   3 1379.75   60.94
  -1  -5  -3 1375.78   65.29
   1   5   3 1460.05   49.44
  -1  -5  -4  101.08   13.07
   1   5   4   99.04   14.28
   1   5   4  103.51   20.77
   1   5   5 1656.85   93.86
   1   5   5 1481.50   57.27
  -1  -5  -5 1533.79   54.59
   1   5   6   34.48   14.72
   1   5   6   34.36   11.09
   1   5   7  687.96   45.48
   1   5   8   26.31   13.20
   1   5   8    9.44    8.05
   1   5   9  892.44   61.17
   1   5   9  896.84   60.99
   1   5  10   -6.67   13.41
   1   5  10   18.26   14.91
   1   5  11  221.49   39.70
   1   5  11  194.70   35.35
  -1  -6   9   74.71   27.57
  -1  -6   8  365.78   56.84
  -1  -6   7   35.66   24.67
  -1  -6   6  159.88   36.65
  -1  -6   5   55.35   21.24
  -1  -6   4 2158.14  133.36
  -1  -6   3  169.65   36.38
   1   6  -3  137.98   26.03
  -1  -6   3  141.00   20.51
  -1  -6   2  194.27   17.92
  -1  -6   2  212.78   22.09
   1   6  -2  190.33   26.64
  -1  -6   1  199.42   17.83
   1   6  -1  227.13   25.26
  -1  -6   1  211.21   20.64
  -1  -6   0 1317.12   48.69
  -1  -6   0 1220.87   46.31
   1   6   0 1314.51   53.72
   1   6   1   40.56    7.05
  -1  -6  -1   55.50    9.53
  -1  -6  -1   45.63   11.20
   1   6   1   49.01   11.36
   1   6   2 1449.29   53.60
  -1  -6  -2 1452.77   76.17
  -1  -6  -2 1460.46   49.43
   1   6   2 1428.60   45.63
  -1  -6  -3   48.84    9.24
   1   6   3   48.73   10.44
  -1  -6  -3   43.53   13.41
   1   6   3   40.74    8.39
  -1  -6  -4  170.17   18.09
   1   6   4  171.76   25.63
   1   6   4  186.49   21.06
   1   6   5   18.54   11.00
   1   6   5   37.81   11.61
  -1  -6  -5   34.12    9.65
   1   6   6  718.24   44.78
   1   6   6  883.18   76.05
   1   6   7    9.08    8.29
   1   6   8  582.69   46.84
   1   6   9  128.28   24.10
   1   6  10   -4.85   12.48
  -1  -7   8   -9.38   18.01
  -1  -7   7  849.08   89.29
  -1  -7   6   -5.05   22.93
  -1  -7   5  215.99   43.51
  -1  -7   4   70.09   31.12
  -1  -7   3 1924.42   62.11
  -1  -7   3 2042.07  134.29
   1   7  -3 1745.80   98.16
  -1  -7   2   28.40    8.33
   1   7  -2   20.47   11.96
  -1  -7   1  203.39   22.20
   1   7  -1  229.44   28.19
  -1  -7   1  193.96   18.51
  -1  -7   0   77.90   13.28
  -1  -7   0  100.23   16.77
   1   7   0   65.34   14.15
  -1  -7  -1   -5.30   15.91
   1   7   1   17.65    9.09
  -1  -7  -1    5.95    4.80
   1   7   2    9.19    3.70
  -1  -7  -2   -6.57   11.97
  -1  -7  -2   16.89    6.85
   1   7   2    2.67    6.79
   1   7   3 1852.62   68.49
  -1  -7  -3 1783.66   58.73
   1   7   3 1820.78   59.76
  -1  -7  -3 1717.04   72.04
   1   7   4   39.54   11.04
   1   7   4   25.29    8.77
   1   7   5  415.34   43.94
   1   7   5  415.02   34.40
   1   7   6  256.00   29.37
   1   7   7   16.06    9.44
   1   7   8   -4.50    8.97
   1   7   9  302.64   38.10
   1   7  10  -17.84   14.22
  -1  -8   7  147.58   44.78
  -1  -8   6  508.76   72.00
  -1  -8   5  -14.76   21.15
  -1  -8   4  467.16   71.44
  -1  -8   4  344.15   29.24
  -1  -8   3  121.39   17.38
   1   8  -3  117.24   27.79
  -1  -8   3   87.92   30.72
   1   8  -2   60.71   17.86
  -1  -8   2   75.39   13.68
   1   8  -1   -1.23    7.19
  -1  -8   1    1.22    8.00
  -1  -8   0  893.44   54.96
   1   8   0  887.04   54.75
   1   8   1    2.95    7.45
  -1  -8  -1  -17.33   22.05
  -1  -8  -2  223.08   27.87
   1   8   2  259.02   27.94
  -1  -8  -3  945.36   51.65
   1   8   3  992.70   41.57
   1   8   3  996.54   54.78
   1   8   4  129.43   17.87
   1   8   4  119.15   20.30
   1   8   5    5.35    9.46
   1   8   5  -11.45   11.51
   1   8   6  125.66   22.08
   1   8   7   -2.38    8.28
   1   8   8  123.52   25.56
   1   8   9  174.32   30.50
  -1  -9   6  234.94   56.18
  -1  -9   5   17.32   21.03
  -1  -9   4  -28.77   24.94
  -1  -9   4   -0.79    6.98
   1   9  -3  325.73   47.54
  -1  -9   3  432.98   70.57
  -1  -9   3  341.83   30.72
   1   9  -2    9.28    9.87
  -1  -9   2   -0.88    6.90
  -1  -9   1   93.58   18.16
   1   9  -1  125.17   24.88
  -1  -9   0  392.29   41.85
   1   9   0  452.19   43.29
   1   9   1  313.29   34.83
  -1  -9  -1  304.26   33.73
  -1  -9  -2    6.97    7.66
   1   9   2  -13.57   10.84
   1   9   3  249.96   31.18
   1   9   4  125.18   22.68
   1   9   5   38.84   13.74
   1   9   6  280.64   34.68
   1   9   7   89.97   21.83
   1   9   8   -3.17   12.36
  -1 -10   5  -29.69   24.66
  -1 -10   4    1.13   26.72
   1  10  -3  240.64   42.26
  -1 -10   3  255.79   55.90
   1  10  -2  126.28   28.69
   1  10  -1   26.36   15.71
   1  10   0   30.17   14.52
   1  10   1  190.00   29.62
   1  10   2   88.11   20.86
   1  10   3  120.66   22.89
   1  10   4  235.87   31.87
   1  10   5   11.74   10.32
   1  10   6   19.39   13.28
   1  10   7  110.84   25.34
   1  11  -3  -53.10   31.33
  -1 -11   3   -8.54   26.13
   1  11  -2  170.49   37.32
   1  11  -1    1.64   13.81
   1  11   0  134.27   29.56
   1  11   1   85.84   21.20
   1  11   2   38.60   15.72
   1  11   3    5.80   10.97
   1  11   4  180.92   31.40
   1  11   5   35.60   15.42
  -2  10   4    8.11   14.16
  -2  10   3  174.79   29.85
  -2  10   2    1.96   10.53
  -2  10   1  145.71   28.16
  -2  10   0   29.82   15.19
  -2  10  -1  136.17   31.25
  -2  10  -2   39.16   17.13
  -2   9   6  135.77   26.01
  -2   9   5    7.41   10.73
  -2   9   4  214.19   31.02
  -2   9   3   38.96   15.00
  -2   9   2  596.50   50.09
  -2   9   1   66.63   17.74
  -2   9   0   11.87   11.30
  -2   9  -1   37.09   17.48
  -2   9  -2  116.88   26.78
  -2   9  -3   73.90   23.47
  -2   9  -4  237.97   42.19
   2  -9   4  295.69   61.01
  -2   8   7  413.08   42.89
  -2   8   6  -22.11   14.73
  -2   8   5  396.71   39.87
  -2   8   4  173.63   25.47
  -2   8   3  -10.77   10.39
  -2   8   2    9.86    9.99
  -2   8   1  330.99   35.35
  -2   8   0    6.44    8.85
  -2   8  -1  528.87   49.05
  -2   8  -2   78.06   21.75
  -2   8  -3  172.51   33.02
  -2   8  -4  145.92   31.45
   2  -8   4  166.80   40.96
   2  -8   5  149.09   39.36
   2  -8   6   83.56   31.88
  -2   7   8  327.70   37.57
  -2   7   7  323.28   36.39
  -2   7   6   33.92   13.26
  -2   7   5   83.26   19.21
  -2   7   5   95.35   19.41
  -2   7   4  681.96   47.10
  -2   7   4  720.92   37.59
  -2   7   3   29.79   10.80
  -2   7   2  286.25   30.78
  -2   7   1  325.18   31.94
  -2   7   0   70.20   16.22
  -2   7  -1  450.98   40.81
  -2   7  -2  282.25   35.20
   2  -7   3  142.60   13.50
  -2   7  -3  126.86   25.80
  -2   7  -4   78.92   22.48
   2  -7   4  147.10   37.96
   2  -7   5  169.45   39.72
   2  -7   6  205.61   46.00
   2  -7   7  194.47   44.17
  -2   6   9   41.34   13.83
  -2   6   8  106.49   20.89
  -2   6   7  359.76   35.45
  -2   6   6  155.45   22.75
  -2   6   6  153.65   26.59
  -2   6   5 1145.99   58.35
  -2   6   5 1234.12   71.31
  -2   6   4  923.07   50.56
  -2   6   4  917.89   58.61
  -2   6   3 1169.24   55.53
  -2   6   3 1223.77   43.81
  -2   6   2  287.96   27.66
  -2   6   1  144.31   20.26
  -2   6   0  528.43   38.36
  -2   6  -1   -1.96   10.35
   2  -6   2  452.43   12.57
   2  -6   2  467.48   18.31
  -2   6  -3  196.40   29.73
   2  -6   3  191.41   17.22
  -2   6  -4   16.88    9.88
   2  -6   4   40.77   18.78
   2  -6   4   48.08   10.25
   2  -6   5  623.07   41.98
   2  -6   5  549.98   68.07
   2  -6   6  798.52   82.02
   2  -6   6  219.01   27.62
   2  -6   7   -2.70   16.41
   2  -6   8  234.65   43.89
  -2   5  10   66.44   18.98
  -2   5   9  128.89   23.49
  -2   5   8  121.76   21.72
  -2   5   7  444.32   37.47
  -2   5   6  101.25   19.25
  -2   5   6   89.53   16.69
  -2   5   5  431.52   33.32
  -2   5   5  497.97   37.13
  -2   5   4 1046.64   50.09
  -2   5   4 1000.49   48.85
   2  -5  -3 1672.18   61.11
  -2   5   3 1659.26   60.04
  -2   5   3 1594.16   57.60
  -2   5   2   69.15    7.36
   2  -5  -2   66.77   12.21
  -2   5   2   59.98   11.89
   2  -5  -1  741.77   39.79
  -2   5   1  775.73   40.80
   2  -5   0  346.96   28.35
  -2   5   0  326.49   27.13
  -2   5  -1  382.92   31.58
   2  -5   1  398.62   31.99
   2  -5   2   98.74   17.53
  -2   5  -2   98.72   19.38
   2  -5   2   93.95   11.31
   2  -5   3 2260.61   61.18
  -2   5  -3 2241.01   91.75
   2  -5   4   67.76   23.59
   2  -5   4   90.75   14.55
  -2   5  -4   37.73   11.06
   2  -5   5  312.01   29.32
   2  -5   5  333.23   49.85
   2  -5   6   -0.22   13.31
   2  -5   6   23.70   10.51
   2  -5   7    1.76   18.99
   2  -5   8   73.41   25.78
   2  -5   9  553.11   65.35
  -2   4  10  316.36   36.92
  -2   4   9  209.64   29.42
  -2   4   8   31.85   13.58
  -2   4   7  281.05   28.76
  -2   4   6 2336.73   77.65
  -2   4   5   44.92   10.97
  -2   4   4  863.61   41.50
   2  -4  -4  888.15   43.86
  -2   4   3  144.48   17.01
   2  -4  -3  169.72   18.12
   2  -4  -3  143.85   17.13
  -2   4   2   57.32   11.00
   2  -4  -2   63.79   11.27
   2  -4  -1  334.53   24.56
  -2   4   1  330.93   24.25
  -2   4   0 3292.30   77.10
   2  -4   0 3328.65   79.52
   2  -4   1  570.64   13.90
   2  -4   1  624.84   36.64
  -2   4  -1  615.83   36.41
   2  -4   2 1207.59   56.94
  -2   4  -2 1178.47   55.76
   2  -4   2 1184.95   41.82
  -2   4  -3   36.46   12.24
   2  -4   3   53.16   13.89
   2  -4   3   50.05    9.61
  -2   4  -4  975.59   64.81
   2  -4   4 1236.36   84.59
   2  -4   4  998.56   66.91
   2  -4   4 1196.35   51.05
   2  -4   5   40.69   11.08
   2  -4   5   48.09   18.70
   2  -4   6 1141.66   58.52
   2  -4   6 1390.72   92.76
   2  -4   7    9.65   14.74
   2  -4   8  533.74   60.78
   2  -4   9   49.10   23.73
  -2   3  10   32.06   13.95
  -2   3   9 1158.81   65.32
  -2   3   8    0.98    7.74
  -2   3   8   -6.63    9.64
  -2   3   7  731.74   45.01
  -2   3   7  787.20   45.82
  -2   3   6   11.96    7.80
  -2   3   5  115.77   15.90
   2  -3  -5  132.38   17.21
  -2   3   4   81.00   12.46
   2  -3  -4   88.38   13.46
   2  -3  -3 3790.77   78.16
  -2   3   3 3674.63   74.48
   2  -3  -2  480.88   26.46
  -2   3   2  445.55   24.78
  -2   3   1  649.08   15.58
   2  -3  -1  704.98   31.43
  -2   3   1  666.16   29.88
  -2   3   0   98.10    7.46
  -2   3   0   99.02   12.34
   2  -3   0   97.27   12.42
   2  -3   1  942.80   28.14
   2  -3   1  971.63   41.48
  -2   3  -1  993.70   42.43
   2  -3   2   36.88    8.21
   2  -3   2   29.33    9.23
  -2   3  -2   44.87   11.65
   2  -3   3 3387.30   78.66
  -2   3  -3 3260.69  101.11
   2  -3   3 3194.61  103.66
   2  -3   4   40.46   13.17
   2  -3   4   49.29   17.50
   2  -3   4   61.47   12.11
   2  -3   5  247.92   36.93
   2  -3   5  239.88   25.44
   2  -3   5  234.61   34.20
   2  -3   6   56.82   13.56
   2  -3   6   53.66   18.52
   2  -3   7 1073.08   79.20
   2  -3   8  219.66   39.84
   2  -3   9  505.33   59.37
   2  -3  10  174.94   38.56
  -2   2  11   44.52   17.04
  -2   2  10  134.49   25.29
  -2   2   9   19.97   12.35
  -2   2   8  178.60   24.67
  -2   2   7  133.97   19.55
  -2   2   6 3583.48   90.11
   2  -2  -6 3583.38   95.38
   2  -2  -5   14.78    7.51
  -2   2   5   14.65    6.57
   2  -2  -4 1524.93   51.01
  -2   2   4 1466.03   47.35
   2  -2  -3  602.48   29.17
  -2   2   3  595.39   27.64
   2  -2  -2 5277.77   79.31
  -2   2   2 5156.68   74.43
   2  -2  -2 5188.47   77.23
  -2   2   1    3.51    3.60
   2  -2  -1    2.94    2.62
  -2   2   0 2346.26   37.57
   2  -2   0 2467.80   52.95
  -2   2   0 2462.23   51.29
   2  -2   1   26.51    6.95
  -2   2  -1   16.36    5.13
  -2   2  -1   16.14    5.59
   2  -2   1   15.66    3.94
  -2   2  -2   97.74   14.52
   2  -2   2  108.74   14.68
   2  -2   2   90.99   14.92
   2  -2   3   49.33   13.13
  -2   2  -3   36.88    9.89
   2  -2   3   33.72   12.45
   2  -2   3   48.19    9.61
   2  -2   4 4347.94  136.54
   2  -2   4 4013.42   95.77
   2  -2   4 4468.77  134.21
   2  -2   5    4.04    8.86
   2  -2   5   -0.53    8.64
   2  -2   5    5.59    5.99
   2  -2   6 1582.44   88.56
   2  -2   6 1554.93   68.13
   2  -2   7  430.77   47.95
   2  -2   8   -6.83   11.61
   2  -2   9   95.33   27.28
   2  -2  10  705.22   69.86
  -2   1  11  211.98   35.11
  -2   1  10   21.41   10.57
  -2   1   9  833.72   56.24
  -2   1   8    1.22    7.99
  -2   1   7  340.13   30.01
  -2   1   6  393.61   30.11
   2  -1  -6  434.79   34.18
  -2   1   5 1572.75   54.22
   2  -1  -5 1644.10   58.68
   2  -1  -4  118.25   14.51
  -2   1   4  142.03   15.00
  -2   1   3 3533.55   64.74
   2  -1  -3 3603.82   68.89
   2  -1  -2  412.70   20.61
  -2   1   2  434.82   19.52
   2  -1  -1  181.71   11.77
  -2   1   1  188.43   11.60
  -2   1   0    6.99    2.63
   2  -1   0    5.48    2.48
   2  -1   0    9.23    2.85
  -2   1   0    4.05    2.64
   2  -1   1 9000.34  107.49
  -2   1  -1 8971.55  114.26
  -2   1  -1 9104.63   99.92
   2  -1   1 9213.05  101.77
   2  -1   2  367.34   28.49
  -2   1  -2  352.15   27.56
  -2   1  -2  387.13   27.77
   2  -1   3  417.94   36.91
   2  -1   3  346.31   27.81
   2  -1   3  390.58   34.73
   2  -1   4 2627.06   96.18
   2  -1   4 2526.55   78.78
   2  -1   5   83.86   15.80
   2  -1   5   89.91   19.92
  -2   1  -5   62.40   17.53
   2  -1   5   92.65   19.59
   2  -1   6   72.25   15.82
   2  -1   6   52.51   18.83
  -2   1  -6   24.39   11.15
   2  -1   6   50.45   17.93
   2  -1   7  907.66   66.39
   2  -1   8    5.78   10.12
   2  -1   9  177.12   34.14
   2  -1  10  324.01   46.69
   2  -1  11  368.36   52.38
  -2   0  11   19.16   13.80
  -2   0  10   22.50   13.48
  -2   0   9  128.73   22.31
  -2   0   8 1248.54   63.94
  -2   0   7   16.37    8.34
   2   0  -6 1414.75   63.05
  -2   0   6 1297.70   54.59
  -2   0   5 1754.28   57.09
   2   0  -5 1688.87   60.92
   2   0  -4   14.35    5.82
  -2   0   4   10.77    4.74
  -2   0   3  138.88   12.52
   2   0  -3  118.57   12.27
  -2   0   2 6428.21   70.19
   2   0  -2 6340.75   74.29
   2   0  -1   30.57    4.39
  -2   0   1   25.90    3.58
  -2   0   0 2926.02   34.71
   2   0   0 2936.46   47.48
   2   0   0 2895.81   34.58
   2   0   1 5099.81   83.06
  -2   0  -1 5078.28   79.66
   2   0   1 5196.60   69.39
  -2   0  -1 5099.94   74.16
  -2   0  -2 4090.03  100.29
   2   0   2 3875.53   90.48
   2   0   2 4142.28  102.90
   2   0   2 4040.80   91.80
  -2   0  -3   25.34   10.71
  -2   0  -3   11.09    5.00
   2   0   3   23.58    8.08
   2   0   3   15.36    6.29
   2   0   4 1543.36   66.27
  -2   0  -4 1659.19   68.57
  -2   0  -5  277.89   30.79
   2   0   5  254.03   28.61
   2   0   5  323.34   31.16
   2   0   6  361.62   34.81
  -2   0  -6  342.23   37.25
   2   0   6  318.31   35.35
   2   0   7 1796.85   88.43
   2   0   8  347.33   41.95
   2   0   9   17.03   14.12
   2   0  10  121.56   29.80
   2   0  11  152.51   33.11
  -2  -1  11  541.72   54.11
  -2  -1  10    1.36    9.11
  -2  -1   9   63.43   19.94
  -2  -1   8  873.50   55.24
  -2  -1   7    9.56    9.63
   2   1  -6  267.56   29.95
  -2  -1   6  256.06   25.32
   2   1  -5 2177.09   75.28
  -2  -1   5 2226.32   65.86
   2   1  -4   44.05   10.33
  -2  -1   4   50.57    9.97
   2   1  -3  254.21   19.82
  -2  -1   3  264.40   17.58
   2   1  -2 2617.07   51.32
  -2  -1   2 2834.69   46.09
  -2  -1   1 4473.17   42.21
   2   1  -1 4374.47   48.37
   2   1   0    1.71    2.48
  -2  -1   0    4.41    3.74
   2   1   1 1962.13   51.85
   2   1   1 1882.84   31.85
  -2  -1  -1 2028.45   51.43
  -2  -1  -2  973.16   33.34
   2   1   2 1042.50   52.31
  -2  -1  -2 1111.90   52.50
   2   1   2 1159.16   33.73
  -2  -1  -3  643.29   31.35
   2   1   3  738.26   48.43
   2   1   3  730.92   33.30
  -2  -1  -3  747.72   47.66
  -2  -1  -4 3925.68  111.80
  -2  -1  -4 4113.44   89.82
   2   1   4 4032.04  111.81
   2   1   4 4141.66   92.17
   2   1   5 2267.75   76.18
  -2  -1  -5 2229.88   75.06
   2   1   5 2350.07   87.08
  -2  -1  -6   15.02    8.28
   2   1   6   21.72    8.84
   2   1   6   14.83    9.54
   2   1   7   19.88   12.94
   2   1   8  777.52   60.12
   2   1   9   34.65   17.15
   2   1  10  224.44   36.96
   2   1  11  126.39   29.22
  -2  -2  10  204.33   33.10
  -2  -2   9   14.29   16.07
  -2  -2   8  159.97   26.01
  -2  -2   7   84.72   17.82
   2   2  -6  552.86   49.32
  -2  -2   6  565.97   38.62
   2   2  -5 4694.33  133.05
  -2  -2   5 4352.56   97.47
   2   2  -4 1255.50   63.41
  -2  -2   4 1135.94   45.82
   2   2  -3  293.42   29.14
  -2  -2   3  253.37   19.09
  -2  -2   2  953.90   52.81
  -2  -2   2 1121.32   33.45
   2   2  -2 1029.13   50.20
  -2  -2   1  879.48   24.74
  -2  -2   1  894.06   30.22
  -2  -2   1  862.53   23.41
  -2  -2   0  169.64   13.97
  -2  -2   0  146.84    5.35
   2   2   0  168.64   13.51
   2   2   0  158.22    8.29
  -2  -2  -1 6481.12   42.26
   2   2   1 6461.30   94.72
  -2  -2  -1 6605.63   97.05
   2   2   1 6476.49   48.31
   2   2   2 1835.08   32.90
   2   2   2 1768.38   65.57
  -2  -2  -2 1887.31   68.70
  -2  -2  -2 1835.16   35.08
  -2  -2  -3   26.47   11.35
   2   2   3   46.00    7.50
  -2  -2  -3   44.41    7.68
   2   2   3   23.21    9.37
  -2  -2  -4  156.14   25.03
   2   2   4  143.53   23.22
  -2  -2  -4  176.85   16.92
   2   2   4  170.97   16.55
   2   2   5 3484.62   84.83
  -2  -2  -5 3722.62   87.94
   2   2   5 3559.57  114.73
   2   2   6   20.51    9.95
   2   2   6   -3.92    9.42
  -2  -2  -6   12.58    8.71
   2   2   7  747.44   50.70
   2   2   8  215.04   32.14
   2   2   9   49.99   19.29
   2   2  10  -21.84   20.13
   2   2  11  657.40   67.86
  -2  -3  10  156.47   31.62
  -2  -3   9   27.64   14.13
  -2  -3   8 1085.64   67.58
  -2  -3   7  249.39   31.07
  -2  -3   6    3.05   16.41
  -2  -3   6   -9.14   10.32
   2   3  -6   -2.56   11.99
  -2  -3   5    3.33    7.56
  -2  -3   5   -0.43   17.82
   2   3  -5    5.47   13.32
   2   3  -4 2365.88  117.32
  -2  -3   4 2215.49   70.66
  -2  -3   4 2085.07  117.20
  -2  -3   3  102.17   19.24
  -2  -3   3  112.73   15.61
  -2  -3   2  815.27   37.84
  -2  -3   2  818.91   35.77
  -2  -3   1 3257.63   50.15
   2   3  -1 3073.51   78.81
  -2  -3   1 3150.67   77.36
   2   3   0  311.37   19.35
   2   3   0  298.57   15.18
  -2  -3   0  337.50   20.92
  -2  -3   0  287.22   12.02
  -2  -3  -1  120.75    7.45
  -2  -3  -1  139.45   15.61
   2   3   1  129.07   13.77
   2   3   1  125.63    8.96
  -2  -3  -2 8006.23  144.31
   2   3   2 7902.60  135.05
   2   3   2 7844.22   81.06
  -2  -3  -2 7875.23   71.57
  -2  -3  -3    9.71    3.62
  -2  -3  -3   13.03   10.23
   2   3   3    4.24    8.70
   2   3   3    6.83    3.74
   2   3   4  425.88   24.74
   2   3   4  504.89   46.86
  -2  -3  -4  410.49   41.32
  -2  -3  -4  426.70   24.55
   2   3   5  202.81   20.19
   2   3   5  214.55   30.70
  -2  -3  -5  271.87   34.23
  -2  -3  -5  234.96   21.04
   2   3   6  268.96   25.93
  -2  -3  -6  270.40   25.57
   2   3   6  262.10   34.85
   2   3   7   27.62   12.41
   2   3   8 1416.75   74.72
   2   3   9   35.61   14.51
   2   3  10   15.78   13.88
   2   3  11    1.43   15.52
  -2  -4  10   53.06   22.04
  -2  -4   9   18.46   14.55
  -2  -4   8   11.02   11.35
  -2  -4   7 1049.36   67.79
  -2  -4   6   73.65   20.21
  -2  -4   5  773.82   75.07
  -2  -4   5  790.54   51.95
  -2  -4   4  246.53   29.09
  -2  -4   4  215.66   31.83
  -2  -4   3  403.32   35.70
  -2  -4   3  403.50   31.21
  -2  -4   2   -1.86    3.52
  -2  -4   2    3.49    6.96
  -2  -4   1 5677.07   89.54
  -2  -4   1 5476.35   76.41
   2   4  -1 5745.66  109.48
   2   4   0   53.74    8.30
  -2  -4   0   61.51    7.30
  -2  -4   0   69.51   10.16
  -2  -4  -1  654.79   22.84
   2   4   1  648.71   31.37
   2   4   1  652.37   25.49
  -2  -4  -1  673.15   35.62
   2   4   2   11.05    4.91
  -2  -4  -2    5.65    7.04
   2   4   2    6.52    4.45
  -2  -4  -2   10.11    3.70
  -2  -4  -3 1432.16   39.22
   2   4   3 1369.72   67.51
   2   4   3 1439.45   43.39
   2   4   4  135.63   25.71
  -2  -4  -4  129.98   24.62
  -2  -4  -4  119.27   13.04
   2   4   4  121.69   14.24
   2   4   5 2382.28   67.32
  -2  -4  -5 2264.26  100.95
  -2  -4  -5 2302.60   63.12
   2   4   6  338.58   29.15
   2   4   6  292.94   39.14
  -2  -4  -6  314.99   27.13
   2   4   7    7.44    8.03
   2   4   8  409.52   41.00
   2   4   9  614.68   54.44
   2   4  10  108.81   26.70
   2   4  11  498.18   59.77
  -2  -5   9   29.34   19.72
  -2  -5   8   66.71   21.09
  -2  -5   7   58.01   23.16
  -2  -5   6  157.46   28.74
  -2  -5   5   -2.82    8.41
  -2  -5   5   22.86   17.26
  -2  -5   4 2759.71  111.57
  -2  -5   4 2566.84   94.70
  -2  -5   3   26.29    8.79
  -2  -5   3    8.79   12.57
  -2  -5   2   12.89    6.43
   2   5  -2   -9.20   15.67
  -2  -5   2  -12.18   17.15
  -2  -5   2    3.67    5.27
  -2  -5   1   20.48    5.23
   2   5  -1   44.87   11.93
  -2  -5   1   34.53    8.48
  -2  -5   0 1916.19   46.62
  -2  -5   0 1919.71   57.44
   2   5   0 1858.14   55.24
  -2  -5  -1  181.77   20.39
  -2  -5  -1  158.96   13.05
   2   5   1  168.21   15.71
   2   5   1  156.19   15.74
  -2  -5  -2 3718.58   66.46
  -2  -5  -2 3688.25   62.43
   2   5   2 3607.99   85.07
  -2  -5  -2 3711.44  111.47
   2   5   2 3692.43   72.32
   2   5   3   22.87    6.98
  -2  -5  -3   21.32    5.37
  -2  -5  -3    6.26   10.71
   2   5   3   17.16    6.51
   2   5   4   48.05   15.54
   2   5   4   36.30    8.72
  -2  -5  -4   28.08   11.81
  -2  -5  -4   38.14    7.75
   2   5   5  143.94   18.37
  -2  -5  -5  160.36   28.85
   2   5   5  126.00   27.58
  -2  -5  -5  127.85   15.55
  -2  -5  -6 1597.86   59.92
   2   5   6 1586.14   64.52
   2   5   7   -1.79    9.67
   2   5   7   11.94   12.00
   2   5   8  147.40   25.94
   2   5   9   57.37   19.32
   2   5  10   36.11   19.04
   2   5  11   30.41   22.15
  -2  -6   9   44.00   16.20
  -2  -6   8   17.86   13.43
  -2  -6   7  583.18   62.39
  -2  -6   6   32.85   20.37
  -2  -6   5    0.38   12.07
  -2  -6   4  230.43   27.88
  -2  -6   4  208.00   36.26
  -2  -6   3  902.09   47.17
  -2  -6   3  904.90   43.92
  -2  -6   3  992.64   82.23
  -2  -6   2  304.97   25.00
  -2  -6   2  297.16   24.57
  -2  -6   2  325.78   46.96
   2   6  -2  247.26   33.07
   2   6  -1 1978.97   75.12
  -2  -6   1 2012.73   62.26
  -2  -6   1 2126.36   60.41
  -2  -6   0    3.51    3.82
   2   6   0    1.67    6.72
  -2  -6   0  -12.35    8.69
  -2  -6  -1   20.75    8.62
  -2  -6  -1   10.80    4.55
   2   6   1   20.66    6.17
   2   6   1    4.61    5.19
   2   6   2  909.68   42.13
   2   6   2  887.95   40.41
  -2  -6  -2  909.31   60.51
  -2  -6  -2  905.93   36.52
   2   6   3 2045.53   74.02
  -2  -6  -3 2069.54   55.29
   2   6   3 1979.30   62.11
  -2  -6  -3 2219.10  108.04
  -2  -6  -4  121.11   25.61
  -2  -6  -4  141.76   15.78
   2   6   4  127.42   17.28
   2   6   4  120.80   20.53
   2   6   5   91.41   22.42
  -2  -6  -5  113.39   15.51
   2   6   5  116.68   16.84
  -2  -6  -5  141.95   29.10
   2   6   6   67.98   14.69
   2   6   7  106.18   19.16
   2   6   8   79.85   18.38
   2   6   9  544.12   51.30
   2   6  10   68.41   22.16
  -2  -7   8  110.01   34.36
  -2  -7   7  217.60   42.10
  -2  -7   6  383.17   54.46
  -2  -7   5  106.00   29.76
  -2  -7   4  204.92   23.30
  -2  -7   4  214.13   39.22
  -2  -7   3  158.60   20.02
  -2  -7   3  122.45   34.78
   2   7  -2    9.83    9.07
  -2  -7   2   -5.75    6.28
  -2  -7   2    5.47   14.11
  -2  -7   2   10.18    7.98
  -2  -7   1  100.20   15.29
   2   7  -1   90.42   19.29
  -2  -7   1   86.07   14.11
  -2  -7   0 2498.10   67.67
  -2  -7   0 2515.33   78.49
   2   7   0 2555.78   82.90
   2   7   1  317.79   27.76
  -2  -7  -1  359.87   25.01
  -2  -7  -1  360.41   34.56
   2   7   2   71.55   13.01
   2   7   2   78.64   12.76
  -2  -7  -2   72.04   11.50
  -2  -7  -3  213.81   35.44
  -2  -7  -3  250.16   20.73
   2   7   3  302.98   26.99
   2   7   3  243.72   24.54
  -2  -7  -4  105.82   14.67
  -2  -7  -4   80.99   23.55
   2   7   4  101.77   18.73
   2   7   4   93.46   16.45
  -2  -7  -5  126.00   28.18
   2   7   5   99.12   17.08
   2   7   5   66.66   16.51
   2   7   6 1045.38   57.11
   2   7   7  187.64   26.73
   2   7   8   22.67   12.18
   2   7   9  222.88   32.90
   2   7  10   39.17   18.25
  -2  -8   8   26.53   25.56
  -2  -8   7   18.85   22.33
  -2  -8   6   85.38   28.67
  -2  -8   5   11.23   15.49
  -2  -8   5   53.33   15.72
  -2  -8   4  130.24   20.40
  -2  -8   4  152.51   36.43
   2   8  -3  596.00   66.05
  -2  -8   3  834.76   93.62
  -2  -8   3  720.39   44.24
  -2  -8   2  477.98   68.02
  -2  -8   2  414.53   33.02
   2   8  -2  426.62   48.74
   2   8  -1    6.91   10.37
  -2  -8   1   -2.68    8.42
  -2  -8   0  575.22   42.27
   2   8   0  578.31   44.09
   2   8   1    4.45    7.08
  -2  -8  -1   -8.50   12.39
  -2  -8  -2  -16.90   20.01
   2   8   2    2.11    4.60
   2   8   2   -3.42    6.06
   2   8   3  700.13   40.26
  -2  -8  -3  637.88   62.27
   2   8   3  704.97   45.35
   2   8   4   61.48   14.39
  -2  -8  -4   64.29   21.91
   2   8   4   51.62   13.36
   2   8   5   30.51   12.81
   2   8   6  370.05   36.68
   2   8   7  229.27   30.94
   2   8   8   60.73   18.82
   2   8   9   68.44   20.52
  -2  -9   7   32.65   28.36
  -2  -9   6  239.86   31.13
  -2  -9   6  210.14   46.81
  -2  -9   5  246.61   51.41
  -2  -9   5  204.67   26.66
  -2  -9   4   29.49   12.35
  -2  -9   4    2.35   21.04
   2   9  -3  252.22   44.34
  -2  -9   3  345.06   33.70
  -2  -9   3  350.07   67.56
   2   9  -2   70.00   20.29
  -2  -9   2   99.04   33.89
  -2  -9   2   89.74   17.63
  -2  -9   1   10.26    8.88
   2   9  -1   15.80   13.06
  -2  -9   0  187.40   27.81
   2   9   0  196.16   29.31
   2   9   1  347.45   36.09
  -2  -9  -1  318.19   42.24
  -2  -9  -2  -20.68   24.46
   2   9   2   -8.85   10.06
  -2  -9  -3  405.28   47.25
   2   9   3  468.10   40.85
   2   9   4   88.40   18.67
  -2  -9  -4  144.87   29.15
   2   9   5  193.22   27.51
   2   9   6  102.60   21.76
   2   9   7  126.16   25.48
   2   9   8    7.20   14.29
  -2 -10   5  -37.18   34.88
  -2 -10   4  120.72   36.95
   2  10  -3   91.18   24.07
  -2 -10   3  189.48   52.17
   2  10  -2   65.02   20.94
  -2 -10   2  115.34   38.43
   2  10  -1    5.14   10.25
   2  10   0  401.61   45.84
   2  10   1   -3.46   12.18
  -2 -10  -1   -2.98   21.09
   2  10   2  100.11   21.03
  -2 -10  -2   96.49   23.76
   2  10   3   10.35   10.34
  -2 -10  -3   20.39   15.80
   2  10   4  299.21   36.23
   2  10   5   -6.20   10.15
   2  10   6   -4.04   12.73
   2  10   7  105.55   24.69
  -2 -11   4   65.12   22.75
  -2 -11   3   97.64   42.78
   2  11  -2   12.49   13.52
  -2 -11   2   -6.94   28.60
   2  11  -1   58.49   24.30
   2  11   0    8.82   14.32
   2  11   1  192.61   32.69
   2  11   2   58.31   16.96
   2  11   3   18.97   10.70
   2  11   4  102.80   24.47
   2  11   5  205.43   32.87
   2  11   6    4.72   10.20
   2  12  -1   14.36   12.72
   2  12   0   13.89   15.20
   2  12   1   22.91   17.51
   2  12   2   -0.49   14.78
   2  12   3   35.87   18.86
  -3   9   5  184.65   31.11
  -3   9   4  190.76   31.75
  -3   9   3    5.96    8.49
  -3   9   2   29.09   12.77
  -3   9   1  213.58   32.30
  -3   9   0    1.31   13.88
  -3   9  -1  127.38   27.64
  -3   9  -2  153.93   31.26
  -3   9  -3   26.60   16.18
  -3   8   7   98.55   21.75
  -3   8   6   21.36   11.18
  -3   8   5   51.29   16.17
  -3   8   4  473.62   43.98
  -3   8   3    0.36    8.75
  -3   8   2   49.64   15.49
  -3   8   1  367.24   38.41
  -3   8   0  197.57   29.35
  -3   8  -1    4.47    9.90
  -3   8  -2  270.33   38.89
  -3   8  -3   66.50   21.43
  -3   8  -4   76.27   20.36
   3  -8   5  255.53   56.43
  -3   7   8    4.40   11.43
  -3   7   7   53.68   16.74
  -3   7   6   -3.32   11.22
  -3   7   5   86.23   18.28
  -3   7   4  904.65   55.56
  -3   7   3   20.19   10.88
  -3   7   2   11.89   10.27
  -3   7   1  424.75   37.93
  -3   7   0  157.42   24.10
  -3   7  -1  -13.80   12.61
  -3   7  -2  717.73   58.03
  -3   7  -3  275.38   39.16
  -3   7  -4  -22.29   21.39
   3  -7   5    4.24   17.29
   3  -7   6  303.00   54.39
  -3   6   9  180.28   29.29
  -3   6   8   24.35   13.55
  -3   6   7  560.74   45.42
  -3   6   6   72.49   17.23
  -3   6   5    9.84    9.15
  -3   6   5    5.19    8.96
  -3   6   4   14.50    9.83
  -3   6   4   12.04    9.48
  -3   6   3  465.56   16.32
  -3   6   3  505.49   30.62
  -3   6   3  480.57   37.18
  -3   6   2  309.87   29.76
  -3   6   1  634.19   42.36
  -3   6   0 1004.18   54.67
  -3   6  -1   33.86   10.94
  -3   6  -2   57.46   17.35
   3  -6   3 1212.54   45.41
  -3   6  -3 1142.38   72.37
  -3   6  -4  -12.62   14.75
   3  -6   4   10.17    5.53
   3  -6   5  394.30   58.50
   3  -6   6   85.55   29.26
   3  -6   7   60.52   22.69
   3  -6   8    8.71   13.75
  -3   5   9   71.52   19.33
  -3   5   8   -3.71    8.18
  -3   5   7   20.56   11.40
  -3   5   6  653.43   44.46
  -3   5   5    5.36    6.96
  -3   5   4  687.77   42.10
  -3   5   3   53.92   12.18
  -3   5   2  195.35    9.85
  -3   5   2  178.47   20.86
   3  -5  -1    8.79    6.51
  -3   5   1   24.34    9.28
   3  -5   0 2075.14   73.86
  -3   5   0 2034.37   70.66
  -3   5  -1   -0.33    8.78
   3  -5   2  244.86   15.37
  -3   5  -2  281.08   31.29
   3  -5   3   30.53    8.59
  -3   5  -3   26.14   13.36
  -3   5  -4   35.30   14.12
   3  -5   4   23.54   12.94
   3  -5   4   65.64   12.98
   3  -5   5  -17.15   10.30
   3  -5   5   -2.31   13.55
   3  -5   6 1526.27  106.35
   3  -5   6 1450.52   75.53
   3  -5   7  209.50   40.44
   3  -5   8    2.47   16.06
  -3   4  10   -0.11   10.44
  -3   4   9  477.61   44.42
  -3   4   8    6.67    8.41
  -3   4   7  447.87   37.24
  -3   4   6    0.38    6.38
  -3   4   5  179.74   21.35
  -3   4   4    8.44    6.56
   3  -4  -3 3535.43   88.67
  -3   4   3 3425.11   83.57
   3  -4  -3 3471.44   86.50
   3  -4  -2    4.62    4.83
  -3   4   2    5.08    5.09
  -3   4   2   13.43    3.95
   3  -4  -1    5.28    3.76
  -3   4   1    1.40    2.26
   3  -4   0    0.51    4.29
  -3   4   0    0.29    5.37
  -3   4   0    2.41    2.98
   3  -4   1  822.22   21.31
  -3   4  -1  932.45   47.02
   3  -4   1  962.26   49.52
   3  -4   2   93.94   17.54
  -3   4  -2   82.87   16.74
   3  -4   2   67.11   10.76
   3  -4   3 2528.68   97.82
  -3   4  -3 2466.08   94.36
   3  -4   4    7.29    5.78
  -3   4  -4   -4.59   15.52
   3  -4   4    4.56   13.45
   3  -4   5   64.47   13.50
   3  -4   5   58.23   19.98
   3  -4   6   58.69   17.06
   3  -4   6   32.43   17.02
   3  -4   7 1171.27   87.00
   3  -4   8    2.70   13.55
   3  -4   9  292.54   46.43
  -3   3  10   52.52   18.01
  -3   3   9   -3.72    9.16
  -3   3   8  117.38   20.12
  -3   3   7   90.99   16.95
  -3   3   6 1405.94   58.94
  -3   3   5   31.60    9.04
   3  -3  -4    8.51    6.05
  -3   3   4    5.79    5.27
  -3   3   3  112.87   14.45
   3  -3  -3  112.81   15.15
   3  -3  -2 1584.51   52.78
  -3   3   2 1514.26   48.77
   3  -3  -1  156.22   16.73
  -3   3   1  135.51   10.27
  -3   3   1  124.16   14.46
   3  -3   0 2930.82   72.20
  -3   3   0 2740.01   52.48
  -3   3   0 2872.38   69.09
   3  -3   1    5.95    4.36
  -3   3  -1   21.26    6.45
  -3   3  -1    4.73    5.69
   3  -3   1   18.97    5.04
   3  -3   2   20.61    9.09
  -3   3  -2    8.36    7.95
   3  -3   2    6.04    5.22
   3  -3   3 1143.07   54.25
  -3   3  -3 1007.13   57.11
   3  -3   3  979.59   58.71
   3  -3   4 1461.50   87.06
   3  -3   4 1495.54   65.91
   3  -3   4 1425.09   77.98
   3  -3   5   62.07   14.69
   3  -3   5   74.75   22.07
   3  -3   6  346.22   44.03
   3  -3   6  372.59   38.52
   3  -3   7    4.52   13.13
   3  -3   8  128.51   29.65
   3  -3   9  129.30   31.27
   3  -3  10  661.12   68.14
  -3   2  10    0.10    8.97
  -3   2   9 1047.93   64.03
  -3   2   8   47.41   14.50
  -3   2   7   15.89    8.97
  -3   2   7    7.64    6.65
  -3   2   6  647.32   39.82
  -3   2   6  599.14   37.14
  -3   2   5 1146.74   47.17
   3  -2  -5 1115.45   51.24
   3  -2  -4  364.37   27.37
  -3   2   4  361.19   24.25
   3  -2  -3 1371.10   47.95
  -3   2   3 1323.47   43.59
   3  -2  -2  107.35   12.57
  -3   2   2  110.30   12.17
   3  -2  -1   32.97    7.24
  -3   2   1   21.06    5.52
  -3   2   1   25.32    4.97
   3  -2   0 1274.22   42.50
  -3   2   0 1261.07   36.20
  -3   2   0 1215.41   39.97
   3  -2   1 4588.38   87.85
  -3   2  -1 4590.51   89.90
  -3   2  -1 4672.86   86.26
   3  -2   2 1240.32   54.54
  -3   2  -2 1300.80   53.31
   3  -2   2 1250.02   54.12
   3  -2   3 1046.55   62.99
  -3   2  -3  914.62   53.38
  -3   2  -3  921.81   48.29
   3  -2   3  940.65   55.80
   3  -2   4  496.22   46.67
   3  -2   4  465.52   38.42
   3  -2   4  484.93   43.52
   3  -2   5  388.50   43.35
   3  -2   5  396.53   41.91
   3  -2   5  313.89   33.70
   3  -2   6  416.48   46.13
   3  -2   6  367.27   38.71
   3  -2   7 1499.48   88.29
   3  -2   8  118.01   26.60
   3  -2   9   24.85   18.41
   3  -2  10  374.39   50.89
  -3   1  10   26.30   13.04
  -3   1   9  432.62   40.65
  -3   1   8  635.91   45.92
  -3   1   7   92.09   18.12
  -3   1   6  268.65   25.25
  -3   1   5  276.39   24.01
   3  -1  -5  287.01   26.36
  -3   1   4  352.88   22.76
  -3   1   4  359.40   23.85
   3  -1  -4  376.10   26.30
   3  -1  -3  646.50   30.94
  -3   1   3  604.47   27.34
   3  -1  -2 3481.75   64.45
  -3   1   2 3486.09   58.50
  -3   1   1 1145.73   33.44
  -3   1   1 1173.07   32.09
   3  -1  -1 1154.64   33.36
   3  -1   0  133.35   11.89
  -3   1   0  154.38   13.27
   3  -1   0  137.41   12.00
  -3   1   0  131.77   11.38
   3  -1   1 2739.74   63.01
  -3   1  -1 2794.68   66.34
   3  -1   1 2811.06   60.45
  -3   1  -1 2789.75   59.70
  -3   1  -2    9.16    6.47
   3  -1   2    7.89    4.36
  -3   1  -2   -7.93    8.08
   3  -1   2    8.37    6.57
   3  -1   3  253.59   30.99
   3  -1   3  313.47   32.11
  -3   1  -3  271.40   28.23
   3  -1   3  265.45   28.73
   3  -1   4 4123.11  122.49
   3  -1   4 4114.64  122.33
   3  -1   5  303.44   35.15
   3  -1   5  277.95   32.38
   3  -1   5  332.27   38.36
   3  -1   6  274.74   36.13
   3  -1   6  229.27   31.00
   3  -1   7  649.48   57.17
   3  -1   8  519.37   53.41
   3  -1   9    0.09   13.83
   3  -1  10  179.18   35.56
   3  -1  11  241.64   42.42
  -3   0  10  274.77   36.17
  -3   0   9   64.83   18.74
  -3   0   8  353.47   34.44
  -3   0   7  213.64   25.06
  -3   0   6  609.45   38.96
   3   0  -6  615.93   42.43
  -3   0   5 1445.82   52.57
   3   0  -5 1487.70   59.82
  -3   0   4 1854.80   52.87
   3   0  -4 1954.53   59.93
  -3   0   3   51.61    7.88
   3   0  -3   55.77    9.12
   3   0  -2 2459.28   50.99
  -3   0   2 2523.22   44.29
  -3   0   1  200.99   10.97
   3   0  -1  203.42   12.66
  -3   0   1  210.92   15.52
   3   0   0   54.13    6.02
  -3   0   0   46.57    5.77
   3   0   0   63.55    8.87
  -3   0   0   59.59    8.79
   3   0   1 2328.51   61.19
  -3   0  -1 2332.61   60.07
   3   0   1 2264.04   46.46
  -3   0  -1 2214.05   50.31
   3   0   2 2302.76   74.04
   3   0   2 2266.11   77.86
  -3   0  -2 2451.71   77.39
   3   0   2 2193.38   65.47
   3   0   3  104.08   19.80
  -3   0  -3   86.52   17.20
   3   0   3  113.92   18.46
   3   0   3   92.20   16.75
   3   0   4 3188.87  101.21
   3   0   4 3291.31  110.54
  -3   0  -4 2973.91  103.20
   3   0   4 3312.06  107.11
   3   0   5  898.46   61.46
   3   0   5  760.72   53.19
   3   0   5  758.80   54.81
   3   0   6  132.89   23.77
   3   0   6  144.10   26.05
   3   0   6  148.35   26.93
  -3   0  -6  121.87   24.70
   3   0   7  321.13   39.11
   3   0   8  599.40   56.91
   3   0   9   44.60   20.86
   3   0  10  647.68   64.97
   3   0  11  153.93   34.03
  -3  -1  10   23.05   12.81
  -3  -1   9   45.45   13.41
  -3  -1   8  831.43   52.86
  -3  -1   7  497.89   38.02
   3   1  -6  652.42   47.44
  -3  -1   6  753.24   42.28
  -3  -1   5 1371.61   51.84
   3   1  -5 1355.49   60.31
   3   1  -4   33.19    9.39
  -3  -1   4   21.56    5.87
  -3  -1   3  161.12   13.88
   3   1  -3  173.82   16.71
  -3  -1   2 1954.51   38.50
   3   1  -2 1980.45   45.42
  -3  -1   1 4221.06   38.34
   3   1  -1 4141.13   50.29
   3   1   0    9.78    2.13
  -3  -1   0   12.58    5.72
   3   1   0   13.81    4.82
   3   1   1 2443.51   53.17
   3   1   1 2400.61   63.66
  -3  -1  -1 2384.80   63.68
   3   1   1 2313.37   39.41
   3   1   2  395.85   26.77
   3   1   2  352.75   31.31
   3   1   2  324.79   23.17
  -3  -1  -2  309.40   27.63
  -3  -1  -3  254.68   25.23
   3   1   3  323.36   34.61
   3   1   3  303.27   25.36
  -3  -1  -4   26.41   13.35
   3   1   4   25.11   10.36
   3   1   4   24.15    9.56
  -3  -1  -4   20.00    8.38
  -3  -1  -5 1555.33   71.34
   3   1   5 1708.66   84.91
   3   1   5 1444.34   67.86
  -3  -1  -5 1732.82   84.72
   3   1   6   39.07   12.40
   3   1   6   31.02   11.27
  -3  -1  -6   31.30   12.55
   3   1   7  233.17   32.83
   3   1   8  508.85   52.20
   3   1   9  318.60   42.98
   3   1  10   -6.84   13.70
   3   1  11  672.34   68.73
  -3  -2  10  496.72   48.63
  -3  -2   9   24.81   11.39
  -3  -2   8  708.27   49.78
  -3  -2   7  225.39   26.28
   3   2  -6  180.61   28.88
  -3  -2   6  187.12   23.16
   3   2  -5   59.14   15.25
  -3  -2   5   71.89   13.80
   3   2  -4 2316.94   86.24
  -3  -2   4 2251.75   61.06
  -3  -2   3    7.49    5.36
   3   2  -3  -10.34    8.33
  -3  -2   2 4315.89   58.34
   3   2  -2 4252.97   92.44
  -3  -2   1    6.74    4.24
  -3  -2   1    6.65    2.39
   3   2  -1    8.36    4.09
  -3  -2   1    4.98    1.87
   3   2   0 2997.60   66.36
  -3  -2   0 3091.26   67.34
   3   2   1   14.21    1.85
   3   2   1   16.12    6.33
  -3  -2  -1    8.47    6.68
   3   2   2 2485.42   38.55
   3   2   2 2443.91   80.69
  -3  -2  -2 2399.83   76.85
  -3  -2  -3  145.73   22.54
  -3  -2  -3  131.76   14.51
   3   2   3  158.10   24.74
   3   2   3  181.68   15.15
   3   2   4  848.07   39.70
  -3  -2  -4  807.04   40.53
   3   2   4  960.44   64.20
  -3  -2  -4  957.94   62.81
  -3  -2  -5  336.76   30.48
  -3  -2  -5  376.19   40.99
   3   2   5  399.76   43.02
   3   2   5  369.77   31.52
  -3  -2  -6 1245.00   62.81
   3   2   6 1264.29   64.68
   3   2   7   27.60   14.26
   3   2   8 1412.65   82.71
   3   2   9   10.35   11.11
   3   2  10    3.20   14.94
   3   2  11  -18.90   21.31
  -3  -3  10   25.81   17.38
  -3  -3   9  230.18   32.74
  -3  -3   8    7.47   11.21
  -3  -3   7  721.15   47.86
  -3  -3   6   31.62   10.15
   3   3  -6   45.30   18.54
  -3  -3   5  560.70   73.19
   3   3  -5  619.51   64.70
  -3  -3   5  608.46   37.28
  -3  -3   4  128.06   26.69
   3   3  -4  158.85   31.82
  -3  -3   4  173.48   18.42
  -3  -3   3 1892.43   52.14
  -3  -3   3 1974.13   81.27
  -3  -3   2   49.46    8.65
  -3  -3   2   42.85    6.78
  -3  -3   2   48.12    9.91
  -3  -3   1 4814.72   50.08
  -3  -3   1 4850.90   87.21
  -3  -3   1 4852.54   56.02
  -3  -3   0  189.70   18.23
   3   3   0  189.36   17.87
  -3  -3   0  189.78    6.83
   3   3   1   75.50   12.72
  -3  -3  -1   51.09   10.56
   3   3   1   67.08    5.60
  -3  -3  -2   29.82   10.58
   3   3   2   18.71    3.85
  -3  -3  -2   29.28    4.95
   3   3   2   19.22    7.12
   3   3   3 1257.17   34.79
   3   3   3 1223.34   68.08
  -3  -3  -3 1289.32   37.96
  -3  -3  -3 1162.23   65.02
   3   3   4   50.46   15.79
  -3  -3  -4   38.62    8.72
  -3  -3  -4   24.03   12.32
   3   3   4   47.70    9.58
   3   3   5 3319.64   83.27
  -3  -3  -5 3293.78   84.60
   3   3   5 3556.49  131.30
  -3  -3  -5 3341.20  126.23
  -3  -3  -6  126.97   26.07
   3   3   6   79.41   15.20
  -3  -3  -6   98.09   17.10
  -3  -3  -7  360.32   35.30
   3   3   7  409.76   39.16
   3   3   8   70.98   19.80
   3   3   9  454.45   50.48
   3   3  10   20.42   13.62
   3   3  11  482.46   60.44
  -3  -4  10  387.32   46.60
  -3  -4   9   18.85   14.76
  -3  -4   8   93.47   20.03
  -3  -4   7    2.85    7.80
  -3  -4   6  880.30   51.80
  -3  -4   5   38.78   16.86
  -3  -4   5   33.38    8.61
  -3  -4   4 2224.37   69.44
  -3  -4   4 2203.87   91.20
  -3  -4   3  645.06   36.32
  -3  -4   3  658.32   34.67
  -3  -4   2    9.96    4.32
  -3  -4   2   13.11    6.93
  -3  -4   2    4.44    3.93
  -3  -4   1    2.18    2.07
  -3  -4   1    5.94    3.67
  -3  -4   0  978.99   23.15
  -3  -4   0 1008.53   42.06
  -3  -4   0 1094.88   45.81
   3   4   0 1087.99   37.25
  -3  -4  -1  519.36   15.55
   3   4   1  497.07   31.53
  -3  -4  -1  518.31   34.04
   3   4   1  483.34   19.99
   3   4   2 2557.90   48.43
   3   4   2 2637.44   81.24
  -3  -4  -2 2561.29   84.78
  -3  -4  -2 2495.79   39.59
   3   4   3  628.26   48.22
  -3  -4  -3  614.97   49.23
   3   4   3  742.09   29.73
  -3  -4  -3  668.54   25.47
   3   4   4  311.72   21.28
   3   4   4  264.79   35.74
  -3  -4  -4  311.11   38.71
  -3  -4  -4  292.93   20.25
   3   4   4  296.34   22.08
   3   4   5   71.26   20.71
   3   4   5   58.55   11.90
  -3  -4  -5   58.88   18.77
  -3  -4  -5   78.51   12.74
   3   4   6 1637.97   65.53
  -3  -4  -6 1493.34   58.89
  -3  -4  -6 1611.40   94.40
   3   4   7  277.45   31.20
   3   4   8  655.90   53.89
   3   4   9   23.20   15.01
   3   4  10  171.19   36.26
   3   4  11  151.12   35.47
  -3  -5   9  468.85   49.26
  -3  -5   8  102.40   22.24
  -3  -5   7  616.84   49.90
  -3  -5   6  225.33   28.57
  -3  -5   5  213.21   26.94
  -3  -5   5  229.09   33.08
  -3  -5   4   22.59   10.05
  -3  -5   4   14.39    7.03
  -3  -5   3 1250.42   53.28
  -3  -5   3 1119.32   53.09
  -3  -5   3 1151.26   47.43
  -3  -5   2   61.63    9.52
  -3  -5   2   33.99    7.96
  -3  -5   2   54.11   12.02
  -3  -5   1 1532.64   67.50
  -3  -5   1 1688.88   59.57
  -3  -5   1 1589.92   41.35
   3   5  -1 1604.73   71.69
  -3  -5   0  729.48   39.81
   3   5   0  727.10   35.38
  -3  -5   0  637.19   23.17
  -3  -5  -1  632.32   24.16
   3   5   1  631.18   28.08
   3   5   1  596.43   34.83
  -3  -5  -1  676.52   41.36
  -3  -5  -2  107.85   18.96
  -3  -5  -2  137.10   10.97
   3   5   2  124.39   12.73
   3   5   2  140.30   19.13
   3   5   3  921.22   55.93
  -3  -5  -3  958.56   64.10
   3   5   3  892.48   35.66
  -3  -5  -3  925.56   31.36
   3   5   4  260.90   34.31
   3   5   4  292.82   22.88
  -3  -5  -4  284.19   39.58
  -3  -5  -4  247.79   18.59
  -3  -5  -5  783.92   37.15
  -3  -5  -5  888.24   71.18
   3   5   5  815.14   42.61
  -3  -5  -6  270.95   40.97
  -3  -5  -6  226.60   22.50
   3   5   6  270.61   27.98
   3   5   7  858.36   53.35
   3   5   8   24.72   15.85
   3   5   9  567.23   54.88
   3   5  10  157.24   33.68
   3   5  11   -3.75   11.61
  -3  -6   9   91.73   24.76
  -3  -6   8  104.24   24.59
  -3  -6   7    6.81   11.74
  -3  -6   6  528.56   47.87
  -3  -6   5   45.00   16.57
  -3  -6   4  710.30   44.33
  -3  -6   4  742.12   44.94
  -3  -6   4  780.26   53.79
  -3  -6   3  703.24   42.63
  -3  -6   3  697.57   51.01
  -3  -6   3  674.26   37.89
  -3  -6   2  946.40   62.48
  -3  -6   2  926.17   47.58
  -3  -6   2  876.15   38.73
  -3  -6   1  567.95   52.77
  -3  -6   1  554.38   36.28
  -3  -6   1  526.62   26.99
   3   6  -1  572.27   45.84
   3   6   0  107.40   15.63
  -3  -6   0   82.67    9.92
  -3  -6   0   90.12   15.09
   3   6   1  796.92   40.98
  -3  -6  -1  791.82   47.13
  -3  -6  -1  777.87   30.56
   3   6   1  797.60   37.18
  -3  -6  -2  364.97   20.41
   3   6   2  359.75   29.64
  -3  -6  -2  314.42   33.92
   3   6   2  352.35   24.49
  -3  -6  -3  270.71   36.45
   3   6   3  278.48   22.51
  -3  -6  -3  284.31   19.30
   3   6   3  295.16   30.66
   3   6   4  612.03   50.77
  -3  -6  -4  689.69   63.54
   3   6   4  604.82   35.27
  -3  -6  -4  599.92   30.37
   3   6   5    4.89    5.72
  -3  -6  -5    7.97   12.20
  -3  -6  -5    7.89    5.39
  -3  -6  -6  673.52   38.96
  -3  -6  -6  686.26   69.16
   3   6   6  687.62   44.79
   3   6   7  508.26   42.85
   3   6   8   21.09   12.03
   3   6   9  206.10   35.12
   3   6  10   46.33   17.68
  -3  -7   8   36.44   13.19
  -3  -7   7  246.14   38.21
  -3  -7   6  228.61   36.16
  -3  -7   5  427.07   37.72
  -3  -7   5  443.13   47.70
  -3  -7   4   83.67   17.89
  -3  -7   4   83.51   21.78
  -3  -7   3  507.56   38.33
  -3  -7   3  416.93   46.52
  -3  -7   3  431.92   32.51
  -3  -7   2  626.26   35.67
  -3  -7   2  649.92   63.69
  -3  -7   2  621.74   42.01
   3   7  -2  616.97   61.70
  -3  -7   1   -1.37    4.06
   3   7  -1   -6.04   11.59
  -3  -7   1  -16.43   22.17
  -3  -7   1    3.17    6.65
  -3  -7   0  511.96   38.75
   3   7   0  559.41   39.93
  -3  -7   0  485.65   27.08
  -3  -7  -1  232.02   28.13
   3   7   1  211.02   21.92
  -3  -7  -1  216.45   18.02
  -3  -7  -2   22.22    9.59
   3   7   2   30.94   10.10
  -3  -7  -2   19.40    6.56
   3   7   2   20.48    7.89
   3   7   3  442.46   32.06
  -3  -7  -3  492.36   27.87
   3   7   3  407.10   35.71
  -3  -7  -3  463.33   51.24
  -3  -7  -4 1685.67   54.96
   3   7   4 1642.42   63.72
  -3  -7  -4 1800.61  107.42
  -3  -7  -5    8.46    5.90
   3   7   5    7.21    8.20
  -3  -7  -5   28.74   20.11
   3   7   6   60.41   15.64
  -3  -7  -6   87.67   27.20
   3   7   7   78.69   18.82
   3   7   8   25.62   14.13
   3   7   9  228.75   37.09
   3   7  10  206.67   37.97
  -3  -8   8  176.22   34.98
  -3  -8   7   17.66   13.25
  -3  -8   7   52.41   24.23
  -3  -8   6   43.99   20.09
  -3  -8   6   38.37   13.03
  -3  -8   5  477.08   41.01
  -3  -8   5  537.13   57.62
  -3  -8   4    5.56   12.53
  -3  -8   4   16.91    9.41
  -3  -8   3  245.91   28.92
  -3  -8   3  201.04   39.18
   3   8  -2   70.05   18.11
  -3  -8   2  118.81   31.33
  -3  -8   2  126.09   19.85
  -3  -8   1   17.16    7.30
  -3  -8   1    4.51    6.64
   3   8  -1    4.77   12.08
  -3  -8   0   98.68   13.04
   3   8   0  144.98   23.86
  -3  -8   0  120.62   20.23
  -3  -8  -1  649.02   34.42
   3   8   1  689.51   45.39
  -3  -8  -1  689.23   52.22
  -3  -8  -2  201.60   31.54
  -3  -8  -2  195.63   18.16
   3   8   2  215.42   23.56
  -3  -8  -2  178.98   18.40
   3   8   2  203.11   24.37
  -3  -8  -3  320.52   45.93
  -3  -8  -3  362.86   25.79
   3   8   3  366.67   32.30
   3   8   4    0.62    6.74
  -3  -8  -4   -5.19   13.37
  -3  -8  -4    4.59    5.05
  -3  -8  -5  331.89   48.53
   3   8   5  388.20   35.51
   3   8   6  140.32   23.38
  -3  -8  -6  150.98   35.39
   3   8   7  326.04   36.26
   3   8   8   16.56   15.48
   3   8   9   89.12   23.80
  -3  -9   7   64.83   31.24
  -3  -9   7   36.13   14.97
  -3  -9   6   41.57   21.21
  -3  -9   6   38.10   14.29
  -3  -9   5   -3.31    8.85
  -3  -9   5   21.22   21.49
  -3  -9   4   -1.18   18.34
  -3  -9   4   23.71   13.03
  -3  -9   3   78.43   21.62
  -3  -9   3   78.13   18.42
  -3  -9   2  814.36   89.05
  -3  -9   2  732.05   51.71
   3   9  -2  767.07   75.83
   3   9  -1   29.85   13.95
  -3  -9   1   -1.69   22.72
  -3  -9   1   15.69    8.65
  -3  -9   0   44.56   16.17
   3   9   0   69.54   19.96
  -3  -9  -1    7.89    9.94
   3   9   1  -18.99   13.65
  -3  -9  -2  210.28   36.05
   3   9   2  273.15   30.96
   3   9   3   72.22   16.22
  -3  -9  -3   70.72   26.25
  -3  -9  -4  405.83   56.91
   3   9   4  498.52   42.28
   3   9   5   -2.28    8.73
  -3  -9  -5   11.53   16.09
   3   9   6  111.65   22.13
   3   9   7   -2.30   10.17
   3   9   8  390.41   45.65
   3   9   9   14.65   10.94
  -3 -10   5  189.73   40.37
  -3 -10   4  -22.43   24.92
  -3 -10   3  155.64   39.71
  -3 -10   3  100.98   21.97
   3  10  -2   19.54   22.36
  -3 -10   2   51.95   27.18
  -3 -10   2   16.04    8.67
  -3 -10   1  393.58   65.98
  -3 -10   1  425.98   44.67
   3  10  -1  400.66   51.63
  -3 -10   0    0.96   10.41
   3  10   0   26.49   14.07
  -3 -10  -1   49.33   17.49
   3  10   1   65.44   19.92
  -3 -10  -2  -12.63   25.11
   3  10   2   -3.13    8.64
   3  10   3   52.28   15.64
  -3 -10  -3   53.52   21.19
   3  10   4   18.60   11.39
  -3 -10  -4   26.83   20.02
  -3 -10  -5  433.98   56.64
   3  10   5  375.11   41.05
   3  10   6  -20.82   13.33
   3  10   7   73.38   22.51
   3  10   8   -6.05   11.75
   3  11  -2    8.20   20.85
   3  11  -1    7.40   11.86
   3  11   0   24.05   14.96
   3  11   1    8.79   12.08
   3  11   2  294.50   38.80
   3  11   3   10.94   12.75
   3  11   4   51.72   19.08
   3  11   5  243.00   35.90
   3  11   6    2.64   10.09
   3  11   7   11.13   10.16
  -4   9   3   63.47   18.66
  -4   9   2   20.02   12.53
  -4   9   1  123.09   25.91
  -4   9   0   55.77   18.69
  -4   9  -1   60.62   18.77
  -4   8   6  134.09   27.29
  -4   8   5   60.93   17.76
  -4   8   4   92.85   21.56
  -4   8   3    7.21   11.74
  -4   8   2   -1.62    8.61
  -4   8   1  232.69   32.40
  -4   8   0  264.71   35.43
  -4   8  -1   12.67   13.45
  -4   8  -2  375.10   47.01
  -4   8  -3   45.21   18.60
  -4   8  -4  -19.93   18.25
  -4   7   7  287.12   35.42
  -4   7   6   54.18   16.76
  -4   7   5   17.08   11.17
  -4   7   4   81.67   19.18
  -4   7   3  286.37   33.15
  -4   7   2   40.97   13.91
  -4   7   1  632.21   48.37
  -4   7   0   -7.61   10.54
  -4   7  -1  107.33   21.43
  -4   7  -2   17.62   14.70
  -4   7  -3  346.23   44.75
  -4   7  -4  -33.18   23.49
   4  -7   5  204.89   45.64
   4  -7   6   61.23   27.26
  -4   6   8   26.64   14.04
  -4   6   7   60.50   16.89
  -4   6   6  365.83   37.31
  -4   6   5   11.81   12.85
  -4   6   4  427.73   22.96
  -4   6   4  419.26   36.90
  -4   6   3  165.13   23.84
  -4   6   3  141.45   10.46
  -4   6   3  141.33   16.19
  -4   6   2  477.35   38.76
  -4   6   1   30.60   10.94
  -4   6   0 1083.44   59.72
  -4   6  -1   30.45   11.37
  -4   6  -2  202.29   30.02
  -4   6  -3    3.70   10.92
  -4   6  -4  404.42   49.23
   4  -6   5   -1.93   19.27
   4  -6   6  647.19   74.82
   4  -6   7  -19.07   25.60
  -4   5   9  300.82   36.78
  -4   5   8   13.76   10.36
  -4   5   7  103.43   20.63
  -4   5   6   42.64   14.78
  -4   5   5  353.45   33.19
  -4   5   4   63.89   14.84
  -4   5   3 1185.57   36.27
  -4   5   3 1184.98   57.19
  -4   5   2  105.11   17.39
  -4   5   2   98.11    9.31
  -4   5   1  125.15   19.18
  -4   5   1  158.01   11.65
  -4   5   0    0.48    5.98
  -4   5  -1  694.96   45.81
   4  -5   2  229.04   15.02
  -4   5  -2  270.78   32.51
   4  -5   3  748.59   41.53
  -4   5  -3  845.54   60.99
   4  -5   4  147.16   20.86
  -4   5  -4   83.18   19.09
   4  -5   5   89.50   16.70
   4  -5   5  115.30   31.03
   4  -5   6   77.14   27.26
   4  -5   7  332.54   50.44
   4  -5   8  -18.28   19.05
  -4   4   9   19.28    9.97
  -4   4   8  657.88   48.57
  -4   4   7   14.46    9.29
  -4   4   6  590.28   41.13
  -4   4   5   84.69   16.07
  -4   4   4    5.13    6.75
  -4   4   3   28.93   10.01
  -4   4   3   25.38    6.98
  -4   4   2 1183.14   35.76
   4  -4  -2 1214.85   54.18
  -4   4   2 1115.75   50.15
   4  -4  -1    2.06    4.94
  -4   4   1   -2.62    5.61
  -4   4   1    7.34    3.10
  -4   4   0 1909.47   65.90
   4  -4   0 1994.47   71.15
  -4   4   0 2019.74   55.69
  -4   4  -1  536.03   30.70
   4  -4   1  468.16   37.75
  -4   4  -1  470.95   35.21
   4  -4   2  285.90   22.47
  -4   4  -2  319.72   32.94
  -4   4  -3  167.16   26.72
   4  -4   3  173.14   22.27
  -4   4  -4  664.46   56.64
   4  -4   4  819.17   72.11
   4  -4   4  849.30   50.54
   4  -4   5   15.44    9.78
   4  -4   5   13.16   11.30
   4  -4   6  490.27   56.89
   4  -4   7  338.15   47.56
   4  -4   8  284.40   44.10
   4  -4   9   38.42   19.48
  -4   3  10   11.85   10.48
  -4   3   9  457.74   43.53
  -4   3   8  190.69   27.28
  -4   3   7  147.91   21.35
  -4   3   6    2.91    7.55
  -4   3   5  714.81   40.14
  -4   3   4    6.06    6.07
   4  -3  -3 1754.31   62.62
  -4   3   3 1711.10   57.52
  -4   3   2  982.00   34.83
   4  -3  -2 1004.56   45.75
  -4   3   2  973.72   42.34
  -4   3   1  731.51   29.67
  -4   3   1  712.57   36.19
   4  -3  -1  666.00   36.80
  -4   3   0  384.60   23.70
   4  -3   0  359.26   28.38
  -4   3   0  380.65   26.90
   4  -3   1  519.44   25.95
  -4   3  -1  617.35   36.03
   4  -3   1  587.66   38.41
  -4   3  -1  540.02   34.72
   4  -3   2   22.64   10.21
  -4   3  -2   24.98    9.40
  -4   3  -2   24.05   10.36
   4  -3   2   19.21    7.50
   4  -3   3  285.69   30.68
   4  -3   3  266.96   32.18
  -4   3  -3  223.99   28.71
   4  -3   4  453.32   51.74
   4  -3   4  625.77   45.02
   4  -3   5  822.64   68.08
   4  -3   5  714.64   51.00
   4  -3   6   61.46   18.71
   4  -3   7  762.22   66.52
   4  -3   8  363.67   49.25
   4  -3   9    3.34   12.73
  -4   2  10   35.39   15.69
  -4   2   9   19.48   12.05
  -4   2   8  508.40   41.15
  -4   2   7   96.82   17.99
  -4   2   6  626.21   39.28
  -4   2   5  839.97   41.74
   4  -2  -4  534.34   34.96
  -4   2   4  534.68   30.84
   4  -2  -3  241.86   22.30
  -4   2   3  240.33   20.19
   4  -2  -2 1488.98   51.82
  -4   2   2 1476.71   44.63
   4  -2  -2 1414.15   48.72
  -4   2   2 1483.03   47.05
  -4   2   1 1104.73   37.44
   4  -2  -1 1103.50   41.83
  -4   2   1 1088.17   38.92
  -4   2   0  144.47   14.81
   4  -2   0  148.93   16.05
  -4   2   0  124.72   14.51
   4  -2   1  620.18   31.46
  -4   2  -1  583.69   34.18
   4  -2   1  642.92   36.10
  -4   2  -1  671.12   35.66
   4  -2   2  829.64   47.07
   4  -2   2  696.95   42.45
  -4   2  -2  887.01   49.52
  -4   2  -2  764.75   44.06
  -4   2  -3  513.65   41.63
   4  -2   3  627.42   46.30
  -4   2  -3  676.33   45.64
   4  -2   3  562.02   43.94
   4  -2   4  569.36   52.16
   4  -2   4  656.93   48.74
   4  -2   4  650.62   52.22
   4  -2   5 2187.29  100.99
   4  -2   5 2017.54   88.67
   4  -2   6    5.25    9.97
   4  -2   7  601.02   55.76
   4  -2   8  415.38   48.99
   4  -2   9   14.89   15.90
   4  -2  10   84.24   25.42
  -4   1  10   67.72   19.98
  -4   1   9  285.74   33.82
  -4   1   8  342.30   33.80
  -4   1   8  346.09   35.93
  -4   1   7  791.80   46.63
  -4   1   7  776.58   48.89
  -4   1   6   62.11   12.13
   4  -1  -5  564.99   38.00
  -4   1   5  539.99   32.16
  -4   1   4 1419.12   46.68
   4  -1  -4 1451.87   54.89
   4  -1  -3  136.17   16.10
  -4   1   3  126.96   13.19
  -4   1   2 1606.11   43.55
   4  -1  -2 1586.49   48.65
  -4   1   2 1502.36   46.77
  -4   1   1  751.24   32.23
   4  -1  -1  743.74   29.86
  -4   1   1  765.64   28.92
   4  -1   0   28.60    6.45
  -4   1   0   24.54    6.18
  -4   1   0   25.33    6.11
   4  -1   1  363.37   25.84
  -4   1  -1  394.44   27.67
  -4   1  -1  370.32   24.68
   4  -1   1  344.46   23.39
   4  -1   2 1007.98   48.61
   4  -1   2  996.67   52.31
  -4   1  -2 1087.74   54.20
  -4   1  -2  958.50   47.23
   4  -1   3  666.01   45.41
   4  -1   3  693.01   49.51
   4  -1   3  797.29   54.83
  -4   1  -3  837.64   52.08
   4  -1   4 1312.52   70.81
   4  -1   4 1378.81   73.85
  -4   1  -4 1357.52   70.04
   4  -1   4 1467.09   71.58
   4  -1   5   82.66   19.16
   4  -1   5   77.68   18.74
   4  -1   5   86.42   20.23
   4  -1   6  323.80   38.48
   4  -1   7  595.84   54.28
   4  -1   8 1170.49   78.58
   4  -1   9  213.16   37.29
   4  -1  10  189.12   36.42
  -4   0  10   63.90   18.81
  -4   0   9   14.78   11.07
  -4   0   8  307.79   32.43
  -4   0   7 1561.29   68.23
  -4   0   6   89.14   15.31
  -4   0   5  745.34   38.82
   4   0  -5  748.77   44.73
  -4   0   4  500.70   26.41
   4   0  -4  514.08   32.86
  -4   0   3   37.53    7.02
   4   0  -3   37.35    8.34
   4   0  -2  270.60   18.89
  -4   0   2  292.40   21.56
  -4   0   2  280.21   16.01
   4   0  -1 4267.80   65.99
  -4   0   1 4315.74   80.21
  -4   0   1 4267.69   56.71
   4   0   0  319.76   23.00
  -4   0   0  330.11   23.63
   4   0   0  313.02   15.99
  -4   0   0  327.24   17.23
   4   0   1 1027.58   45.17
  -4   0  -1 1112.38   46.81
   4   0   1 1008.78   33.33
  -4   0  -1  994.08   37.53
  -4   0  -2   17.39    6.98
   4   0   2   26.02    7.72
   4   0   2   30.98   10.03
   4   0   2   28.84   10.21
   4   0   3  824.81   49.21
   4   0   3  728.06   53.56
  -4   0  -3  803.87   52.79
   4   0   3  770.41   46.04
   4   0   4  221.97   28.95
   4   0   4  233.25   31.95
  -4   0  -4  240.44   30.84
   4   0   4  231.66   27.89
   4   0   5 3035.65  107.60
   4   0   5 2959.82  113.39
  -4   0  -5 2768.33  109.02
   4   0   5 3168.66  111.73
   4   0   6   49.41   16.30
   4   0   6   33.60   13.43
   4   0   7  710.57   57.99
   4   0   8   11.81   13.66
   4   0   9  716.96   65.28
   4   0  10   10.38   14.89
   4   0  11  267.39   44.84
  -4  -1  10  513.28   48.54
  -4  -1   9   -0.03    8.46
  -4  -1   8  253.56   30.74
  -4  -1   7   12.76    7.94
  -4  -1   6  335.38   28.72
   4   1  -6  322.73   34.49
  -4  -1   5  848.74   40.86
   4   1  -5  816.37   49.35
  -4  -1   4 2335.75   58.57
   4   1  -4 2299.64   72.76
  -4  -1   3  425.08   22.15
   4   1  -3  396.28   26.23
  -4  -1   3  431.25   20.17
  -4  -1   2 1094.57   42.95
  -4  -1   2 1147.50   27.80
   4   1  -2 1098.66   36.05
  -4  -1   1    2.49    1.73
   4   1  -1   12.21    3.84
  -4  -1   1    6.70    5.54
   4   1   0 1135.41   25.27
  -4  -1   0 1127.88   25.30
   4   1   0 1127.86   44.88
  -4  -1   0 1190.89   45.97
   4   1   1    6.75    2.35
  -4  -1  -1    2.12    4.71
   4   1   2 2691.89   89.39
  -4  -1  -2 2666.36   83.37
   4   1   2 2558.15   63.94
   4   1   3  357.81   37.90
   4   1   3  404.02   32.06
  -4  -1  -3  349.07   34.93
   4   1   3  423.21   32.14
   4   1   4  278.34   36.12
   4   1   4  218.68   26.15
  -4  -1  -4  325.08   36.36
   4   1   4  260.40   28.86
   4   1   5   13.95   11.53
   4   1   5   34.92   13.54
  -4  -1  -5   25.32   12.12
   4   1   5   11.66    8.71
   4   1   6 2606.29  104.66
  -4  -1  -6 2833.98  116.66
   4   1   7   14.02   12.03
   4   1   8  584.12   56.56
   4   1   9   -6.35   11.78
   4   1  10   -9.03   13.92
   4   1  11   10.03   13.99
  -4  -2  10   17.88   11.65
  -4  -2   9  201.62   29.69
  -4  -2   8   90.91   18.08
  -4  -2   7 1603.86   69.90
  -4  -2   6   10.34    7.31
   4   2  -6   -4.58   11.00
  -4  -2   5  477.85   31.12
   4   2  -5  428.71   42.51
  -4  -2   4  124.66   14.48
   4   2  -4  145.25   22.90
  -4  -2   3 1630.12   42.38
   4   2  -3 1783.24   67.79
  -4  -2   2  129.07    9.75
  -4  -2   2  133.85   16.32
   4   2  -2  153.03   17.33
  -4  -2   1 1176.16   46.22
   4   2  -1 1107.91   35.93
   4   2   0  173.51   18.37
  -4  -2   0  148.15   17.29
   4   2   1  651.01   38.15
  -4  -2  -1  653.39   38.77
  -4  -2  -2   39.24   11.42
   4   2   2   42.51    8.22
   4   2   2   38.30    5.66
   4   2   2   25.88   10.37
   4   2   3 4379.31  133.32
  -4  -2  -3 4384.02  125.78
   4   2   3 4644.15   84.28
  -4  -2  -4   21.66   11.70
  -4  -2  -4    7.18    5.14
   4   2   4   18.89    8.22
   4   2   5 1141.38   58.76
  -4  -2  -5 1002.29   58.20
  -4  -2  -6  442.06   42.69
  -4  -2  -6  577.49   54.19
   4   2   6  452.51   42.04
   4   2   7    3.92    8.62
   4   2   8   73.37   22.17
   4   2   9  954.54   74.56
   4   2  10   -7.50   17.34
   4   2  11   38.33   17.64
  -4  -3  10  399.93   42.92
  -4  -3   9    3.06    8.78
  -4  -3   8   36.07   13.88
  -4  -3   7   36.12   13.31
  -4  -3   6 1870.87   69.70
  -4  -3   5   28.82    9.85
   4   3  -5   38.57   18.49
  -4  -3   4  794.04   66.57
   4   3  -4  802.82   72.31
  -4  -3   4  853.05   37.86
  -4  -3   3  247.32   23.65
   4   3  -3  198.70   32.48
  -4  -3   3  262.31   18.01
  -4  -3   3  216.79   23.93
  -4  -3   2   44.07    6.94
   4   3  -2   44.56   12.02
  -4  -3   2   36.57    5.52
  -4  -3   2   34.89    9.18
  -4  -3   1   11.27    6.96
  -4  -3   1    6.64    1.83
   4   3   0 4225.66   93.50
  -4  -3   0 4293.22   95.50
   4   3   1   26.36    7.87
  -4  -3  -1   -7.43    9.94
   4   3   2  499.89   38.66
  -4  -3  -2  451.65   36.43
   4   3   2  454.84   16.04
  -4  -3  -3  125.01   21.05
   4   3   3  144.97   11.63
  -4  -3  -3  101.39   12.80
   4   3   3  166.42   26.10
   4   3   4  215.04   18.45
  -4  -3  -4  209.55   31.09
  -4  -3  -4  196.15   21.04
   4   3   4  177.73   30.49
  -4  -3  -5   77.21   21.90
   4   3   5   68.00   13.13
  -4  -3  -5   59.02   14.57
  -4  -3  -6 1829.11   78.98
   4   3   6 1930.92   79.54
   4   3   7    8.16    9.32
  -4  -3  -7    4.95    7.54
   4   3   8  232.35   34.85
   4   3   9  419.85   51.38
   4   3  10  414.39   53.80
   4   3  11    0.79   12.67
  -4  -4  10   54.19   18.07
  -4  -4   9  678.60   53.12
  -4  -4   8  136.40   23.14
  -4  -4   7  299.03   31.42
  -4  -4   6  126.05   36.27
  -4  -4   6  168.10   22.36
  -4  -4   5   18.70   10.05
  -4  -4   5   48.81   12.09
  -4  -4   4  259.56   22.56
  -4  -4   4  256.83   27.83
  -4  -4   3 2219.23   73.01
  -4  -4   3 2280.91   57.45
  -4  -4   2    7.37    2.60
  -4  -4   2    4.73    4.13
  -4  -4   2   11.16    7.68
  -4  -4   1  199.76    8.87
  -4  -4   1  227.90   23.30
  -4  -4   1  229.58   10.96
  -4  -4   0 1204.42   53.47
   4   4   1  717.28   42.10
  -4  -4  -1  691.97   43.12
   4   4   1  626.29   19.37
  -4  -4  -2   37.34   12.49
   4   4   2   28.46    4.73
  -4  -4  -2   24.83    3.74
   4   4   2   29.25   10.53
   4   4   3 1513.61   77.02
  -4  -4  -3 1531.50   41.48
  -4  -4  -3 1410.81   74.73
   4   4   3 1467.68   40.18
  -4  -4  -4   74.25   19.34
   4   4   4  104.30   12.29
  -4  -4  -4   88.35   12.49
   4   4   4   86.64   19.94
   4   4   5  328.94   25.79
  -4  -4  -5  266.72   24.78
  -4  -4  -5  340.28   42.82
   4   4   6 1115.13   57.23
  -4  -4  -6 1061.65   55.37
  -4  -4  -6 1238.65   82.59
   4   4   7  363.77   37.97
  -4  -4  -7  274.44   32.02
  -4  -4  -7  355.18   48.44
   4   4   8  107.59   25.01
   4   4   9  209.01   36.75
   4   4  10  194.32   37.29
   4   4  11   -2.14   17.37
  -4  -5   9  261.21   34.35
  -4  -5   8   33.94   14.78
  -4  -5   7   -0.11    8.10
  -4  -5   6  760.38   47.06
  -4  -5   5   49.36   15.39
  -4  -5   5   30.96   10.40
  -4  -5   4  186.05   24.01
  -4  -5   4  165.11   18.54
  -4  -5   4  178.87   20.23
  -4  -5   3 1062.11   53.74
  -4  -5   3 1034.11   42.24
  -4  -5   3 1001.08   39.42
  -4  -5   2  483.23   35.45
  -4  -5   2  454.32   22.25
  -4  -5   2  492.82   25.91
  -4  -5   1   54.85    6.24
  -4  -5   1   51.20    7.68
  -4  -5   1   54.00   13.15
  -4  -5   0 1660.59   66.31
  -4  -5   0 1536.45   30.02
   4   5   0 1636.15   54.91
   4   5   1  216.67   23.40
  -4  -5  -1  210.97   25.46
   4   5   1  201.97   15.45
  -4  -5  -1  197.14    8.42
  -4  -5  -2   21.35   10.35
   4   5   2   14.91    4.85
  -4  -5  -2   17.06    3.30
   4   5   2   27.18   12.10
   4   5   3 1430.04   73.73
  -4  -5  -3 1320.20   75.11
  -4  -5  -3 1383.94   36.83
   4   5   3 1339.54   41.77
  -4  -5  -4  751.26   32.62
  -4  -5  -4  744.59   62.31
   4   5   4  717.02   35.11
   4   5   5   12.94    6.39
  -4  -5  -5    6.89    4.96
  -4  -5  -5   12.11   14.50
  -4  -5  -6  205.32   37.01
  -4  -5  -6  209.65   22.71
   4   5   6  206.07   25.01
  -4  -5  -7  861.82   74.95
   4   5   7  821.05   53.65
   4   5   8   27.64   15.07
   4   5   9  120.75   26.54
   4   5  10  244.02   41.85
   4   5  11   14.68   13.90
  -4  -6   9  236.15   35.19
  -4  -6   8   86.45   20.92
  -4  -6   7    2.64    9.72
  -4  -6   6  677.50   46.63
  -4  -6   5   66.26   14.85
  -4  -6   5   85.07   18.54
  -4  -6   5   51.42   11.63
  -4  -6   4   -0.23    3.97
  -4  -6   4   10.21    8.24
  -4  -6   4    7.13    8.83
  -4  -6   3  236.16   27.33
  -4  -6   3  205.98   21.39
  -4  -6   3  207.41   19.47
  -4  -6   2  534.32   26.77
  -4  -6   2  581.28   41.24
  -4  -6   2  497.80   30.12
  -4  -6   1  107.48   10.39
  -4  -6   1  135.95   20.26
  -4  -6   1   99.62   13.02
  -4  -6   0  194.13   20.15
  -4  -6   0  234.68   26.74
  -4  -6   0  224.05   14.15
   4   6   0  203.65   23.26
  -4  -6  -1 1596.55   33.76
   4   6   1 1634.93   65.19
  -4  -6  -1 1601.57   71.86
   4   6   1 1570.59   52.66
  -4  -6  -2   16.42    8.87
   4   6   2    9.17    5.54
  -4  -6  -2    5.71    2.21
   4   6   3   11.73    6.23
  -4  -6  -3    9.39    4.42
  -4  -6  -4 1486.44   90.94
  -4  -6  -4 1345.41   42.66
   4   6   4 1407.82   52.05
   4   6   5   48.13   11.44
  -4  -6  -5   29.02   14.88
  -4  -6  -5   39.09    8.64
  -4  -6  -6  366.94   28.95
   4   6   6  374.67   33.75
   4   6   7  194.77   27.91
  -4  -6  -7  200.50   41.75
   4   6   8   64.30   19.30
   4   6   9    8.24   16.78
   4   6  10  258.02   43.76
  -4  -7   8   78.60   20.36
  -4  -7   7   11.31    9.92
  -4  -7   7   31.72   14.95
  -4  -7   6    6.58   10.10
  -4  -7   6   12.11    9.35
  -4  -7   5  459.38   42.13
  -4  -7   5  429.08   37.62
  -4  -7   4   11.36    7.91
  -4  -7   4   42.41   13.04
  -4  -7   4   43.30   14.70
  -4  -7   3  368.19   35.80
  -4  -7   3  333.60   30.65
  -4  -7   3  311.76   25.58
  -4  -7   2  350.14   34.35
  -4  -7   2  307.59   28.29
  -4  -7   2  313.70   22.73
   4   7  -1  247.51   34.14
  -4  -7   1  241.68   26.43
  -4  -7   1  298.67   31.42
  -4  -7   1  240.94   18.02
   4   7   0  168.54   24.17
  -4  -7   0  153.18   23.45
  -4  -7   0  188.37   25.72
  -4  -7   0  162.91   14.09
  -4  -7  -1 1265.62   36.07
  -4  -7  -1 1206.56   65.82
   4   7   1 1308.20   56.04
  -4  -7  -2    2.59    8.75
   4   7   2    1.37    4.76
  -4  -7  -2   -1.41    2.81
  -4  -7  -3   42.48   14.67
   4   7   3   62.17   12.44
  -4  -7  -3   73.46    9.99
   4   7   4  121.95   17.53
  -4  -7  -4  143.01   30.59
  -4  -7  -4   92.01   11.77
   4   7   5    2.91    6.03
  -4  -7  -5    7.83   14.31
  -4  -7  -5   12.23    5.81
   4   7   6   29.29   11.26
  -4  -7  -6   42.65   22.99
  -4  -7  -6   16.98    6.55
  -4  -7  -7 1498.16  104.92
   4   7   7 1358.52   72.47
   4   7   8   53.63   18.46
   4   7   9   24.97   15.80
   4   7  10   10.83   15.28
  -4  -8   7   59.61   19.07
  -4  -8   6   57.97   15.86
  -4  -8   6   87.08   20.44
  -4  -8   5  120.14   23.11
  -4  -8   5   95.53   20.12
  -4  -8   4   35.35   14.46
  -4  -8   4   42.77   14.40
  -4  -8   3   15.36   11.82
  -4  -8   3    2.31    8.37
  -4  -8   2  949.09   59.27
  -4  -8   2  973.17   59.70
  -4  -8   1    0.42    5.01
  -4  -8   1    4.82   10.88
  -4  -8   1   -9.33   10.93
  -4  -8   0    3.88    3.54
   4   8   0    5.11    8.23
  -4  -8   0   -5.24   14.22
  -4  -8   0   -3.42    8.09
  -4  -8  -1   55.77    9.77
  -4  -8  -1   64.12   18.73
   4   8   1   41.56   13.99
  -4  -8  -2  167.88   29.12
  -4  -8  -2  182.54   16.23
   4   8   2  175.87   23.04
   4   8   3   51.08   13.69
  -4  -8  -3   34.64    7.79
  -4  -8  -4  882.49   77.80
   4   8   4  822.46   48.34
   4   8   5   10.88    8.30
  -4  -8  -5   19.93   15.82
   4   8   6    4.01    8.60
  -4  -8  -6    6.07   17.61
   4   8   7   -4.03    8.41
  -4  -8  -7   17.39   14.36
   4   8   8  167.53   29.94
   4   8   9  -19.98   10.56
   4   8  10  137.36   33.82
  -4  -9   6    0.55    9.79
  -4  -9   5  592.21   51.22
  -4  -9   4   -5.52    9.84
  -4  -9   3   33.84   13.51
  -4  -9   3   25.50   11.10
  -4  -9   2  -17.78   14.84
  -4  -9   2   -5.33   11.69
   4   9  -1   95.47   22.74
  -4  -9   1  181.35   33.72
  -4  -9   1  144.91   24.00
   4   9   0   41.33   12.45
  -4  -9   0   61.49   20.40
  -4  -9   0   72.69   20.07
   4   9   1  885.12   59.35
  -4  -9  -1  832.38   63.67
  -4  -9  -2  -15.52   22.26
   4   9   2   -2.19    8.19
  -4  -9  -3    1.98   16.83
   4   9   3   13.98   10.57
   4   9   4   30.80   11.98
  -4  -9  -4   71.57   27.28
  -4  -9  -5  220.42   45.45
   4   9   5  239.35   30.37
   4   9   6   31.64   12.59
  -4  -9  -6   88.55   31.39
   4   9   7  122.17   25.46
   4   9   8    4.68   12.46
   4   9   9   -3.86   12.52
  -4 -10   4   86.72   22.56
  -4 -10   3   40.84   15.45
  -4 -10   2  193.93   29.52
  -4 -10   1    9.70   13.50
  -4 -10   0   37.67   16.11
   4  10   0   37.64   19.21
  -4 -10  -1    9.77   11.94
   4  10   1   29.82   14.93
  -4 -10  -2  354.99   49.47
   4  10   2  330.38   38.49
  -4 -10  -3   11.85   12.44
   4  10   3   47.73   15.52
   4  10   4   43.97   15.81
  -4 -10  -4   49.74   22.33
   4  10   5   -5.84   11.25
  -4 -10  -5    2.01   14.80
   4  10   6    2.21    9.68
  -4 -10  -6   41.35   25.02
   4  10   7   34.08   18.85
  -5   8   4   86.63   22.14
  -5   8   3  488.03   47.06
  -5   8   2   -3.29   13.39
  -5   8   1   64.25   19.29
  -5   8   0    3.79   10.23
  -5   8  -1   80.09   23.09
  -5   8  -2   13.48   14.37
  -5   7   6  284.83   36.69
  -5   7   5   -2.23   10.41
  -5   7   4  191.61   29.03
  -5   7   3   64.09   17.64
  -5   7   2  230.08   30.63
  -5   7   1   33.74   12.42
  -5   7   0  249.57   33.17
  -5   7  -1  168.27   29.10
  -5   7  -2   53.01   19.23
  -5   7  -3   13.05   12.34
  -5   7  -4  249.79   42.37
   5  -7   5   14.04   15.72
  -5   6   7    0.43    9.67
  -5   6   6   18.80   11.51
  -5   6   5  425.81   39.95
  -5   6   4   25.50   12.80
  -5   6   3  412.31   38.84
  -5   6   2   30.46   12.46
  -5   6   1   33.40   12.99
  -5   6   0    1.72    9.00
  -5   6  -1  914.92   59.41
  -5   6  -2   -1.60    9.15
  -5   6  -3  164.30   30.54
  -5   6  -4  -10.20   15.40
   5  -6   5    1.09   15.68
   5  -6   6   28.83   23.69
  -5   5   8  346.64   38.46
  -5   5   7   91.70   20.14
  -5   5   6  315.76   33.17
  -5   5   5   84.67   17.27
  -5   5   5  104.88   14.78
  -5   5   4    6.13    7.22
  -5   5   4   -0.71    4.15
  -5   5   3   97.44   18.17
  -5   5   3   95.08   12.18
  -5   5   2  777.87   32.40
  -5   5   2  757.45   47.92
  -5   5   1   -9.20    7.53
  -5   5   1  -11.07    8.26
  -5   5   0  112.43   19.13
  -5   5   0  138.09   14.76
  -5   5  -1  148.72   23.53
  -5   5  -2   91.20   20.46
  -5   5  -3   -0.04   10.16
  -5   5  -4  568.94   57.23
   5  -5   5  -11.94   16.81
   5  -5   6   83.73   26.72
   5  -5   7  228.99   42.52
  -5   4   9   97.38   21.38
  -5   4   8  269.12   33.26
  -5   4   7    7.06    8.34
  -5   4   6   61.84   15.36
  -5   4   5 1121.91   57.11
  -5   4   4  109.91   18.31
  -5   4   4  104.30   14.81
  -5   4   3   44.40   12.18
  -5   4   3   52.98    9.34
  -5   4   2  714.23   33.01
  -5   4   2  678.22   41.72
  -5   4   1  121.19   18.17
  -5   4   1  130.22   15.03
  -5   4   0  -12.83    8.94
  -5   4   0   -4.45    8.23
  -5   4  -1 1103.19   50.97
  -5   4  -1  939.02   52.64
  -5   4  -2  109.92   21.18
  -5   4  -2  138.34   19.23
   5  -4   2   73.95   12.57
  -5   4  -3   54.22   17.40
   5  -4   3   54.38   13.47
  -5   4  -4  498.00   51.75
   5  -4   4  577.49   62.59
   5  -4   4  639.92   47.43
   5  -4   5  319.49   51.03
   5  -4   5  369.49   36.97
   5  -4   6   23.49   17.47
   5  -4   7  197.02   39.12
   5  -4   8  187.02   37.26
  -5   3   9   31.08   13.43
  -5   3   8  513.21   43.29
  -5   3   7   90.67   17.11
  -5   3   6   71.77   15.52
  -5   3   5  991.61   50.06
  -5   3   4  277.26   23.87
  -5   3   4  300.19   26.95
  -5   3   3   20.01    8.09
  -5   3   3   25.75    7.98
  -5   3   2  198.24   18.53
   5  -3  -2  162.11   20.45
  -5   3   2  193.22   20.68
  -5   3   1  428.71   26.83
   5  -3  -1  390.68   30.30
  -5   3   1  399.13   29.28
  -5   3   0   69.39   12.08
   5  -3   0   58.54   12.77
  -5   3   0   69.79   13.39
   5  -3   1  661.46   44.32
  -5   3  -1  644.67   40.19
  -5   3  -1  687.24   41.62
   5  -3   2 1159.87   53.50
   5  -3   2 1283.45   67.98
  -5   3  -2 1315.18   63.62
  -5   3  -3   43.52   13.00
  -5   3  -3   35.05    9.81
   5  -3   3   34.41   12.23
   5  -3   4   47.60   16.84
   5  -3   4   60.82   16.51
   5  -3   5  404.56   50.38
   5  -3   5  441.72   41.71
   5  -3   6  -26.79   18.69
   5  -3   7  476.08   54.82
   5  -3   8  253.97   41.55
   5  -3   9   13.46   19.56
  -5   2  10  137.92   27.09
  -5   2   9   34.75   14.01
  -5   2   8  718.72   50.06
  -5   2   7  109.12   18.27
  -5   2   6   10.10    7.45
  -5   2   5  215.65   22.62
  -5   2   4  585.61   34.24
  -5   2   3   -2.41    5.74
   5  -2  -3    6.24    6.10
  -5   2   3   19.14    7.43
   5  -2  -2 1413.04   55.33
  -5   2   2 1436.57   50.34
   5  -2  -2 1371.77   52.05
  -5   2   2 1475.11   50.66
  -5   2   1  532.33   30.68
   5  -2  -1  536.97   31.88
  -5   2   1  546.99   30.37
  -5   2   0  170.75   18.25
   5  -2   0  141.03   17.13
  -5   2   0  142.44   16.73
   5  -2   1  215.51   21.09
  -5   2  -1  235.78   23.70
   5  -2   1  209.24   22.51
  -5   2  -1  252.79   24.24
   5  -2   2 2599.51   86.55
  -5   2  -2 2940.45   94.65
   5  -2   2 2807.32   91.82
  -5   2  -2 2842.23   89.89
   5  -2   3   -0.69    6.21
  -5   2  -3    0.98    8.58
  -5   2  -3  -20.71   17.10
   5  -2   3   -7.67    7.91
   5  -2   4  113.87   23.33
  -5   2  -4  160.23   26.43
   5  -2   4  120.45   25.17
   5  -2   4  147.70   24.69
   5  -2   5  277.26   38.26
   5  -2   6    2.82   14.19
   5  -2   7   25.91   15.20
   5  -2   8 1423.32   89.17
   5  -2   9    6.60   13.63
  -5   1  10  161.08   28.00
  -5   1   9   35.68   14.40
  -5   1   8   -0.94    7.93
  -5   1   7  902.11   50.62
  -5   1   6   38.50    9.98
  -5   1   5  482.82   30.77
  -5   1   4  277.85   21.84
   5  -1  -4  283.77   26.35
   5  -1  -3  108.73   15.43
  -5   1   3   96.81   15.34
  -5   1   3  102.86   13.15
  -5   1   2    5.00    5.13
   5  -1  -2    0.61    3.71
  -5   1   2    2.86    4.94
  -5   1   1 2623.26   69.47
   5  -1  -1 2615.59   61.74
  -5   1   1 2433.09   56.99
   5  -1   0   -5.87    6.01
  -5   1   0   -4.66    6.46
  -5   1   0   -7.39    7.93
   5  -1   1  136.43   18.59
  -5   1  -1  136.88   18.79
   5  -1   1  118.69   15.20
  -5   1  -1  118.30   15.99
   5  -1   2  527.03   40.88
  -5   1  -2  510.05   39.75
   5  -1   2  505.32   35.80
  -5   1  -2  496.82   36.39
   5  -1   3  657.37   52.72
   5  -1   3  635.64   50.44
  -5   1  -3  736.53   51.55
   5  -1   3  627.28   45.36
   5  -1   4    2.58    7.82
  -5   1  -4   17.75   12.79
   5  -1   4    5.60   10.29
   5  -1   4    2.43    7.63
   5  -1   5 1939.98   90.30
  -5   1  -5 2025.68   92.26
   5  -1   5 2078.92   91.11
   5  -1   6   61.30   18.55
   5  -1   7   29.74   15.69
   5  -1   8   20.32   14.05
   5  -1   9  315.45   43.96
   5  -1  10    2.74   12.80
  -5   0  10  582.37   54.30
  -5   0  10  577.86   50.59
  -5   0   9   -4.47    8.78
  -5   0   9    2.82    9.47
  -5   0   8  328.72   34.55
  -5   0   8  326.00   33.07
  -5   0   7   40.82   12.03
  -5   0   6  146.57   18.09
  -5   0   5  112.61   14.32
   5   0  -5  109.48   18.47
  -5   0   4 2803.29   63.67
   5   0  -4 2942.63   83.69
  -5   0   3  158.22   18.99
  -5   0   3  185.55   15.68
   5   0  -3  182.47   19.21
  -5   0   2    7.11    3.97
   5   0  -2    4.27    3.82
  -5   0   2   -0.28    6.55
   5   0  -1  113.19   12.59
  -5   0   1  115.97   15.73
  -5   0   1  118.93   10.87
  -5   0   0  947.22   44.49
   5   0   0  932.31   30.94
  -5   0   0 1042.65   34.72
   5   0   1   67.80   13.31
  -5   0  -1   72.93   11.11
   5   0   1   86.65   10.74
  -5   0  -1   94.45   16.30
   5   0   2 3441.92   97.27
   5   0   2 3573.92  107.61
  -5   0  -2 3432.59  101.23
   5   0   2 3553.62   82.47
  -5   0  -3  -17.03   12.75
   5   0   3    4.24    6.74
   5   0   3    2.38    5.95
   5   0   3   -1.46   10.92
  -5   0  -4    5.82    9.31
   5   0   4    5.84    6.24
   5   0   4    0.21    6.72
   5   0   4   25.14   13.48
   5   0   5  156.43   25.61
  -5   0  -5  175.76   28.42
   5   0   5  187.75   26.23
  -5   0  -6  873.00   65.25
   5   0   6  861.84   59.94
   5   0   7    5.25   10.92
   5   0   8  765.91   63.19
   5   0   9    6.97   11.19
   5   0  10   38.08   18.10
  -5  -1  10   23.70   14.31
  -5  -1   9  151.00   25.48
  -5  -1   8    9.02    8.93
  -5  -1   7 1622.92   68.36
  -5  -1   6   -1.57    6.10
  -5  -1   5    7.47    5.43
  -5  -1   5   10.65    6.48
   5   1  -5   19.48   10.18
   5   1  -4  232.84   25.21
  -5  -1   4  227.20   17.18
  -5  -1   3 1095.77   48.77
   5   1  -3 1184.18   48.72
  -5  -1   3 1163.32   34.27
  -5  -1   2  102.38   15.20
  -5  -1   2  125.72    9.84
   5   1  -2  109.78   12.90
  -5  -1   1 2759.99   75.95
  -5  -1   1 2718.02   40.96
   5   1  -1 2727.09   53.06
  -5  -1   0   13.98    3.57
   5   1   0   19.93    4.61
  -5  -1   0   17.48    8.09
   5   1   1  611.66   40.64
  -5  -1  -1  681.00   42.32
   5   1   1  633.80   21.66
  -5  -1  -2   40.16   12.90
   5   1   2   29.19    7.65
   5   1   2   43.27   10.91
   5   1   2   40.24   13.87
   5   1   3 1278.02   74.84
  -5  -1  -3 1356.05   72.16
   5   1   3 1517.83   59.39
   5   1   4   91.02   18.22
  -5  -1  -4   64.73   16.93
   5   1   4   88.82   17.05
   5   1   5 1018.30   60.29
  -5  -1  -5  982.76   68.49
   5   1   5 1056.24   60.65
   5   1   6   32.19   10.95
  -5  -1  -6   13.48   14.50
   5   1   6   39.27   15.68
   5   1   7  116.57   25.19
   5   1   8  110.56   24.96
   5   1   9 1068.18   77.05
   5   1  10  -17.25   17.67
   5   1  11   -2.10   11.10
  -5  -2  10  517.57   49.75
  -5  -2   9   88.39   20.11
  -5  -2   8   -0.84    7.44
  -5  -2   7  111.75   19.98
  -5  -2   6  515.82   35.86
  -5  -2   5   13.67    7.43
   5   2  -5    4.68    9.98
  -5  -2   4 1267.87   42.48
  -5  -2   4 1247.27   55.29
   5   2  -4 1366.09   72.57
   5   2  -3   86.02   17.08
  -5  -2   3   69.45    7.75
  -5  -2   3   78.45   14.82
  -5  -2   2  251.00   24.63
   5   2  -2  263.64   23.25
  -5  -2   2  271.05   11.54
  -5  -2   1  623.26   37.86
   5   2  -1  596.99   26.43
  -5  -2   0 3339.15   89.00
   5   2   1  912.42   50.18
  -5  -2  -1  889.18   49.43
   5   2   2  379.46   37.06
  -5  -2  -2  375.53   35.22
   5   2   2  329.95   18.69
   5   2   2  369.31   18.85
   5   2   3  496.89   46.89
  -5  -2  -3  523.48   45.50
   5   2   3  452.93   28.84
  -5  -2  -4   69.25   17.22
   5   2   4  104.73   17.02
   5   2   4   58.29   12.26
  -5  -2  -5  129.07   26.45
   5   2   5  106.45   20.23
   5   2   5   85.65   18.13
  -5  -2  -6 1294.18   80.93
   5   2   6 1090.87   65.41
   5   2   6 1261.45   78.02
  -5  -2  -7   56.00   21.52
   5   2   7    4.49   10.37
   5   2   8   12.75   10.63
   5   2   9  241.56   38.93
   5   2  10  121.59   26.98
   5   2  11    0.47   12.43
  -5  -3  10  111.67   24.24
  -5  -3   9  166.19   26.50
  -5  -3   8   45.34   16.11
  -5  -3   7  533.24   40.27
  -5  -3   6  171.96   21.16
  -5  -3   5  369.06   27.20
   5   3  -5  239.94   45.08
  -5  -3   4  130.72   14.24
  -5  -3   4   99.19   17.88
   5   3  -4   82.16   23.36
  -5  -3   4  132.69   19.85
  -5  -3   3 1469.89   37.81
  -5  -3   3 1602.09   63.98
   5   3  -3 1589.42   85.72
  -5  -3   3 1454.44   50.14
   5   3  -2  385.62   30.55
  -5  -3   2  414.93   32.55
  -5  -3   2  419.72   11.38
  -5  -3   2  338.49   12.05
  -5  -3   1  239.78   24.73
  -5  -3   0  927.07   48.93
   5   3   1  520.73   38.61
  -5  -3  -1  520.76   39.53
  -5  -3  -2   43.91   14.35
   5   3   2   25.59    2.96
   5   3   2   20.27    3.80
   5   3   2   33.47   13.14
   5   3   3 2063.30   41.85
  -5  -3  -3 1900.32   88.41
   5   3   4  735.35   35.54
  -5  -3  -4  728.56   58.48
  -5  -3  -5   28.33   13.14
   5   3   5   32.88   11.35
  -5  -3  -6  454.88   42.51
   5   3   6  468.95   40.90
  -5  -3  -7  268.14   37.37
  -5  -3  -7  368.13   48.01
   5   3   7  261.97   34.59
   5   3   8   54.03   15.14
   5   3   9  241.17   38.84
   5   3  10   43.33   23.33
   5   3  11   12.47   16.55
  -5  -4  10   39.23   14.21
  -5  -4   9   99.86   21.08
  -5  -4   8    9.95    8.67
  -5  -4   7  267.86   28.84
  -5  -4   6  665.91   41.74
  -5  -4   5  501.83   32.53
   5   4  -5  480.66   65.28
  -5  -4   5  457.74   38.79
  -5  -4   5  414.90   38.95
  -5  -4   4   27.56    8.69
  -5  -4   4   17.54    5.84
  -5  -4   4   11.09   10.46
  -5  -4   3  571.48   24.09
  -5  -4   3  631.92   42.68
  -5  -4   3  556.42   24.89
  -5  -4   2  130.63    8.61
  -5  -4   2  117.09    6.61
  -5  -4   1   -2.21    7.02
  -5  -4   0 1629.21   67.96
  -5  -4  -1 1030.43   56.83
  -5  -4  -2   12.77    9.58
  -5  -4  -3 1260.80   73.04
   5   4   3 1257.99   34.10
  -5  -4  -4  255.46   35.83
  -5  -4  -4  198.57   19.79
   5   4   4  272.35   21.11
  -5  -4  -5   69.95   19.68
  -5  -4  -5   54.61   12.69
   5   4   5   78.54   13.61
  -5  -4  -6  161.28   33.06
   5   4   6  140.17   21.14
  -5  -4  -6  100.93   20.42
   5   4   7  344.73   38.38
  -5  -4  -7  275.67   36.30
  -5  -4  -7  373.28   48.61
   5   4   8   43.28   17.74
   5   4   9  126.47   29.16
   5   4  10  109.04   27.75
   5   4  11   80.21   26.99
  -5  -5   9  181.37   27.64
  -5  -5   8  220.14   28.53
  -5  -5   7   24.98   13.20
  -5  -5   6  426.55   41.10
  -5  -5   6  432.51   34.13
  -5  -5   5  246.77   29.94
  -5  -5   5  272.00   25.09
  -5  -5   4   70.20   11.50
  -5  -5   4   51.81    9.85
  -5  -5   4   83.16   18.40
  -5  -5   3  418.53   36.59
  -5  -5   3  341.44   19.96
  -5  -5   3  390.23   22.15
  -5  -5   2  753.89   20.62
  -5  -5   2  846.10   24.38
  -5  -5   1    0.02    7.83
  -5  -5   0 1716.41   73.64
  -5  -5  -1  258.47   30.68
  -5  -5  -2 1159.32   66.63
   5   5   2  908.77   25.59
  -5  -5  -3  226.45   32.19
   5   5   3  202.04   15.08
  -5  -5  -4  259.16   36.52
  -5  -5  -4  247.20   20.73
   5   5   4  288.22   21.29
   5   5   5   49.43   10.60
  -5  -5  -5   36.83   17.70
  -5  -5  -5   22.23    7.93
  -5  -5  -6  452.63   36.79
  -5  -5  -6  551.64   58.96
   5   5   6  474.71   38.98
   5   5   7  237.02   30.64
  -5  -5  -7  255.12   41.21
   5   5   8  442.53   46.35
   5   5   9   -6.24   10.72
   5   5  10  244.88   40.09
   5   5  11  -38.68   21.80
  -5  -6   7   71.86   16.49
  -5  -6   7   81.83   21.56
  -5  -6   6  119.26   23.38
  -5  -6   6  117.11   19.05
  -5  -6   5  270.91   33.20
  -5  -6   5  251.43   24.67
  -5  -6   4  104.90   21.59
  -5  -6   4  125.23   15.80
  -5  -6   3  786.93   53.31
  -5  -6   3  741.55   33.49
  -5  -6   3  678.58   29.71
  -5  -6   2   44.32    6.42
  -5  -6   2   46.06    7.89
  -5  -6   2   57.58   15.91
  -5  -6   1  537.04   17.13
  -5  -6   1  555.41   17.52
  -5  -6   0    5.36    8.17
  -5  -6  -1 1547.69   76.86
   5   6   1 1541.12   43.80
  -5  -6  -2   67.78   17.69
   5   6   2   33.51    6.95
  -5  -6  -3   69.08   17.37
   5   6   3   80.33   11.14
  -5  -6  -3   79.44    8.29
  -5  -6  -4  161.10   31.04
  -5  -6  -4  170.26   16.02
   5   6   4  214.17   20.26
  -5  -6  -5  418.65   28.71
  -5  -6  -5  467.00   53.90
   5   6   5  386.72   29.69
   5   6   6   52.63   13.66
  -5  -6  -6   66.34   22.38
  -5  -6  -7  407.30   54.44
   5   6   7  331.56   36.52
   5   6   8   17.69   12.97
   5   6   9   -3.01   12.53
   5   6  10  -17.41   17.72
  -5  -7   6  198.41   30.47
  -5  -7   5   62.89   13.69
  -5  -7   5   61.08   18.55
  -5  -7   4  685.20   52.56
  -5  -7   4  599.41   36.30
  -5  -7   3   -8.15    6.10
  -5  -7   3   19.02   14.18
  -5  -7   2  718.53   52.89
  -5  -7   2  674.17   31.16
  -5  -7   1   87.49   10.12
  -5  -7   1   76.71   18.00
  -5  -7   0  196.76    9.98
  -5  -7   0  194.21   12.46
  -5  -7   0  217.37   29.55
   5   7   1   14.83    6.46
  -5  -7  -1   15.65    3.03
  -5  -7  -1   25.36    3.28
  -5  -7  -2  976.49   67.38
  -5  -7  -2  902.84   22.43
   5   7   2  924.73   42.60
   5   7   3   22.33    9.12
  -5  -7  -3    9.56    3.82
  -5  -7  -4  567.50   58.62
   5   7   4  564.15   35.55
   5   7   5   26.53    9.76
  -5  -7  -5   38.59   18.46
   5   7   6   77.99   16.94
  -5  -7  -6   71.87   23.87
   5   7   7   27.51   12.85
  -5  -7  -7   19.37   16.75
   5   7   8  260.16   36.71
   5   7   9   -4.49   15.56
   5   7  10  138.73   32.12
  -5  -8   6   44.58   16.60
  -5  -8   5  206.28   31.57
  -5  -8   4   65.71   19.88
  -5  -8   3   23.76   13.06
  -5  -8   2   13.13   11.15
  -5  -8   1  683.51   54.56
  -5  -8   0  -16.40   10.62
  -5  -8  -1  487.00   47.81
   5   8   1  519.36   40.62
  -5  -8  -2   65.83   18.89
   5   8   2   74.43   13.36
  -5  -8  -3   83.93   19.48
   5   8   3  105.21   16.60
   5   8   4    9.00    5.86
  -5  -8  -4  -19.05   20.46
  -5  -8  -5  293.82   46.41
   5   8   5  275.60   29.65
   5   8   6   16.49    9.45
  -5  -8  -6    3.71   13.11
   5   8   7  150.04   26.25
  -5  -8  -7  193.06   40.96
   5   8   8   28.67   14.98
  -5  -9   5   23.20   13.19
  -5  -9   4  183.48   29.87
  -5  -9   3    9.65   12.43
  -5  -9   2  520.51   49.96
  -5  -9   1  182.02   30.72
  -5  -9   0  150.80   28.72
  -5  -9  -1    3.64   10.67
  -5  -9  -2  212.62   35.65
  -5  -9  -3   42.18   16.36
  -5  -9  -4  142.44   34.58
  -5  -9  -5   29.69   21.18
  -5  -9  -6  190.47   41.66
  -5  -9  -7   40.24   25.83
  -5 -10   4   47.82   18.04
  -5 -10   3   86.85   23.59
  -5 -10   2   19.58   10.81
  -5 -10   1  116.61   26.82
  -5 -10   0   84.41   24.69
  -5 -10  -1   58.65   19.71
  -5 -10  -2   22.92   13.66
  -5 -10  -3  141.32   32.68
  -5 -10  -4   27.20   19.38
  -5 -10  -5  158.78   37.44
  -5 -10  -6  194.47   42.99
  -5 -11  -1   17.97   18.73
  -5 -11  -2   44.18   14.30
  -5 -11  -3  168.76   41.69
  -5 -11  -4  -19.46   19.81
  -6   7   4    2.15    8.77
  -6   7   3  148.78   26.21
  -6   7   2   -5.79    8.89
  -6   7   1    1.11    9.42
  -6   7   0   96.26   22.05
  -6   7  -1  400.42   45.41
  -6   7  -2   57.68   19.36
  -6   7  -3   80.82   24.98
  -6   6   6  282.19   34.67
  -6   6   5   57.76   17.58
  -6   6   4   61.59   17.10
  -6   6   3   88.19   19.10
  -6   6   2  374.44   37.95
  -6   6   1   52.74   15.95
  -6   6   0   98.55   21.03
  -6   6  -1  163.56   28.29
  -6   6  -2  104.31   24.29
  -6   6  -3   16.09   12.65
  -6   6  -4  325.93   46.79
   6  -6   4  433.26   63.45
   6  -6   5   13.32   16.12
  -6   5   7    6.38    8.40
  -6   5   6  170.94   25.81
  -6   5   5  268.22   25.42
  -6   5   5  275.50   32.15
  -6   5   4   40.00   13.29
  -6   5   4   34.25    9.54
  -6   5   3   13.29    9.89
  -6   5   3    7.49    5.36
  -6   5   2  246.28   21.53
  -6   5   2  245.61   28.99
  -6   5   1  152.09   23.38
  -6   5   1  167.93   18.06
  -6   5   0   23.27    6.65
  -6   5   0    9.31    7.39
  -6   5  -1  593.56   36.45
  -6   5  -1  590.51   48.51
  -6   5  -2  247.81   33.54
  -6   5  -3    4.90   12.15
  -6   5  -4  277.19   41.50
   6  -5   4  252.72   48.39
   6  -5   5   80.53   30.90
   6  -5   6    5.88   14.74
  -6   4   8  159.68   26.62
  -6   4   7  113.62   20.59
  -6   4   6    4.87    7.57
  -6   4   6   -1.25    5.94
  -6   4   5  168.56   23.70
  -6   4   5  195.37   23.00
  -6   4   4   62.37   14.91
  -6   4   4   56.29   11.97
  -6   4   3    3.59    7.24
  -6   4   3    8.51    6.91
  -6   4   2  691.80   37.63
  -6   4   2  691.76   44.20
  -6   4   1  462.01   31.58
  -6   4   1  441.45   35.58
  -6   4   0    2.19    8.25
  -6   4   0    7.39    9.10
  -6   4  -1 1319.91   60.76
  -6   4  -1 1130.34   61.35
  -6   4  -2  133.01   20.51
  -6   4  -2   97.80   20.92
  -6   4  -3  132.17   26.93
   6  -4   4   78.80   21.87
   6  -4   5  307.79   48.94
   6  -4   6  113.40   31.03
   6  -4   7  241.65   42.42
  -6   3   9   24.90   11.56
  -6   3   8  232.90   29.79
  -6   3   7   17.16   10.67
  -6   3   6   25.35    8.72
  -6   3   5  197.96   22.78
  -6   3   5  175.19   22.68
  -6   3   4  307.85   27.65
  -6   3   4  294.51   27.92
  -6   3   3   47.01   11.97
  -6   3   3   49.99   11.53
  -6   3   2  506.70   33.68
  -6   3   2  475.86   33.63
  -6   3   1  205.44   21.73
   6  -3  -1  183.62   23.10
  -6   3   1  199.38   22.24
  -6   3   0  134.35   18.68
  -6   3   0  157.75   20.34
   6  -3   0  160.07   22.54
  -6   3  -1   16.90    7.96
  -6   3  -1   28.71   11.99
  -6   3  -2 1129.32   61.08
  -6   3  -2  991.66   59.91
  -6   3  -3   11.97    9.12
  -6   3  -3  -10.01   16.82
   6  -3   3   10.09    6.32
   6  -3   4  512.98   57.41
   6  -3   4  464.23   45.04
  -6   3  -4  622.57   49.10
   6  -3   5  175.77   36.89
   6  -3   6  513.03   57.18
   6  -3   7   54.48   21.91
   6  -3   8  245.73   41.70
  -6   2   9   19.42   10.56
  -6   2   8   50.69   15.26
  -6   2   7  354.71   32.89
  -6   2   6   23.99    9.98
  -6   2   5  455.64   34.17
  -6   2   5  460.68   33.72
  -6   2   4   50.95   11.18
  -6   2   4   57.58   12.47
  -6   2   3  889.87   46.35
  -6   2   3  879.33   43.14
  -6   2   2   26.59    8.00
   6  -2  -2   17.03    7.73
  -6   2   2   25.98    8.23
  -6   2   1  944.82   46.69
   6  -2  -1  880.57   44.98
  -6   2   1  877.24   41.74
   6  -2   0   -3.70    6.38
  -6   2   0    8.23    5.72
  -6   2  -1  639.23   43.58
   6  -2   1  606.64   40.85
  -6   2  -1  673.76   42.49
   6  -2   2    7.86    8.04
  -6   2  -2    1.59    9.86
  -6   2  -2    1.40    8.29
   6  -2   2   11.19    8.51
   6  -2   3  565.20   49.64
  -6   2  -3  704.80   51.21
   6  -2   3  667.32   52.06
  -6   2  -4   33.44   13.64
   6  -2   4   -6.52   14.14
   6  -2   5 1356.89   84.10
  -6   2  -5 1458.69   79.77
   6  -2   6   -4.52   12.79
   6  -2   7   26.77   14.80
   6  -2   8    1.17    9.88
   6  -2   9  401.62   49.60
  -6   1  10   82.36   19.79
  -6   1   9  -15.93   13.45
  -6   1   8  196.09   25.45
  -6   1   7   34.82   12.16
  -6   1   6  599.23   37.30
  -6   1   5    2.73    4.67
  -6   1   5    0.88    5.57
  -6   1   4  595.87   39.19
  -6   1   4  708.09   36.92
   6  -1  -4  637.44   42.77
  -6   1   3    1.48    4.72
   6  -1  -3    4.39    5.36
  -6   1   3   -2.06    7.12
   6  -1  -2  147.14   18.99
  -6   1   2  145.42   19.40
  -6   1   2  128.15   15.07
   6  -1  -1   -3.69    5.53
  -6   1   1   -4.91    5.22
   6  -1  -1   -5.86    6.55
  -6   1   1    5.45    6.80
  -6   1   0 1463.84   61.38
   6  -1   0 1380.28   49.66
  -6   1   0 1516.23   52.49
  -6   1  -1    0.85    8.07
   6  -1   1   10.69    5.86
  -6   1  -1    0.88    6.53
   6  -1   1   10.34    8.35
   6  -1   2 1170.31   64.80
  -6   1  -2 1194.05   64.94
   6  -1   2 1188.38   56.72
  -6   1  -2 1128.13   59.49
   6  -1   3   55.36   14.27
  -6   1  -3   65.22   16.69
   6  -1   3   50.14   16.10
   6  -1   4   57.86   15.50
  -6   1  -4   69.83   20.61
   6  -1   4   64.66   18.79
  -6   1  -5   17.16   13.28
   6  -1   5  -19.59   16.42
   6  -1   6  870.14   62.42
   6  -1   7   15.29   13.52
   6  -1   8  425.64   47.77
   6  -1   9   25.45   15.03
  -6   0   9  250.92   31.76
  -6   0   8   12.10    6.80
  -6   0   7  430.14   33.01
  -6   0   6   77.55   12.96
  -6   0   5    1.44    4.55
  -6   0   5    3.05    5.74
   6   0  -4   89.55   16.56
  -6   0   4   74.57   14.33
  -6   0   4  120.57   14.32
  -6   0   3  876.31   47.44
  -6   0   3  975.27   36.80
   6   0  -3  907.03   45.76
   6   0  -2  107.39   14.65
  -6   0   2  108.67   18.06
  -6   0   2  110.17   11.62
   6   0  -1 1865.46   56.59
  -6   0   1 1955.28   70.18
  -6   0   1 2048.57   49.75
  -6   0   0  848.56   47.50
   6   0   0  808.20   32.77
  -6   0   0  893.62   37.02
  -6   0  -1   98.02   17.76
   6   0   1   82.79   11.51
  -6   0  -1   59.16   10.70
   6   0   1   97.31   17.66
  -6   0  -2   89.99   17.66
   6   0   2  103.89   14.80
   6   0   2   76.15   16.41
   6   0   2   99.74   21.32
  -6   0  -3 1267.20   72.40
   6   0   3 1197.76   58.74
  -6   0  -4   17.13   11.56
   6   0   4   24.92   10.04
   6   0   4   27.67   11.55
   6   0   5  361.35   36.56
  -6   0  -5  293.52   37.89
   6   0   5  275.04   32.93
   6   0   6  100.11   21.81
  -6   0  -6  116.32   25.49
   6   0   7  414.50   44.16
   6   0   8  105.09   23.81
   6   0   9  507.84   52.03
   6   0  10   83.75   23.26
  -6  -1   9  111.54   21.04
  -6  -1   8    8.65    8.20
  -6  -1   7   -2.51    5.88
  -6  -1   6  762.53   38.56
  -6  -1   5   80.10   11.22
   6   1  -5   81.77   18.60
  -6  -1   5   72.99   15.99
  -6  -1   4  480.95   36.83
   6   1  -4  482.07   39.63
  -6  -1   4  500.23   25.76
   6   1  -3  121.71   17.60
  -6  -1   3   87.01   16.35
  -6  -1   3  113.59   11.46
  -6  -1   2  299.77   28.51
   6   1  -2  303.95   23.61
  -6  -1   2  293.14   15.71
  -6  -1   1  195.31   23.07
  -6  -1   1  199.80   12.89
   6   1  -1  189.31   16.09
   6   1   0  941.66   32.48
  -6  -1   0  947.93   51.04
  -6  -1  -1  220.81   26.77
   6   1   1  202.75   13.48
   6   1   2  910.50   44.59
  -6  -1  -2  823.67   54.07
   6   1   2  769.45   33.30
  -6  -1  -3  227.86   31.09
   6   1   3  265.03   24.76
   6   1   4 1854.03   72.37
   6   1   4 1792.27   70.88
  -6  -1  -5  176.00   30.41
   6   1   5  216.05   27.68
   6   1   5  188.14   24.80
   6   1   6  691.98   51.23
  -6  -1  -6  652.86   58.16
   6   1   7  648.40   52.36
  -6  -1  -7  618.58   58.91
   6   1   8  -18.13   13.04
   6   1   9  101.42   24.14
   6   1  10  251.90   37.74
  -6  -2   9  213.05   29.76
  -6  -2   8    0.56    6.57
  -6  -2   8    7.32    8.80
  -6  -2   7  208.40   24.87
  -6  -2   7  194.38   21.87
  -6  -2   6  324.67   24.61
  -6  -2   5  356.74   33.46
   6   2  -5  389.20   46.90
  -6  -2   5  398.93   23.82
   6   2  -4   18.57   11.84
  -6  -2   4   12.46    4.48
  -6  -2   4    8.45    7.80
  -6  -2   3  542.37   39.08
   6   2  -3  565.76   43.42
  -6  -2   3  620.29   22.04
  -6  -2   2  614.24   41.40
   6   2  -2  511.37   34.26
  -6  -2   2  570.11   15.28
  -6  -2   1  320.80   30.53
   6   2  -1  260.30   18.47
  -6  -2   0  486.37   37.71
  -6  -2  -1  375.34   35.34
  -6  -2  -2  316.85   34.90
   6   2   2  266.23   17.42
   6   2   2  312.37   14.66
  -6  -2  -3  694.18   56.04
   6   2   3  716.93   37.09
   6   2   3  731.08   35.39
  -6  -2  -4  797.68   62.62
   6   2   4  716.79   42.73
   6   2   4  784.56   42.55
  -6  -2  -5   24.94   15.22
   6   2   5   38.46   11.76
   6   2   5   53.42   13.39
  -6  -2  -6  402.93   47.54
   6   2   6  402.35   39.01
   6   2   6  493.63   43.53
  -6  -2  -7  406.57   51.34
   6   2   7  384.69   41.25
   6   2   8   -5.28   12.19
   6   2   9  238.52   35.78
   6   2  10  473.64   51.27
   6   2  11   55.83   18.73
  -6  -3   8  325.25   34.11
  -6  -3   7   10.91    8.66
  -6  -3   6  242.77   23.33
  -6  -3   6  209.72   28.11
  -6  -3   5  686.38   33.67
  -6  -3   5  656.04   47.00
  -6  -3   5  716.62   30.73
  -6  -3   4   62.43   11.57
   6   3  -4   86.32   21.74
  -6  -3   4   82.59    9.10
  -6  -3   4   87.10   18.32
   6   3  -3  281.94   32.72
  -6  -3   3  281.18   29.75
  -6  -3   3  255.40   11.67
  -6  -3   3  214.57   13.32
  -6  -3   2  474.09   38.17
  -6  -3   1   33.48   11.51
  -6  -3   0  386.84   35.05
  -6  -3  -1 1651.69   75.59
  -6  -3  -2   36.30   14.24
  -6  -3  -3  144.01   26.46
   6   3   3  121.29    8.00
   6   3   3  124.59   12.63
   6   3   4  380.50   25.04
  -6  -3  -4  372.58   44.13
   6   3   4  468.01   30.54
  -6  -3  -5   16.03   10.03
   6   3   5    7.32    7.09
   6   3   5   22.97    9.08
  -6  -3  -6  368.69   46.75
   6   3   6  296.28   32.45
   6   3   6  365.50   38.56
  -6  -3  -7 1287.14   88.46
   6   3   7 1090.49   67.35
   6   3   8   57.34   17.26
   6   3   9  171.81   31.55
   6   3  10  160.18   32.43
  -6  -4   7    6.58    8.71
  -6  -4   7    8.03   11.22
  -6  -4   6   86.01   14.86
  -6  -4   6   80.52   19.87
  -6  -4   5  133.26   15.31
  -6  -4   5  145.13   24.76
  -6  -4   4   -1.06    7.96
  -6  -4   4    2.31    3.30
  -6  -4   3  259.37    9.56
  -6  -4   3  228.01    9.94
  -6  -4   2 1490.14   69.66
  -6  -4   1  102.53   19.84
  -6  -4   0  326.98   33.67
  -6  -4  -1   13.42    9.93
  -6  -4  -2  101.28   21.89
  -6  -4  -3  194.96   30.31
   6   4   3  126.86    8.00
   6   4   3  163.74   11.39
  -6  -4  -4 1246.46   83.19
   6   4   4 1210.97   41.63
   6   4   4 1405.29   50.90
  -6  -4  -5  183.87   34.54
   6   4   5  170.28   18.97
   6   4   5  210.38   25.07
  -6  -4  -6  103.21   25.92
   6   4   6   64.77   15.42
   6   4   7   -2.24    9.26
  -6  -4  -7   53.58   22.74
   6   4   8  261.59   35.80
  -6  -4  -8  356.45   49.66
   6   4   9   34.57   17.87
  -6  -5   6  196.85   29.58
  -6  -5   5 1258.22   46.64
  -6  -5   5 1308.43   71.74
  -6  -5   4    9.76    4.28
  -6  -5   4   18.80   11.29
  -6  -5   3   30.82    5.21
  -6  -5   3   38.45   14.18
  -6  -5   2   21.54   12.14
  -6  -5   1  277.48   32.27
  -6  -5   0   62.95   14.75
  -6  -5  -1  868.39   58.68
  -6  -5  -2   44.41   15.71
   6   5   3   79.92    6.01
   6   5   3  132.64    8.98
   6   5   4   11.78    4.99
  -6  -5  -4  -13.72   18.24
  -6  -5  -5 1623.41   99.86
   6   5   5 1427.46   54.55
   6   5   6   49.91   13.31
  -6  -5  -6   40.61   17.08
   6   5   7  400.84   37.54
  -6  -5  -7  425.75   54.79
  -6  -5  -8   12.55   19.64
  -6  -6   6   26.61   14.16
  -6  -6   5    6.70   12.57
  -6  -6   4  495.15   46.32
  -6  -6   3   89.00   20.46
  -6  -6   2  443.52   43.05
  -6  -6   1   32.46   13.92
  -6  -6   0    2.01    8.95
  -6  -6  -1   35.09   15.94
  -6  -6  -2  767.25   60.47
  -6  -6  -3  -18.54   19.22
   6   6   3    0.72    2.67
  -6  -6  -4  401.25   50.00
   6   6   4  341.34   22.59
   6   6   5   22.02    7.82
  -6  -6  -5   29.97   14.78
   6   6   6    9.51    8.24
  -6  -6  -6   16.36   16.49
   6   6   7   11.04   11.19
  -6  -6  -7    4.07   13.44
  -6  -6  -8  646.80   71.10
  -6  -7   5  220.53   33.09
  -6  -7   4   22.97   17.43
  -6  -7   3    0.68    9.68
  -6  -7   2   17.42   13.12
  -6  -7   1  734.12   57.57
  -6  -7   0  -15.11   15.20
  -6  -7  -1  231.69   33.95
  -6  -7  -2   62.85   20.30
  -6  -7  -3   42.65   15.12
  -6  -7  -4   30.52   17.03
  -6  -7  -5  740.88   72.68
  -6  -7  -6    6.15   13.36
  -6  -7  -7  174.40   36.95
  -6  -8   4  566.36   53.55
  -6  -8   3  -11.09    9.33
  -6  -8   2  -22.13   14.53
  -6  -8   1  217.14   33.26
  -6  -8   0   10.79   11.85
  -6  -8  -1   46.05   17.76
  -6  -8  -2  525.11   54.38
  -6  -8  -3  -21.77   19.43
  -6  -8  -4   -2.42   23.34
  -6  -8  -5  150.69   34.57
  -6  -8  -6  148.58   34.65
  -6  -8  -7   17.18   18.15
  -6  -9   3  135.60   29.00
  -6  -9   2   15.57   10.42
  -6  -9   1   37.39   17.04
  -6  -9   0   35.22   17.33
  -6  -9  -1   40.59   13.82
  -6  -9  -2  148.19   32.40
  -6  -9  -3  204.74   36.93
  -6  -9  -4  -13.96   17.14
  -6  -9  -5   14.63   13.42
  -6  -9  -6   83.26   25.51
  -6 -10   2  -26.48   16.71
  -6 -10   1  111.71   29.07
  -6 -10   0  200.60   37.46
  -6 -10  -1   49.01   19.55
  -6 -10  -2  -17.43   20.99
  -6 -10  -3   93.69   27.22
  -6 -10  -4  -10.80   17.55
  -6 -10  -5   19.28   15.88
  -6 -11   0   32.66   17.91
  -6 -11  -1   29.01   19.11
  -6 -11  -2  -21.02   23.56
  -7   7   2  119.67   26.06
  -7   7   1    8.70   11.66
  -7   7   0   12.54   14.90
  -7   6   5   60.02   17.83
  -7   6   4   91.25   21.50
  -7   6   3   52.89   17.28
  -7   6   2   77.77   19.57
  -7   6   1  117.19   23.83
  -7   6   0   68.83   21.34
  -7   6  -1   92.18   22.57
  -7   6  -2  216.84   36.06
  -7   6  -3   -6.49   14.38
  -7   6  -4   23.84   12.58
  -7   5   6  -17.04   12.24
  -7   5   5   39.14   14.20
  -7   5   4  153.66   26.00
  -7   5   3    7.34    8.34
  -7   5   2   14.43    9.29
  -7   5   1  292.24   33.91
  -7   5   0    9.94    8.14
  -7   5  -1  133.52   24.96
  -7   5  -2   48.31   17.76
  -7   5  -3  -10.60   13.74
   7  -5   4   10.12   15.99
   7  -5   5  350.14   56.35
  -7   4   7   43.84   15.27
  -7   4   6   14.88    9.84
  -7   4   5   65.28   15.27
  -7   4   5   81.25   16.29
  -7   4   4  982.17   52.35
  -7   4   4  931.50   55.63
  -7   4   3   22.10   11.01
  -7   4   3   13.66    5.97
  -7   4   2   51.49   13.94
  -7   4   2   87.47   15.49
  -7   4   1    3.06    6.66
  -7   4   1   -2.47    7.55
  -7   4   0   85.55   15.88
  -7   4   0   82.62   18.67
  -7   4  -1   30.93    9.23
  -7   4  -1   34.61   14.68
  -7   4  -2  537.22   42.14
  -7   4  -2  385.83   42.07
  -7   4  -3   84.50   18.69
  -7   4  -3   13.84   10.20
   7  -4   4   39.80   21.20
   7  -4   5   12.76   12.50
   7  -4   6  293.57   48.86
  -7   3   8    6.93    6.82
  -7   3   8    0.99    9.03
  -7   3   7  349.07   34.00
  -7   3   7  379.20   36.05
  -7   3   6   21.23    9.83
  -7   3   6   16.63   10.39
  -7   3   5   60.09   14.11
  -7   3   5   60.02   14.45
  -7   3   4    6.87    7.78
  -7   3   4    8.32    9.04
  -7   3   3  389.38   33.85
  -7   3   3  405.71   34.09
  -7   3   2   -3.16    6.51
  -7   3   2   -6.29    9.33
  -7   3   1  724.75   45.16
  -7   3   1  710.86   44.86
  -7   3   0    8.22    5.97
  -7   3   0   36.99   12.83
  -7   3  -1  -55.69   15.30
  -7   3  -1    7.21    8.47
  -7   3  -2   -3.44    8.50
  -7   3  -2    3.84    9.24
  -7   3  -3  506.33   50.66
  -7   3  -3  598.20   47.98
  -7   3  -4   13.07   11.44
   7  -3   4   -7.55   16.90
   7  -3   5  253.57   42.36
   7  -3   6  -16.75   18.06
   7  -3   7   22.02   15.22
  -7   2   8    6.56    8.38
  -7   2   8    2.60    8.36
  -7   2   7    4.72    5.98
  -7   2   7   27.38   11.13
  -7   2   6  340.85   32.87
  -7   2   6  311.97   29.62
  -7   2   5  106.68   17.17
  -7   2   5  117.91   19.77
  -7   2   4  788.31   49.20
  -7   2   4  773.25   44.04
  -7   2   3    4.95    6.61
  -7   2   3    2.46    5.97
  -7   2   2   15.14    8.45
  -7   2   2   12.83    7.91
   7  -2  -1   41.27   11.42
  -7   2   1   51.37   11.54
  -7   2   1   68.61   15.21
  -7   2   0  925.61   53.36
   7  -2   0  855.88   48.64
  -7   2   0  920.37   48.64
  -7   2  -1   -0.22   10.09
   7  -2   1  -11.03   10.13
  -7   2  -1    4.94    7.22
  -7   2  -2  321.21   35.11
  -7   2  -2  291.69   34.31
  -7   2  -3   77.73   18.36
   7  -2   3   34.26   14.64
  -7   2  -4   83.42   20.35
   7  -2   4   83.04   23.48
  -7   2  -5   33.09   17.15
   7  -2   5    3.31   10.65
   7  -2   6  665.30   61.56
   7  -2   7    9.91   10.35
   7  -2   8  247.60   38.70
  -7   1   8  -20.94   11.50
  -7   1   7  211.45   26.97
  -7   1   7  227.02   24.99
  -7   1   6  126.96   18.48
  -7   1   6  104.54   19.42
  -7   1   5   -1.48    5.79
  -7   1   5    3.11    6.71
  -7   1   4    5.30    5.60
  -7   1   4   13.33    8.12
  -7   1   3 1526.85   69.12
  -7   1   3 1499.82   53.01
   7  -1  -2   18.75    7.38
  -7   1   2   14.53    6.08
  -7   1   2   23.24   10.52
  -7   1   1   43.12    9.87
   7  -1  -1   47.58   11.54
  -7   1   1   20.75    7.01
   7  -1   0   69.07   13.33
  -7   1   0  102.64   16.12
  -7   1   0   89.67   17.91
  -7   1  -1   47.23   14.40
   7  -1   1   41.20   10.70
  -7   1  -1   49.56   13.31
   7  -1   2    6.29    6.28
  -7   1  -2    6.79    9.94
   7  -1   3 1235.10   76.09
  -7   1  -3 1272.60   75.46
   7  -1   3 1075.29   62.20
  -7   1  -4    7.19   11.04
   7  -1   4   12.71   10.30
  -7   1  -5   68.77   20.39
   7  -1   5   52.25   17.09
   7  -1   6  335.05   39.46
  -7   1  -6  337.41   42.65
   7  -1   7  345.25   41.31
   7  -1   8    5.67   10.06
   7  -1   9  197.93   34.62
  -7   0   7   45.21   14.11
  -7   0   6  615.72   45.98
  -7   0   6  673.85   37.53
  -7   0   5   85.52   13.70
  -7   0   5   73.34   16.84
  -7   0   4  280.88   30.23
  -7   0   4  301.83   22.79
  -7   0   3  826.59   51.48
  -7   0   3  811.44   34.51
   7   0  -3  767.67   47.00
  -7   0   2  344.11   32.88
  -7   0   2  327.55   21.50
   7   0  -2  313.58   27.64
  -7   0   1   -3.34    9.61
   7   0  -1    7.11    4.46
   7   0   0  378.82   27.44
  -7   0   0  385.12   36.33
  -7   0   0  430.60   28.38
  -7   0  -1    6.18    7.82
   7   0   1  -13.11    7.64
  -7   0  -2   38.05   12.55
   7   0   2   54.49   11.53
   7   0   2   45.76   13.90
  -7   0  -3  732.96   58.84
   7   0   3  706.92   45.57
   7   0   4  426.56   38.63
  -7   0  -4  421.17   45.88
   7   0   4  422.14   38.00
   7   0   5   23.09   10.51
  -7   0  -5   26.50   14.70
   7   0   6  450.50   42.04
  -7   0  -6  409.79   47.70
   7   0   7  173.48   28.29
   7   0   8    6.45    9.64
   7   0   9  377.87   43.47
   7   0  10   10.60    7.73
  -7  -1   7   16.29    9.33
  -7  -1   6  483.22   40.91
  -7  -1   5  162.19   23.94
  -7  -1   5  162.98   15.88
  -7  -1   4    1.18    3.73
  -7  -1   4    7.04    7.47
  -7  -1   3  648.56   46.51
  -7  -1   3  630.73   26.08
  -7  -1   2  275.04   30.42
   7   1  -2  255.40   24.39
  -7  -1   2  266.33   16.14
   7   1  -1    6.63    5.08
  -7  -1   1    0.06    3.30
  -7  -1   1   13.86    8.03
   7   1   0  546.08   27.91
  -7  -1   0  582.00   45.15
   7   1   1  725.44   31.57
   7   1   1  678.79   38.52
  -7  -1  -1  777.23   53.43
   7   1   1  741.42   26.99
  -7  -1  -2   91.15   20.64
   7   1   2  118.00   15.84
   7   1   2  128.26   13.59
  -7  -1  -3  132.09   24.76
   7   1   3  184.96   21.22
   7   1   3  144.06   17.93
   7   1   4  684.10   42.42
  -7  -1  -4  593.33   55.70
   7   1   4  592.80   40.72
   7   1   5   31.52   10.91
  -7  -1  -5    4.03    9.98
  -7  -1  -6  206.50   35.43
   7   1   6  225.92   28.43
   7   1   7  433.66   41.07
  -7  -1  -7  432.20   51.66
   7   1   8   11.77   10.52
   7   1   9   35.61   16.19
  -7  -2   7   27.27   11.48
  -7  -2   6  220.07   28.80
  -7  -2   5  283.85   32.74
  -7  -2   4   16.85   10.03
  -7  -2   3  781.79   52.17
  -7  -2   3  687.60   20.62
  -7  -2   2  517.13   42.02
   7   2  -1   70.56    9.72
  -7  -2   1   88.87   19.00
  -7  -2   0    5.38    7.58
  -7  -2  -1  876.15   57.20
   7   2   2    2.22    1.78
  -7  -2  -2   -0.44    9.02
   7   2   2    5.68    4.00
  -7  -2  -3  241.17   34.37
   7   2   3  243.93   20.16
   7   2   3  226.02   18.09
  -7  -2  -4  333.62   43.60
   7   2   4  373.05   29.34
  -7  -2  -5  211.31   36.26
   7   2   5  266.85   27.26
  -7  -2  -6   -5.72   15.12
   7   2   6    7.92    8.62
  -7  -2  -7  523.90   57.03
   7   2   7  481.14   42.41
   7   2   8   12.50   10.71
  -7  -3   6  420.37   41.08
  -7  -3   5  304.68   34.39
  -7  -3   4  227.60   29.71
  -7  -3   3    2.35    9.43
  -7  -3   2  987.78   59.24
  -7  -3   1    7.86    9.53
  -7  -3   0   33.19   12.06
  -7  -3  -1  274.59   34.38
  -7  -3  -2  526.08   48.58
  -7  -3  -3    3.55   12.85
   7   3   4 1330.11   41.05
  -7  -3  -4 1502.59   92.74
  -7  -3  -5   16.05   12.49
   7   3   5   12.03    7.21
  -7  -3  -6    7.18   11.94
  -7  -3  -7    8.82   18.39
  -7  -3  -8  226.06   41.36
  -7  -4   6    5.64    9.26
  -7  -4   5  875.75   59.93
  -7  -4   4    8.57    8.02
  -7  -4   3   38.20   15.10
  -7  -4   2   33.74   13.32
  -7  -4   1  418.70   41.10
  -7  -4   0  -13.43   13.80
  -7  -4  -1 1181.38   71.00
  -7  -4  -2   29.79   15.07
  -7  -4  -3   50.08   15.28
  -7  -4  -4   -9.09   17.16
  -7  -4  -5  329.54   47.66
  -7  -4  -6   -2.53   12.82
  -7  -4  -7  372.54   52.26
  -7  -4  -8   12.87   16.34
  -7  -5   5    0.74    9.12
  -7  -5   4  336.06   38.87
  -7  -5   3   24.50   14.84
  -7  -5   2  932.73   62.75
  -7  -5   1    8.35   10.44
  -7  -5   0  108.65   23.25
  -7  -5  -1    9.95   11.88
  -7  -5  -2 1257.39   78.85
  -7  -5  -3  125.98   26.87
  -7  -5  -4  239.10   39.68
  -7  -5  -5   -7.54   14.58
  -7  -5  -6   18.80   16.91
  -7  -5  -7   88.61   29.11
  -7  -6   4   35.01   16.04
  -7  -6   3  152.59   27.50
  -7  -6   2   69.22   19.63
  -7  -6   1  644.43   54.99
  -7  -6   0  159.50   28.22
  -7  -6  -1  157.39   31.04
  -7  -6  -2   14.18   12.76
  -7  -6  -3  129.30   27.43
  -7  -6  -4   16.23   14.30
  -7  -6  -5  622.16   65.23
  -7  -6  -6   43.95   16.53
  -7  -6  -7   -9.22   11.32
  -7  -7   3  330.50   41.95
  -7  -7   2   12.10   12.30
  -7  -7   1   13.07   10.46
  -7  -7   0  136.69   28.21
  -7  -7  -1   15.98   13.19
  -7  -7  -2  609.76   60.33
  -7  -7  -3  403.19   51.90
  -7  -7  -4   -5.19   20.54
  -7  -7  -5   63.38   24.17
  -7  -7  -6   52.15   21.64
  -7  -8   2   18.50   13.05
  -7  -8   1  611.89   59.79
  -7  -8   0  171.04   33.54
  -7  -8  -1   66.51   22.35
  -7  -8  -2  216.49   37.98
  -7  -8  -3    6.67   15.33
  -7  -8  -4   72.30   22.27
  -7  -8  -5   85.36   26.75
  -7  -9   0   72.50   23.60
  -7  -9  -1   66.96   22.63
  -7  -9  -2   93.86   22.63
  -7  -9  -3  195.98   36.72
  -8   6   2   21.72   14.37
  -8   6   1  179.02   30.37
  -8   6   0   13.23   12.87
  -8   6  -1   39.97   17.53
  -8   5   5   -2.75    6.60
  -8   5   4  301.65   36.26
  -8   5   3   -7.75   10.25
  -8   5   2   29.17   12.60
  -8   5   1   67.21   18.14
  -8   5   0  105.15   23.26
  -8   5  -1    8.94    9.50
  -8   5  -2  270.13   39.18
  -8   5  -3  -12.94   19.64
   8  -5   4   -7.45   20.20
  -8   4   5   41.97   13.51
  -8   4   4   19.85   12.29
  -8   4   3   80.56   18.95
  -8   4   2    9.17    9.55
  -8   4   1  464.80   41.75
  -8   4   0   39.54   15.35
  -8   4  -1    8.21    9.09
  -8   4  -2    7.29    9.18
   8  -4   4   14.46   14.40
   8  -4   5  222.01   44.32
  -8   3   5   11.89    8.44
  -8   3   4  338.60   35.63
  -8   3   4  308.24   31.05
  -8   3   3    7.29    8.45
  -8   3   3   -4.86    8.43
  -8   3   2   48.63   13.14
  -8   3   2   47.87   14.58
  -8   3   1   11.93    9.89
  -8   3   1    5.16    7.58
  -8   3   0  370.11   36.94
  -8   3   0  415.49   38.28
  -8   3  -1  -11.72   15.98
  -8   3  -1  -24.00   14.92
  -8   3  -2  322.17   36.81
  -8   3  -2  254.49   35.11
  -8   3  -3   11.10    9.58
   8  -3   3   -4.95   19.06
  -8   3  -4  144.44   26.37
   8  -3   4  115.78   28.92
   8  -3   5   63.50   24.25
   8  -3   6  598.77   64.18
   8  -3   7  -21.94   13.59
  -8   2   7  175.80   26.33
  -8   2   6   16.43    9.77
  -8   2   5   23.19   12.36
  -8   2   4  159.96   24.65
  -8   2   3  417.48   39.41
  -8   2   3  402.96   31.93
  -8   2   2  190.00   22.43
  -8   2   2  147.29   23.25
  -8   2   1  154.25   20.61
  -8   2   1  162.05   24.87
  -8   2   0    5.31    8.42
  -8   2   0   25.54   10.68
  -8   2  -1  179.25   26.88
  -8   2  -1  159.30   24.31
  -8   2  -2   49.51   14.30
   8  -2   3  557.94   61.86
  -8   2  -3  547.90   50.35
  -8   2  -4  139.28   26.58
   8  -2   4   97.11   25.74
  -8   2  -5   23.75   13.36
   8  -2   5   20.06   10.45
   8  -2   6  129.39   28.18
   8  -2   7  177.46   33.18
  -8   1   6  174.33   26.39
  -8   1   5   49.89   16.36
  -8   1   4   38.96   14.81
  -8   1   3  147.27   25.57
  -8   1   2   98.80   14.82
  -8   1   2   98.11   21.11
  -8   1   1   10.20    6.70
  -8   1   1  -20.18   13.81
  -8   1   0 1026.45   62.79
  -8   1   0 1074.39   54.00
  -8   1  -1  385.36   35.26
  -8   1  -1  380.91   39.85
  -8   1  -2    5.22   11.48
   8  -1   2   12.81   11.09
  -8   1  -3  180.65   30.23
   8  -1   3  163.07   28.40
  -8   1  -4  147.57   28.22
   8  -1   4  141.39   26.23
  -8   1  -5   -0.79   10.23
   8  -1   5  -13.66   11.37
   8  -1   6  186.97   30.63
  -8   1  -6  185.78   34.25
  -8   0   6   75.69   18.39
  -8   0   5   32.90   13.48
  -8   0   4   18.82   11.33
  -8   0   3  358.32   37.94
  -8   0   2  346.61   37.52
  -8   0   1   -6.95   11.18
  -8   0   0  469.09   43.06
  -8   0  -1  240.92   32.60
  -8   0  -2   58.45   16.45
   8   0   2   67.57   16.85
  -8   0  -3  173.94   29.71
   8   0   3  178.84   24.41
   8   0   4  390.64   35.48
  -8   0  -4  415.07   47.36
   8   0   5   54.88   14.91
  -8   0  -5   50.93   17.02
  -8   0  -6  336.55   44.69
  -8   0  -7  124.06   30.82
  -8  -1   6  101.66   20.84
  -8  -1   5  233.86   30.66
  -8  -1   4   11.02   10.20
  -8  -1   3  214.33   29.92
  -8  -1   2  206.28   29.47
  -8  -1   1  293.56   34.55
  -8  -1   0  210.48   30.32
  -8  -1  -1  638.05   52.52
  -8  -1  -2   10.95   12.39
  -8  -1  -3  312.06   41.48
  -8  -1  -4  179.02   32.78
  -8  -1  -5  365.30   47.39
  -8  -1  -6   -3.34    9.91
  -8  -1  -7  435.17   53.26
  -8  -2   5    8.60    9.53
  -8  -2   4  200.16   30.04
  -8  -2   3  109.51   22.22
  -8  -2   2  521.74   46.34
  -8  -2   1   -4.87   10.01
  -8  -2   0  112.79   22.96
  -8  -2  -1   93.51   22.42
  -8  -2  -2  413.97   45.11
  -8  -2  -3  -10.00   17.70
  -8  -2  -4  703.47   65.15
  -8  -2  -5  -15.08   14.84
  -8  -2  -6   19.92   15.60
  -8  -2  -7   66.61   25.04
  -8  -3   5  208.26   30.63
  -8  -3   4   36.52   15.63
  -8  -3   3   11.86   10.68
  -8  -3   2  144.31   25.86
  -8  -3   1  760.27   57.44
  -8  -3   0   -2.75   11.63
  -8  -3  -1  778.62   60.00
  -8  -3  -2   99.44   23.56
  -8  -3  -3   17.64   12.62
  -8  -3  -4   17.74   12.21
  -8  -3  -5  574.00   62.35
  -8  -3  -6   19.36   16.39
  -8  -4   4  401.64   43.20
  -8  -4   3  -17.38   13.29
  -8  -4   2  363.21   41.24
  -8  -4   1  114.32   23.97
  -8  -4   0   87.00   21.34
  -8  -4  -1    2.39    9.70
  -8  -4  -2  346.47   43.68
  -8  -4  -3    6.89   10.21
  -8  -4  -4  525.65   58.86
  -8  -4  -5  -23.64   18.99
  -8  -4  -6  570.36   63.48
  -8  -5   3  201.40   32.00
  -8  -5   2    9.29   10.22
  -8  -5   1  392.10   44.68
  -8  -5   0   65.17   19.77
  -8  -5  -1  318.44   41.77
  -8  -5  -2  207.22   34.62
  -8  -5  -3  145.13   30.26
  -8  -5  -4  -15.59   20.44
  -8  -5  -5  463.98   58.32
  -8  -6   2  248.52   37.31
  -8  -6   1   43.53   14.79
  -8  -6   0  355.23   45.58
  -8  -6  -1    0.75   11.59
  -8  -6  -2  105.98   28.06
  -8  -6  -3  199.94   38.81
  -8  -6  -4   -9.17   20.75
  -8  -7   0  481.97   53.72
  -8  -7  -1   18.56   14.10
  -8  -7  -2   -5.95   14.17
  -8  -7  -3  111.48   30.19
  -9   2   5    1.42    4.77
  -9   2   4   31.21   13.84
  -9   2   3   61.28   17.18
  -9   2   2  223.87   31.89
  -9   2   1    5.13    8.76
  -9   2   0   47.28   16.26
  -9   2  -1  235.04   33.43
  -9   2  -2  -22.98   16.09
  -9   2  -3   99.78   23.36
  -9   2  -4  120.56   24.82
  -9   1   5  173.26   28.13
  -9   1   4   24.86   13.06
  -9   1   3  133.82   25.11
  -9   1   2  352.82   41.26
  -9   1   1   34.79   14.82
  -9   1   0   88.44   20.74
  -9   1  -1   31.88   15.20
  -9   1  -2  -33.94   19.12
  -9   1  -3   73.42   20.51
  -9   1  -4  418.80   48.44
  -9   1  -5   99.59   26.02
  -9   1  -6   39.39   21.75
  -9   0   4   -8.62   11.55
  -9   0   3   75.84   18.53
  -9   0   2   19.42    9.33
  -9   0   1  112.44   24.41
  -9   0   0   13.61   11.04
  -9   0  -1  403.29   45.29
  -9   0  -2   15.38    9.44
  -9   0  -3   51.40   17.32
  -9   0  -4   -8.26   12.18
  -9   0  -5  289.78   42.04
  -9   0  -6   30.46   17.46
  -9  -1   4  225.24   33.05
  -9  -1   3   24.51   14.26
  -9  -1   2  582.17   53.35
  -9  -1   1  -23.56   18.04
  -9  -1   0   -5.18   11.90
  -9  -1  -1    3.05    9.77
  -9  -1  -2  388.60   46.42
  -9  -1  -3  -30.40   18.35
  -9  -1  -4  148.42   31.50
  -9  -1  -5  -12.77   13.18
  -9  -2   3    3.71    9.68
  -9  -2   2   78.47   20.52
  -9  -2   1  752.37   61.77
  -9  -2   0   31.33   15.64
  -9  -2  -1  108.25   25.90
  -9  -2  -2    4.54   10.23
  -9  -2  -3  -27.77   19.09
  -9  -2  -4  -17.78   19.60
  -9  -2  -5  490.98   57.10
  -9  -3   2  181.27   30.41
  -9  -3   1   72.25   19.95
  -9  -3   0   74.09   20.77
  -9  -3  -1   24.03   14.75
  -9  -3  -2  504.81   53.74
  -9  -3  -3  -13.41   19.43
  -9  -3  -4  -11.10   17.90
  -9  -4   1  526.85   53.83
  -9  -4   0   57.94   21.29
  -9  -4  -1  -23.93   13.55
  -9  -4  -2  113.45   28.37
  -9  -4  -3  245.39   40.75
 -10   1   2   24.20   11.98
 -10   1   1  102.45   24.65
 -10   1   0  -15.09   14.90
 -10   1  -1  262.62   38.74
 -10   1  -2   36.16   15.22
 -10   1  -3    7.63    7.43
 -10   0   1    4.17   11.85
 -10   0   0   -7.77   14.35
 -10   0  -1  -22.61   16.92
 -10   0  -2  178.54   32.67


TITL JM-PSF-10_scale in P-1
REM P-1 (#2 in standard setting)
CELL 0.71073   7.488760   8.892429   9.204332  83.0853  86.3085  81.8699
ZERR    2.00   0.000512   0.000592   0.000630   0.0056   0.0056   0.0056
LATT  1
SFAC C H O Cl Br
UNIT 20.00 26.00 2.00 2.00 4.00
TREF
HKLF 4
END
_computing_structure_solution     'SHELXT 2014/4 (Sheldrick, 2014)'
;
_shelx_hkl_checksum              19886
_ins_header
;
TITL JM-PSF-10_scale in P-1 
REM P-1 (#2 in standard setting)
CELL 0.71073   7.488760   8.892429   9.204332  83.0853  86.3085  81.8699
ZERR    2.00   0.000512   0.000592   0.000630   0.0056   0.0056   0.0056
LATT  1
SFAC C H O Cl Br
UNIT 20.00 26.00 2.00 2.00 4.00
TREF
HKLF 4
END
;
_olex2_submission_special_instructions 'No special instructions were received'
_oxdiff_exptl_absorpt_empirical_details
;
Empirical correction (ABSPACK) includes:
- Absorption correction using spherical harmonics
- Frame scaling
;
_oxdiff_exptl_absorpt_empirical_full_max 3.577
_oxdiff_exptl_absorpt_empirical_full_min 0.526
loop_
_space_group_symop_operation_xyz
'x, y, z'
'-x, -y, -z'
loop_
_atom_site_label
_atom_site_type_symbol
_atom_site_fract_x
_atom_site_fract_y
_atom_site_fract_z
_atom_site_U_iso_or_equiv
_atom_site_adp_type
_atom_site_occupancy
_atom_site_site_symmetry_order
_atom_site_calc_flag
_atom_site_refinement_flags_posn
C1 C 0.6070(5) 0.2698(5) 0.3509(5) 0.0175(9) Uani 1 1 d .
C2 C 0.7346(5) 0.3647(5) 0.2636(5) 0.0176(9) Uani 1 1 d .
C3 C 0.8438(5) 0.2999(5) 0.1366(5) 0.0242(10) Uani 1 1 d .
H3A H 0.9576 0.3412 0.1241 0.029 Uiso 1 1 calc R
H3B H 0.7789 0.3318 0.0477 0.029 Uiso 1 1 calc R
C4 C 0.8814(5) 0.1253(5) 0.1586(6) 0.0296(11) Uani 1 1 d .
H4A H 0.9518 0.0933 0.2445 0.035 Uiso 1 1 calc R
H4B H 0.9520 0.0892 0.0745 0.035 Uiso 1 1 calc R
C5 C 0.7059(6) 0.0536(5) 0.1780(6) 0.0287(11) Uani 1 1 d .
H5A H 0.6406 0.0775 0.0886 0.034 Uiso 1 1 calc R
H5B H 0.7340 -0.0567 0.1964 0.034 Uiso 1 1 calc R
C6 C 0.5889(5) 0.1132(5) 0.3042(5) 0.0211(9) Uani 1 1 d .
H6 H 0.5692 0.0350 0.3859 0.025 Uiso 1 1 calc R
C7 C 0.4353(5) 0.2409(5) 0.2846(5) 0.0179(9) Uani 1 1 d .
O8 O 0.5839(3) 0.2866(3) 0.4994(3) 0.0196(6) Uani 1 1 d .
C9 C 0.7394(5) 0.2233(5) 0.5816(5) 0.0261(10) Uani 1 1 d .
H9A H 0.8366 0.2845 0.5563 0.031 Uiso 1 1 calc R
H9B H 0.7812 0.1199 0.5593 0.031 Uiso 1 1 calc R
C10 C 0.6859(6) 0.2227(6) 0.7400(5) 0.0333(12) Uani 1 1 d .
H10A H 0.6449 0.3255 0.7610 0.050 Uiso 1 1 calc GR
H10B H 0.7879 0.1812 0.7971 0.050 Uiso 1 1 calc GR
H10C H 0.5904 0.1612 0.7641 0.050 Uiso 1 1 calc GR
C11 C 0.7489(5) 0.4980(5) 0.3065(5) 0.0214(9) Uani 1 1 d .
H11 H 0.6759 0.5296 0.3858 0.026 Uiso 1 1 calc R
Cl12 Cl 0.89777(14) 0.61776(12) 0.22204(13) 0.0296(3) Uani 1 1 d .
Br13 Br 0.22342(5) 0.23573(5) 0.41231(5) 0.02639(15) Uani 1 1 d .
Br14 Br 0.37518(5) 0.33376(5) 0.09362(5) 0.02750(15) Uani 1 1 d .
loop_
_atom_site_aniso_label
_atom_site_aniso_U_11
_atom_site_aniso_U_22
_atom_site_aniso_U_33
_atom_site_aniso_U_23
_atom_site_aniso_U_13
_atom_site_aniso_U_12
C1 0.0214(19) 0.019(2) 0.013(2) -0.0073(18) -0.0011(16) -0.0016(16)
C2 0.0192(19) 0.021(2) 0.013(2) -0.0046(18) -0.0024(16) -0.0017(16)
C3 0.024(2) 0.031(3) 0.019(3) -0.006(2) 0.0027(18) -0.0066(19)
C4 0.029(2) 0.031(3) 0.029(3) -0.015(2) 0.003(2) 0.0039(19)
C5 0.036(2) 0.021(2) 0.029(3) -0.008(2) -0.005(2) 0.0012(19)
C6 0.027(2) 0.017(2) 0.019(3) 0.0010(19) -0.0053(18) -0.0036(17)
C7 0.0184(19) 0.024(2) 0.011(2) 0.0005(18) 0.0001(16) -0.0019(16)
O8 0.0204(14) 0.0282(17) 0.0109(16) -0.0041(13) -0.0034(11) -0.0025(12)
C9 0.025(2) 0.037(3) 0.016(3) -0.003(2) -0.0064(18) -0.0019(19)
C10 0.036(3) 0.050(3) 0.015(3) 0.000(2) -0.006(2) -0.011(2)
C11 0.019(2) 0.024(2) 0.020(3) -0.002(2) 0.0029(17) -0.0024(17)
Cl12 0.0365(6) 0.0267(6) 0.0270(7) -0.0018(5) 0.0022(5) -0.0123(5)
Br13 0.0232(2) 0.0353(3) 0.0217(3) -0.0029(2) 0.00154(18) -0.00870(19)
Br14 0.0271(2) 0.0366(3) 0.0175(3) 0.0017(2) -0.00449(18) -0.00228(19)
loop_
_atom_type_symbol
_atom_type_description
_atom_type_scat_dispersion_real
_atom_type_scat_dispersion_imag
_atom_type_scat_source
C C 0.0033 0.0016 'International Tables Vol C Tables 4.2.6.8 and 6.1.1.4'
H H 0.0000 0.0000 'International Tables Vol C Tables 4.2.6.8 and 6.1.1.4'
Br Br -0.2901 2.4595 'International Tables Vol C Tables 4.2.6.8 and 6.1.1.4'
Cl Cl 0.1484 0.1585 'International Tables Vol C Tables 4.2.6.8 and 6.1.1.4'
O O 0.0106 0.0060 'International Tables Vol C Tables 4.2.6.8 and 6.1.1.4'
loop_
_exptl_crystal_face_index_h
_exptl_crystal_face_index_k
_exptl_crystal_face_index_l
_exptl_crystal_face_perp_dist
8 0 8 0.0405
-9 -1 -8 0.0582
-7 0 9 0.1197
7 0 -9 0.2154
-1 12 3 0.2601
-1 -13 -2 0.2765
5 -6 -9 0.2260
4 11 -4 0.2531
-8 0 -9 0.0599
-3 6 -10 0.1677
-9 1 -7 0.0493
loop_
_geom_angle_atom_site_label_1
_geom_angle_atom_site_label_2
_geom_angle_atom_site_label_3
_geom_angle
C2 C1 C6 118.5(3)
C2 C1 C7 120.4(4)
C7 C1 C6 58.8(2)
O8 C1 C2 116.3(3)
O8 C1 C6 117.5(4)
O8 C1 C7 113.1(3)
C1 C2 C3 118.5(3)
C11 C2 C1 117.3(4)
C11 C2 C3 124.1(4)
C2 C3 C4 112.4(4)
C3 C4 C5 111.4(3)
C6 C5 C4 110.6(3)
C5 C6 C1 120.2(4)
C7 C6 C1 60.3(3)
C7 C6 C5 123.3(4)
C1 C7 Br13 117.2(3)
C1 C7 Br14 120.3(3)
C6 C7 C1 60.8(3)
C6 C7 Br13 119.3(3)
C6 C7 Br14 120.3(3)
Br14 C7 Br13 110.89(19)
C1 O8 C9 113.6(3)
O8 C9 C10 108.0(3)
C2 C11 Cl12 123.0(3)
loop_
_geom_bond_atom_site_label_1
_geom_bond_atom_site_label_2
_geom_bond_distance
C1 C2 1.495(5)
C1 C6 1.532(5)
C1 C7 1.524(5)
C1 O8 1.391(5)
C2 C3 1.508(5)
C2 C11 1.314(5)
C3 C4 1.529(6)
C4 C5 1.532(6)
C5 C6 1.512(6)
C6 C7 1.501(5)
C7 Br13 1.915(4)
C7 Br14 1.903(4)
O8 C9 1.439(5)
C9 C10 1.486(6)
C11 Cl12 1.734(4)
loop_
_exptl_oxdiff_crystal_face_indexfrac_h
_exptl_oxdiff_crystal_face_indexfrac_k
_exptl_oxdiff_crystal_face_indexfrac_l
_exptl_oxdiff_crystal_face_x
_exptl_oxdiff_crystal_face_y
_exptl_oxdiff_crystal_face_z
7.9881 0.0086 7.9975 -0.9610 -0.0453 -0.0135
-8.9864 -1.0079 -7.9987 1.0208 0.0512 -0.0866
-6.9918 0.0002 8.9778 0.0583 0.8007 -0.5796
6.9918 -0.0002 -8.9778 -0.0583 -0.8007 0.5796
-1.0036 11.9855 2.9931 0.0618 0.7631 0.6311
-0.9935 -12.9849 -1.9970 0.0203 -0.6564 -0.8033
4.9967 -5.9937 -8.9797 0.0155 -0.9778 0.1204
3.9910 10.9864 -3.9900 0.0366 0.1167 1.0014
-7.9880 -0.0091 -8.9960 1.0099 -0.0023 0.0504
-2.9968 5.9857 -9.9890 0.7714 -0.0324 0.6524
-8.9873 0.9900 -7.0004 0.9947 0.1933 0.0060
loop_
_hkl_oxdiff_h
_hkl_oxdiff_k
_hkl_oxdiff_l
_hkl_oxdiff_f2
_hkl_oxdiff_sig
_hkl_oxdiff_ba
0 0 2 15290.8 1120.68 1
0 0 -2 14872.0 1115.97 1
0 0 -3 39282.0 2261.83 1
0 0 3 39190.0 2200.86 1
0 0 -4 86365.3 3867.36 1
0 0 4 84645.5 3722.25 1
0 0 -5 3818.60 1058.14 1
0 0 5 3808.85 996.192 1
0 0 6 276248. 8446.86 1
0 0 -6 282804. 8968.20 1
0 0 7 601.885 905.328 1
0 0 8 753.291 1091.20 1
0 0 9 5318.05 1909.79 1
0 0 10 73292.2 6185.27 1
0 0 11 4633.84 2066.35 1
0 -1 11 1264.96 1138.58 1
0 -1 10 7281.52 2439.61 1
0 -1 9 139687. 8394.05 1
0 -1 8 -792.074 952.313 1
0 -1 7 10768.9 2098.82 1
0 -1 6 -594.482 1156.88 1
0 1 -6 -600.020 840.854 1
0 -1 5 33234.3 3037.45 1
0 1 -5 30746.8 3013.40 1
0 1 -4 7762.87 1385.28 1
0 -1 4 11716.1 1740.40 1
0 1 -3 674141. 11934.3 1
0 -1 3 680021. 11364.0 1
0 -1 2 826.820 474.947 1
0 1 -2 1671.59 691.018 1
0 -1 1 144651. 4738.66 1
0 1 2 2716.17 468.238 1
0 -1 -2 2819.48 477.063 1
0 1 3 673323. 8198.38 1
0 -1 -3 670461. 8489.06 1
0 -1 -4 25215.9 1962.60 1
0 1 4 24690.3 1870.86 1
0 -1 -5 42942.5 2938.96 1
0 1 5 38437.0 2669.37 1
0 1 6 115733. 5117.83 1
0 -1 -6 121139. 5511.71 1
0 1 7 190505. 7270.43 1
0 1 8 19598.3 2654.72 1
0 1 9 28449.2 3461.21 1
0 1 10 2679.22 999.340 1
0 1 11 941.636 1216.51 1
0 -2 11 4234.33 2103.13 1
0 -2 10 497.905 1196.90 1
0 -2 9 6918.68 2149.37 1
0 -2 8 16077.7 2788.21 1
0 -2 7 2801.48 1026.16 1
0 2 -6 293344. 11772.6 1
0 -2 6 294081. 10754.8 1
0 -2 5 5659.54 1569.36 1
0 -2 5 6377.54 2014.15 3
0 2 -5 3317.20 1192.34 1
0 -2 4 6628.90 1652.44 3
0 2 -4 5761.98 1357.15 1
0 -2 4 4848.35 1362.59 1
0 -2 3 118559. 6109.29 1
0 -2 3 119232. 6779.37 3
0 2 -2 358261. 9457.97 3
0 -2 2 383048. 10937.2 1
0 -2 2 362155. 8942.08 3
0 -2 1 155291. 3962.58 3
0 2 -1 153322. 4183.30 3
0 -2 0 879034. 7639.06 3
0 2 0 889203. 7846.04 3
0 -2 0 891876. 5237.62 2
0 -2 -1 88795.3 2695.30 2
0 2 1 94539.0 2438.44 3
0 -2 -1 93258.5 2405.10 3
0 2 2 1766.02 440.585 3
0 -2 -2 1919.20 435.778 1
0 2 2 1985.63 552.025 2
0 2 3 195039. 5333.65 2
0 2 3 208086. 4760.19 1
0 -2 -3 202381. 4675.38 1
0 2 4 421084. 7650.87 1
0 -2 -4 419719. 7801.27 1
0 2 4 411552. 8697.55 2
0 -2 -5 920.868 488.198 1
0 2 5 432.715 476.821 1
0 2 6 45804.8 3186.32 1
0 -2 -6 48332.0 3420.24 1
0 2 6 50553.2 3736.37 2
0 2 7 90532.6 4887.07 1
0 2 8 29632.4 3096.36 1
0 2 9 2488.52 1215.05 1
0 2 10 75327.1 5967.36 1
0 2 11 1952.78 1480.35 1
0 -3 10 -286.538 1434.47 1
0 -3 9 47080.0 5540.33 1
0 -3 8 -84.1425 1101.83 1
0 -3 7 10604.6 2637.84 1
0 -3 6 80628.2 6330.23 1
0 -3 5 148078. 8321.82 1
0 -3 5 194713. 11077.7 3
0 -3 4 15865.9 2783.63 3
0 -3 4 17219.1 2944.40 1
0 -3 3 195698. 8016.56 3
0 -3 3 237069. 10477.5 1
0 3 -2 149268. 5947.19 3
0 -3 2 153335. 5441.13 3
0 3 -1 50432.8 2634.68 3
0 -3 1 51319.8 2514.68 3
0 -3 0 182414. 3009.95 2
0 3 0 191050. 4511.68 3
0 -3 0 185083. 4312.24 3
0 3 1 452355. 5714.59 2
0 -3 -1 467502. 6543.02 3
0 3 1 473439. 6778.96 3
0 -3 -1 450288. 7543.31 2
0 3 2 59748.6 2509.85 3
0 -3 -2 56288.7 2390.58 3
0 -3 -3 1522.82 519.964 1
0 3 3 687.081 408.735 2
0 3 3 1907.78 606.566 3
0 -3 -4 126856. 4320.71 1
0 3 4 127129. 4424.20 3
0 3 4 128054. 4431.94 1
0 3 4 125359. 5263.27 2
0 3 5 40512.3 2747.70 1
0 -3 -5 44071.1 2888.24 1
0 3 5 40320.3 3247.82 2
0 3 6 2420.83 965.685 1
0 3 6 4382.18 1289.70 2
0 -3 -6 3144.84 920.531 1
0 3 7 194779. 7211.85 1
0 3 8 27661.1 3007.04 1
0 3 9 1853.46 1344.54 1
0 3 10 61564.5 5391.80 1
0 3 11 23529.8 3554.02 1
0 -4 10 -103.021 1663.50 1
0 -4 9 28967.4 4684.36 1
0 -4 8 62329.4 6585.19 1
0 -4 7 19385.4 3618.29 1
0 -4 6 11935.2 2934.40 1
0 -4 5 48275.2 5343.38 3
0 -4 5 58582.3 5983.84 1
0 -4 4 6297.44 1759.72 3
0 -4 4 10447.2 2635.31 1
0 -4 3 86042.7 6940.71 1
0 4 -3 77355.8 5378.80 3
0 -4 3 86378.0 5117.56 3
0 -4 2 364623. 8601.58 3
0 4 -2 368913. 9536.68 3
0 -4 1 72509.1 3350.96 3
0 -4 1 78608.3 2316.40 2
0 4 -1 77330.4 3690.68 3
0 -4 0 10196.6 1164.28 3
0 4 0 10531.6 1247.86 3
0 -4 0 10044.7 846.003 2
0 4 1 735070. 9899.57 3
0 -4 -1 723599. 9518.11 3
0 -4 -1 707606. 10491.3 2
0 4 1 709268. 6712.67 2
0 -4 -2 25722.9 1843.40 3
0 4 2 26822.6 1941.39 3
0 4 2 23271.4 2002.43 2
0 -4 -2 24518.1 1781.11 2
0 -4 -3 91.8603 302.165 1
0 4 3 -175.448 389.728 3
0 4 3 80.9794 683.333 2
0 -4 -4 136230. 4687.29 1
0 4 4 129945. 4790.00 3
0 4 4 119931. 6072.45 2
0 4 5 63687.9 3604.61 3
0 4 5 63579.7 4554.41 2
0 -4 -5 65902.1 3585.63 1
0 4 6 1156.61 822.870 1
0 4 6 1508.10 944.433 2
0 4 6 787.769 663.435 3
0 4 7 131727. 6048.17 1
0 4 8 24035.6 2844.87 1
0 4 9 8544.89 2006.89 1
0 4 10 14682.3 2723.65 1
0 4 11 20136.7 3556.10 1
0 -5 9 -3314.55 2203.53 1
0 -5 8 48399.9 6346.11 1
0 -5 7 12297.9 3283.25 1
0 -5 6 2380.79 2104.06 1
0 -5 5 121044. 9346.25 1
0 -5 4 59889.0 6614.09 1
0 -5 4 43236.7 4311.54 3
0 -5 3 838.944 1587.61 1
0 5 -3 -25.3235 1217.47 3
0 -5 3 508.814 684.888 3
0 5 -2 259170. 8571.77 3
0 -5 2 261915. 7755.74 3
0 -5 1 16558.5 1794.66 3
0 -5 1 17709.3 1214.52 2
0 5 -1 17706.2 1967.81 3
0 -5 0 4139.54 765.509 2
0 5 0 2657.91 847.173 3
0 -5 0 3724.73 841.653 3
0 5 1 56997.3 1869.32 2
0 5 1 57817.5 3184.32 3
0 -5 -1 56148.7 3069.49 2
0 -5 -1 60976.6 3113.78 3
0 -5 -2 107205. 4121.43 3
0 5 2 107107. 3553.14 2
0 -5 -2 102418. 3607.58 2
0 5 2 111150. 4405.09 3
0 5 3 3078.27 910.987 2
0 -5 -3 3110.17 841.756 3
0 5 3 1672.02 656.464 3
0 -5 -3 2933.50 734.845 1
0 -5 -4 225906. 6395.35 1
0 5 4 223812. 9777.19 2
0 5 4 224190. 6709.24 3
0 5 5 106783. 4947.13 3
0 -5 -5 110505. 4793.88 1
0 5 5 105659. 6896.27 2
0 5 6 101915. 5144.66 3
0 5 6 114947. 7331.11 2
0 5 7 295.841 689.153 3
0 5 8 53140.0 4261.05 3
0 5 9 43.9469 947.385 3
0 5 10 26906.2 3616.12 3
0 -6 9 4207.43 2559.02 1
0 -6 8 17646.6 3949.51 1
0 -6 7 45000.8 6353.05 1
0 -6 6 185.096 1528.49 1
0 -6 5 126533. 10350.1 1
0 -6 4 13963.1 3499.87 1
0 6 -4 4303.16 1354.97 3
0 6 -3 6403.09 1625.58 3
0 -6 2 7863.58 996.143 2
0 6 -2 8001.02 1830.26 3
0 -6 2 6757.97 1398.95 3
0 -6 1 92053.6 3141.38 2
0 6 -1 104539. 5301.69 3
0 -6 1 99783.0 4760.46 3
0 6 0 3571.75 1005.11 3
0 -6 0 1434.68 660.392 2
0 -6 0 3722.57 905.043 3
0 -6 -1 219815. 5904.47 2
0 -6 -1 234145. 6727.61 3
0 6 1 242775. 7241.55 3
0 6 2 25114.3 2337.08 3
0 6 2 24026.2 1550.92 2
0 -6 -2 27642.3 2338.93 3
0 6 3 46004.7 3010.79 2
0 6 3 49553.0 3342.46 3
0 -6 -3 48632.8 3124.53 3
0 -6 -4 -110.770 420.877 1
0 6 4 269.128 572.705 2
0 6 4 986.600 749.807 3
0 6 5 168850. 9759.36 2
0 6 5 158183. 6401.00 3
0 6 6 1237.10 911.785 2
0 6 6 2.29069 740.717 3
0 6 7 16000.0 2289.82 3
0 6 8 5255.66 1573.87 3
0 6 9 26459.8 3399.74 3
0 6 10 4396.66 1803.79 3
0 -7 8 44241.2 6817.60 1
0 -7 7 10819.9 3387.44 1
0 -7 6 58149.7 7462.45 1
0 -7 5 203.982 1508.17 1
0 -7 4 36999.5 5855.00 1
0 7 -4 22302.5 3748.89 3
0 7 -3 1273.10 1209.41 3
0 -7 3 785.130 524.661 2
0 -7 2 121784. 4130.58 2
0 7 -2 118103. 6875.33 3
0 -7 1 1656.11 461.309 2
0 7 -1 1455.52 846.763 3
0 7 0 76118.2 4738.38 3
0 -7 0 76089.0 4239.15 2
0 7 1 2705.05 1018.39 3
0 -7 -1 1766.88 582.194 2
0 7 2 108770. 3084.60 2
0 7 2 110315. 5343.08 3
0 7 3 -163.827 336.713 2
0 7 3 -740.389 779.438 3
0 7 4 3354.89 950.094 2
0 7 4 5136.26 1343.24 3
0 7 5 6788.94 1900.19 2
0 7 5 6348.39 1402.88 3
0 7 6 60330.8 4433.66 3
0 7 6 60864.2 6405.71 2
0 7 7 -250.853 768.876 3
0 7 8 92887.7 6065.36 3
0 7 9 1788.60 1238.11 3
0 -8 7 42913.1 6831.10 1
0 -8 6 -1297.65 2124.89 1
0 -8 5 6237.26 3492.71 1
0 -8 4 2698.65 2468.79 1
0 -8 4 779.437 641.135 2
0 -8 3 15161.8 1735.85 2
0 8 -3 12574.5 2730.71 3
0 -8 2 20699.7 1940.51 2
0 8 -2 24994.1 3466.31 3
0 8 -1 100412. 6268.84 3
0 -8 1 97124.7 4627.59 2
0 8 0 27481.4 3149.60 3
0 -8 0 28797.4 2101.96 2
0 8 1 1800.88 1138.83 3
0 8 2 1563.85 976.422 3
0 8 3 54614.3 2523.39 2
0 8 3 53270.6 4140.53 3
0 8 4 4358.36 1239.03 3
0 8 4 5875.61 1138.61 2
0 8 5 65704.9 4829.99 3
0 8 5 67259.3 4654.11 2
0 8 6 10582.5 2257.05 3
0 8 7 2640.20 1344.24 3
0 8 8 1938.61 1389.15 3
0 8 9 21817.1 3354.96 3
0 -9 6 41172.4 6973.84 1
0 -9 5 1593.88 2615.84 1
0 9 -4 26028.5 4349.15 3
0 -9 4 32708.4 6044.67 1
0 9 -3 6994.05 2181.06 3
0 9 -2 592.056 1094.31 3
0 9 -1 8541.60 2326.01 3
0 9 0 20898.3 2936.74 3
0 9 1 1160.07 1010.76 3
0 9 2 52253.1 4404.79 3
0 9 3 1749.64 959.837 3
0 9 4 16409.2 2628.13 3
0 9 5 6227.18 1770.39 3
0 9 6 30783.7 3663.75 3
0 9 7 14661.1 2741.40 3
0 9 8 13090.5 2634.37 3
0 10 -4 -2596.77 2440.57 3
0 -10 4 1783.84 2013.39 1
0 10 -3 6204.93 2296.43 3
0 -10 3 8765.23 3582.24 1
0 10 -2 -438.323 1020.15 3
0 10 -1 17945.5 3206.42 3
0 10 0 4162.96 1613.62 3
0 10 1 12720.5 2479.91 3
0 10 2 5483.08 1616.38 3
0 10 3 11612.2 2328.66 3
0 10 4 14115.3 2590.83 3
0 10 5 4710.40 1701.68 3
0 10 6 10191.6 2384.83 3
0 11 -2 6253.12 2292.93 3
0 11 -1 6692.34 2275.14 3
0 11 0 14004.1 3119.35 3
0 11 1 9811.06 2317.12 3
0 11 2 -179.967 1090.36 3
0 11 3 5987.22 2052.24 3
0 11 4 4021.85 1712.51 3
-1 11 2 5001.40 1779.28 3
-1 11 1 -3691.49 2256.97 3
-1 11 0 11722.5 3058.51 3
-1 10 5 3393.13 1548.13 3
-1 10 4 263.326 882.993 3
-1 10 3 153.162 1140.81 3
-1 10 2 12893.4 2487.26 3
-1 10 1 1670.79 1280.38 3
-1 10 0 24686.0 3578.08 3
-1 10 -1 15291.7 3113.42 3
-1 10 -2 799.303 1096.36 3
-1 10 -3 1368.37 1529.68 3
-1 9 7 352.969 1150.05 3
-1 9 6 1100.21 1058.00 3
-1 9 5 38724.5 4097.11 3
-1 9 4 3256.84 1509.85 3
-1 9 3 9287.08 2108.79 3
-1 9 2 5034.13 1593.74 3
-1 9 1 808.993 1068.35 3
-1 9 0 -1807.44 1464.81 3
-1 9 -1 134863. 8061.87 3
-1 9 -2 2931.86 1589.44 3
-1 9 -3 8724.27 2620.12 3
1 -9 4 -1837.47 2472.43 1
-1 9 -4 -1934.80 2659.17 3
1 -9 5 1679.14 1923.43 1
-1 8 8 31367.4 3850.43 3
-1 8 7 1661.21 1074.52 3
-1 8 6 12357.2 2388.77 3
-1 8 5 1816.00 1157.26 3
-1 8 4 8959.82 1926.05 3
-1 8 3 -1114.33 1122.30 3
-1 8 2 111417. 6111.25 3
-1 8 1 -91.5999 740.386 3
-1 8 0 6943.28 1597.23 3
-1 8 -1 9399.52 2157.81 3
-1 8 -2 14946.0 2815.81 3
1 -8 2 11344.3 729.096 2
1 -8 2 12876.0 986.302 2
1 -8 3 5651.61 928.197 2
-1 8 -3 5112.15 1664.35 3
1 -8 4 109919. 10542.1 1
-1 8 -4 86306.1 7517.22 3
1 -8 4 101365. 4282.19 2
1 -8 5 2499.23 2089.59 1
1 -8 6 8529.02 3412.38 1
1 -8 7 7871.71 2735.23 1
-1 7 9 304.437 900.516 3
-1 7 8 2181.30 1355.56 3
-1 7 7 1590.93 892.384 3
-1 7 6 -425.547 1021.79 3
-1 7 6 -601.140 1709.33 2
-1 7 5 113481. 7269.74 2
-1 7 5 106218. 5867.85 3
-1 7 4 861.464 738.495 2
-1 7 4 -481.055 715.551 3
-1 7 3 694.736 744.217 3
-1 7 3 981.402 402.240 2
-1 7 2 26226.8 2718.50 3
-1 7 1 50325.9 3772.65 3
-1 7 0 2438.95 1031.73 3
-1 7 -1 142176. 6997.32 3
1 -7 2 10855.6 1004.90 2
-1 7 -2 14501.2 2541.09 3
-1 7 -3 350.148 924.146 3
1 -7 4 29000.9 5087.04 1
-1 7 -4 26875.4 3909.30 3
1 -7 5 84329.3 8870.75 1
1 -7 6 482.635 1664.95 1
1 -7 7 7942.92 2827.67 1
1 -7 8 3722.15 2319.85 1
-1 6 10 6747.75 1982.87 3
-1 6 9 481.241 827.883 3
-1 6 8 67965.3 4974.23 3
-1 6 7 5046.65 1344.14 3
-1 6 6 16341.9 2302.42 3
-1 6 6 15545.2 2829.24 2
-1 6 5 9057.81 1720.06 3
-1 6 5 3749.75 961.807 2
-1 6 4 36284.5 3069.12 3
-1 6 4 30988.7 3510.04 2
-1 6 3 6981.74 1163.59 2
-1 6 3 6912.71 1383.95 3
-1 6 2 157543. 6024.26 3
-1 6 2 152148. 2626.85 2
1 -6 -2 163660. 6013.12 3
-1 6 1 31849.9 2795.87 3
1 -6 -1 31375.0 2616.20 3
1 -6 0 912.769 647.140 3
-1 6 0 931.277 626.641 3
1 -6 1 63766.9 4051.42 3
-1 6 -1 61690.5 4253.63 3
1 -6 2 212655. 4128.74 2
-1 6 -2 216801. 8585.78 3
-1 6 -3 10082.7 2072.15 3
-1 6 -4 5829.11 1098.18 3
1 -6 4 10308.7 2992.40 1
1 -6 5 25944.4 4817.76 1
1 -6 6 10204.1 3042.79 1
1 -6 7 7684.52 3083.38 1
1 -6 8 73050.6 8006.66 1
-1 5 10 12485.7 2491.29 3
-1 5 9 616.666 1109.04 3
-1 5 8 62939.2 4632.99 3
-1 5 7 78202.7 4847.19 3
-1 5 6 31398.5 3456.68 2
-1 5 6 28554.9 2770.85 3
-1 5 5 5295.48 1409.30 2
-1 5 5 4827.26 1162.22 3
-1 5 4 22002.8 2714.47 2
-1 5 4 19882.0 2120.24 3
1 -5 -4 19567.6 2030.69 1
1 -5 -3 924.410 549.361 3
-1 5 3 665.420 589.140 3
1 -5 -2 86143.0 4014.39 3
-1 5 2 85737.8 2714.43 2
-1 5 2 85566.9 4016.48 3
1 -5 -1 139648. 5136.58 3
-1 5 1 133313. 5057.51 3
1 -5 0 54566.6 3288.45 3
-1 5 0 56609.3 3430.85 3
1 -5 1 63002.4 1582.23 2
-1 5 -1 66796.4 4044.46 3
1 -5 1 66146.3 3785.46 3
-1 5 -2 146476. 6536.16 3
1 -5 2 148518. 6225.84 3
1 -5 3 16695.3 2407.63 3
-1 5 -3 14765.9 2494.70 3
1 -5 4 15028.5 3165.18 1
-1 5 -4 12799.8 2370.18 3
1 -5 5 105753. 8633.73 1
1 -5 6 14069.5 3606.43 1
1 -5 7 2753.46 1714.82 1
1 -5 8 103006. 9013.52 1
1 -5 9 20419.6 4148.72 1
-1 4 10 26642.2 3386.58 3
-1 4 10 24687.2 3481.25 1
-1 4 9 7423.33 1836.54 3
-1 4 9 8969.66 1898.55 1
-1 4 8 9515.71 1988.44 1
-1 4 8 7611.70 1712.18 3
-1 4 7 62914.5 4150.84 3
-1 4 6 32046.8 3146.98 2
-1 4 6 28231.5 2695.65 3
-1 4 5 12313.7 1852.24 2
-1 4 5 9900.39 1558.11 3
1 -4 -5 11998.1 1620.40 1
1 -4 -4 202132. 6064.70 1
-1 4 4 198006. 6061.66 3
-1 4 4 188905. 6441.48 2
-1 4 3 128153. 4907.83 2
1 -4 -3 129088. 4559.17 1
-1 4 3 131056. 4626.40 3
-1 4 2 -280.838 698.539 2
-1 4 2 891.919 536.221 3
1 -4 -2 393.747 415.363 3
1 -4 -1 419698. 8066.85 3
-1 4 1 429669. 8023.31 3
1 -4 0 8366.17 1192.29 3
-1 4 0 8251.39 1239.41 3
1 -4 1 1409.77 568.411 3
-1 4 -1 1256.19 573.450 3
1 -4 2 151337. 5911.54 3
-1 4 -2 153048. 6136.53 3
1 -4 3 33080.7 3281.91 3
-1 4 -3 33997.4 3391.20 3
1 -4 4 -31.6033 1239.31 3
1 -4 4 336.915 1057.82 1
1 -4 5 279891. 13010.3 1
1 -4 6 62250.8 6334.80 1
1 -4 7 19954.4 3800.12 1
1 -4 8 19850.8 3739.17 1
1 -4 9 64250.1 7078.72 1
1 -4 10 629.441 1628.43 1
-1 3 11 1161.17 1009.72 1
-1 3 10 38817.0 4154.42 1
-1 3 9 2155.50 1129.96 1
-1 3 8 6860.14 1659.38 1
-1 3 7 45601.2 3470.35 1
1 -3 -6 52629.5 3590.91 1
-1 3 6 52725.2 3444.95 1
-1 3 5 1791.41 781.017 1
1 -3 -5 3093.41 838.590 1
-1 3 5 2259.52 770.824 3
-1 3 4 351463. 7612.33 3
1 -3 -4 356668. 7605.70 1
1 -3 -3 24134.0 1872.49 1
-1 3 3 26940.1 1944.78 3
1 -3 -2 9735.76 1108.77 3
-1 3 2 8401.40 1044.61 3
-1 3 1 19121.5 1114.97 2
-1 3 1 23790.1 1670.01 3
1 -3 -1 22355.8 1596.43 3
-1 3 0 237182. 5437.43 3
1 -3 0 234945. 5414.76 3
-1 3 -1 -624.915 599.094 3
1 -3 1 467.337 403.473 3
-1 3 -2 353006. 8707.17 3
1 -3 2 370239. 8863.01 3
1 -3 3 21393.1 2621.17 3
1 -3 3 22746.0 3276.19 1
-1 3 -3 21868.3 2611.12 3
1 -3 4 29708.3 3728.36 3
1 -3 4 34747.6 4381.32 1
1 -3 5 -549.284 1210.44 1
1 -3 5 1841.12 1297.36 3
1 -3 6 131254. 8494.42 1
1 -3 7 -78.6177 1333.88 1
1 -3 8 69565.2 6692.81 1
1 -3 9 26163.4 4288.71 1
1 -3 10 25444.6 4467.36 1
-1 2 11 2617.66 1772.12 1
-1 2 10 13860.4 2639.52 1
-1 2 9 64383.4 4922.51 1
-1 2 8 7834.94 1645.22 1
-1 2 7 143550. 6157.81 1
1 -2 -6 4904.95 1173.53 1
-1 2 6 5243.84 1244.50 1
1 -2 -5 166486. 5730.47 1
-1 2 5 154722. 5342.25 1
-1 2 4 109800. 4063.14 1
1 -2 -4 117780. 4275.75 1
-1 2 3 186105. 4753.47 3
-1 2 3 190171. 4776.83 1
1 -2 -3 193347. 4843.07 1
-1 2 2 3445.59 605.914 3
1 -2 -2 3662.53 625.517 1
1 -2 -1 999999. 9082.73 3
-1 2 1 992459. 9056.65 3
1 -2 0 9690.53 951.293 3
-1 2 0 10324.7 980.696 3
1 -2 1 241583. 3802.07 2
-1 2 -1 243357. 5346.13 3
1 -2 1 249148. 5443.81 3
-1 2 -2 4453.07 1019.13 3
1 -2 2 8439.36 1349.21 3
1 -2 3 439562. 13133.4 1
1 -2 3 369954. 11182.4 3
1 -2 4 -86.0371 826.580 1
1 -2 4 -21.2647 613.275 3
1 -2 5 43273.1 4397.89 1
1 -2 5 66823.4 5891.69 3
-1 2 -6 12002.0 2435.68 1
1 -2 6 8864.02 2218.91 1
1 -2 6 13650.6 2714.19 3
1 -2 7 88995.5 6725.72 1
1 -2 8 -630.558 1210.77 1
1 -2 9 147300. 9534.91 1
1 -2 10 -327.543 1175.05 1
1 -2 11 -1287.68 1654.79 1
-1 1 11 3216.84 1542.46 1
-1 1 10 87804.5 6257.24 1
-1 1 9 -955.162 1214.82 1
-1 1 8 50831.7 4035.52 1
-1 1 7 2001.49 808.405 1
-1 1 6 219348. 6963.73 1
1 -1 -6 236212. 7702.50 1
1 -1 -5 21771.7 2138.82 1
-1 1 5 20296.2 1928.95 1
-1 1 4 93346.4 3609.95 1
1 -1 -4 99256.1 3914.00 1
1 -1 -3 19146.7 1482.55 1
-1 1 3 20659.7 1513.63 1
-1 1 2 169068. 3632.07 1
1 -1 -2 164937. 3669.86 1
-1 1 1 145640. 2744.15 3
1 -1 -1 144774. 2831.34 3
-1 1 0 148750. 2027.79 2
1 -1 0 147846. 1879.63 2
-1 1 0 154375. 2844.25 3
1 -1 0 153975. 2909.60 3
1 -1 1 76634.8 2713.55 2
-1 1 -1 79550.5 2782.07 3
-1 1 -1 75548.4 2392.17 2
1 -1 1 77342.2 2761.06 3
1 -1 2 326366. 5790.33 2
1 -1 2 319599. 9101.47 1
1 -1 3 18379.8 2301.05 1
-1 1 -3 15028.9 2119.83 1
1 -1 3 17854.6 2505.27 3
-1 1 -4 375500. 10866.3 1
1 -1 4 362289. 10475.8 1
1 -1 5 17841.4 2540.70 1
-1 1 -5 19052.2 2597.46 1
1 -1 6 220472. 9178.56 1
-1 1 -6 240496. 9806.10 1
1 -1 7 2746.33 1216.80 1
1 -1 8 2547.76 1315.37 1
1 -1 9 9095.87 2350.61 1
1 -1 10 46503.4 5464.68 1
1 -1 11 -873.000 1213.58 1
-1 0 11 27262.8 3966.17 1
-1 0 10 4865.64 1920.03 1
-1 0 9 79917.1 5784.18 1
-1 0 8 6064.54 1689.63 1
-1 0 7 58816.0 4049.56 1
-1 0 6 693.113 682.941 1
1 0 -6 472.467 668.306 1
-1 0 5 483548. 9498.35 1
1 0 -5 500686. 10407.3 1
1 0 -4 461.789 520.255 1
-1 0 4 615.384 547.333 1
1 0 -3 459702. 7444.27 1
-1 0 3 452274. 7010.84 1
1 0 -2 197828. 3901.99 1
-1 0 2 196302. 3695.80 1
1 0 -1 1137.35 236.727 1
-1 0 1 890.499 216.168 1
-1 0 -1 17834.8 1578.54 2
1 0 1 16995.0 1582.20 2
1 0 2 6386.34 935.212 2
-1 0 -2 4925.74 916.956 1
-1 0 -2 6541.39 1076.23 2
1 0 2 5683.13 920.345 1
1 0 3 867403. 12172.8 1
1 0 3 856827. 11403.7 2
-1 0 -3 842841. 11712.7 1
1 0 4 48282.8 3085.13 2
1 0 4 49605.7 3273.40 1
-1 0 -4 45801.1 3065.58 1
1 0 5 39624.3 3014.18 2
-1 0 -5 39290.8 3221.61 1
1 0 5 41475.2 3299.33 1
-1 0 -6 15526.4 2200.27 1
1 0 6 20728.9 2384.02 2
1 0 6 17975.2 2344.78 1
1 0 7 194942. 8492.16 1
1 0 8 4726.52 1690.64 1
1 0 9 75043.0 6172.18 1
1 0 10 22311.9 3821.04 1
1 0 11 15710.0 3325.09 1
-1 -1 11 4212.25 2169.96 1
-1 -1 10 7596.08 2286.64 1
-1 -1 9 7181.49 2149.52 1
-1 -1 8 128889. 7018.24 1
-1 -1 7 2786.07 1170.32 1
-1 -1 6 194789. 7163.35 1
1 1 -6 208197. 8305.76 1
-1 -1 5 78362.2 4098.62 1
1 1 -5 79606.6 4679.81 1
-1 -1 4 16611.5 1711.96 1
1 1 -4 16499.1 1915.07 1
1 1 -3 83784.7 3735.50 1
-1 -1 3 80991.2 3286.68 1
1 1 -2 249144. 5473.94 1
-1 -1 2 245180. 4714.44 1
-1 -1 1 3757.38 473.697 1
1 1 -1 3194.50 532.305 1
-1 -1 -1 153845. 2187.17 1
-1 -1 -1 154591. 4403.72 2
1 1 1 150254. 4273.49 2
1 1 1 154332. 2112.58 1
-1 -1 -2 159240. 3347.08 1
1 1 2 159657. 5532.79 2
1 1 2 152598. 3213.17 1
-1 -1 -2 156747. 5389.45 2
1 1 3 42559.1 2180.28 1
1 1 3 45650.8 2893.84 2
-1 -1 -3 44252.9 2261.28 1
-1 -1 -4 269779. 6623.68 1
1 1 4 270312. 6483.15 1
1 1 4 276841. 7562.77 2
1 1 5 107596. 5121.50 2
1 1 5 99101.7 4544.65 1
-1 -1 -5 104126. 4734.73 1
1 1 6 106763. 5527.27 2
-1 -1 -6 99708.5 5171.85 1
1 1 6 94082.3 4989.14 1
1 1 7 25923.1 3008.96 1
1 1 8 32295.9 3675.49 1
1 1 9 49831.9 4905.63 1
1 1 10 87075.7 6921.34 1
1 1 11 20639.5 3639.58 1
-1 -2 11 24074.2 4107.32 1
-1 -2 10 3351.68 1830.37 1
-1 -2 9 86808.2 6572.77 1
-1 -2 8 88842.9 6189.10 1
-1 -2 7 37699.2 3728.65 1
1 2 -6 8624.85 2128.94 1
-1 -2 6 8187.59 1692.45 1
-1 -2 5 173938. 6852.34 1
1 2 -5 184012. 8584.63 1
1 2 -4 28787.4 3323.13 1
-1 -2 4 33492.1 2819.07 1
1 2 -3 165441. 7448.85 1
-1 -2 3 163971. 5685.86 1
-1 -2 3 164364. 8636.57 3
-1 -2 2 268971. 6969.48 1
-1 -2 2 262356. 8096.27 3
-1 -2 1 29399.6 2402.74 1
1 2 -1 29735.0 2086.78 3
-1 -2 1 31442.3 1614.22 3
-1 -2 0 363913. 4005.15 3
1 2 0 372302. 4902.60 2
1 2 0 377321. 4346.49 3
-1 -2 0 367721. 5085.89 2
-1 -2 -1 329211. 3720.30 1
1 2 1 332937. 4019.81 3
-1 -2 -1 332519. 6509.63 2
-1 -2 -1 340675. 3982.34 3
1 2 1 335598. 6052.47 2
-1 -2 -2 477109. 5609.25 1
1 2 2 459431. 10735.1 2
1 2 2 471941. 5689.85 1
-1 -2 -2 467869. 10533.9 2
1 2 3 29368.5 1721.04 1
-1 -2 -3 29162.0 1711.48 1
1 2 3 26031.5 2524.48 2
-1 -2 -3 32501.2 2705.70 2
-1 -2 -4 85245.0 3546.01 1
1 2 4 82583.6 3377.12 1
1 2 4 82660.2 4551.03 2
1 2 5 63565.4 3405.54 1
-1 -2 -5 71628.6 3667.63 1
1 2 5 66368.0 4287.50 2
1 2 6 35639.9 2874.38 1
1 2 6 39165.9 3571.52 2
-1 -2 -6 41061.0 3158.97 1
1 2 7 103396. 5487.82 1
1 2 8 117348. 6474.22 1
1 2 9 2027.80 1171.49 1
1 2 10 47620.9 5011.45 1
1 2 11 12724.7 2819.87 1
-1 -3 10 15821.5 3382.28 1
-1 -3 9 31317.8 4325.12 1
-1 -3 8 51348.4 5112.61 1
-1 -3 7 73218.0 5719.86 1
-1 -3 6 76418.5 8149.53 3
-1 -3 6 53790.5 4696.54 1
-1 -3 5 82215.1 5474.49 1
-1 -3 5 99946.2 8664.19 3
1 3 -5 100127. 7620.69 1
-1 -3 4 122687. 8447.79 3
-1 -3 4 142066. 6926.52 1
-1 -3 3 105455. 6108.57 3
-1 -3 3 107690. 6031.30 1
1 3 -2 21093.9 2473.49 3
-1 -3 2 24555.6 3007.26 1
-1 -3 2 25931.0 2132.85 3
1 3 -1 272774. 6283.89 3
-1 -3 1 281798. 5297.25 3
1 3 0 1473.28 448.948 3
1 3 0 828.597 325.935 2
-1 -3 0 1442.30 442.676 2
-1 -3 0 747.401 224.867 3
1 3 1 52219.0 2337.66 2
-1 -3 -1 50720.8 1892.72 3
1 3 1 52112.1 2052.83 3
-1 -3 -1 55959.7 2837.01 2
-1 -3 -2 124056. 5956.64 2
1 3 2 122227. 5134.40 2
1 3 2 128351. 3433.27 3
-1 -3 -2 128090. 3183.56 1
1 3 3 6890.20 1380.08 2
1 3 3 7458.20 977.673 1
-1 -3 -3 8343.27 1568.81 2
-1 -3 -3 7657.14 916.863 1
1 3 3 9398.03 1081.95 3
1 3 4 198034. 8034.68 2
1 3 4 208638. 5461.86 1
-1 -3 -4 212105. 5421.80 1
-1 -3 -5 343336. 7865.51 1
1 3 5 327399. 7684.23 1
1 3 5 318038. 10316.7 2
-1 -3 -6 9408.73 1544.10 1
1 3 6 7511.26 1674.59 2
1 3 6 10214.1 1554.40 1
1 3 7 90843.3 5016.06 1
1 3 8 4464.49 1358.96 1
1 3 9 2085.78 1139.20 1
1 3 10 20611.2 3281.25 1
1 3 11 38716.5 4861.87 1
-1 -4 10 19857.4 3993.78 1
-1 -4 9 -1523.08 1815.84 1
-1 -4 8 60566.5 6062.21 1
-1 -4 7 21952.0 3656.66 1
-1 -4 6 16820.7 3024.73 1
-1 -4 5 63440.3 6534.24 3
-1 -4 5 63006.0 5626.21 1
-1 -4 4 319913. 12502.1 1
-1 -4 4 282984. 11319.1 3
-1 -4 3 9138.33 2265.15 1
-1 -4 3 8114.46 1452.81 3
-1 -4 2 92967.1 4068.71 3
1 4 -2 92679.4 5240.18 3
1 4 -1 3224.80 923.058 3
-1 -4 1 1853.12 525.890 3
-1 -4 1 2215.63 547.946 2
-1 -4 0 992.352 374.277 3
-1 -4 0 1275.58 440.067 2
1 4 0 340.229 401.999 3
1 4 1 99379.1 3240.51 2
-1 -4 -1 97564.0 4158.26 2
-1 -4 -1 95395.2 3100.23 3
1 4 1 105353. 3487.49 3
-1 -4 -2 342558. 6147.31 3
1 4 2 349289. 7946.30 2
1 4 2 345015. 6446.43 3
-1 -4 -2 353138. 10594.9 2
1 4 3 31436.9 3249.76 2
-1 -4 -3 33005.6 2018.43 1
1 4 3 37500.4 2285.35 3
-1 -4 -3 33533.7 3266.56 2
1 4 4 126523. 4580.73 3
1 4 4 134081. 7454.79 2
-1 -4 -4 127668. 4335.26 1
-1 -4 -5 2490.92 777.946 1
1 4 5 2987.42 900.986 1
1 4 5 2522.13 1008.52 2
1 4 5 3266.04 945.219 3
1 4 6 14414.4 2602.59 2
1 4 6 17899.9 2142.37 1
-1 -4 -6 17348.9 1988.15 1
1 4 7 35359.3 3209.33 1
1 4 8 153661. 7256.78 1
1 4 9 8288.87 1986.31 1
1 4 10 22370.7 3409.71 1
1 4 11 1791.84 1460.72 1
-1 -5 9 -2944.98 2323.05 1
-1 -5 8 7338.29 2605.65 1
-1 -5 7 170221. 10696.4 1
-1 -5 6 3377.09 1649.52 1
-1 -5 5 59149.5 6211.49 1
-1 -5 4 99.6266 1615.47 1
-1 -5 4 -676.928 1280.50 3
-1 -5 3 11650.4 1805.89 3
1 5 -3 5306.10 1437.90 3
-1 -5 3 11062.4 2888.04 1
1 5 -2 14268.0 2132.82 3
-1 -5 2 16053.1 1830.99 3
1 5 -1 277199. 7718.37 3
-1 -5 1 277703. 5896.66 2
-1 -5 1 272537. 6694.52 3
-1 -5 0 43345.3 2500.98 3
1 5 0 45112.9 2805.44 3
-1 -5 0 43763.4 2387.33 2
-1 -5 -1 23953.5 1749.07 3
1 5 1 24692.8 1644.33 2
-1 -5 -1 25562.6 2404.11 2
1 5 1 24526.9 1965.77 3
1 5 2 2782.50 694.105 3
1 5 2 1788.39 532.655 2
-1 -5 -2 2492.64 648.114 3
-1 -5 -2 1307.47 943.255 2
-1 -5 -3 146777. 4533.71 1
1 5 3 137989. 6094.82 2
-1 -5 -3 137592. 6529.71 2
1 5 3 146019. 4944.26 3
-1 -5 -4 10109.2 1307.35 1
1 5 4 9904.87 1428.30 3
1 5 4 10352.3 2076.78 2
1 5 5 165701. 9386.73 2
1 5 5 148165. 5727.61 3
-1 -5 -5 153394. 5459.84 1
1 5 6 3448.50 1472.32 2
1 5 6 3435.95 1109.31 3
1 5 7 68803.0 4548.65 3
1 5 8 2631.31 1319.82 1
1 5 8 944.482 804.735 3
1 5 9 89253.0 6117.17 3
1 5 9 89693.0 6099.64 1
1 5 10 -666.746 1341.57 3
1 5 10 1825.69 1491.29 1
1 5 11 22150.8 3970.70 1
1 5 11 19471.5 3535.49 3
-1 -6 9 7471.64 2757.55 1
-1 -6 8 36582.0 5684.96 1
-1 -6 7 3566.73 2467.16 1
-1 -6 6 15990.0 3665.78 1
-1 -6 5 5535.33 2124.03 1
-1 -6 4 215835. 13337.4 1
-1 -6 3 16966.3 3638.13 1
1 6 -3 13799.3 2603.64 3
-1 -6 3 14101.5 2051.22 3
-1 -6 2 19429.1 1791.74 2
-1 -6 2 21280.0 2209.68 3
1 6 -2 19035.1 2664.08 3
-1 -6 1 19943.7 1783.43 2
1 6 -1 22715.6 2526.65 3
-1 -6 1 21123.0 2064.29 3
-1 -6 0 131725. 4869.50 3
-1 -6 0 122099. 4630.98 2
1 6 0 131464. 5372.58 3
1 6 1 4056.89 704.584 2
-1 -6 -1 5550.18 952.905 3
-1 -6 -1 4563.04 1119.64 2
1 6 1 4901.31 1136.02 3
1 6 2 144943. 5360.61 3
-1 -6 -2 145291. 7617.43 2
-1 -6 -2 146060. 4943.18 3
1 6 2 142874. 4563.06 2
-1 -6 -3 4884.94 923.748 1
1 6 3 4873.82 1043.96 3
-1 -6 -3 4353.93 1341.30 2
1 6 3 4074.33 838.631 2
-1 -6 -4 17019.1 1809.48 1
1 6 4 17177.4 2563.40 2
1 6 4 18650.8 2105.87 3
1 6 5 1853.69 1100.23 2
1 6 5 3781.31 1160.80 3
-1 -6 -5 3412.81 965.325 1
1 6 6 71830.8 4478.41 3
1 6 6 88326.4 7605.65 2
1 6 7 908.412 828.767 3
1 6 8 58275.2 4684.52 3
1 6 9 12829.7 2410.12 3
1 6 10 -484.958 1248.01 3
-1 -7 8 -937.892 1800.84 1
-1 -7 7 84916.6 8929.42 1
-1 -7 6 -504.649 2293.00 1
-1 -7 5 21600.9 4351.26 1
-1 -7 4 7010.10 3112.17 1
-1 -7 3 192461. 6211.13 2
-1 -7 3 204227. 13430.0 1
1 7 -3 174597. 9816.72 3
-1 -7 2 2840.17 832.743 2
1 7 -2 2047.57 1195.81 3
-1 -7 1 20340.6 2220.58 3
1 7 -1 22946.1 2819.01 3
-1 -7 1 19398.2 1851.53 2
-1 -7 0 7791.22 1328.32 3
-1 -7 0 10023.5 1677.03 2
1 7 0 6534.87 1415.19 3
-1 -7 -1 -530.531 1590.88 2
1 7 1 1765.33 909.579 3
-1 -7 -1 595.456 479.961 3
1 7 2 918.959 369.820 2
-1 -7 -2 -656.698 1197.15 2
-1 -7 -2 1688.98 685.295 3
1 7 2 267.074 678.613 3
1 7 3 185280. 6849.72 3
-1 -7 -3 178384. 5873.97 1
1 7 3 182096. 5977.06 2
-1 -7 -3 171721. 7204.38 2
1 7 4 3954.65 1104.44 3
1 7 4 2529.33 877.179 2
1 7 5 41537.9 4394.81 2
1 7 5 41506.6 3440.04 3
1 7 6 25602.4 2937.01 3
1 7 7 1605.78 944.559 3
1 7 8 -450.167 896.808 3
1 7 9 30266.9 3810.54 3
1 7 10 -1784.21 1422.27 3
-1 -8 7 14759.6 4478.74 1
-1 -8 6 50881.2 7200.89 1
-1 -8 5 -1476.33 2115.31 1
-1 -8 4 46720.9 7144.23 1
-1 -8 4 34418.0 2924.07 2
-1 -8 3 12140.2 1737.85 2
1 8 -3 11725.5 2779.37 3
-1 -8 3 8792.68 3072.71 1
1 8 -2 6071.31 1785.78 3
-1 -8 2 7539.63 1367.65 2
1 8 -1 -122.856 719.333 3
-1 -8 1 122.346 800.283 2
-1 -8 0 89353.1 5496.17 2
1 8 0 88712.9 5475.56 3
1 8 1 294.697 744.589 3
-1 -8 -1 -1733.07 2204.84 2
-1 -8 -2 22310.5 2787.69 2
1 8 2 25904.3 2794.62 3
-1 -8 -3 94545.7 5165.44 2
1 8 3 99279.4 4157.05 2
1 8 3 99664.3 5478.85 3
1 8 4 12944.3 1787.41 2
1 8 4 11916.6 2029.82 3
1 8 5 535.282 945.995 3
1 8 5 -1145.00 1151.42 2
1 8 6 12567.5 2208.52 3
1 8 7 -238.307 828.553 3
1 8 8 12353.0 2556.35 3
1 8 9 17434.1 3050.08 3
-1 -9 6 23495.9 5618.81 1
-1 -9 5 1731.78 2103.38 1
-1 -9 4 -2877.46 2494.53 1
-1 -9 4 -78.8718 697.913 2
1 9 -3 32576.7 4754.54 3
-1 -9 3 43302.3 7057.67 1
-1 -9 3 34186.4 3072.41 2
1 9 -2 928.584 986.740 3
-1 -9 2 -88.4161 690.467 2
-1 -9 1 9358.97 1816.14 2
1 9 -1 12518.6 2488.35 3
-1 -9 0 39232.5 4185.88 2
1 9 0 45223.4 4329.89 3
1 9 1 31331.9 3483.15 3
-1 -9 -1 30428.7 3373.51 2
-1 -9 -2 696.981 766.242 2
1 9 2 -1356.97 1083.87 3
1 9 3 24998.1 3118.78 3
1 9 4 12518.8 2268.07 3
1 9 5 3884.55 1374.07 3
1 9 6 28066.3 3468.14 3
1 9 7 8997.98 2182.79 3
1 9 8 -317.190 1236.02 3
-1 -10 5 -2969.23 2466.39 1
-1 -10 4 113.506 2672.14 1
1 10 -3 24066.2 4226.35 3
-1 -10 3 25581.4 5590.77 1
1 10 -2 12629.2 2869.05 3
1 10 -1 2636.35 1571.25 3
1 10 0 3017.55 1451.92 3
1 10 1 19001.4 2962.21 3
1 10 2 8811.78 2086.50 3
1 10 3 12067.6 2288.79 3
1 10 4 23589.5 3187.53 3
1 10 5 1174.05 1031.81 3
1 10 6 1939.55 1328.24 3
1 10 7 11084.7 2533.95 3
1 11 -3 -5310.10 3133.06 3
-1 -11 3 -854.157 2613.59 1
1 11 -2 17050.3 3732.52 3
1 11 -1 163.617 1381.63 3
1 11 0 13428.3 2956.28 3
1 11 1 8584.66 2120.09 3
1 11 2 3860.21 1572.18 3
1 11 3 580.448 1096.85 3
1 11 4 18093.5 3139.84 3
1 11 5 3560.81 1541.77 3
-2 10 4 811.563 1415.66 3
-2 10 3 17480.6 2984.84 3
-2 10 2 195.624 1052.84 3
-2 10 1 14572.9 2816.59 3
-2 10 0 2982.75 1519.54 3
-2 10 -1 13618.2 3125.29 3
-2 10 -2 3916.60 1713.60 3
-2 9 6 13578.7 2600.89 3
-2 9 5 741.399 1073.30 3
-2 9 4 21421.2 3102.79 3
-2 9 3 3896.33 1500.27 3
-2 9 2 59655.5 5009.37 3
-2 9 1 6663.92 1774.21 3
-2 9 0 1187.32 1130.55 3
-2 9 -1 3709.11 1748.18 3
-2 9 -2 11689.6 2677.87 3
-2 9 -3 7391.08 2347.31 3
-2 9 -4 23799.1 4219.64 3
2 -9 4 29571.8 6101.40 1
-2 8 7 41311.7 4288.96 3
-2 8 6 -2211.55 1473.55 3
-2 8 5 39675.4 3987.47 3
-2 8 4 17365.0 2547.58 3
-2 8 3 -1077.56 1039.02 3
-2 8 2 985.833 998.795 3
-2 8 1 33102.7 3534.85 3
-2 8 0 644.096 885.519 3
-2 8 -1 52892.3 4905.28 3
-2 8 -2 7806.39 2175.52 3
-2 8 -3 17253.0 3301.96 3
-2 8 -4 14593.0 3145.63 3
2 -8 4 16681.4 4096.63 1
2 -8 5 14910.1 3936.03 1
2 -8 6 8356.55 3188.20 1
-2 7 8 32773.0 3756.90 3
-2 7 7 32330.8 3638.89 3
-2 7 6 3392.16 1325.92 3
-2 7 5 8326.89 1921.53 2
-2 7 5 9535.78 1940.95 3
-2 7 4 68202.9 4710.83 3
-2 7 4 72098.9 3759.05 2
-2 7 3 2979.19 1079.89 3
-2 7 2 28628.3 3078.80 3
-2 7 1 32520.9 3194.35 3
-2 7 0 7020.84 1621.74 3
-2 7 -1 45102.9 4081.01 3
-2 7 -2 28227.7 3519.99 3
2 -7 3 14261.7 1350.62 2
-2 7 -3 12687.4 2580.20 3
-2 7 -4 7892.95 2248.48 3
2 -7 4 14711.6 3796.04 1
2 -7 5 16946.6 3972.18 1
2 -7 6 20563.3 4600.46 1
2 -7 7 19448.7 4417.89 1
-2 6 9 4134.78 1383.53 3
-2 6 8 10650.3 2088.80 3
-2 6 7 35979.1 3544.95 3
-2 6 6 15546.5 2274.80 3
-2 6 6 15366.4 2658.82 2
-2 6 5 114610. 5835.17 3
-2 6 5 123424. 7131.75 2
-2 6 4 92316.6 5056.45 3
-2 6 4 91798.3 5861.43 2
-2 6 3 116936. 5553.15 3
-2 6 3 122389. 4381.75 2
-2 6 2 28799.2 2766.12 3
-2 6 1 14432.6 2026.09 3
-2 6 0 52848.5 3836.85 3
-2 6 -1 -196.397 1034.79 3
2 -6 2 45247.3 1257.36 2
2 -6 2 46752.3 1831.12 2
-2 6 -3 19641.9 2973.24 3
2 -6 3 19142.7 1721.79 2
-2 6 -4 1688.06 987.718 3
2 -6 4 4077.01 1878.40 1
2 -6 4 4808.52 1025.18 2
2 -6 5 62313.4 4198.01 2
2 -6 5 55003.6 6807.28 1
2 -6 6 79859.5 8202.91 1
2 -6 6 21903.4 2762.21 2
2 -6 7 -269.971 1640.80 1
2 -6 8 23467.8 4389.57 1
-2 5 10 6644.77 1898.14 3
-2 5 9 12890.0 2349.15 3
-2 5 8 12177.3 2171.93 3
-2 5 7 44436.2 3746.88 3
-2 5 6 10126.5 1925.45 2
-2 5 6 8953.66 1669.51 3
-2 5 5 43156.3 3332.51 3
-2 5 5 49801.9 3713.78 2
-2 5 4 104674. 5009.14 2
-2 5 4 100059. 4885.32 3
2 -5 -3 167235. 6111.70 3
-2 5 3 165942. 6004.95 3
-2 5 3 159432. 5760.27 2
-2 5 2 6915.26 735.629 2
2 -5 -2 6677.58 1221.06 3
-2 5 2 5998.58 1189.20 3
2 -5 -1 74184.1 3979.34 3
-2 5 1 77580.8 4080.59 3
2 -5 0 34699.4 2835.28 3
-2 5 0 32652.7 2713.18 3
-2 5 -1 38295.4 3158.08 3
2 -5 1 39865.5 3199.29 3
2 -5 2 9875.40 1753.00 3
-2 5 -2 9872.48 1938.69 3
2 -5 2 9396.02 1131.39 2
2 -5 3 226083. 6118.32 2
-2 5 -3 224123. 9175.82 3
2 -5 4 6776.39 2358.88 1
2 -5 4 9076.21 1455.53 2
-2 5 -4 3773.19 1105.94 3
2 -5 5 31204.2 2932.78 2
2 -5 5 33326.4 4985.10 1
2 -5 6 -21.7808 1331.51 1
2 -5 6 2370.49 1051.54 2
2 -5 7 175.756 1898.75 1
2 -5 8 7341.82 2578.50 1
2 -5 9 55316.5 6535.50 1
-2 4 10 31639.4 3692.21 3
-2 4 9 20965.7 2942.02 3
-2 4 8 3185.43 1358.54 3
-2 4 7 28107.6 2876.40 3
-2 4 6 233696. 7766.25 3
-2 4 5 4492.65 1097.39 3
-2 4 4 86369.5 4150.64 3
2 -4 -4 88823.5 4385.99 1
-2 4 3 14449.5 1701.13 3
2 -4 -3 16973.4 1811.98 1
2 -4 -3 14386.5 1713.08 3
-2 4 2 5732.55 1099.93 3
2 -4 -2 6379.54 1127.10 3
2 -4 -1 33456.7 2455.93 3
-2 4 1 33096.0 2425.65 3
-2 4 0 329263. 7710.88 3
2 -4 0 332898. 7953.12 3
2 -4 1 57070.1 1390.11 2
2 -4 1 62489.7 3664.08 3
-2 4 -1 61589.5 3641.06 3
2 -4 2 120771. 5694.74 3
-2 4 -2 117859. 5576.45 3
2 -4 2 118507. 4182.03 2
-2 4 -3 3646.42 1224.16 3
2 -4 3 5316.62 1388.94 3
2 -4 3 5005.96 961.289 2
-2 4 -4 97569.0 6482.01 3
2 -4 4 123648. 8459.57 1
2 -4 4 99865.5 6691.63 3
2 -4 4 119647. 5105.31 2
2 -4 5 4069.10 1108.04 2
2 -4 5 4809.43 1870.53 1
2 -4 6 114177. 5852.58 2
2 -4 6 139086. 9276.63 1
2 -4 7 965.193 1474.07 1
2 -4 8 53379.4 6078.35 1
2 -4 9 4910.38 2373.13 1
-2 3 10 3206.74 1395.42 1
-2 3 9 115892. 6532.97 1
-2 3 8 98.3966 774.295 1
-2 3 8 -662.900 964.025 3
-2 3 7 73181.6 4501.00 1
-2 3 7 78727.5 4582.15 3
-2 3 6 1195.95 780.063 3
-2 3 5 11577.7 1589.76 3
2 -3 -5 13239.2 1721.53 1
-2 3 4 8100.42 1245.88 3
2 -3 -4 8838.99 1346.06 1
2 -3 -3 379115. 7816.93 1
-2 3 3 367499. 7448.80 3
2 -3 -2 48093.2 2646.35 3
-2 3 2 44559.1 2478.35 3
-2 3 1 64914.3 1557.67 2
2 -3 -1 70505.3 3142.92 3
-2 3 1 66622.5 2987.81 3
-2 3 0 9811.31 745.984 2
-2 3 0 9903.17 1233.94 3
2 -3 0 9727.51 1242.29 3
2 -3 1 94288.9 2814.64 2
2 -3 1 97172.6 4148.20 3
-2 3 -1 99379.6 4242.99 3
2 -3 2 3688.65 821.065 2
2 -3 2 2932.94 923.037 3
-2 3 -2 4487.91 1165.34 3
2 -3 3 338764. 7866.90 2
-2 3 -3 326101. 10111.8 3
2 -3 3 319493. 10366.8 3
2 -3 4 4046.14 1317.49 3
2 -3 4 4929.17 1750.65 1
2 -3 4 6147.72 1211.56 2
2 -3 5 24794.4 3692.96 1
2 -3 5 23990.7 2544.52 2
2 -3 5 23463.5 3420.83 3
2 -3 6 5682.64 1356.25 2
2 -3 6 5366.67 1852.30 1
2 -3 7 107319. 7920.69 1
2 -3 8 21968.6 3984.30 1
2 -3 9 50538.2 5937.53 1
2 -3 10 17495.4 3856.71 1
-2 2 11 4452.68 1704.00 1
-2 2 10 13450.4 2528.87 1
-2 2 9 1997.67 1235.12 1
-2 2 8 17862.1 2467.33 1
-2 2 7 13398.1 1954.73 1
-2 2 6 358383. 9012.20 1
2 -2 -6 358373. 9539.35 1
2 -2 -5 1478.60 750.612 1
-2 2 5 1465.32 656.871 1
2 -2 -4 152508. 5101.30 1
-2 2 4 146618. 4735.52 3
2 -2 -3 60254.3 2917.17 1
-2 2 3 59545.0 2764.42 3
2 -2 -2 527829. 7931.80 1
-2 2 2 515719. 7444.00 3
2 -2 -2 518898. 7724.13 3
-2 2 1 350.775 359.698 3
2 -2 -1 293.677 261.738 3
-2 2 0 234649. 3757.54 2
2 -2 0 246804. 5295.16 3
-2 2 0 246247. 5129.49 3
2 -2 1 2651.20 695.058 3
-2 2 -1 1636.66 512.815 2
-2 2 -1 1614.27 559.163 3
2 -2 1 1565.85 393.599 2
-2 2 -2 9774.62 1451.98 3
2 -2 2 10874.9 1468.58 2
2 -2 2 9100.31 1492.33 3
2 -2 3 4933.12 1312.79 3
-2 2 -3 3688.71 988.940 3
2 -2 3 3372.54 1245.61 1
2 -2 3 4819.39 960.680 2
2 -2 4 434837. 13655.5 1
2 -2 4 401382. 9577.90 2
2 -2 4 446921. 13422.1 3
2 -2 5 404.436 885.816 3
2 -2 5 -53.4841 863.984 1
2 -2 5 558.810 598.671 2
2 -2 6 158260. 8857.01 1
2 -2 6 155508. 6814.03 2
2 -2 7 43080.8 4795.07 1
2 -2 8 -682.921 1161.02 1
2 -2 9 9533.48 2728.60 1
2 -2 10 70529.3 6986.91 1
-2 1 11 21200.5 3511.06 1
-2 1 10 2140.72 1056.75 1
-2 1 9 83380.0 5624.46 1
-2 1 8 122.500 798.875 1
-2 1 7 34016.2 3000.89 1
-2 1 6 39364.9 3011.31 1
2 -1 -6 43483.0 3418.66 1
-2 1 5 157291. 5422.98 1
2 -1 -5 164426. 5868.09 1
2 -1 -4 11826.0 1451.10 1
-2 1 4 14204.3 1499.89 1
-2 1 3 353390. 6474.73 1
2 -1 -3 360418. 6889.82 1
2 -1 -2 41274.4 2061.39 1
-2 1 2 43486.6 1952.68 3
2 -1 -1 18172.5 1176.69 3
-2 1 1 18845.1 1160.53 3
-2 1 0 699.481 262.962 2
2 -1 0 547.713 247.655 3
2 -1 0 922.755 284.556 2
-2 1 0 404.545 264.457 3
2 -1 1 900123. 10750.5 2
-2 1 -1 897244. 11427.2 2
-2 1 -1 910553. 9993.13 3
2 -1 1 921396. 10178.1 3
2 -1 2 36738.1 2849.51 3
-2 1 -2 35218.0 2756.57 3
-2 1 -2 38716.7 2777.41 2
2 -1 3 41798.3 3691.62 1
2 -1 3 34634.5 2781.10 2
2 -1 3 39062.2 3473.24 3
2 -1 4 262732. 9618.58 1
2 -1 4 252680. 7878.32 2
2 -1 5 8386.39 1580.40 2
2 -1 5 8991.70 1992.02 3
-2 1 -5 6240.87 1752.98 1
2 -1 5 9265.56 1959.20 1
2 -1 6 7225.80 1582.03 2
2 -1 6 5251.30 1882.80 3
-2 1 -6 2439.69 1114.75 1
2 -1 6 5045.47 1793.38 1
2 -1 7 90775.0 6639.33 1
2 -1 8 577.814 1011.78 1
2 -1 9 17713.8 3414.82 1
2 -1 10 32404.4 4669.00 1
2 -1 11 36840.1 5238.13 1
-2 0 11 1916.16 1379.69 1
-2 0 10 2249.88 1348.05 1
-2 0 9 12874.4 2231.36 1
-2 0 8 124866. 6394.67 1
-2 0 7 1636.96 834.538 1
2 0 -6 141489. 6305.90 1
-2 0 6 129783. 5459.42 1
-2 0 5 175445. 5709.41 1
2 0 -5 168904. 6093.08 1
2 0 -4 1435.26 581.898 1
-2 0 4 1077.14 473.646 1
-2 0 3 13889.3 1252.30 1
2 0 -3 11858.1 1227.10 1
-2 0 2 642885. 7020.05 1
2 0 -2 634138. 7429.38 1
2 0 -1 3057.71 439.351 1
-2 0 1 2590.04 358.231 3
-2 0 0 292631. 3471.55 3
2 0 0 293675. 4748.38 2
2 0 0 289610. 3458.31 3
2 0 1 510031. 8306.59 2
-2 0 -1 507878. 7966.50 2
2 0 1 519711. 6939.90 3
-2 0 -1 510044. 7417.20 3
-2 0 -2 409044. 10030.2 2
2 0 2 387591. 9048.65 1
2 0 2 414269. 10291.1 2
2 0 2 404120. 9181.27 3
-2 0 -3 2534.28 1071.19 2
-2 0 -3 1109.51 499.917 1
2 0 3 2357.93 808.555 1
2 0 3 1536.15 628.895 2
2 0 4 154351. 6628.10 1
-2 0 -4 165935. 6857.34 1
-2 0 -5 27791.5 3078.85 1
2 0 5 25405.8 2861.25 1
2 0 5 32337.6 3116.72 2
2 0 6 36166.0 3480.87 2
-2 0 -6 34226.3 3725.16 1
2 0 6 31833.7 3535.34 1
2 0 7 179703. 8844.30 1
2 0 8 34736.7 4195.30 1
2 0 9 1703.36 1412.26 1
2 0 10 12157.2 2979.99 1
2 0 11 15252.6 3311.55 1
-2 -1 11 54177.2 5411.18 1
-2 -1 10 135.965 911.121 1
-2 -1 9 6343.31 1993.74 1
-2 -1 8 87358.6 5524.12 1
-2 -1 7 956.255 962.901 1
2 1 -6 26758.9 2995.39 1
-2 -1 6 25608.5 2532.61 1
2 1 -5 217731. 7528.89 1
-2 -1 5 222654. 6586.58 1
2 1 -4 4405.60 1033.17 1
-2 -1 4 5057.47 997.328 1
2 1 -3 25423.6 1981.76 1
-2 -1 3 26442.6 1758.00 1
2 1 -2 261733. 5132.26 1
-2 -1 2 283497. 4609.17 1
-2 -1 1 447361. 4221.20 1
2 1 -1 437490. 4837.02 1
2 1 0 171.181 247.569 2
-2 -1 0 440.870 374.249 2
2 1 1 196232. 5185.06 2
2 1 1 188303. 3185.43 1
-2 -1 -1 202865. 5143.14 2
-2 -1 -2 97325.5 3334.73 1
2 1 2 104260. 5231.15 2
-2 -1 -2 111201. 5250.73 2
2 1 2 115927. 3373.02 1
-2 -1 -3 64335.2 3135.79 1
2 1 3 73833.8 4843.08 2
2 1 3 73099.6 3330.00 1
-2 -1 -3 74779.1 4766.69 2
-2 -1 -4 392607. 11180.8 2
-2 -1 -4 411385. 8982.79 1
2 1 4 403244. 11182.2 2
2 1 4 414207. 9218.01 1
2 1 5 226797. 7618.34 1
-2 -1 -5 223010. 7507.05 1
2 1 5 235030. 8709.18 2
-2 -1 -6 1502.44 828.086 1
2 1 6 2172.41 884.426 2
2 1 6 1482.71 953.762 1
2 1 7 1988.69 1294.62 1
2 1 8 77759.6 6012.18 1
2 1 9 3464.85 1715.60 1
2 1 10 22445.8 3696.22 1
2 1 11 12640.7 2921.93 1
-2 -2 10 20435.0 3310.15 1
-2 -2 9 1429.62 1607.31 1
-2 -2 8 15998.2 2601.22 1
-2 -2 7 8473.31 1782.53 1
2 2 -6 55291.7 4932.32 1
-2 -2 6 56602.6 3862.53 1
2 2 -5 469480. 13306.7 1
-2 -2 5 435299. 9747.48 1
2 2 -4 125562. 6341.36 1
-2 -2 4 113605. 4582.59 1
2 2 -3 29345.4 2914.11 1
-2 -2 3 25339.1 1909.59 1
-2 -2 2 95399.8 5281.36 3
-2 -2 2 112143. 3344.87 1
2 2 -2 102923. 5020.55 1
-2 -2 1 87956.4 2474.42 3
-2 -2 1 89415.2 3021.83 2
-2 -2 1 86262.0 2341.54 1
-2 -2 0 16965.8 1397.29 2
-2 -2 0 14685.1 534.948 3
2 2 0 16865.2 1351.07 2
2 2 0 15823.4 829.426 3
-2 -2 -1 648176. 4226.27 1
2 2 1 646194. 9472.56 2
-2 -2 -1 660628. 9705.62 2
2 2 1 647713. 4831.94 3
2 2 2 183526. 3290.23 1
2 2 2 176856. 6557.91 2
-2 -2 -2 188750. 6870.81 2
-2 -2 -2 183534. 3508.18 1
-2 -2 -3 2646.82 1134.99 2
2 2 3 4600.02 750.159 1
-2 -2 -3 4441.87 768.456 1
2 2 3 2320.83 937.200 2
-2 -2 -4 15615.7 2502.99 2
2 2 4 14354.1 2322.41 2
-2 -2 -4 17687.0 1691.72 1
2 2 4 17098.8 1655.12 1
2 2 5 348497. 8483.85 1
-2 -2 -5 372299. 8794.91 1
2 2 5 355992. 11474.0 2
2 2 6 2050.94 995.001 1
2 2 6 -391.963 942.418 2
-2 -2 -6 1257.88 871.586 1
2 2 7 74751.4 5070.20 1
2 2 8 21506.0 3214.53 1
2 2 9 4999.78 1929.54 1
2 2 10 -2184.68 2013.34 1
2 2 11 65746.4 6786.47 1
-2 -3 10 15648.3 3161.96 1
-2 -3 9 2764.32 1413.00 1
-2 -3 8 108575. 6758.41 1
-2 -3 7 24941.6 3107.16 1
-2 -3 6 304.798 1641.46 3
-2 -3 6 -914.468 1032.46 1
2 3 -6 -255.813 1199.05 1
-2 -3 5 333.420 756.109 1
-2 -3 5 -42.8410 1782.56 3
2 3 -5 547.355 1332.60 1
2 3 -4 236611. 11733.2 1
-2 -3 4 221571. 7066.49 1
-2 -3 4 208528. 11721.1 3
-2 -3 3 10217.7 1924.37 3
-2 -3 3 11274.2 1560.98 1
-2 -3 2 81534.9 3784.39 1
-2 -3 2 81899.3 3577.48 3
-2 -3 1 325795. 5015.56 3
2 3 -1 307381. 7882.09 3
-2 -3 1 315098. 7737.06 1
2 3 0 31140.4 1934.97 2
2 3 0 29859.8 1518.30 3
-2 -3 0 33753.5 2091.73 2
-2 -3 0 28725.2 1202.52 3
-2 -3 -1 12076.3 745.406 1
-2 -3 -1 13946.6 1561.36 2
2 3 1 12908.1 1376.83 2
2 3 1 12564.2 896.330 3
-2 -3 -2 800702. 14432.6 2
2 3 2 790338. 13506.3 2
2 3 2 784500. 8106.46 3
-2 -3 -2 787601. 7157.81 1
-2 -3 -3 970.983 362.361 1
-2 -3 -3 1303.50 1022.85 2
2 3 3 423.909 869.785 2
2 3 3 682.810 373.574 1
2 3 4 42592.1 2474.72 1
2 3 4 50493.6 4686.65 2
-2 -3 -4 41053.1 4131.98 2
-2 -3 -4 42674.5 2455.00 1
2 3 5 20283.4 2019.50 1
2 3 5 21456.7 3070.01 2
-2 -3 -5 27189.6 3423.47 2
-2 -3 -5 23498.6 2104.12 1
2 3 6 26899.1 2593.75 1
-2 -3 -6 27042.3 2557.62 1
2 3 6 26212.2 3485.21 2
2 3 7 2762.63 1240.76 1
2 3 8 141689. 7472.90 1
2 3 9 3561.30 1451.02 1
2 3 10 1578.05 1388.62 1
2 3 11 142.968 1552.60 1
-2 -4 10 5306.27 2204.50 1
-2 -4 9 1846.10 1455.13 1
-2 -4 8 1101.96 1135.17 1
-2 -4 7 104946. 6779.38 1
-2 -4 6 7366.17 2021.09 1
-2 -4 5 77390.1 7507.87 3
-2 -4 5 79061.7 5195.78 1
-2 -4 4 24655.3 2909.03 1
-2 -4 4 21568.3 3183.25 3
-2 -4 3 40335.9 3570.72 1
-2 -4 3 40353.7 3121.56 3
-2 -4 2 -186.337 351.903 3
-2 -4 2 348.723 696.063 1
-2 -4 1 567763. 8955.02 2
-2 -4 1 547689. 7641.52 3
2 4 -1 574623. 10949.1 3
2 4 0 5374.13 830.227 3
-2 -4 0 6151.26 730.511 3
-2 -4 0 6951.87 1016.39 2
-2 -4 -1 65485.5 2283.81 3
2 4 1 64877.9 3137.30 2
2 4 1 65243.4 2549.35 3
-2 -4 -1 67321.9 3561.92 2
2 4 2 1105.59 491.341 3
-2 -4 -2 565.259 703.765 2
2 4 2 651.621 445.325 2
-2 -4 -2 1010.98 370.257 1
-2 -4 -3 143230. 3922.81 1
2 4 3 136986. 6751.58 2
2 4 3 143959. 4338.95 3
2 4 4 13564.0 2570.92 2
-2 -4 -4 12999.6 2462.72 2
-2 -4 -4 11927.8 1304.62 1
2 4 4 12170.3 1423.97 3
2 4 5 238252. 6732.35 1
-2 -4 -5 226448. 10096.4 2
-2 -4 -5 230283. 6313.05 1
2 4 6 33861.1 2915.04 1
2 4 6 29296.8 3914.86 2
-2 -4 -6 31502.3 2712.90 1
2 4 7 744.247 803.348 1
2 4 8 40956.4 4100.00 1
2 4 9 61474.0 5444.48 1
2 4 10 10881.8 2670.38 1
2 4 11 49822.9 5977.50 1
-2 -5 9 2934.33 1972.20 1
-2 -5 8 6671.52 2109.48 1
-2 -5 7 5801.25 2315.88 1
-2 -5 6 15748.0 2874.66 1
-2 -5 5 -282.461 840.961 1
-2 -5 5 2286.49 1725.88 3
-2 -5 4 275998. 11158.4 1
-2 -5 4 256709. 9470.65 3
-2 -5 3 2629.31 878.827 3
-2 -5 3 878.670 1257.60 1
-2 -5 2 1289.62 643.133 3
2 5 -2 -919.960 1567.09 3
-2 -5 2 -1218.35 1715.05 1
-2 -5 2 367.371 527.366 2
-2 -5 1 2048.01 523.188 3
2 5 -1 4487.23 1193.25 3
-2 -5 1 3453.70 848.264 2
-2 -5 0 191638. 4662.87 3
-2 -5 0 191990. 5744.71 2
2 5 0 185832. 5524.07 3
-2 -5 -1 18178.8 2038.83 2
-2 -5 -1 15897.4 1304.71 3
2 5 1 16822.3 1571.37 3
2 5 1 15620.4 1574.03 2
-2 -5 -2 371895. 6646.73 3
-2 -5 -2 368862. 6243.77 1
2 5 2 360835. 8508.02 2
-2 -5 -2 371181. 11147.9 2
2 5 2 369280. 7232.79 3
2 5 3 2286.94 697.601 3
-2 -5 -3 2132.20 536.786 1
-2 -5 -3 625.777 1071.22 2
2 5 3 1715.68 651.018 2
2 5 4 4805.77 1554.12 2
2 5 4 3630.55 872.469 3
-2 -5 -4 2808.73 1181.49 2
-2 -5 -4 3814.66 774.795 1
2 5 5 14395.2 1837.38 3
-2 -5 -5 16038.0 2885.54 2
2 5 5 12601.0 2757.99 2
-2 -5 -5 12786.7 1554.74 1
-2 -5 -6 159802. 5992.44 1
2 5 6 158630. 6453.00 3
2 5 7 -179.105 967.322 3
2 5 7 1194.22 1200.53 1
2 5 8 14741.4 2594.04 1
2 5 9 5737.10 1932.11 1
2 5 10 3611.47 1904.01 1
2 5 11 3041.08 2215.55 1
-2 -6 9 4399.98 1619.79 1
-2 -6 8 1786.23 1343.37 1
-2 -6 7 58323.6 6239.67 1
-2 -6 6 3285.25 2037.68 1
-2 -6 5 37.8825 1207.48 1
-2 -6 4 23045.2 2788.63 3
-2 -6 4 20802.2 3626.63 1
-2 -6 3 90218.0 4717.89 3
-2 -6 3 90499.2 4392.71 2
-2 -6 3 99273.9 8223.53 1
-2 -6 2 30500.5 2499.89 2
-2 -6 2 29718.7 2457.64 3
-2 -6 2 32581.6 4696.39 1
2 6 -2 24728.6 3307.02 3
2 6 -1 197917. 7512.70 3
-2 -6 1 201293. 6226.36 2
-2 -6 1 212657. 6041.46 3
-2 -6 0 350.958 382.181 3
2 6 0 166.638 672.160 3
-2 -6 0 -1235.26 869.564 2
-2 -6 -1 2075.52 862.259 2
-2 -6 -1 1079.79 455.050 3
2 6 1 2065.92 616.743 2
2 6 1 460.642 518.857 3
2 6 2 90977.0 4213.70 2
2 6 2 88803.7 4041.08 3
-2 -6 -2 90940.5 6051.86 2
-2 -6 -2 90601.5 3652.56 3
2 6 3 204573. 7402.41 2
-2 -6 -3 206974. 5529.97 1
2 6 3 197950. 6211.45 3
-2 -6 -3 221932. 10805.4 2
-2 -6 -4 12112.5 2560.85 2
-2 -6 -4 14177.4 1578.08 1
2 6 4 12743.0 1727.93 3
2 6 4 12081.3 2053.07 2
2 6 5 9142.36 2242.50 2
-2 -6 -5 11340.6 1551.28 1
2 6 5 11669.5 1684.00 3
-2 -6 -5 14196.5 2909.99 2
2 6 6 6798.21 1469.43 3
2 6 7 10618.9 1916.53 3
2 6 8 7986.24 1838.06 3
2 6 9 54416.9 5130.94 3
2 6 10 6841.90 2216.65 3
-2 -7 8 11002.4 3436.80 1
-2 -7 7 21762.0 4209.92 1
-2 -7 6 38320.6 5447.02 1
-2 -7 5 10601.0 2976.59 1
-2 -7 4 20493.8 2329.86 2
-2 -7 4 21415.6 3922.81 1
-2 -7 3 15861.6 2002.54 2
-2 -7 3 12246.5 3478.71 1
2 7 -2 983.596 906.830 3
-2 -7 2 -575.518 627.770 3
-2 -7 2 546.697 1411.41 1
-2 -7 2 1017.99 797.658 2
-2 -7 1 10021.4 1529.42 3
2 7 -1 9042.81 1929.45 3
-2 -7 1 8607.39 1411.31 2
-2 -7 0 249835. 6767.45 3
-2 -7 0 251558. 7849.53 2
2 7 0 255603. 8290.55 3
2 7 1 31782.4 2776.26 3
-2 -7 -1 35990.6 2501.47 3
-2 -7 -1 36044.9 3456.84 2
2 7 2 7155.63 1301.39 3
2 7 2 7864.88 1276.55 2
-2 -7 -2 7204.41 1149.86 3
-2 -7 -3 21383.3 3544.40 2
-2 -7 -3 25018.6 2073.65 1
2 7 3 30301.4 2699.74 2
2 7 3 24374.7 2454.45 3
-2 -7 -4 10582.9 1467.57 1
-2 -7 -4 8099.63 2355.26 2
2 7 4 10177.6 1872.78 2
2 7 4 9347.29 1644.94 3
-2 -7 -5 12600.8 2818.02 2
2 7 5 9912.67 1708.62 3
2 7 5 6666.90 1651.02 2
2 7 6 104548. 5711.60 3
2 7 7 18765.9 2672.98 3
2 7 8 2267.23 1218.53 3
2 7 9 22289.9 3290.04 3
2 7 10 3917.00 1825.56 3
-2 -8 8 2653.29 2556.42 1
-2 -8 7 1885.58 2233.64 1
-2 -8 6 8538.82 2867.01 1
-2 -8 5 1123.58 1549.53 1
-2 -8 5 5333.90 1571.85 2
-2 -8 4 13025.7 2039.77 2
-2 -8 4 15252.9 3643.07 1
2 8 -3 59606.3 6605.84 3
-2 -8 3 83484.1 9363.35 1
-2 -8 3 72046.1 4424.81 2
-2 -8 2 47802.5 6802.91 1
-2 -8 2 41457.6 3302.26 2
2 8 -2 42665.8 4874.27 3
2 8 -1 690.612 1037.30 3
-2 -8 1 -267.605 842.125 2
-2 -8 0 57528.1 4227.23 2
2 8 0 57837.1 4409.11 3
2 8 1 445.197 707.625 3
-2 -8 -1 -850.371 1238.80 2
-2 -8 -2 -1690.14 2001.43 2
2 8 2 210.726 460.451 2
2 8 2 -342.324 605.921 3
2 8 3 70019.8 4025.90 2
-2 -8 -3 63793.9 6227.99 2
2 8 3 70503.7 4535.42 3
2 8 4 6149.09 1439.63 3
-2 -8 -4 6429.87 2191.52 2
2 8 4 5162.78 1335.98 2
2 8 5 3051.71 1281.49 3
2 8 6 37009.1 3668.40 3
2 8 7 22929.3 3094.45 3
2 8 8 6073.68 1881.89 3
2 8 9 6844.60 2052.23 3
-2 -9 7 3265.19 2835.79 1
-2 -9 6 23988.3 3113.53 2
-2 -9 6 21015.9 4681.71 1
-2 -9 5 24663.8 5141.88 1
-2 -9 5 20469.5 2666.45 2
-2 -9 4 2949.50 1234.79 2
-2 -9 4 234.852 2104.44 1
2 9 -3 25224.5 4434.90 3
-2 -9 3 34509.0 3370.12 2
-2 -9 3 35010.1 6756.37 1
2 9 -2 7000.82 2029.64 3
-2 -9 2 9905.40 3389.18 1
-2 -9 2 8975.12 1763.17 2
-2 -9 1 1025.78 888.266 2
2 9 -1 1580.57 1306.25 3
-2 -9 0 18741.9 2780.93 2
2 9 0 19618.3 2931.34 3
2 9 1 34748.5 3609.84 3
-2 -9 -1 31822.2 4224.61 2
-2 -9 -2 -2068.20 2445.90 2
2 9 2 -885.250 1006.49 3
-2 -9 -3 40532.3 4725.47 2
2 9 3 46814.4 4085.68 3
2 9 4 8840.99 1866.92 3
-2 -9 -4 14488.9 2915.45 2
2 9 5 19323.8 2751.72 3
2 9 6 10260.6 2176.39 3
2 9 7 12617.7 2548.40 3
2 9 8 720.177 1429.19 3
-2 -10 5 -3718.50 3488.26 1
-2 -10 4 12072.7 3695.86 1
2 10 -3 9118.69 2407.12 3
-2 -10 3 18950.2 5217.94 1
2 10 -2 6502.67 2093.79 3
-2 -10 2 11535.4 3843.01 1
2 10 -1 514.295 1025.13 3
2 10 0 40165.4 4584.71 3
2 10 1 -346.425 1217.83 3
-2 -10 -1 -297.674 2108.71 2
2 10 2 10011.7 2103.36 3
-2 -10 -2 9650.27 2376.45 2
2 10 3 1035.15 1033.97 3
-2 -10 -3 2039.36 1579.72 2
2 10 4 29924.4 3623.19 3
2 10 5 -619.917 1015.44 3
2 10 6 -404.185 1272.72 3
2 10 7 10556.5 2469.35 3
-2 -11 4 6512.23 2275.69 1
-2 -11 3 9764.64 4278.92 1
2 11 -2 1249.14 1352.34 3
-2 -11 2 -693.647 2860.05 1
2 11 -1 5849.27 2430.41 3
2 11 0 882.007 1431.98 3
2 11 1 19263.4 3269.21 3
2 11 2 5831.25 1695.67 3
2 11 3 1897.48 1070.17 3
2 11 4 10280.6 2447.15 3
2 11 5 20545.4 3287.48 3
2 11 6 472.091 1020.11 3
2 12 -1 1435.65 1272.25 3
2 12 0 1389.57 1519.87 3
2 12 1 2291.55 1751.34 3
2 12 2 -49.4749 1478.63 3
2 12 3 3586.91 1885.81 3
-3 9 5 18466.4 3111.33 3
-3 9 4 19077.4 3175.09 3
-3 9 3 596.173 849.371 3
-3 9 2 2908.98 1276.73 3
-3 9 1 21359.8 3230.72 3
-3 9 0 130.745 1388.25 3
-3 9 -1 12739.7 2763.99 3
-3 9 -2 15394.7 3126.11 3
-3 9 -3 2660.67 1618.06 3
-3 8 7 9855.86 2175.51 3
-3 8 6 2136.36 1118.56 3
-3 8 5 5129.98 1617.45 3
-3 8 4 47367.1 4398.49 3
-3 8 3 36.3272 874.633 3
-3 8 2 4964.47 1549.60 3
-3 8 1 36727.5 3841.70 3
-3 8 0 19759.0 2934.95 3
-3 8 -1 447.503 990.025 3
-3 8 -2 27035.8 3889.72 3
-3 8 -3 6650.31 2143.49 3
-3 8 -4 7627.30 2035.78 3
3 -8 5 25555.9 5643.20 1
-3 7 8 440.386 1143.36 3
-3 7 7 5368.87 1674.05 3
-3 7 6 -331.604 1122.18 3
-3 7 5 8624.07 1827.93 3
-3 7 4 90473.7 5556.76 3
-3 7 3 2019.36 1088.14 3
-3 7 2 1188.90 1027.17 3
-3 7 1 42479.3 3793.68 3
-3 7 0 15743.8 2409.76 3
-3 7 -1 -1379.87 1260.69 3
-3 7 -2 71780.0 5803.93 3
-3 7 -3 27540.5 3916.15 3
-3 7 -4 -2229.59 2139.44 3
3 -7 5 424.440 1729.12 1
3 -7 6 30302.8 5439.62 1
-3 6 9 18029.8 2928.84 3
-3 6 8 2435.22 1355.42 3
-3 6 7 56080.0 4542.52 3
-3 6 6 7249.59 1723.23 3
-3 6 5 984.572 915.377 2
-3 6 5 518.647 895.696 3
-3 6 4 1449.86 983.445 2
-3 6 4 1204.41 948.218 3
-3 6 3 46560.3 1632.43 2
-3 6 3 50553.6 3062.58 2
-3 6 3 48061.7 3718.71 3
-3 6 2 30990.5 2976.27 3
-3 6 1 63425.1 4236.11 3
-3 6 0 100428. 5467.22 3
-3 6 -1 3385.85 1093.72 3
-3 6 -2 5746.14 1735.34 3
3 -6 3 121266. 4541.10 2
-3 6 -3 114249. 7237.96 3
-3 6 -4 -1261.88 1475.09 3
3 -6 4 1017.48 552.839 2
3 -6 5 39434.0 5850.58 1
3 -6 6 8555.61 2926.00 1
3 -6 7 6052.89 2269.50 1
3 -6 8 870.849 1374.91 1
-3 5 9 7152.43 1932.72 3
-3 5 8 -370.566 818.462 3
-3 5 7 2056.54 1139.66 3
-3 5 6 65349.3 4446.79 3
-3 5 5 536.337 696.314 3
-3 5 4 68784.3 4210.64 3
-3 5 3 5392.50 1217.76 3
-3 5 2 19536.6 984.790 2
-3 5 2 17848.4 2086.58 3
3 -5 -1 879.126 650.635 3
-3 5 1 2433.96 927.801 3
3 -5 0 207535. 7386.95 3
-3 5 0 203457. 7067.02 3
-3 5 -1 -33.3982 877.874 3
3 -5 2 24488.6 1536.83 2
-3 5 -2 28110.7 3129.15 3
3 -5 3 3053.25 858.798 2
-3 5 -3 2613.78 1336.41 3
-3 5 -4 3530.30 1412.28 3
3 -5 4 2354.68 1294.43 1
3 -5 4 6564.29 1297.78 2
3 -5 5 -1715.36 1029.74 2
3 -5 5 -231.075 1355.58 1
3 -5 6 152642. 10636.3 1
3 -5 6 145066. 7554.08 2
3 -5 7 20952.0 4044.72 1
3 -5 8 246.911 1606.50 1
-3 4 10 -10.5890 1044.16 3
-3 4 9 47765.9 4442.04 3
-3 4 8 667.045 841.113 3
-3 4 7 44791.6 3724.47 3
-3 4 6 38.4078 637.693 3
-3 4 5 17975.5 2135.71 3
-3 4 4 843.617 656.156 3
3 -4 -3 353578. 8867.98 1
-3 4 3 342545. 8358.28 3
3 -4 -3 347178. 8650.82 3
3 -4 -2 462.221 483.185 3
-3 4 2 507.863 509.499 3
-3 4 2 1342.92 395.006 2
3 -4 -1 528.267 375.975 3
-3 4 1 139.523 225.735 2
3 -4 0 50.7624 429.273 3
-3 4 0 28.7580 536.624 3
-3 4 0 241.338 298.123 2
3 -4 1 82230.1 2131.40 2
-3 4 -1 93254.2 4702.45 3
3 -4 1 96235.5 4952.17 3
3 -4 2 9395.02 1754.52 3
-3 4 -2 8287.69 1674.52 3
3 -4 2 6711.32 1075.83 2
3 -4 3 252893. 9782.89 3
-3 4 -3 246632. 9437.02 3
3 -4 4 728.958 577.929 2
-3 4 -4 -458.620 1552.22 3
3 -4 4 456.490 1345.50 1
3 -4 5 6448.07 1350.15 2
3 -4 5 5823.45 1998.27 1
3 -4 6 5869.66 1706.41 2
3 -4 6 3243.37 1701.86 1
3 -4 7 117139. 8700.90 1
3 -4 8 270.317 1354.70 1
3 -4 9 29257.0 4642.97 1
-3 3 10 5252.10 1801.11 3
-3 3 9 -371.616 916.214 3
-3 3 8 11739.1 2012.63 3
-3 3 7 9099.85 1694.98 3
-3 3 6 140608. 5894.39 3
-3 3 5 3159.94 903.718 3
3 -3 -4 850.693 605.232 1
-3 3 4 579.156 527.439 3
-3 3 3 11288.2 1445.17 3
3 -3 -3 11281.7 1515.20 1
3 -3 -2 158467. 5278.60 3
-3 3 2 151441. 4877.68 3
3 -3 -1 15623.9 1673.10 3
-3 3 1 13552.7 1027.37 2
-3 3 1 12417.7 1446.53 3
3 -3 0 293111. 7221.18 3
-3 3 0 274028. 5248.83 2
-3 3 0 287266. 6909.57 3
3 -3 1 594.857 436.310 3
-3 3 -1 2126.64 644.847 2
-3 3 -1 473.529 569.326 3
3 -3 1 1897.30 504.207 2
3 -3 2 2061.11 908.984 3
-3 3 -2 835.863 795.271 3
3 -3 2 604.559 521.716 2
3 -3 3 114318. 5425.93 2
-3 3 -3 100723. 5712.06 3
3 -3 3 97968.9 5871.74 3
3 -3 4 146164. 8706.57 1
3 -3 4 149569. 6591.43 2
3 -3 4 142523. 7798.67 3
3 -3 5 6207.34 1469.28 2
3 -3 5 7475.24 2207.41 1
3 -3 6 34625.6 4403.67 1
3 -3 6 37262.2 3852.81 2
3 -3 7 452.527 1312.72 1
3 -3 8 12852.3 2965.32 1
3 -3 9 12931.6 3127.45 1
3 -3 10 66119.0 6814.47 1
-3 2 10 10.2824 897.439 1
-3 2 9 104803. 6403.22 1
-3 2 8 4741.71 1450.61 1
-3 2 7 1588.68 896.773 1
-3 2 7 764.034 665.175 3
-3 2 6 64738.2 3982.73 1
-3 2 6 59919.9 3713.94 3
-3 2 5 114685. 4717.54 3
3 -2 -5 111556. 5124.82 1
3 -2 -4 36441.0 2736.97 1
-3 2 4 36122.5 2425.57 3
3 -2 -3 137124. 4795.68 1
-3 2 3 132360. 4359.08 3
3 -2 -2 10736.4 1256.93 3
-3 2 2 11031.4 1217.51 3
3 -2 -1 3297.71 724.276 3
-3 2 1 2106.56 551.724 3
-3 2 1 2531.84 496.959 2
3 -2 0 127435. 4250.45 3
-3 2 0 126119. 3620.42 2
-3 2 0 121553. 3997.83 3
3 -2 1 458883. 8785.84 3
-3 2 -1 459096. 8990.41 2
-3 2 -1 467332. 8626.56 3
3 -2 2 124044. 5454.72 2
-3 2 -2 130093. 5331.95 3
3 -2 2 125014. 5412.18 3
3 -2 3 104665. 6299.52 1
-3 2 -3 91470.7 5338.25 3
-3 2 -3 92189.8 4829.58 2
3 -2 3 94074.6 5580.95 3
3 -2 4 49627.4 4667.58 1
3 -2 4 46556.3 3842.39 2
3 -2 4 48497.5 4351.97 3
3 -2 5 38854.1 4335.80 1
3 -2 5 39657.0 4191.12 3
3 -2 5 31391.7 3370.03 2
3 -2 6 41652.1 4613.13 1
3 -2 6 36730.3 3871.19 2
3 -2 7 149963. 8830.21 1
3 -2 8 11802.0 2660.46 1
3 -2 9 2485.14 1841.47 1
3 -2 10 37443.1 5089.59 1
-3 1 10 2630.71 1303.96 1
-3 1 9 43266.0 4065.88 1
-3 1 8 63596.9 4592.93 1
-3 1 7 9209.81 1812.61 1
-3 1 6 26867.2 2525.00 1
-3 1 5 27641.5 2400.90 1
3 -1 -5 28704.2 2636.76 1
-3 1 4 35291.0 2275.76 3
-3 1 4 35943.2 2385.36 1
3 -1 -4 37614.2 2630.20 1
3 -1 -3 64656.7 3094.53 1
-3 1 3 60453.1 2734.46 3
3 -1 -2 348209. 6445.67 1
-3 1 2 348644. 5850.65 3
-3 1 1 114584. 3344.35 2
-3 1 1 117319. 3209.65 3
3 -1 -1 115475. 3336.04 3
3 -1 0 13336.8 1189.48 2
-3 1 0 15439.4 1327.28 2
3 -1 0 13742.5 1200.11 3
-3 1 0 13178.8 1138.58 3
3 -1 1 274001. 6301.44 2
-3 1 -1 279496. 6634.61 2
3 -1 1 281134. 6045.48 3
-3 1 -1 279003. 5970.49 3
-3 1 -2 915.903 647.499 2
3 -1 2 789.542 436.392 3
-3 1 -2 -792.617 807.802 3
3 -1 2 836.996 657.277 2
3 -1 3 25361.5 3099.21 1
3 -1 3 31350.6 3211.36 2
-3 1 -3 27142.5 2823.60 2
3 -1 3 26547.8 2873.51 3
3 -1 4 412352. 12250.5 1
3 -1 4 411505. 12234.3 3
3 -1 5 30346.7 3515.31 1
3 -1 5 27798.0 3238.35 2
3 -1 5 33229.9 3836.33 3
3 -1 6 27476.7 3613.55 1
3 -1 6 22929.5 3100.44 2
3 -1 7 64954.3 5717.74 1
3 -1 8 51941.8 5341.54 1
3 -1 9 9.41234 1382.91 1
3 -1 10 17919.3 3556.06 1
3 -1 11 24166.7 4242.29 1
-3 0 10 27479.5 3617.65 1
-3 0 9 6483.71 1874.22 1
-3 0 8 35350.5 3444.31 1
-3 0 7 21366.6 2506.61 1
-3 0 6 60951.5 3896.68 1
3 0 -6 61599.6 4243.33 1
-3 0 5 144596. 5257.33 1
3 0 -5 148785. 5983.02 1
-3 0 4 185498. 5287.16 1
3 0 -4 195472. 5993.67 1
-3 0 3 5161.28 788.244 1
3 0 -3 5577.36 911.769 1
3 0 -2 245952. 5099.91 1
-3 0 2 252347. 4429.40 3
-3 0 1 20100.9 1096.98 3
3 0 -1 20344.5 1265.76 1
-3 0 1 21093.7 1552.47 2
3 0 0 5413.39 601.877 3
-3 0 0 4657.38 577.468 3
3 0 0 6355.93 886.704 2
-3 0 0 5959.12 879.340 2
3 0 1 232874. 6120.01 2
-3 0 -1 233284. 6007.46 2
3 0 1 226426. 4646.51 3
-3 0 -1 221427. 5031.19 3
3 0 2 230299. 7404.47 1
3 0 2 226633. 7786.74 2
-3 0 -2 245195. 7739.31 2
3 0 2 219360. 6547.66 3
3 0 3 10409.1 1980.22 2
-3 0 -3 8652.95 1719.76 2
3 0 3 11393.0 1846.02 3
3 0 3 9221.36 1675.49 1
3 0 4 318919. 10122.5 1
3 0 4 329164. 11055.2 2
-3 0 -4 297420. 10321.1 2
3 0 4 331239. 10712.4 3
3 0 5 89855.1 6146.54 3
3 0 5 76079.5 5319.59 1
3 0 5 75887.1 5481.17 2
3 0 6 13290.1 2377.09 2
3 0 6 14411.5 2605.25 1
3 0 6 14836.0 2693.62 3
-3 0 -6 12187.8 2470.25 1
3 0 7 32116.1 3911.62 1
3 0 8 59945.6 5691.67 1
3 0 9 4460.03 2085.79 1
3 0 10 64774.5 6497.55 1
3 0 11 15394.2 3403.55 1
-3 -1 10 2304.73 1281.42 1
-3 -1 9 4545.58 1341.27 1
-3 -1 8 83151.3 5286.82 1
-3 -1 7 49793.9 3801.98 1
3 1 -6 65248.9 4743.97 1
-3 -1 6 75331.2 4228.15 1
-3 -1 5 137175. 5184.66 1
3 1 -5 135562. 6031.27 1
3 1 -4 3319.78 939.378 1
-3 -1 4 2155.96 587.309 1
-3 -1 3 16113.4 1388.49 1
3 1 -3 17383.5 1671.03 1
-3 -1 2 195470. 3850.73 1
3 1 -2 198065. 4542.83 1
-3 -1 1 422148. 3834.86 3
3 1 -1 414154. 5029.01 1
3 1 0 977.598 213.333 1
-3 -1 0 1258.29 572.192 2
3 1 0 1381.52 482.294 2
3 1 1 244375. 5317.33 1
3 1 1 240085. 6366.82 2
-3 -1 -1 238504. 6368.54 2
3 1 1 231360. 3941.34 3
3 1 2 39588.6 2677.11 3
3 1 2 35278.3 3131.49 2
3 1 2 32482.5 2317.20 1
-3 -1 -2 30943.3 2763.37 2
-3 -1 -3 25471.0 2522.99 1
3 1 3 32339.4 3461.04 2
3 1 3 30330.1 2536.30 1
-3 -1 -4 2640.86 1335.05 2
3 1 4 2511.48 1035.90 2
3 1 4 2415.21 955.605 1
-3 -1 -4 2000.36 838.064 1
-3 -1 -5 155548. 7135.14 1
3 1 5 170883. 8492.14 2
3 1 5 144448. 6786.44 1
-3 -1 -5 173299. 8472.63 2
3 1 6 3907.64 1239.65 2
3 1 6 3101.84 1127.32 1
-3 -1 -6 3130.80 1255.49 1
3 1 7 23319.4 3283.19 1
3 1 8 50890.4 5220.32 1
3 1 9 31863.5 4298.69 1
3 1 10 -683.954 1370.29 1
3 1 11 67240.9 6873.79 1
-3 -2 10 49677.0 4863.47 1
-3 -2 9 2481.26 1139.29 1
-3 -2 8 70833.6 4978.72 1
-3 -2 7 22541.7 2628.36 1
3 2 -6 18062.4 2888.73 1
-3 -2 6 18714.2 2316.40 1
3 2 -5 5914.67 1525.26 1
-3 -2 5 7189.39 1380.08 1
3 2 -4 231717. 8624.52 1
-3 -2 4 225197. 6106.88 1
-3 -2 3 749.315 535.902 1
3 2 -3 -1033.62 832.643 1
-3 -2 2 431632. 5834.10 1
3 2 -2 425339. 9245.13 1
-3 -2 1 673.589 424.482 2
-3 -2 1 665.216 238.614 3
3 2 -1 836.496 408.988 1
-3 -2 1 497.948 187.184 1
3 2 0 299790. 6636.67 2
-3 -2 0 309157. 6734.42 2
3 2 1 1421.60 185.127 3
3 2 1 1611.68 632.747 2
-3 -2 -1 847.394 668.499 2
3 2 2 248567. 3855.50 1
3 2 2 244415. 8069.81 2
-3 -2 -2 240007. 7685.55 2
-3 -2 -3 14574.1 2253.87 2
-3 -2 -3 13176.9 1451.01 1
3 2 3 15811.9 2474.19 2
3 2 3 18169.3 1515.07 1
3 2 4 84815.0 3970.48 1
-3 -2 -4 80711.8 4053.88 1
3 2 4 96053.1 6420.77 2
-3 -2 -4 95803.7 6281.68 2
-3 -2 -5 33679.0 3048.39 1
-3 -2 -5 37623.1 4099.52 2
3 2 5 39979.8 4302.87 2
3 2 5 36980.7 3152.72 1
-3 -2 -6 124512. 6281.80 1
3 2 6 126442. 6468.87 1
3 2 7 2760.72 1426.62 1
3 2 8 141279. 8271.95 1
3 2 9 1035.39 1110.82 1
3 2 10 320.422 1494.45 1
3 2 11 -1890.54 2131.54 1
-3 -3 10 2581.42 1738.01 1
-3 -3 9 23020.6 3274.15 1
-3 -3 8 747.333 1120.70 1
-3 -3 7 72121.8 4786.52 1
-3 -3 6 3162.79 1015.04 1
3 3 -6 4530.45 1853.89 1
-3 -3 5 56075.9 7319.61 3
3 3 -5 61957.1 6470.53 1
-3 -3 5 60852.0 3728.37 1
-3 -3 4 12807.6 2669.76 3
3 3 -4 15886.9 3182.28 1
-3 -3 4 17349.4 1841.73 1
-3 -3 3 189262. 5214.03 1
-3 -3 3 197433. 8127.46 3
-3 -3 2 4946.21 865.280 3
-3 -3 2 4285.62 678.436 1
-3 -3 2 4812.81 991.089 2
-3 -3 1 481520. 5008.90 3
-3 -3 1 485138. 8722.18 2
-3 -3 1 485302. 5602.77 1
-3 -3 0 18972.1 1822.93 2
3 3 0 18938.3 1787.16 2
-3 -3 0 18979.5 682.714 3
3 3 1 7550.74 1271.66 2
-3 -3 -1 5109.05 1055.65 2
3 3 1 6708.98 560.143 3
-3 -3 -2 2982.51 1058.47 2
3 3 2 1870.98 384.893 3
-3 -3 -2 2928.53 495.036 1
3 3 2 1922.08 712.147 2
3 3 3 125729. 3479.25 1
3 3 3 122346. 6808.61 2
-3 -3 -3 128945. 3796.13 1
-3 -3 -3 116235. 6502.38 2
3 3 4 5046.37 1579.00 2
-3 -3 -4 3861.94 872.471 1
-3 -3 -4 2403.28 1232.10 2
3 3 4 4770.30 957.619 1
3 3 5 331997. 8328.16 1
-3 -3 -5 329411. 8460.93 1
3 3 5 355684. 13131.4 2
-3 -3 -5 334153. 12624.6 2
-3 -3 -6 12697.9 2607.34 2
3 3 6 7941.32 1519.68 1
-3 -3 -6 9809.67 1710.46 1
-3 -3 -7 36035.9 3530.29 1
3 3 7 40980.3 3916.30 1
3 3 8 7098.50 1979.80 1
3 3 9 45449.5 5048.27 1
3 3 10 2042.37 1361.77 1
3 3 11 48250.3 6044.67 1
-3 -4 10 38736.1 4660.24 1
-3 -4 9 1885.24 1475.91 1
-3 -4 8 9348.05 2003.65 1
-3 -4 7 285.277 780.144 1
-3 -4 6 88038.6 5180.98 1
-3 -4 5 3878.47 1686.06 3
-3 -4 5 3338.38 861.014 1
-3 -4 4 222459. 6944.64 1
-3 -4 4 220409. 9121.13 3
-3 -4 3 64512.5 3632.20 3
-3 -4 3 65838.2 3467.05 1
-3 -4 2 996.405 432.178 3
-3 -4 2 1311.21 693.024 2
-3 -4 2 444.394 392.921 1
-3 -4 1 217.573 206.762 3
-3 -4 1 593.917 366.759 1
-3 -4 0 97908.2 2314.85 3
-3 -4 0 100863. 4206.84 1
-3 -4 0 109499. 4581.26 2
3 4 0 108810. 3725.81 3
-3 -4 -1 51940.8 1554.73 1
3 4 1 49711.7 3152.89 2
-3 -4 -1 51836.3 3404.01 2
3 4 1 48338.7 1999.15 3
3 4 2 255815. 4843.36 3
3 4 2 263770. 8124.69 2
-3 -4 -2 256154. 8478.71 2
-3 -4 -2 249604. 3959.09 1
3 4 3 62832.5 4822.15 2
-3 -4 -3 61503.5 4923.00 2
3 4 3 74216.2 2973.02 3
-3 -4 -3 66861.1 2546.99 1
3 4 4 31174.6 2128.03 1
3 4 4 26481.5 3574.75 2
-3 -4 -4 31113.9 3871.37 2
-3 -4 -4 29295.7 2024.87 1
3 4 4 29637.0 2208.17 3
3 4 5 7126.56 2070.90 2
3 4 5 5856.05 1189.73 1
-3 -4 -5 5888.49 1877.29 2
-3 -4 -5 7851.35 1273.73 1
3 4 6 163813. 6553.75 1
-3 -4 -6 149349. 5889.84 1
-3 -4 -6 161156. 9440.62 2
3 4 7 27748.2 3120.38 1
3 4 8 65596.1 5389.13 1
3 4 9 2320.61 1500.83 1
3 4 10 17120.9 3626.19 1
3 4 11 15113.8 3547.79 1
-3 -5 9 46889.4 4926.17 1
-3 -5 8 10240.7 2224.11 1
-3 -5 7 61690.3 4990.88 1
-3 -5 6 22535.1 2857.51 1
-3 -5 5 21323.3 2694.07 1
-3 -5 5 22911.6 3308.82 3
-3 -5 4 2259.28 1005.10 1
-3 -5 4 1439.02 703.148 3
-3 -5 3 125054. 5328.91 2
-3 -5 3 111943. 5309.33 1
-3 -5 3 115137. 4743.06 3
-3 -5 2 6163.99 951.719 3
-3 -5 2 3399.50 796.346 1
-3 -5 2 5411.50 1202.07 2
-3 -5 1 153279. 6750.78 1
-3 -5 1 168905. 5957.44 2
-3 -5 1 159008. 4135.24 3
3 5 -1 160489. 7170.12 3
-3 -5 0 72955.1 3981.12 2
3 5 0 72716.7 3538.65 3
-3 -5 0 63725.2 2317.46 3
-3 -5 -1 63238.1 2416.48 3
3 5 1 63123.8 2808.28 3
3 5 1 59649.4 3483.07 2
-3 -5 -1 67658.9 4136.23 2
-3 -5 -2 10786.1 1895.94 2
-3 -5 -2 13711.5 1096.67 1
3 5 2 12440.5 1273.62 3
3 5 2 14031.7 1912.96 2
3 5 3 92131.4 5593.09 2
-3 -5 -3 95865.3 6410.87 2
3 5 3 89257.1 3566.38 3
-3 -5 -3 92565.2 3135.95 1
3 5 4 26093.0 3431.83 2
3 5 4 29285.1 2287.89 3
-3 -5 -4 28421.6 3958.45 2
-3 -5 -4 24781.8 1859.30 1
-3 -5 -5 78400.2 3715.32 1
-3 -5 -5 88832.4 7118.34 2
3 5 5 81522.4 4261.47 3
-3 -5 -6 27097.6 4097.81 2
-3 -5 -6 22661.9 2250.25 1
3 5 6 27063.7 2798.69 3
3 5 7 85844.1 5335.20 1
3 5 8 2471.88 1585.27 1
3 5 9 56728.7 5488.18 1
3 5 10 15725.8 3368.30 1
3 5 11 -375.233 1161.45 1
-3 -6 9 9173.64 2476.59 1
-3 -6 8 10425.0 2459.54 1
-3 -6 7 681.384 1173.86 1
-3 -6 6 52860.9 4787.48 1
-3 -6 5 4500.53 1656.97 1
-3 -6 4 71037.5 4433.53 3
-3 -6 4 74219.2 4494.37 2
-3 -6 4 78034.0 5379.16 1
-3 -6 3 70331.1 4263.35 2
-3 -6 3 69763.5 5101.25 1
-3 -6 3 67432.9 3789.23 3
-3 -6 2 94649.8 6248.50 1
-3 -6 2 92625.9 4758.81 2
-3 -6 2 87624.0 3873.60 3
-3 -6 1 56800.3 5277.38 1
-3 -6 1 55443.3 3628.57 2
-3 -6 1 52666.9 2699.00 3
3 6 -1 57232.8 4584.89 3
3 6 0 10740.9 1563.12 3
-3 -6 0 8268.25 991.959 3
-3 -6 0 9012.46 1509.33 2
3 6 1 79700.0 4098.86 2
-3 -6 -1 79190.3 4713.73 2
-3 -6 -1 77795.0 3056.16 3
3 6 1 79768.4 3718.05 3
-3 -6 -2 36500.7 2040.79 1
3 6 2 35978.9 2963.96 2
-3 -6 -2 31445.6 3392.66 2
3 6 2 35238.0 2449.71 3
-3 -6 -3 27073.2 3645.10 2
3 6 3 27850.3 2251.10 3
-3 -6 -3 28434.2 1930.40 1
3 6 3 29518.5 3066.72 2
3 6 4 61208.6 5077.75 2
-3 -6 -4 68975.5 6354.88 2
3 6 4 60487.5 3527.64 3
-3 -6 -4 59998.2 3037.76 1
3 6 5 489.246 571.995 3
-3 -6 -5 797.139 1220.21 2
-3 -6 -5 789.016 539.075 1
-3 -6 -6 67358.3 3896.21 1
-3 -6 -6 68632.5 6916.82 2
3 6 6 68768.4 4479.10 3
3 6 7 50831.5 4285.09 3
3 6 8 2109.51 1203.00 3
3 6 9 20612.2 3512.07 3
3 6 10 4633.60 1768.37 3
-3 -7 8 3644.18 1318.71 1
-3 -7 7 24616.9 3821.54 1
-3 -7 6 22862.8 3615.98 1
-3 -7 5 42711.3 3772.17 2
-3 -7 5 44317.5 4770.25 1
-3 -7 4 8367.33 1789.10 2
-3 -7 4 8351.66 2178.52 1
-3 -7 3 50760.6 3833.52 2
-3 -7 3 41696.9 4652.00 1
-3 -7 3 43196.0 3251.14 3
-3 -7 2 62632.5 3567.60 3
-3 -7 2 64998.6 6369.92 1
-3 -7 2 62180.0 4201.04 2
3 7 -2 61702.8 6170.28 3
-3 -7 1 -137.501 405.703 3
3 7 -1 -604.206 1159.42 3
-3 -7 1 -1643.56 2217.34 1
-3 -7 1 316.888 664.688 2
-3 -7 0 51200.9 3875.64 2
3 7 0 55946.6 3993.79 3
-3 -7 0 48569.5 2708.00 3
-3 -7 -1 23204.1 2812.90 2
3 7 1 21104.5 2192.33 3
-3 -7 -1 21647.1 1802.59 3
-3 -7 -2 2222.33 959.364 2
3 7 2 3094.14 1010.31 3
-3 -7 -2 1940.08 655.626 1
3 7 2 2048.28 788.996 2
3 7 3 44250.7 3206.08 3
-3 -7 -3 49241.0 2787.68 1
3 7 3 40714.4 3570.91 2
-3 -7 -3 46337.1 5124.49 2
-3 -7 -4 168584. 5496.79 1
3 7 4 164258. 6373.11 3
-3 -7 -4 180079. 10743.5 2
-3 -7 -5 845.927 590.421 1
3 7 5 720.934 819.997 3
-3 -7 -5 2873.93 2010.75 2
3 7 6 6042.09 1563.99 3
-3 -7 -6 8767.96 2720.64 2
3 7 7 7869.87 1882.61 3
3 7 8 2562.16 1412.99 3
3 7 9 22877.6 3709.70 3
3 7 10 20668.8 3797.23 3
-3 -8 8 17623.3 3498.79 1
-3 -8 7 1766.40 1325.20 2
-3 -8 7 5241.90 2423.19 1
-3 -8 6 4399.50 2009.27 1
-3 -8 6 3837.85 1302.77 2
-3 -8 5 47713.1 4101.63 2
-3 -8 5 53718.6 5762.40 1
-3 -8 4 556.358 1252.99 1
-3 -8 4 1690.74 941.225 2
-3 -8 3 24593.7 2892.65 2
-3 -8 3 20105.7 3918.63 1
3 8 -2 7005.64 1810.98 3
-3 -8 2 11882.0 3133.53 1
-3 -8 2 12609.9 1984.70 2
-3 -8 1 1715.96 730.555 3
-3 -8 1 451.435 664.520 2
3 8 -1 477.100 1207.83 3
-3 -8 0 9869.08 1303.86 3
3 8 0 14499.5 2386.35 3
-3 -8 0 12063.2 2023.69 2
-3 -8 -1 64908.8 3442.14 3
3 8 1 68957.4 4539.90 3
-3 -8 -1 68929.8 5222.52 2
-3 -8 -2 20161.9 3154.69 2
-3 -8 -2 19565.2 1815.94 1
3 8 2 21544.5 2356.31 2
-3 -8 -2 17900.0 1840.31 3
3 8 2 20313.2 2437.02 3
-3 -8 -3 32055.2 4593.25 2
-3 -8 -3 36289.2 2579.25 1
3 8 3 36671.0 3230.65 3
3 8 4 61.7500 674.319 3
-3 -8 -4 -518.588 1337.37 2
-3 -8 -4 459.178 505.362 1
-3 -8 -5 33191.9 4853.59 2
3 8 5 38824.3 3551.51 3
3 8 6 14033.3 2338.13 3
-3 -8 -6 15099.2 3539.70 2
3 8 7 32607.3 3626.55 3
3 8 8 1656.55 1547.66 3
3 8 9 8913.23 2380.53 3
-3 -9 7 6483.62 3124.47 1
-3 -9 7 3613.73 1497.17 2
-3 -9 6 4157.18 2121.09 1
-3 -9 6 3810.10 1429.52 2
-3 -9 5 -331.386 884.808 2
-3 -9 5 2121.97 2149.40 1
-3 -9 4 -118.128 1834.36 1
-3 -9 4 2371.13 1303.48 2
-3 -9 3 7843.77 2162.62 1
-3 -9 3 7813.32 1842.21 2
-3 -9 2 81443.7 8905.82 1
-3 -9 2 73212.4 5171.38 2
3 9 -2 76714.4 7583.88 3
3 9 -1 2985.62 1395.38 3
-3 -9 1 -168.543 2272.38 1
-3 -9 1 1569.60 865.267 2
-3 -9 0 4456.36 1617.43 2
3 9 0 6954.96 1996.30 3
-3 -9 -1 788.964 994.109 2
3 9 1 -1899.67 1364.89 3
-3 -9 -2 21030.5 3605.73 2
3 9 2 27318.1 3095.87 3
3 9 3 7222.25 1622.49 3
-3 -9 -3 7072.38 2625.13 2
-3 -9 -4 40586.8 5691.43 2
3 9 4 49856.9 4228.68 3
3 9 5 -227.532 873.105 3
-3 -9 -5 1152.72 1609.59 2
3 9 6 11166.5 2213.15 3
3 9 7 -230.270 1016.89 3
3 9 8 39044.4 4565.90 3
3 9 9 1465.52 1094.47 3
-3 -10 5 18974.5 4037.59 1
-3 -10 4 -2242.78 2492.08 1
-3 -10 3 15565.9 3970.96 1
-3 -10 3 10098.9 2197.39 2
3 10 -2 1954.01 2236.21 3
-3 -10 2 5195.91 2717.81 1
-3 -10 2 1604.54 866.615 2
-3 -10 1 39362.0 6598.27 1
-3 -10 1 42602.2 4467.38 2
3 10 -1 40069.7 5163.33 3
-3 -10 0 95.7268 1041.32 2
3 10 0 2649.08 1407.52 3
-3 -10 -1 4933.42 1749.67 2
3 10 1 6544.57 1991.94 3
-3 -10 -2 -1263.27 2511.58 2
3 10 2 -313.232 864.545 3
3 10 3 5228.48 1563.82 3
-3 -10 -3 5352.50 2119.37 2
3 10 4 1860.29 1139.14 3
-3 -10 -4 2682.93 2002.56 2
-3 -10 -5 43402.0 5664.52 2
3 10 5 37515.0 4104.94 3
3 10 6 -2082.20 1333.14 3
3 10 7 7338.62 2251.05 3
3 10 8 -605.227 1175.20 3
3 11 -2 820.461 2085.45 3
3 11 -1 740.566 1186.48 3
3 11 0 2405.39 1496.03 3
3 11 1 879.152 1208.56 3
3 11 2 29452.7 3880.63 3
3 11 3 1094.40 1274.67 3
3 11 4 5172.80 1908.18 3
3 11 5 24302.8 3590.05 3
3 11 6 264.025 1008.69 3
3 11 7 1112.88 1016.40 3
-4 9 3 6347.42 1866.62 3
-4 9 2 2002.52 1252.68 3
-4 9 1 12310.6 2591.15 3
-4 9 0 5577.28 1869.56 3
-4 9 -1 6063.01 1877.10 3
-4 8 6 13409.9 2728.86 3
-4 8 5 6093.22 1776.60 3
-4 8 4 9285.78 2155.85 3
-4 8 3 721.413 1173.64 3
-4 8 2 -162.067 860.871 3
-4 8 1 23271.5 3240.34 3
-4 8 0 26473.9 3543.66 3
-4 8 -1 1266.71 1345.44 3
-4 8 -2 37513.3 4701.95 3
-4 8 -3 4521.07 1860.53 3
-4 8 -4 -1993.58 1824.97 3
-4 7 7 28714.8 3542.18 3
-4 7 6 5418.90 1675.75 3
-4 7 5 1708.23 1117.14 3
-4 7 4 8168.27 1918.52 3
-4 7 3 28639.9 3315.51 3
-4 7 2 4097.73 1390.97 3
-4 7 1 63226.8 4837.95 3
-4 7 0 -761.497 1053.79 3
-4 7 -1 10734.1 2142.86 3
-4 7 -2 1762.38 1470.55 3
-4 7 -3 34626.5 4474.95 3
-4 7 -4 -3318.59 2349.02 3
4 -7 5 20491.5 4564.17 1
4 -7 6 6123.99 2726.23 1
-4 6 8 2664.53 1404.21 3
-4 6 7 6050.29 1689.57 3
-4 6 6 36586.9 3731.09 3
-4 6 5 1180.86 1285.22 3
-4 6 4 42777.0 2296.37 2
-4 6 4 41929.7 3690.70 3
-4 6 3 16514.3 2384.31 3
-4 6 3 14146.4 1046.56 2
-4 6 3 14134.7 1618.98 2
-4 6 2 47739.3 3876.58 3
-4 6 1 3059.85 1093.69 3
-4 6 0 108355. 5972.37 3
-4 6 -1 3045.50 1137.58 3
-4 6 -2 20231.1 3002.12 3
-4 6 -3 370.195 1092.34 3
-4 6 -4 40446.0 4923.15 3
4 -6 5 -193.060 1927.03 1
4 -6 6 64725.8 7482.60 1
4 -6 7 -1907.66 2560.70 1
-4 5 9 30084.9 3677.92 3
-4 5 8 1376.13 1036.56 3
-4 5 7 10343.8 2063.11 3
-4 5 6 4264.91 1477.85 3
-4 5 5 35348.3 3319.82 3
-4 5 4 6389.77 1483.70 3
-4 5 3 118569. 3627.13 2
-4 5 3 118510. 5719.38 3
-4 5 2 10512.3 1739.31 3
-4 5 2 9811.61 930.620 2
-4 5 1 12516.4 1918.41 3
-4 5 1 15802.1 1165.43 2
-4 5 0 47.7731 598.164 3
-4 5 -1 69502.6 4581.32 3
4 -5 2 22906.4 1502.27 2
-4 5 -2 27080.2 3251.78 3
4 -5 3 74866.6 4153.88 2
-4 5 -3 84562.6 6099.69 3
4 -5 4 14717.7 2086.11 2
-4 5 -4 8318.64 1909.20 3
4 -5 5 8950.49 1670.14 2
4 -5 5 11530.7 3102.82 1
4 -5 6 7714.86 2726.46 1
4 -5 7 33257.1 5044.70 1
4 -5 8 -1828.31 1905.52 1
-4 4 9 1928.05 997.346 3
-4 4 8 65794.5 4857.76 3
-4 4 7 1446.49 929.103 3
-4 4 6 59033.7 4113.69 3
-4 4 5 8469.67 1607.43 3
-4 4 4 512.566 675.118 3
-4 4 3 2893.32 1001.02 3
-4 4 3 2538.31 697.749 2
-4 4 2 118326. 3576.00 2
4 -4 -2 121497. 5418.06 3
-4 4 2 111586. 5015.40 3
4 -4 -1 206.262 493.633 3
-4 4 1 -261.930 561.187 3
-4 4 1 734.453 309.663 2
-4 4 0 190966. 6590.76 3
4 -4 0 199467. 7115.93 3
-4 4 0 201994. 5569.92 2
-4 4 -1 53607.9 3070.20 2
4 -4 1 46821.0 3775.69 3
-4 4 -1 47099.3 3521.37 3
4 -4 2 28593.0 2247.57 2
-4 4 -2 31974.9 3294.53 3
-4 4 -3 16717.9 2672.61 3
4 -4 3 17316.1 2226.82 2
-4 4 -4 66452.7 5664.89 3
4 -4 4 81925.6 7211.64 1
4 -4 4 84938.4 5054.86 2
4 -4 5 1544.19 978.147 2
4 -4 5 1315.87 1130.33 1
4 -4 6 49031.7 5689.28 1
4 -4 7 33818.5 4756.26 1
4 -4 8 28442.5 4410.02 1
4 -4 9 3842.88 1948.42 1
-4 3 10 1185.05 1048.14 3
-4 3 9 45778.7 4353.16 3
-4 3 8 19070.7 2728.05 3
-4 3 7 14792.6 2135.69 3
-4 3 6 290.541 755.397 3
-4 3 5 71488.3 4014.41 3
-4 3 4 606.409 606.742 3
4 -3 -3 175448. 6262.31 1
-4 3 3 171127. 5752.32 3
-4 3 2 98210.0 3483.80 2
4 -3 -2 100466. 4575.46 3
-4 3 2 97381.3 4234.16 3
-4 3 1 73158.5 2967.68 2
-4 3 1 71264.1 3618.95 3
4 -3 -1 66606.3 3680.16 3
-4 3 0 38464.1 2370.17 2
4 -3 0 35929.2 2838.36 3
-4 3 0 38069.0 2690.33 3
4 -3 1 51949.6 2595.02 2
-4 3 -1 61740.7 3603.06 2
4 -3 1 58771.6 3841.22 3
-4 3 -1 54007.8 3472.73 3
4 -3 2 2264.63 1021.25 3
-4 3 -2 2497.83 940.420 2
-4 3 -2 2405.49 1036.20 3
4 -3 2 1921.04 749.996 2
4 -3 3 28572.0 3068.48 2
4 -3 3 26698.7 3218.58 3
-4 3 -3 22401.2 2871.00 3
4 -3 4 45336.2 5174.89 1
4 -3 4 62583.2 4502.80 2
4 -3 5 82272.1 6808.83 1
4 -3 5 71471.3 5100.58 2
4 -3 6 6146.46 1871.35 1
4 -3 7 76229.1 6652.75 1
4 -3 8 36370.5 4925.26 1
4 -3 9 333.669 1272.71 1
-4 2 10 3539.40 1568.76 3
-4 2 9 1948.33 1205.28 3
-4 2 8 50845.1 4115.86 3
-4 2 7 9682.69 1799.03 3
-4 2 6 62626.8 3928.42 3
-4 2 5 84005.4 4173.94 3
4 -2 -4 53439.5 3496.16 1
-4 2 4 53472.9 3084.60 3
4 -2 -3 24188.4 2230.70 1
-4 2 3 24035.2 2019.56 3
4 -2 -2 148913. 5182.06 1
-4 2 2 147686. 4463.02 2
4 -2 -2 141429. 4872.97 3
-4 2 2 148318. 4705.47 3
-4 2 1 110484. 3744.81 2
4 -2 -1 110361. 4183.20 3
-4 2 1 108828. 3892.00 3
-4 2 0 14448.1 1480.88 2
4 -2 0 14894.9 1605.49 3
-4 2 0 12473.2 1451.55 3
4 -2 1 62024.2 3146.04 2
-4 2 -1 58374.4 3418.25 2
4 -2 1 64298.5 3610.55 3
-4 2 -1 67118.3 3566.81 3
4 -2 2 82972.6 4707.76 3
4 -2 2 69702.2 4245.63 2
-4 2 -2 88710.2 4952.51 2
-4 2 -2 76482.4 4406.29 3
-4 2 -3 51369.8 4163.66 3
4 -2 3 62748.3 4630.82 2
-4 2 -3 67639.9 4564.81 2
4 -2 3 56207.2 4394.93 3
4 -2 4 56941.3 5216.27 1
4 -2 4 65699.5 4874.52 2
4 -2 4 65068.9 5222.08 3
4 -2 5 218751. 10099.7 1
4 -2 5 201774. 8868.32 2
4 -2 6 525.202 997.547 1
4 -2 7 60108.4 5576.25 1
4 -2 8 41542.2 4899.38 1
4 -2 9 1489.12 1590.55 1
4 -2 10 8424.99 2542.26 1
-4 1 10 6772.52 1998.58 1
-4 1 9 28577.2 3382.21 1
-4 1 8 34233.7 3380.40 3
-4 1 8 34612.1 3593.03 1
-4 1 7 79187.7 4663.52 3
-4 1 7 77666.1 4889.51 1
-4 1 6 6211.55 1213.54 3
4 -1 -5 56504.4 3800.63 1
-4 1 5 54004.8 3216.03 3
-4 1 4 141926. 4668.20 3
4 -1 -4 145201. 5489.78 1
4 -1 -3 13618.8 1610.02 1
-4 1 3 12697.1 1319.20 3
-4 1 2 160627. 4355.18 3
4 -1 -2 158665. 4865.66 1
-4 1 2 150251. 4677.78 2
-4 1 1 75131.1 3223.07 2
4 -1 -1 74381.1 2986.30 3
-4 1 1 76571.8 2892.60 3
4 -1 0 2860.74 644.817 3
-4 1 0 2454.44 617.765 3
-4 1 0 2532.80 611.470 2
4 -1 1 36340.3 2584.29 2
-4 1 -1 39447.8 2767.44 2
-4 1 -1 37035.9 2467.98 3
4 -1 1 34449.4 2339.58 3
4 -1 2 100808. 4861.34 3
4 -1 2 99677.0 5231.42 2
-4 1 -2 108785. 5420.24 2
-4 1 -2 95859.4 4723.00 3
4 -1 3 66607.4 4541.35 3
4 -1 3 69307.5 4951.52 1
4 -1 3 79737.3 5483.17 2
-4 1 -3 83772.6 5208.45 2
4 -1 4 131265. 7081.40 1
4 -1 4 137895. 7385.60 2
-4 1 -4 135765. 7004.82 2
4 -1 4 146724. 7159.07 3
4 -1 5 8266.83 1915.96 2
4 -1 5 7769.04 1874.56 3
4 -1 5 8642.99 2022.82 1
4 -1 6 32383.7 3848.41 1
4 -1 7 59590.4 5428.10 1
4 -1 8 117061. 7858.32 1
4 -1 9 21317.9 3729.07 1
4 -1 10 18913.8 3642.80 1
-4 0 10 6390.90 1881.04 1
-4 0 9 1478.53 1106.94 1
-4 0 8 30782.1 3243.17 1
-4 0 7 156144. 6823.58 1
-4 0 6 8915.15 1531.34 1
-4 0 5 74541.8 3882.62 1
4 0 -5 74884.2 4473.83 1
-4 0 4 50074.5 2641.28 3
4 0 -4 51413.2 3285.83 1
-4 0 3 3753.55 702.546 3
4 0 -3 3735.42 833.695 1
4 0 -2 27062.5 1889.55 1
-4 0 2 29242.6 2156.62 2
-4 0 2 28023.8 1601.26 3
4 0 -1 426822. 6599.64 1
-4 0 1 431617. 8022.26 2
-4 0 1 426811. 5671.30 3
4 0 0 31979.5 2300.33 2
-4 0 0 33013.8 2363.27 2
4 0 0 31305.1 1599.02 3
-4 0 0 32727.7 1723.22 3
4 0 1 102768. 4516.96 2
-4 0 -1 111249. 4681.77 2
4 0 1 100888. 3333.41 3
-4 0 -1 99417.9 3752.93 3
-4 0 -2 1739.14 697.596 2
4 0 2 2602.45 772.557 3
4 0 2 3098.46 1003.01 1
4 0 2 2884.12 1020.73 2
4 0 3 82488.7 4921.94 1
4 0 3 72813.0 5356.12 2
-4 0 -3 80395.3 5279.70 2
4 0 3 77048.8 4604.88 3
4 0 4 22198.7 2895.76 1
4 0 4 23327.2 3195.56 2
-4 0 -4 24046.6 3084.55 2
4 0 4 23168.5 2789.06 3
4 0 5 303595. 10760.6 1
4 0 5 296011. 11339.7 2
-4 0 -5 276860. 10902.9 2
4 0 5 316897. 11173.7 3
4 0 6 4941.05 1630.22 1
4 0 6 3359.84 1343.01 3
4 0 7 71064.2 5799.96 1
4 0 8 1181.18 1365.84 1
4 0 9 71702.8 6528.47 1
4 0 10 1038.35 1489.19 1
4 0 11 26742.1 4484.03 1
-4 -1 10 51332.6 4854.35 1
-4 -1 9 -3.16699 845.938 1
-4 -1 8 25358.3 3074.71 1
-4 -1 7 1275.90 794.154 1
-4 -1 6 33541.4 2872.66 1
4 1 -6 32276.6 3449.67 1
-4 -1 5 84882.4 4086.41 1
4 1 -5 81645.1 4935.35 1
-4 -1 4 233598. 5857.49 1
4 1 -4 229987. 7276.96 1
-4 -1 3 42512.1 2215.65 1
4 1 -3 39632.3 2623.24 1
-4 -1 3 43129.0 2017.51 3
-4 -1 2 109468. 4295.60 2
-4 -1 2 114761. 2779.99 3
4 1 -2 109877. 3605.85 1
-4 -1 1 248.625 172.618 3
4 1 -1 1221.24 383.734 1
-4 -1 1 669.771 554.145 2
4 1 0 113552. 2527.71 1
-4 -1 0 112799. 2530.74 3
4 1 0 112797. 4488.62 2
-4 -1 0 119101. 4597.31 2
4 1 1 674.611 235.407 3
-4 -1 -1 211.713 471.088 2
4 1 2 269216. 8940.26 2
-4 -1 -2 266662. 8337.45 2
4 1 2 255840. 6394.28 3
4 1 3 35784.1 3790.08 2
4 1 3 40405.8 3205.98 1
-4 -1 -3 34910.2 3493.38 2
4 1 3 42325.0 3213.92 3
4 1 4 27836.5 3612.29 2
4 1 4 21870.2 2614.93 1
-4 -1 -4 32511.4 3636.34 2
4 1 4 26042.5 2886.12 3
4 1 5 1394.64 1153.34 2
4 1 5 3492.11 1354.53 1
-4 -1 -5 2532.09 1212.06 2
4 1 5 1165.77 871.337 3
4 1 6 260655. 10467.3 1
-4 -1 -6 283426. 11667.4 2
4 1 7 1402.15 1202.70 1
4 1 8 58417.7 5656.63 1
4 1 9 -635.077 1177.80 1
4 1 10 -903.469 1391.91 1
4 1 11 1002.88 1398.90 1
-4 -2 10 1788.43 1165.29 1
-4 -2 9 20163.7 2969.78 1
-4 -2 8 9092.00 1808.52 1
-4 -2 7 160402. 6990.35 1
-4 -2 6 1034.34 731.052 1
4 2 -6 -457.847 1100.15 1
-4 -2 5 47790.1 3111.85 1
4 2 -5 42875.3 4251.34 1
-4 -2 4 12467.2 1447.73 1
4 2 -4 14526.8 2290.58 1
-4 -2 3 163028. 4238.49 1
4 2 -3 178342. 6779.84 1
-4 -2 2 12908.0 975.138 1
-4 -2 2 13386.6 1632.63 2
4 2 -2 15304.6 1733.58 1
-4 -2 1 117628. 4622.79 2
4 2 -1 110802. 3593.00 1
4 2 0 17353.1 1837.06 2
-4 -2 0 14816.5 1729.52 2
4 2 1 65107.8 3815.79 2
-4 -2 -1 65345.8 3877.16 2
-4 -2 -2 3924.72 1142.10 2
4 2 2 4251.14 822.352 3
4 2 2 3829.97 565.617 1
4 2 2 2588.24 1037.39 2
4 2 3 437974. 13333.4 2
-4 -2 -3 438445. 12578.8 2
4 2 3 464461. 8429.31 1
-4 -2 -4 2166.62 1170.17 2
-4 -2 -4 717.683 514.110 1
4 2 4 1889.53 822.004 1
4 2 5 114149. 5876.85 1
-4 -2 -5 100239. 5820.78 1
-4 -2 -6 44210.2 4269.69 1
-4 -2 -6 57754.4 5419.58 2
4 2 6 45255.8 4204.13 1
4 2 7 392.204 861.703 1
4 2 8 7337.92 2217.21 1
4 2 9 95463.7 7456.86 1
4 2 10 -750.124 1733.88 1
4 2 11 3833.13 1764.15 1
-4 -3 10 39997.2 4292.75 1
-4 -3 9 305.564 878.010 1
-4 -3 8 3607.04 1388.39 1
-4 -3 7 3612.51 1331.37 1
-4 -3 6 187106. 6970.58 1
-4 -3 5 2882.26 985.214 1
4 3 -5 3856.89 1849.68 1
-4 -3 4 79412.1 6658.00 3
4 3 -4 80289.9 7232.02 1
-4 -3 4 85313.3 3786.39 1
-4 -3 3 24734.0 2365.44 2
4 3 -3 19872.4 3247.86 1
-4 -3 3 26233.3 1801.11 1
-4 -3 3 21681.6 2393.19 3
-4 -3 2 4407.21 693.895 3
4 3 -2 4456.88 1201.74 1
-4 -3 2 3657.52 551.732 1
-4 -3 2 3489.75 917.788 2
-4 -3 1 1127.30 696.374 2
-4 -3 1 664.518 183.158 1
4 3 0 422608. 9351.22 2
-4 -3 0 429365. 9550.70 2
4 3 1 2636.24 787.163 2
-4 -3 -1 -742.661 993.824 2
4 3 2 49993.5 3866.12 2
-4 -3 -2 45169.3 3643.67 2
4 3 2 45488.1 1604.37 3
-4 -3 -3 12502.2 2104.72 2
4 3 3 14498.1 1162.99 1
-4 -3 -3 10139.9 1280.61 1
4 3 3 16643.2 2609.78 2
4 3 4 21505.8 1845.16 1
-4 -3 -4 20957.1 3109.30 2
-4 -3 -4 19616.7 2104.53 1
4 3 4 17775.1 3049.56 2
-4 -3 -5 7721.95 2189.73 2
4 3 5 6800.88 1313.57 1
-4 -3 -5 5902.27 1457.51 1
-4 -3 -6 182929. 7898.66 1
4 3 6 193111. 7955.20 1
4 3 7 816.038 931.840 1
-4 -3 -7 495.344 753.661 1
4 3 8 23237.4 3485.01 1
4 3 9 41989.3 5138.28 1
4 3 10 41443.5 5380.45 1
4 3 11 78.6472 1266.67 1
-4 -4 10 5419.97 1807.55 1
-4 -4 9 67867.0 5312.98 1
-4 -4 8 13640.9 2313.73 1
-4 -4 7 29906.2 3142.55 1
-4 -4 6 12606.0 3626.91 3
-4 -4 6 16811.2 2236.25 1
-4 -4 5 1870.58 1004.98 3
-4 -4 5 4881.92 1209.51 1
-4 -4 4 25958.9 2256.60 1
-4 -4 4 25685.3 2783.65 3
-4 -4 3 221945. 7302.19 2
-4 -4 3 228114. 5745.79 1
-4 -4 2 737.230 260.255 3
-4 -4 2 473.453 413.474 1
-4 -4 2 1116.28 768.505 2
-4 -4 1 19978.3 887.218 3
-4 -4 1 22791.8 2330.42 2
-4 -4 1 22960.3 1096.40 1
-4 -4 0 120454. 5347.87 2
4 4 1 71735.3 4210.86 2
-4 -4 -1 69203.4 4312.13 2
4 4 1 62635.2 1937.57 3
-4 -4 -2 3734.01 1249.00 2
4 4 2 2846.41 473.095 3
-4 -4 -2 2483.51 374.346 1
4 4 2 2925.51 1053.39 2
4 4 3 151376. 7702.64 2
-4 -4 -3 153165. 4148.75 1
-4 -4 -3 141095. 7473.48 2
4 4 3 146783. 4018.01 3
-4 -4 -4 7425.60 1934.38 2
4 4 4 10431.1 1229.23 1
-4 -4 -4 8835.85 1249.11 1
4 4 4 8664.97 1993.78 2
4 4 5 32897.1 2579.44 1
-4 -4 -5 26675.1 2478.37 1
-4 -4 -5 34031.4 4282.27 2
4 4 6 111524. 5723.57 1
-4 -4 -6 106176. 5537.48 1
-4 -4 -6 123877. 8260.13 2
4 4 7 36380.8 3797.33 1
-4 -4 -7 27447.1 3202.60 1
-4 -4 -7 35521.7 4844.82 2
4 4 8 10760.0 2501.47 1
4 4 9 20903.3 3675.85 1
4 4 10 19434.4 3729.22 1
4 4 11 -213.919 1737.14 1
-4 -5 9 26123.9 3435.34 1
-4 -5 8 3394.10 1477.92 1
-4 -5 7 -10.5396 810.104 1
-4 -5 6 76045.6 4706.93 1
-4 -5 5 4936.07 1539.42 3
-4 -5 5 3096.66 1039.78 1
-4 -5 4 18606.4 2400.98 2
-4 -5 4 16512.8 1854.14 1
-4 -5 4 17888.6 2023.61 3
-4 -5 3 106222. 5374.14 2
-4 -5 3 103421. 4224.41 1
-4 -5 3 100118. 3942.25 3
-4 -5 2 48327.5 3545.59 2
-4 -5 2 45436.9 2225.67 3
-4 -5 2 49287.1 2591.44 1
-4 -5 1 5485.23 624.531 3
-4 -5 1 5120.12 767.777 1
-4 -5 1 5400.84 1315.38 2
-4 -5 0 166075. 6631.75 2
-4 -5 0 153660. 3002.71 3
4 5 0 163631. 5491.16 3
4 5 1 21669.4 2340.47 2
-4 -5 -1 21099.1 2545.80 2
4 5 1 20199.0 1544.82 3
-4 -5 -1 19715.9 842.044 1
-4 -5 -2 2134.90 1035.58 2
4 5 2 1490.84 485.186 3
-4 -5 -2 1705.96 329.659 1
4 5 2 2717.96 1209.63 2
4 5 3 143018. 7373.54 2
-4 -5 -3 132033. 7511.74 2
-4 -5 -3 138408. 3683.39 1
4 5 3 133967. 4177.45 3
-4 -5 -4 75133.5 3261.83 1
-4 -5 -4 74466.2 6231.66 2
4 5 4 71708.9 3510.98 3
4 5 5 1294.47 639.475 3
-4 -5 -5 688.933 495.887 1
-4 -5 -5 1211.00 1449.67 2
-4 -5 -6 20534.0 3701.17 2
-4 -5 -6 20967.1 2271.38 1
4 5 6 20609.4 2501.31 3
-4 -5 -7 86190.3 7495.88 2
4 5 7 82113.1 5365.87 1
4 5 8 2764.27 1507.38 1
4 5 9 12075.7 2654.17 1
4 5 10 24404.5 4185.73 1
4 5 11 1468.05 1390.34 1
-4 -6 9 23617.3 3519.64 1
-4 -6 8 8646.30 2092.38 1
-4 -6 7 264.151 972.206 1
-4 -6 6 67756.7 4663.49 1
-4 -6 5 6626.66 1485.40 3
-4 -6 5 8507.91 1854.53 2
-4 -6 5 5142.14 1163.11 1
-4 -6 4 -23.1420 397.180 3
-4 -6 4 1021.09 824.003 1
-4 -6 4 713.261 882.725 2
-4 -6 3 23617.9 2732.92 2
-4 -6 3 20600.2 2139.40 1
-4 -6 3 20742.9 1947.40 3
-4 -6 2 53437.2 2677.10 3
-4 -6 2 58133.3 4124.71 2
-4 -6 2 49785.2 3012.44 1
-4 -6 1 10749.5 1039.16 3
-4 -6 1 13595.9 2026.21 2
-4 -6 1 9962.91 1301.69 1
-4 -6 0 19414.9 2015.62 1
-4 -6 0 23470.1 2674.38 2
-4 -6 0 22407.1 1414.88 3
4 6 0 20366.6 2326.10 3
-4 -6 -1 159671. 3376.65 1
4 6 1 163509. 6519.17 2
-4 -6 -1 160173. 7186.82 2
4 6 1 157075. 5266.45 3
-4 -6 -2 1641.97 886.733 2
4 6 2 917.438 554.171 3
-4 -6 -2 570.651 221.490 1
4 6 3 1172.73 623.070 3
-4 -6 -3 938.800 441.615 1
-4 -6 -4 148659. 9094.58 2
-4 -6 -4 134554. 4265.97 1
4 6 4 140796. 5205.44 3
4 6 5 4813.65 1143.84 3
-4 -6 -5 2902.11 1488.28 2
-4 -6 -5 3908.94 863.600 1
-4 -6 -6 36697.2 2895.25 1
4 6 6 37470.9 3375.30 3
4 6 7 19478.8 2790.83 3
-4 -6 -7 20051.5 4175.15 2
4 6 8 6431.01 1929.80 3
4 6 9 824.420 1678.30 3
4 6 10 25804.7 4376.01 3
-4 -7 8 7860.43 2036.10 1
-4 -7 7 1131.22 991.972 1
-4 -7 7 3172.42 1495.14 2
-4 -7 6 657.752 1010.29 1
-4 -7 6 1210.92 935.123 2
-4 -7 5 45942.8 4213.04 2
-4 -7 5 42912.2 3762.16 1
-4 -7 4 1136.16 791.238 3
-4 -7 4 4241.44 1304.45 1
-4 -7 4 4330.38 1470.56 2
-4 -7 3 36822.7 3580.30 2
-4 -7 3 33363.5 3065.52 1
-4 -7 3 31178.8 2558.68 3
-4 -7 2 35017.6 3435.72 2
-4 -7 2 30762.5 2829.00 1
-4 -7 2 31372.7 2273.63 3
4 7 -1 24753.2 3414.27 3
-4 -7 1 24170.3 2642.78 1
-4 -7 1 29869.9 3142.38 2
-4 -7 1 24096.8 1801.71 3
4 7 0 16855.3 2417.36 3
-4 -7 0 15319.6 2344.80 1
-4 -7 0 18839.0 2572.19 2
-4 -7 0 16292.6 1408.70 3
-4 -7 -1 126575. 3607.14 1
-4 -7 -1 120668. 6583.04 2
4 7 1 130833. 5604.92 3
-4 -7 -2 258.868 875.422 2
4 7 2 136.941 475.643 3
-4 -7 -2 -140.982 281.205 1
-4 -7 -3 4248.85 1467.12 2
4 7 3 6218.10 1243.65 3
-4 -7 -3 7347.21 999.002 1
4 7 4 12196.4 1753.07 3
-4 -7 -4 14302.1 3058.98 2
-4 -7 -4 9202.05 1177.16 1
4 7 5 290.864 602.585 3
-4 -7 -5 783.005 1430.85 2
-4 -7 -5 1222.73 580.780 1
4 7 6 2929.43 1125.64 3
-4 -7 -6 4265.49 2299.16 2
-4 -7 -6 1697.88 655.477 1
-4 -7 -7 149831. 10492.9 2
4 7 7 135865. 7247.81 3
4 7 8 5363.62 1846.43 3
4 7 9 2497.64 1580.44 3
4 7 10 1082.84 1528.00 3
-4 -8 7 5961.30 1907.02 2
-4 -8 6 5797.87 1586.19 1
-4 -8 6 8708.72 2043.87 2
-4 -8 5 12015.5 2311.16 1
-4 -8 5 9553.51 2011.99 2
-4 -8 4 3534.94 1446.48 1
-4 -8 4 4277.76 1440.55 2
-4 -8 3 1536.45 1181.88 2
-4 -8 3 231.148 837.569 1
-4 -8 2 94918.5 5927.50 1
-4 -8 2 97326.2 5970.80 2
-4 -8 1 42.2968 500.872 3
-4 -8 1 481.710 1088.39 1
-4 -8 1 -933.524 1093.42 2
-4 -8 0 388.504 354.132 3
4 8 0 511.199 822.876 3
-4 -8 0 -523.669 1421.95 1
-4 -8 0 -341.958 809.201 2
-4 -8 -1 5577.55 977.199 3
-4 -8 -1 6412.87 1872.81 2
4 8 1 4156.22 1399.16 3
-4 -8 -2 16789.5 2912.08 2
-4 -8 -2 18256.2 1623.17 1
4 8 2 17589.1 2304.16 3
4 8 3 5108.95 1369.05 3
-4 -8 -3 3463.95 778.677 1
-4 -8 -4 88257.3 7781.01 2
4 8 4 82253.9 4834.52 3
4 8 5 1088.15 830.149 3
-4 -8 -5 1993.37 1582.15 2
4 8 6 401.320 860.187 3
-4 -8 -6 607.153 1761.52 2
4 8 7 -403.145 841.549 3
-4 -8 -7 1739.56 1435.87 2
4 8 8 16754.7 2994.75 3
4 8 9 -1998.23 1056.41 3
4 8 10 13737.7 3382.25 3
-4 -9 6 54.8027 979.435 2
-4 -9 5 59226.9 5122.35 2
-4 -9 4 -551.832 984.291 2
-4 -9 3 3384.23 1350.79 2
-4 -9 3 2550.48 1110.35 1
-4 -9 2 -1778.34 1484.43 1
-4 -9 2 -533.538 1169.04 2
4 9 -1 9547.53 2274.62 3
-4 -9 1 18136.6 3371.94 1
-4 -9 1 14492.3 2400.28 2
4 9 0 4133.66 1244.89 3
-4 -9 0 6149.21 2039.90 1
-4 -9 0 7269.35 2007.14 2
4 9 1 88521.1 5935.52 3
-4 -9 -1 83246.5 6367.17 2
-4 -9 -2 -1552.37 2225.90 2
4 9 2 -218.922 819.124 3
-4 -9 -3 198.174 1682.91 2
4 9 3 1397.86 1057.18 3
4 9 4 3079.87 1197.63 3
-4 -9 -4 7158.02 2728.50 2
-4 -9 -5 22044.5 4545.42 2
4 9 5 23937.4 3037.12 3
4 9 6 3164.24 1258.83 3
-4 -9 -6 8855.48 3139.41 2
4 9 7 12218.4 2546.30 3
4 9 8 467.725 1246.31 3
4 9 9 -385.591 1251.96 3
-4 -10 4 8672.40 2255.76 2
-4 -10 3 4083.93 1544.77 2
-4 -10 2 19394.8 2951.86 2
-4 -10 1 969.954 1350.15 2
-4 -10 0 3767.48 1611.18 2
4 10 0 3764.69 1921.43 3
-4 -10 -1 976.863 1194.00 2
4 10 1 2982.60 1493.32 3
-4 -10 -2 35502.6 4947.95 2
4 10 2 33041.7 3849.03 3
-4 -10 -3 1185.04 1243.87 2
4 10 3 4773.48 1551.83 3
4 10 4 4397.88 1581.64 3
-4 -10 -4 4974.81 2233.08 2
4 10 5 -583.726 1125.25 3
-4 -10 -5 200.977 1480.22 2
4 10 6 221.336 968.151 3
-4 -10 -6 4135.76 2501.78 2
4 10 7 3408.23 1884.95 3
-5 8 4 8664.04 2214.50 3
-5 8 3 48808.2 4706.05 3
-5 8 2 -328.750 1338.64 3
-5 8 1 6425.69 1929.21 3
-5 8 0 379.519 1022.78 3
-5 8 -1 8010.09 2309.50 3
-5 8 -2 1348.37 1437.47 3
-5 7 6 28485.5 3669.30 3
-5 7 5 -222.602 1041.09 3
-5 7 4 19162.6 2903.21 3
-5 7 3 6410.01 1764.15 3
-5 7 2 23009.9 3063.69 3
-5 7 1 3374.33 1241.81 3
-5 7 0 24959.2 3316.95 3
-5 7 -1 16829.0 2910.42 3
-5 7 -2 5301.48 1922.88 3
-5 7 -3 1305.11 1234.10 3
-5 7 -4 24981.0 4237.43 3
5 -7 5 1404.36 1572.15 1
-5 6 7 43.1226 966.612 3
-5 6 6 1880.60 1150.88 3
-5 6 5 42584.9 3995.85 3
-5 6 4 2550.54 1279.70 3
-5 6 3 41235.1 3884.02 3
-5 6 2 3045.88 1245.90 3
-5 6 1 3339.99 1299.33 3
-5 6 0 172.233 899.693 3
-5 6 -1 91500.9 5941.75 3
-5 6 -2 -159.844 915.480 3
-5 6 -3 16432.0 3054.45 3
-5 6 -4 -1020.15 1539.91 3
5 -6 5 108.998 1568.36 1
5 -6 6 2883.24 2368.94 1
-5 5 8 34667.7 3845.90 3
-5 5 7 9171.17 2013.80 3
-5 5 6 31578.9 3317.05 3
-5 5 5 8467.88 1727.04 3
-5 5 5 10488.6 1478.63 2
-5 5 4 613.553 721.860 3
-5 5 4 -71.1029 414.994 2
-5 5 3 9745.14 1817.61 3
-5 5 3 9508.47 1218.17 2
-5 5 2 77794.3 3239.87 2
-5 5 2 75752.9 4792.88 3
-5 5 1 -920.193 752.789 2
-5 5 1 -1107.47 826.404 3
-5 5 0 11244.2 1913.02 3
-5 5 0 13810.1 1476.38 2
-5 5 -1 14873.6 2352.88 3
-5 5 -2 9121.21 2046.26 3
-5 5 -3 -3.68787 1016.14 3
-5 5 -4 56899.3 5723.92 3
5 -5 5 -1194.07 1681.22 1
5 -5 6 8374.22 2672.47 1
5 -5 7 22900.9 4252.06 1
-5 4 9 9739.00 2138.10 3
-5 4 8 26914.2 3326.01 3
-5 4 7 706.126 834.257 3
-5 4 6 6184.43 1535.91 3
-5 4 5 112202. 5712.05 3
-5 4 4 10992.3 1830.98 3
-5 4 4 10430.7 1481.30 2
-5 4 3 4440.15 1218.24 3
-5 4 3 5299.02 933.743 2
-5 4 2 71429.8 3301.41 2
-5 4 2 67829.2 4171.95 3
-5 4 1 12120.1 1817.00 3
-5 4 1 13023.1 1503.20 2
-5 4 0 -1283.27 894.555 2
-5 4 0 -444.964 823.405 3
-5 4 -1 110330. 5097.05 2
-5 4 -1 93911.7 5264.80 3
-5 4 -2 10993.5 2118.25 3
-5 4 -2 13835.6 1923.23 2
5 -4 2 7396.21 1257.01 2
-5 4 -3 5423.03 1740.36 3
5 -4 3 5438.56 1347.09 2
-5 4 -4 49804.5 5175.51 3
5 -4 4 57754.3 6260.00 1
5 -4 4 63998.1 4742.99 2
5 -4 5 31952.4 5103.31 1
5 -4 5 36952.4 3697.30 2
5 -4 6 2349.12 1747.20 1
5 -4 7 19704.3 3912.77 1
5 -4 8 18703.8 3726.09 1
-5 3 9 3107.82 1343.23 3
-5 3 8 51325.9 4329.45 3
-5 3 7 9068.30 1710.85 3
-5 3 6 7177.38 1552.59 3
-5 3 5 99171.0 5006.20 3
-5 3 4 27728.7 2386.90 2
-5 3 4 30021.7 2695.72 3
-5 3 3 2000.78 809.207 3
-5 3 3 2575.35 798.369 2
-5 3 2 19825.6 1853.43 2
5 -3 -2 16212.4 2045.29 3
-5 3 2 19323.9 2067.72 3
-5 3 1 42875.0 2682.80 2
5 -3 -1 39071.8 3030.57 3
-5 3 1 39917.4 2928.59 3
-5 3 0 6940.00 1208.33 2
5 -3 0 5855.04 1276.77 3
-5 3 0 6980.07 1339.32 3
5 -3 1 66152.1 4432.83 3
-5 3 -1 64473.0 4019.61 2
-5 3 -1 68731.2 4162.07 3
5 -3 2 115998. 5350.57 2
5 -3 2 128358. 6798.40 3
-5 3 -2 131531. 6363.10 3
-5 3 -3 4352.22 1300.50 2
-5 3 -3 3505.40 981.113 3
5 -3 3 3441.00 1223.35 2
5 -3 4 4760.22 1684.09 1
5 -3 4 6082.21 1650.78 2
5 -3 5 40460.5 5038.46 1
5 -3 5 44176.5 4171.10 2
5 -3 6 -2679.14 1869.57 1
5 -3 7 47612.4 5482.47 1
5 -3 8 25399.8 4155.30 1
5 -3 9 1345.64 1956.67 1
-5 2 10 13793.0 2708.86 3
-5 2 9 3475.43 1401.53 3
-5 2 8 71878.8 5006.36 3
-5 2 7 10913.3 1827.44 3
-5 2 6 1010.33 745.163 3
-5 2 5 21566.8 2262.09 3
-5 2 4 58566.5 3424.67 3
-5 2 3 -240.726 574.255 3
5 -2 -3 623.613 610.000 1
-5 2 3 1913.84 742.766 2
5 -2 -2 141318. 5533.40 1
-5 2 2 143671. 5034.48 2
5 -2 -2 137191. 5205.44 3
-5 2 2 147526. 5066.94 3
-5 2 1 53238.7 3068.76 2
5 -2 -1 53702.6 3188.53 3
-5 2 1 54704.5 3037.62 3
-5 2 0 17076.9 1824.71 2
5 -2 0 14104.6 1713.63 3
-5 2 0 14245.8 1673.39 3
5 -2 1 21553.4 2109.40 2
-5 2 -1 23580.3 2369.79 2
5 -2 1 20925.8 2250.99 3
-5 2 -1 25281.1 2423.88 3
5 -2 2 259977. 8655.80 2
-5 2 -2 294074. 9465.56 2
5 -2 2 280760. 9182.78 3
-5 2 -2 284251. 8990.11 3
5 -2 3 -68.6091 621.227 3
-5 2 -3 97.9167 857.912 2
-5 2 -3 -2071.68 1710.40 3
5 -2 3 -766.718 791.229 2
5 -2 4 11388.6 2333.68 3
-5 2 -4 16024.2 2643.63 2
5 -2 4 12046.6 2517.48 1
5 -2 4 14771.9 2469.71 2
5 -2 5 27728.3 3826.36 1
5 -2 6 282.476 1419.27 1
5 -2 7 2591.45 1520.03 1
5 -2 8 142346. 8917.55 1
5 -2 9 660.554 1362.80 1
-5 1 10 16109.1 2800.08 3
-5 1 9 3568.48 1440.38 3
-5 1 8 -94.1796 792.891 3
-5 1 7 90219.6 5062.48 3
-5 1 6 3850.04 998.546 3
-5 1 5 48286.4 3077.68 3
-5 1 4 27787.7 2183.84 3
5 -1 -4 28379.6 2635.16 1
5 -1 -3 10874.0 1542.81 1
-5 1 3 9681.78 1534.41 2
-5 1 3 10287.5 1315.46 3
-5 1 2 499.655 512.850 3
5 -1 -2 61.0140 371.106 1
-5 1 2 286.493 494.072 2
-5 1 1 262352. 6947.22 2
5 -1 -1 261585. 6174.18 3
-5 1 1 243333. 5699.95 3
5 -1 0 -586.922 601.444 3
-5 1 0 -466.292 646.020 3
-5 1 0 -739.272 792.919 2
5 -1 1 13644.3 1859.22 2
-5 1 -1 13689.1 1879.30 2
5 -1 1 11870.3 1520.34 3
-5 1 -1 11831.6 1598.69 3
5 -1 2 52708.7 4087.99 2
-5 1 -2 51010.0 3975.29 2
5 -1 2 50536.8 3580.70 3
-5 1 -2 49687.4 3639.39 3
5 -1 3 65743.4 5272.66 1
5 -1 3 63569.9 5044.63 2
-5 1 -3 73660.3 5155.58 2
5 -1 3 62733.8 4536.58 3
5 -1 4 258.428 782.424 3
-5 1 -4 1774.89 1278.89 2
5 -1 4 559.809 1028.72 1
5 -1 4 242.764 762.725 2
5 -1 5 194017. 9031.01 1
-5 1 -5 202588. 9226.89 2
5 -1 5 207913. 9112.31 3
5 -1 6 6130.54 1855.58 1
5 -1 7 2974.17 1569.08 1
5 -1 8 2032.24 1405.58 1
5 -1 9 31547.9 4396.46 1
5 -1 10 274.096 1280.49 1
-5 0 10 58242.4 5430.44 1
-5 0 10 57791.6 5059.93 3
-5 0 9 -446.880 877.744 3
-5 0 9 281.551 947.533 1
-5 0 8 32875.1 3455.55 1
-5 0 8 32603.4 3307.80 3
-5 0 7 4082.44 1203.32 3
-5 0 6 14658.5 1809.01 3
-5 0 5 11262.0 1432.25 3
5 0 -5 10948.6 1847.24 1
-5 0 4 280357. 6367.64 3
5 0 -4 294292. 8369.34 1
-5 0 3 15823.7 1899.59 2
-5 0 3 18557.3 1568.20 3
5 0 -3 18248.4 1920.97 1
-5 0 2 710.622 397.088 3
5 0 -2 427.136 381.624 1
-5 0 2 -28.1305 655.143 2
5 0 -1 11320.6 1258.92 1
-5 0 1 11598.3 1572.66 2
-5 0 1 11893.8 1087.58 3
-5 0 0 94731.8 4449.51 2
5 0 0 93240.7 3094.48 3
-5 0 0 104275. 3471.85 3
5 0 1 6780.33 1331.47 2
-5 0 -1 7293.58 1111.60 3
5 0 1 8665.38 1074.27 3
-5 0 -1 9446.03 1629.84 2
5 0 2 344226. 9727.67 1
5 0 2 357427. 10762.4 2
-5 0 -2 343293. 10123.8 2
5 0 2 355397. 8248.01 3
-5 0 -3 -1702.74 1275.40 2
5 0 3 423.769 673.965 3
5 0 3 238.031 595.205 1
5 0 3 -146.464 1092.04 2
-5 0 -4 582.244 931.442 2
5 0 4 583.978 624.283 3
5 0 4 21.0371 671.575 1
5 0 4 2513.81 1347.82 2
5 0 5 15644.9 2561.15 1
-5 0 -5 17578.2 2842.04 2
5 0 5 18777.2 2623.37 3
-5 0 -6 87309.0 6525.76 2
5 0 6 86192.1 5995.03 1
5 0 7 524.852 1092.22 1
5 0 8 76599.0 6319.67 1
5 0 9 696.596 1118.73 1
5 0 10 3808.02 1809.78 1
-5 -1 10 2369.96 1431.24 1
-5 -1 9 15101.5 2548.64 1
-5 -1 8 902.268 892.887 1
-5 -1 7 162308. 6836.54 1
-5 -1 6 -156.524 609.764 1
-5 -1 5 747.362 543.281 3
-5 -1 5 1065.54 647.961 1
5 1 -5 1948.21 1018.21 1
5 1 -4 23286.0 2521.71 1
-5 -1 4 22722.1 1717.95 3
-5 -1 3 109588. 4877.25 2
5 1 -3 118430. 4871.99 1
-5 -1 3 116344. 3427.14 3
-5 -1 2 10239.0 1520.64 2
-5 -1 2 12573.0 983.990 3
5 1 -2 10978.9 1290.10 1
-5 -1 1 276026. 7596.09 2
-5 -1 1 271829. 4096.21 3
5 1 -1 272736. 5306.08 1
-5 -1 0 1397.78 357.067 3
5 1 0 1992.78 460.820 1
-5 -1 0 1747.81 809.064 2
5 1 1 61171.9 4064.35 2
-5 -1 -1 68106.7 4232.83 2
5 1 1 63385.8 2166.49 3
-5 -1 -2 4016.09 1290.11 2
5 1 2 2919.27 765.092 3
5 1 2 4326.97 1091.00 1
5 1 2 4023.90 1387.41 2
5 1 3 127815. 7485.11 2
-5 -1 -3 135618. 7216.43 2
5 1 3 151798. 5939.45 3
5 1 4 9102.49 1822.22 1
-5 -1 -4 6473.39 1692.92 2
5 1 4 8883.17 1705.30 3
5 1 5 101840. 6029.81 1
-5 -1 -5 98285.5 6850.15 2
5 1 5 105634. 6065.61 3
5 1 6 3219.37 1095.24 3
-5 -1 -6 1347.83 1450.43 2
5 1 6 3927.77 1568.51 1
5 1 7 11658.5 2519.27 1
5 1 8 11056.9 2496.25 1
5 1 9 106829. 7705.93 1
5 1 10 -1725.08 1767.20 1
5 1 11 -210.275 1110.02 1
-5 -2 10 51762.4 4975.59 1
-5 -2 9 8840.11 2010.92 1
-5 -2 8 -83.7079 744.285 1
-5 -2 7 11176.2 1997.96 1
-5 -2 6 51587.4 3586.51 1
-5 -2 5 1367.18 742.936 1
5 2 -5 468.002 997.751 1
-5 -2 4 126800. 4248.87 1
-5 -2 4 124739. 5529.97 2
5 2 -4 136623. 7257.91 1
5 2 -3 8602.79 1708.13 1
-5 -2 3 6945.40 775.258 3
-5 -2 3 7846.09 1481.65 2
-5 -2 2 25102.3 2463.03 2
5 2 -2 26366.7 2325.35 1
-5 -2 2 27108.1 1154.09 3
-5 -2 1 62332.6 3786.62 2
5 2 -1 59705.3 2643.43 1
-5 -2 0 333948. 8900.91 2
5 2 1 91250.7 5018.83 2
-5 -2 -1 88927.0 4943.07 2
5 2 2 37949.5 3706.59 2
-5 -2 -2 37557.1 3522.02 2
5 2 2 32998.0 1869.15 1
5 2 2 36935.1 1885.47 3
5 2 3 49694.3 4689.70 2
-5 -2 -3 52352.7 4550.89 2
5 2 3 45297.7 2884.45 1
-5 -2 -4 6925.92 1722.27 2
5 2 4 10474.5 1702.17 3
5 2 4 5829.55 1225.78 1
-5 -2 -5 12908.5 2645.22 2
5 2 5 10646.1 2023.55 3
5 2 5 8565.55 1813.40 1
-5 -2 -6 129431. 8093.54 2
5 2 6 109098. 6541.18 1
5 2 6 126157. 7803.18 3
-5 -2 -7 5600.80 2151.97 2
5 2 7 448.917 1037.46 1
5 2 8 1275.49 1063.10 1
5 2 9 24158.6 3893.28 1
5 2 10 12160.5 2698.18 1
5 2 11 47.2516 1242.95 1
-5 -3 10 11168.2 2424.61 1
-5 -3 9 16620.3 2650.01 1
-5 -3 8 4534.41 1610.81 1
-5 -3 7 53328.8 4027.37 1
-5 -3 6 17198.2 2116.37 1
-5 -3 5 36910.0 2719.88 1
5 3 -5 23996.5 4508.92 1
-5 -3 4 13073.3 1423.66 1
-5 -3 4 9919.60 1787.76 3
5 3 -4 8216.65 2336.66 1
-5 -3 4 13270.7 1984.76 2
-5 -3 3 147004. 3781.65 1
-5 -3 3 160225. 6398.43 2
5 3 -3 158958. 8572.70 1
-5 -3 3 145458. 5014.37 3
5 3 -2 38566.0 3054.86 1
-5 -3 2 41497.0 3255.01 2
-5 -3 2 41976.5 1138.48 3
-5 -3 2 33852.0 1205.38 3
-5 -3 1 23980.3 2473.38 2
-5 -3 0 92715.7 4893.97 2
5 3 1 52078.1 3861.45 2
-5 -3 -1 52081.3 3953.17 2
-5 -3 -2 4391.93 1434.75 2
5 3 2 2558.89 295.766 3
5 3 2 2027.60 379.667 3
5 3 2 3346.88 1314.48 2
5 3 3 206350. 4185.12 1
-5 -3 -3 190051. 8842.09 2
5 3 4 73542.2 3553.90 1
-5 -3 -4 72863.5 5848.80 2
-5 -3 -5 2833.36 1313.64 2
5 3 5 3288.54 1135.00 1
-5 -3 -6 45492.7 4251.67 1
5 3 6 46899.8 4090.41 1
-5 -3 -7 26816.4 3737.19 1
-5 -3 -7 36816.8 4801.66 2
5 3 7 26199.8 3459.82 1
5 3 8 5403.85 1514.17 1
5 3 9 24119.6 3884.05 1
5 3 10 4333.15 2332.83 1
5 3 11 1247.42 1655.23 1
-5 -4 10 3923.68 1421.18 1
-5 -4 9 9987.35 2108.64 1
-5 -4 8 995.472 866.665 1
-5 -4 7 26788.7 2883.84 1
-5 -4 6 66598.0 4174.43 1
-5 -4 5 50188.0 3253.30 1
5 4 -5 48071.2 6529.12 1
-5 -4 5 45778.6 3879.31 2
-5 -4 5 41494.4 3895.63 3
-5 -4 4 2756.26 869.036 3
-5 -4 4 1753.95 584.240 1
-5 -4 4 1109.24 1045.61 2
-5 -4 3 57153.9 2409.42 1
-5 -4 3 63198.5 4268.15 2
-5 -4 3 55647.3 2489.66 3
-5 -4 2 13064.5 861.206 1
-5 -4 2 11709.9 661.056 3
-5 -4 1 -221.182 702.561 2
-5 -4 0 162937. 6797.04 2
-5 -4 -1 103053. 5684.00 2
-5 -4 -2 1277.11 958.584 2
-5 -4 -3 126092. 7304.66 2
5 4 3 125811. 3410.45 3
-5 -4 -4 25548.8 3583.76 2
-5 -4 -4 19859.1 1979.56 1
5 4 4 27237.5 2111.50 3
-5 -4 -5 6995.29 1968.43 2
-5 -4 -5 5461.41 1269.10 1
5 4 5 7854.39 1361.52 1
-5 -4 -6 16129.2 3306.56 2
5 4 6 14018.4 2114.57 1
-5 -4 -6 10093.8 2041.87 1
5 4 7 34476.4 3838.10 1
-5 -4 -7 27569.8 3630.50 1
-5 -4 -7 37332.1 4861.32 2
5 4 8 4328.59 1774.54 1
5 4 9 12648.1 2916.37 1
5 4 10 10905.5 2775.39 1
5 4 11 8022.15 2699.54 1
-5 -5 9 18138.8 2764.57 1
-5 -5 8 22016.3 2853.39 1
-5 -5 7 2498.62 1320.52 1
-5 -5 6 42659.4 4110.25 2
-5 -5 6 43255.5 3413.14 1
-5 -5 5 24679.2 2994.50 2
-5 -5 5 27202.7 2509.49 1
-5 -5 4 7020.29 1149.64 1
-5 -5 4 5181.87 984.858 3
-5 -5 4 8317.31 1840.43 2
-5 -5 3 41856.9 3659.49 2
-5 -5 3 34147.3 1996.62 3
-5 -5 3 39026.5 2215.20 1
-5 -5 2 75396.9 2062.60 3
-5 -5 2 84618.4 2438.35 1
-5 -5 1 2.41831 783.043 2
-5 -5 0 171658. 7364.54 2
-5 -5 -1 25849.8 3068.06 2
-5 -5 -2 115943. 6663.32 2
5 5 2 90885.7 2558.87 3
-5 -5 -3 22647.6 3219.62 2
5 5 3 20206.4 1508.14 3
-5 -5 -4 25918.5 3652.39 2
-5 -5 -4 24722.0 2073.01 1
5 5 4 28824.5 2129.01 3
5 5 5 4943.31 1059.89 3
-5 -5 -5 3683.28 1770.21 2
-5 -5 -5 2222.83 792.800 1
-5 -5 -6 45267.9 3679.46 1
-5 -5 -6 55169.8 5896.34 2
5 5 6 47476.1 3898.10 3
5 5 7 23704.8 3064.52 1
-5 -5 -7 25515.0 4120.94 2
5 5 8 44256.9 4635.19 1
5 5 9 -623.783 1072.24 1
5 5 10 24490.0 4008.98 1
5 5 11 -3868.14 2179.98 1
-5 -6 7 7186.75 1648.73 1
-5 -6 7 8183.42 2156.51 2
-5 -6 6 11927.0 2338.34 2
-5 -6 6 11712.6 1904.82 1
-5 -6 5 27093.4 3320.50 2
-5 -6 5 25145.1 2467.68 1
-5 -6 4 10491.1 2159.27 2
-5 -6 4 12524.5 1580.10 1
-5 -6 3 78700.3 5331.68 2
-5 -6 3 74162.1 3349.41 1
-5 -6 3 67865.1 2971.44 3
-5 -6 2 4432.33 641.694 3
-5 -6 2 4606.65 789.418 1
-5 -6 2 5758.32 1591.31 2
-5 -6 1 53709.0 1713.30 3
-5 -6 1 55546.1 1751.71 1
-5 -6 0 535.755 816.827 2
-5 -6 -1 154784. 7686.80 2
5 6 1 154127. 4380.37 3
-5 -6 -2 6778.71 1769.09 2
5 6 2 3351.05 695.504 3
-5 -6 -3 6908.91 1737.27 2
5 6 3 8033.67 1114.30 3
-5 -6 -3 7944.94 829.188 1
-5 -6 -4 16111.4 3104.60 2
-5 -6 -4 17027.4 1602.17 1
5 6 4 21419.1 2026.64 3
-5 -6 -5 41868.9 2871.56 1
-5 -6 -5 46705.0 5390.99 2
5 6 5 38675.8 2969.57 3
5 6 6 5264.01 1366.18 3
-5 -6 -6 6634.66 2238.29 2
-5 -6 -7 40734.0 5444.17 2
5 6 7 33159.5 3652.34 3
5 6 8 1769.33 1297.03 3
5 6 9 -301.335 1253.07 3
5 6 10 -1741.12 1771.75 3
-5 -7 6 19842.8 3047.65 2
-5 -7 5 6289.54 1369.20 1
-5 -7 5 6108.69 1855.46 2
-5 -7 4 68526.9 5256.73 2
-5 -7 4 59947.4 3630.82 1
-5 -7 3 -815.267 610.329 1
-5 -7 3 1901.90 1417.99 2
-5 -7 2 71859.7 5289.79 2
-5 -7 2 67423.8 3116.41 1
-5 -7 1 8749.99 1011.70 1
-5 -7 1 7671.69 1799.91 2
-5 -7 0 19677.6 998.125 1
-5 -7 0 19422.8 1246.58 1
-5 -7 0 21739.4 2955.40 2
5 7 1 1482.93 645.944 3
-5 -7 -1 1565.34 302.693 1
-5 -7 -1 2536.19 328.064 1
-5 -7 -2 97658.3 6738.29 2
-5 -7 -2 90292.6 2243.06 1
5 7 2 92481.7 4260.43 3
5 7 3 2232.84 911.757 3
-5 -7 -3 956.100 382.465 1
-5 -7 -4 56755.9 5862.51 2
5 7 4 56420.6 3554.90 3
5 7 5 2652.98 975.951 3
-5 -7 -5 3859.75 1846.64 2
5 7 6 7800.02 1694.49 3
-5 -7 -6 7187.65 2386.77 2
5 7 7 2751.41 1284.99 3
-5 -7 -7 1937.36 1675.26 2
5 7 8 26018.7 3671.40 3
5 7 9 -449.391 1556.23 3
5 7 10 13874.1 3212.50 3
-5 -8 6 4458.04 1659.90 2
-5 -8 5 20630.2 3157.69 2
-5 -8 4 6571.27 1987.72 2
-5 -8 3 2376.10 1305.74 2
-5 -8 2 1312.73 1115.48 2
-5 -8 1 68357.3 5456.83 2
-5 -8 0 -1639.76 1061.91 2
-5 -8 -1 48704.8 4781.72 2
5 8 1 51941.5 4062.16 3
-5 -8 -2 6583.31 1889.32 2
5 8 2 7443.26 1336.31 3
-5 -8 -3 8394.19 1948.67 2
5 8 3 10522.1 1659.69 3
5 8 4 900.092 586.442 3
-5 -8 -4 -1905.42 2046.66 2
-5 -8 -5 29385.0 4641.86 2
5 8 5 27563.2 2965.48 3
5 8 6 1649.02 944.698 3
-5 -8 -6 370.933 1310.78 2
5 8 7 15005.9 2625.71 3
-5 -8 -7 19307.6 4096.88 2
5 8 8 2867.43 1498.00 3
-5 -9 5 2320.23 1319.03 2
-5 -9 4 18350.2 2987.53 2
-5 -9 3 964.655 1242.88 2
-5 -9 2 52055.8 4996.42 2
-5 -9 1 18204.0 3072.79 2
-5 -9 0 15081.2 2872.04 2
-5 -9 -1 364.083 1066.83 2
-5 -9 -2 21264.3 3565.16 2
-5 -9 -3 4218.25 1635.70 2
-5 -9 -4 14245.1 3458.08 2
-5 -9 -5 2969.46 2118.35 2
-5 -9 -6 19048.8 4166.53 2
-5 -9 -7 4024.03 2582.95 2
-5 -10 4 4782.69 1804.61 2
-5 -10 3 8685.50 2358.86 2
-5 -10 2 1958.04 1081.36 2
-5 -10 1 11662.6 2682.62 2
-5 -10 0 8441.66 2469.53 2
-5 -10 -1 5865.09 1971.34 2
-5 -10 -2 2292.52 1366.06 2
-5 -10 -3 14133.3 3268.61 2
-5 -10 -4 2720.62 1938.67 2
-5 -10 -5 15880.0 3744.19 2
-5 -10 -6 19448.8 4299.66 2
-5 -11 -1 1797.04 1873.43 2
-5 -11 -2 4418.07 1429.72 2
-5 -11 -3 16877.2 4169.05 2
-5 -11 -4 -1946.29 1980.72 2
-6 7 4 215.332 877.083 3
-6 7 3 14879.3 2621.28 3
-6 7 2 -579.284 889.266 3
-6 7 1 111.168 942.396 3
-6 7 0 9626.93 2204.99 3
-6 7 -1 40046.3 4541.23 3
-6 7 -2 5768.78 1936.56 3
-6 7 -3 8082.48 2498.08 3
-6 6 6 28221.9 3467.05 3
-6 6 5 5776.66 1758.52 3
-6 6 4 6159.77 1710.46 3
-6 6 3 8820.08 1910.61 3
-6 6 2 37447.3 3795.52 3
-6 6 1 5274.82 1595.38 3
-6 6 0 9856.31 2103.35 3
-6 6 -1 16358.0 2828.91 3
-6 6 -2 10432.5 2429.19 3
-6 6 -3 1609.60 1264.95 3
-6 6 -4 32596.4 4679.66 3
6 -6 4 43329.8 6345.68 1
6 -6 5 1332.06 1612.45 1
-6 5 7 638.341 840.112 3
-6 5 6 17095.9 2581.55 3
-6 5 5 26824.6 2542.22 2
-6 5 5 27552.4 3215.80 3
-6 5 4 4000.63 1328.81 3
-6 5 4 3425.76 953.808 2
-6 5 3 1328.97 989.323 3
-6 5 3 748.983 536.042 2
-6 5 2 24630.2 2153.38 2
-6 5 2 24563.9 2899.58 3
-6 5 1 15210.3 2338.13 3
-6 5 1 16795.1 1806.42 2
-6 5 0 2327.46 665.463 2
-6 5 0 931.322 739.067 3
-6 5 -1 59361.6 3645.47 2
-6 5 -1 59057.1 4851.30 3
-6 5 -2 24783.1 3354.30 3
-6 5 -3 489.626 1215.21 3
-6 5 -4 27722.0 4150.80 3
6 -5 4 25275.0 4839.85 1
6 -5 5 8053.47 3089.93 1
6 -5 6 588.212 1474.17 1
-6 4 8 15969.8 2662.48 3
-6 4 7 11363.0 2059.58 3
-6 4 6 486.880 757.518 3
-6 4 6 -125.471 594.189 2
-6 4 5 16857.2 2370.34 3
-6 4 5 19538.5 2299.78 2
-6 4 4 6237.27 1490.84 3
-6 4 4 5629.84 1196.62 2
-6 4 3 358.551 724.246 3
-6 4 3 851.325 690.881 2
-6 4 2 69186.6 3763.85 2
-6 4 2 69182.4 4420.45 3
-6 4 1 46206.0 3158.48 2
-6 4 1 44149.6 3557.94 3
-6 4 0 219.274 825.049 2
-6 4 0 738.589 909.921 3
-6 4 -1 132004. 6076.90 2
-6 4 -1 113045. 6135.93 3
-6 4 -2 13302.8 2050.82 2
-6 4 -2 9781.30 2092.41 3
-6 4 -3 13218.0 2693.16 3
6 -4 4 7880.33 2187.64 1
6 -4 5 30782.4 4894.94 1
6 -4 6 11341.1 3103.80 1
6 -4 7 24167.6 4242.63 1
-6 3 9 2490.47 1156.61 3
-6 3 8 23292.0 2979.48 3
-6 3 7 1715.99 1067.04 3
-6 3 6 2535.00 871.729 3
-6 3 5 19798.3 2278.29 2
-6 3 5 17520.3 2268.45 3
-6 3 4 30788.4 2765.35 2
-6 3 4 29453.7 2792.71 3
-6 3 3 4701.53 1197.29 3
-6 3 3 4999.20 1152.66 2
-6 3 2 50675.2 3368.32 2
-6 3 2 47591.1 3362.95 3
-6 3 1 20546.2 2172.81 2
6 -3 -1 18363.4 2310.12 3
-6 3 1 19940.2 2224.29 3
-6 3 0 13436.2 1868.28 3
-6 3 0 15776.6 2033.97 2
6 -3 0 16008.6 2253.73 3
-6 3 -1 1690.38 795.962 2
-6 3 -1 2871.45 1199.33 3
-6 3 -2 112943. 6108.86 2
-6 3 -2 99175.7 5991.79 3
-6 3 -3 1196.90 912.266 2
-6 3 -3 -1001.02 1682.01 3
6 -3 3 1009.20 632.153 2
6 -3 4 51302.8 5741.12 1
6 -3 4 46427.1 4504.75 2
-6 3 -4 62263.2 4910.67 2
6 -3 5 17578.5 3688.91 1
6 -3 6 51307.7 5718.64 1
6 -3 7 5448.73 2190.80 1
6 -3 8 24575.6 4170.34 1
-6 2 9 1942.22 1056.44 3
-6 2 8 5069.83 1525.72 3
-6 2 7 35475.0 3289.64 3
-6 2 6 2399.66 997.974 3
-6 2 5 45568.6 3417.21 2
-6 2 5 46072.4 3372.76 3
-6 2 4 5095.75 1118.40 3
-6 2 4 5758.76 1247.45 2
-6 2 3 88995.4 4635.09 2
-6 2 3 87941.7 4314.57 3
-6 2 2 2658.91 799.586 3
6 -2 -2 1703.20 773.009 1
-6 2 2 2597.88 823.347 2
-6 2 1 94491.5 4669.55 2
6 -2 -1 88065.5 4498.67 3
-6 2 1 87732.9 4174.71 3
6 -2 0 -369.703 638.538 3
-6 2 0 822.919 572.350 3
-6 2 -1 63929.3 4358.20 2
6 -2 1 60669.7 4085.15 3
-6 2 -1 67382.9 4249.82 3
6 -2 2 786.533 804.042 3
-6 2 -2 159.081 986.240 2
-6 2 -2 140.491 828.931 3
6 -2 2 1119.13 851.100 2
6 -2 3 56525.7 4964.30 2
-6 2 -3 70487.1 5121.08 2
6 -2 3 66738.8 5206.19 3
-6 2 -4 3344.51 1363.91 2
6 -2 4 -651.992 1414.16 1
6 -2 5 135702. 8410.72 1
-6 2 -5 145883. 7977.41 2
6 -2 6 -451.963 1278.72 1
6 -2 7 2677.44 1480.37 1
6 -2 8 116.564 988.533 1
6 -2 9 40165.6 4960.54 1
-6 1 10 8236.74 1978.77 3
-6 1 9 -1593.27 1345.51 3
-6 1 8 19610.6 2545.18 3
-6 1 7 3482.42 1215.78 3
-6 1 6 59929.0 3730.00 3
-6 1 5 272.606 467.032 3
-6 1 5 87.6832 557.118 2
-6 1 4 59593.2 3919.54 2
-6 1 4 70816.1 3692.12 3
6 -1 -4 63750.0 4277.03 1
-6 1 3 147.535 471.650 3
6 -1 -3 439.327 536.240 1
-6 1 3 -206.473 712.227 2
6 -1 -2 14715.9 1898.69 1
-6 1 2 14543.9 1940.03 2
-6 1 2 12816.2 1507.50 3
6 -1 -1 -368.762 553.377 3
-6 1 1 -491.236 522.089 3
6 -1 -1 -586.256 654.617 1
-6 1 1 544.917 680.522 2
-6 1 0 146398. 6138.30 2
6 -1 0 138042. 4966.02 3
-6 1 0 151638. 5249.12 3
-6 1 -1 85.0046 806.865 2
6 -1 1 1069.32 586.482 3
-6 1 -1 87.9023 653.053 3
6 -1 1 1034.23 835.153 2
6 -1 2 117043. 6480.23 2
-6 1 -2 119417. 6494.83 2
6 -1 2 118850. 5672.10 3
-6 1 -2 112824. 5949.56 3
6 -1 3 5536.28 1427.19 3
-6 1 -3 6522.86 1669.60 2
6 -1 3 5014.59 1610.00 1
6 -1 4 5786.38 1550.65 3
-6 1 -4 6983.50 2061.63 2
6 -1 4 6466.50 1879.64 1
-6 1 -5 1716.07 1328.57 2
6 -1 5 -1958.80 1642.46 1
6 -1 6 87022.6 6242.36 1
6 -1 7 1529.60 1352.41 1
6 -1 8 42568.4 4777.51 1
6 -1 9 2545.02 1502.87 1
-6 0 9 25094.2 3176.30 3
-6 0 8 1210.01 680.312 3
-6 0 7 43018.7 3301.69 3
-6 0 6 7756.04 1296.49 3
-6 0 5 144.072 454.787 3
-6 0 5 305.514 573.827 2
6 0 -4 8955.69 1656.07 1
-6 0 4 7457.98 1433.24 2
-6 0 4 12058.2 1432.11 3
-6 0 3 87639.4 4744.21 2
-6 0 3 97537.0 3680.56 3
6 0 -3 90712.2 4576.32 1
6 0 -2 10739.8 1465.21 1
-6 0 2 10868.0 1806.67 2
-6 0 2 11018.5 1161.95 3
6 0 -1 186564. 5659.96 1
-6 0 1 195547. 7018.37 2
-6 0 1 204877. 4975.40 3
-6 0 0 84864.5 4750.81 2
6 0 0 80828.2 3277.57 3
-6 0 0 89371.0 3702.41 3
-6 0 -1 9802.68 1775.95 2
6 0 1 8279.44 1151.49 3
-6 0 -1 5916.65 1070.27 3
6 0 1 9732.08 1765.91 2
-6 0 -2 9000.16 1766.49 2
6 0 2 10390.0 1479.82 3
6 0 2 7615.35 1641.27 1
6 0 2 9974.98 2132.34 2
-6 0 -3 126733. 7241.14 2
6 0 3 119788. 5874.88 3
-6 0 -4 1712.87 1156.28 2
6 0 4 2491.91 1004.19 3
6 0 4 2767.68 1154.93 1
6 0 5 36138.9 3655.99 1
-6 0 -5 29355.4 3789.10 2
6 0 5 27506.7 3293.24 3
6 0 6 10011.9 2180.96 1
-6 0 -6 11632.8 2549.18 2
6 0 7 41454.3 4416.88 1
6 0 8 10509.8 2381.39 1
6 0 9 50789.1 5203.51 1
6 0 10 8375.67 2325.99 1
-6 -1 9 11155.4 2104.54 3
-6 -1 8 864.683 820.283 3
-6 -1 7 -251.158 587.906 3
-6 -1 6 76260.3 3856.57 3
-6 -1 5 8010.57 1122.43 3
6 1 -5 8177.37 1859.95 1
-6 -1 5 7300.02 1598.85 2
-6 -1 4 48099.6 3683.74 2
6 1 -4 48212.1 3963.84 1
-6 -1 4 50028.4 2576.71 3
6 1 -3 12172.4 1760.18 1
-6 -1 3 8701.84 1634.98 2
-6 -1 3 11359.8 1146.50 3
-6 -1 2 29980.2 2851.19 2
6 1 -2 30398.4 2360.81 1
-6 -1 2 29316.5 1570.98 3
-6 -1 1 19532.5 2307.47 2
-6 -1 1 19982.0 1288.75 3
6 1 -1 18933.3 1609.32 1
6 1 0 94175.3 3248.25 1
-6 -1 0 94801.9 5104.83 2
-6 -1 -1 22083.6 2677.18 2
6 1 1 20276.8 1347.79 3
6 1 2 91058.6 4459.83 1
-6 -1 -2 82375.4 5407.37 2
6 1 2 76952.3 3330.57 3
-6 -1 -3 22787.8 3109.21 2
6 1 3 26505.3 2475.92 3
6 1 4 185421. 7238.16 1
6 1 4 179245. 7088.39 3
-6 -1 -5 17602.2 3040.92 2
6 1 5 21606.7 2767.99 1
6 1 5 18816.1 2480.43 3
6 1 6 69204.9 5123.62 1
-6 -1 -6 65292.3 5817.03 2
6 1 7 64846.0 5236.62 1
-6 -1 -7 61864.3 5891.82 2
6 1 8 -1813.41 1304.34 1
6 1 9 10142.7 2414.23 1
6 1 10 25192.5 3773.96 1
-6 -2 9 21307.1 2976.13 1
-6 -2 8 55.7762 657.561 3
-6 -2 8 731.768 879.831 1
-6 -2 7 20842.2 2487.59 1
-6 -2 7 19440.0 2187.33 3
-6 -2 6 32470.5 2461.05 3
-6 -2 5 35677.1 3346.33 2
6 2 -5 38923.8 4690.95 1
-6 -2 5 39897.3 2381.88 3
6 2 -4 1857.09 1184.59 1
-6 -2 4 1246.20 447.566 3
-6 -2 4 845.269 780.160 2
-6 -2 3 54242.6 3907.92 2
6 2 -3 56581.3 4342.89 1
-6 -2 3 62035.6 2204.61 3
-6 -2 2 61429.7 4140.10 2
6 2 -2 51142.2 3426.29 1
-6 -2 2 57016.9 1527.76 3
-6 -2 1 32083.5 3053.58 2
6 2 -1 26032.2 1846.72 1
-6 -2 0 48642.0 3771.24 2
-6 -2 -1 37537.9 3534.10 2
-6 -2 -2 31688.4 3490.82 2
6 2 2 26625.7 1741.90 1
6 2 2 31240.2 1465.66 3
-6 -2 -3 69424.6 5604.15 2
6 2 3 71700.4 3708.87 1
6 2 3 73115.5 3539.12 3
-6 -2 -4 79775.6 6262.69 2
6 2 4 71686.1 4273.61 1
6 2 4 78463.4 4255.58 3
-6 -2 -5 2494.45 1521.98 2
6 2 5 3846.13 1175.93 3
6 2 5 5342.42 1339.03 1
-6 -2 -6 40297.0 4754.16 2
6 2 6 40238.9 3900.95 1
6 2 6 49367.6 4352.98 3
-6 -2 -7 40661.2 5134.09 2
6 2 7 38472.7 4125.69 1
6 2 8 -528.237 1218.75 1
6 2 9 23854.0 3578.36 1
6 2 10 47368.7 5127.62 1
6 2 11 5583.60 1873.44 1
-6 -3 8 32528.2 3410.98 1
-6 -3 7 1091.32 865.781 1
-6 -3 6 24279.9 2332.77 1
-6 -3 6 20973.9 2811.55 2
-6 -3 5 68644.5 3367.63 1
-6 -3 5 65610.3 4700.28 2
-6 -3 5 71668.7 3073.45 3
-6 -3 4 6243.46 1157.14 3
6 3 -4 8632.66 2174.62 1
-6 -3 4 8260.22 910.220 3
-6 -3 4 8711.10 1832.50 2
6 3 -3 28196.3 3272.33 1
-6 -3 3 28120.6 2975.42 2
-6 -3 3 25542.1 1167.14 3
-6 -3 3 21459.6 1332.52 3
-6 -3 2 47413.8 3817.21 2
-6 -3 1 3348.04 1150.85 2
-6 -3 0 38687.8 3505.63 2
-6 -3 -1 165185. 7559.81 2
-6 -3 -2 3630.22 1423.86 2
-6 -3 -3 14402.8 2646.01 2
6 3 3 12130.3 800.567 1
6 3 3 12460.7 1262.82 3
6 3 4 38053.7 2504.40 1
-6 -3 -4 37261.4 4413.12 2
6 3 4 46805.6 3054.45 3
-6 -3 -5 1602.91 1002.96 2
6 3 5 732.314 708.749 1
6 3 5 2297.48 907.991 3
-6 -3 -6 36872.5 4675.31 2
6 3 6 29631.0 3245.24 1
6 3 6 36553.7 3856.64 3
-6 -3 -7 128727. 8846.81 2
6 3 7 109060. 6735.63 1
6 3 8 5734.63 1725.77 1
6 3 9 17182.4 3155.38 1
6 3 10 16019.9 3243.26 1
-6 -4 7 658.342 871.320 1
-6 -4 7 802.803 1121.77 2
-6 -4 6 8601.88 1486.29 1
-6 -4 6 8052.75 1987.53 2
-6 -4 5 13327.4 1531.21 1
-6 -4 5 14514.5 2476.74 2
-6 -4 4 -105.675 795.765 2
-6 -4 4 231.233 330.164 1
-6 -4 3 25939.4 956.038 3
-6 -4 3 22803.2 993.642 3
-6 -4 2 149029. 6966.26 2
-6 -4 1 10253.9 1983.76 2
-6 -4 0 32700.9 3367.09 2
-6 -4 -1 1342.08 993.160 2
-6 -4 -2 10128.6 2188.89 2
-6 -4 -3 19497.6 3031.07 2
6 4 3 12687.7 800.540 3
6 4 3 16376.1 1139.34 3
-6 -4 -4 124658. 8320.10 2
6 4 4 121109. 4163.50 3
6 4 4 140543. 5090.39 3
-6 -4 -5 18389.2 3454.09 2
6 4 5 17029.4 1896.74 1
6 4 5 21039.6 2506.85 3
-6 -4 -6 10322.4 2592.39 2
6 4 6 6477.25 1542.30 1
6 4 7 -224.130 925.707 1
-6 -4 -7 5358.36 2274.02 2
6 4 8 26161.7 3580.22 1
-6 -4 -8 35648.4 4966.75 2
6 4 9 3457.76 1787.44 1
-6 -5 6 19687.2 2958.46 2
-6 -5 5 125834. 4664.32 1
-6 -5 5 130856. 7174.83 2
-6 -5 4 976.076 427.563 1
-6 -5 4 1880.43 1129.44 2
-6 -5 3 3082.18 521.160 1
-6 -5 3 3845.63 1418.46 2
-6 -5 2 2154.26 1214.29 2
-6 -5 1 27751.2 3227.42 2
-6 -5 0 6296.09 1475.24 2
-6 -5 -1 86847.4 5869.01 2
-6 -5 -2 4441.78 1571.31 2
6 5 3 7992.99 601.252 3
6 5 3 13265.8 898.022 3
6 5 4 1178.49 499.244 3
-6 -5 -4 -1372.63 1824.02 2
-6 -5 -5 162357. 9986.49 2
6 5 5 142760. 5455.50 3
6 5 6 4991.60 1331.46 3
-6 -5 -6 4061.42 1707.76 2
6 5 7 40088.4 3754.43 1
-6 -5 -7 42579.1 5479.75 2
-6 -5 -8 1255.11 1964.48 2
-6 -6 6 2661.37 1416.10 2
-6 -6 5 670.124 1256.69 2
-6 -6 4 49520.2 4632.72 2
-6 -6 3 8901.17 2045.88 2
-6 -6 2 44356.0 4305.56 2
-6 -6 1 3246.53 1392.00 2
-6 -6 0 201.064 895.307 2
-6 -6 -1 3509.23 1593.83 2
-6 -6 -2 76732.8 6047.43 2
-6 -6 -3 -1854.35 1921.77 2
6 6 3 71.8015 267.331 3
-6 -6 -4 40128.7 5000.27 2
6 6 4 34137.6 2259.48 3
6 6 5 2202.06 781.842 3
-6 -6 -5 2997.18 1478.01 2
6 6 6 950.739 824.513 3
-6 -6 -6 1636.14 1649.01 2
6 6 7 1104.42 1119.46 3
-6 -6 -7 406.838 1344.27 2
-6 -6 -8 64686.4 7110.41 2
-6 -7 5 22055.4 3309.37 2
-6 -7 4 2297.45 1743.05 2
-6 -7 3 68.0600 968.337 2
-6 -7 2 1742.40 1311.80 2
-6 -7 1 73419.2 5757.08 2
-6 -7 0 -1510.85 1519.87 2
-6 -7 -1 23171.5 3395.80 2
-6 -7 -2 6285.40 2030.23 2
-6 -7 -3 4264.93 1512.07 2
-6 -7 -4 3052.67 1702.69 2
-6 -7 -5 74095.0 7268.24 2
-6 -7 -6 614.641 1336.23 2
-6 -7 -7 17442.1 3695.55 2
-6 -8 4 56642.1 5355.73 2
-6 -8 3 -1108.93 933.348 2
-6 -8 2 -2213.54 1453.29 2
-6 -8 1 21716.0 3326.12 2
-6 -8 0 1079.20 1185.09 2
-6 -8 -1 4605.86 1776.15 2
-6 -8 -2 52516.2 5438.16 2
-6 -8 -3 -2177.18 1943.36 2
-6 -8 -4 -241.874 2333.79 2
-6 -8 -5 15070.2 3457.65 2
-6 -8 -6 14859.1 3465.53 2
-6 -8 -7 1718.01 1814.85 2
-6 -9 3 13560.9 2900.23 2
-6 -9 2 1557.45 1041.62 2
-6 -9 1 3739.55 1704.35 2
-6 -9 0 3522.16 1733.21 2
-6 -9 -1 4059.54 1382.52 2
-6 -9 -2 14820.8 3240.72 2
-6 -9 -3 20476.2 3693.59 2
-6 -9 -4 -1396.46 1713.85 2
-6 -9 -5 1463.40 1342.52 2
-6 -9 -6 8326.58 2551.02 2
-6 -10 2 -2648.64 1670.71 2
-6 -10 1 11172.4 2906.94 2
-6 -10 0 20061.9 3746.62 2
-6 -10 -1 4901.31 1955.60 2
-6 -10 -2 -1743.37 2099.57 2
-6 -10 -3 9370.41 2722.48 2
-6 -10 -4 -1080.54 1755.58 2
-6 -10 -5 1928.35 1587.86 2
-6 -11 0 3265.84 1791.49 2
-6 -11 -1 2901.40 1910.89 2
-6 -11 -2 -2102.61 2355.97 2
-7 7 2 11968.4 2606.21 3
-7 7 1 870.346 1166.20 3
-7 7 0 1253.83 1490.12 3
-7 6 5 6002.55 1783.09 3
-7 6 4 9125.74 2149.89 3
-7 6 3 5289.87 1728.67 3
-7 6 2 7778.20 1956.88 3
-7 6 1 11720.5 2383.36 3
-7 6 0 6883.30 2133.81 3
-7 6 -1 9219.04 2257.35 3
-7 6 -2 21686.2 3606.66 3
-7 6 -3 -648.917 1438.18 3
-7 6 -4 2384.37 1257.99 3
-7 5 6 -1704.03 1224.26 3
-7 5 5 3914.65 1420.32 3
-7 5 4 15367.5 2600.37 3
-7 5 3 734.020 834.509 3
-7 5 2 1443.44 928.912 3
-7 5 1 29227.2 3391.47 3
-7 5 0 994.382 814.170 3
-7 5 -1 13353.0 2495.83 3
-7 5 -2 4831.49 1776.34 3
-7 5 -3 -1060.27 1374.50 3
7 -5 4 1012.38 1598.75 1
7 -5 5 35017.2 5635.16 1
-7 4 7 4384.15 1526.82 3
-7 4 6 1488.05 983.948 3
-7 4 5 6528.33 1527.23 3
-7 4 5 8125.57 1629.06 2
-7 4 4 98227.0 5235.85 2
-7 4 4 93158.8 5563.09 3
-7 4 3 2210.02 1101.00 3
-7 4 3 1366.58 596.965 2
-7 4 2 5149.85 1394.15 3
-7 4 2 8748.15 1549.14 2
-7 4 1 305.651 666.358 2
-7 4 1 -247.261 755.386 3
-7 4 0 8556.25 1588.26 2
-7 4 0 8263.15 1867.50 3
-7 4 -1 3093.21 923.231 2
-7 4 -1 3461.06 1468.31 3
-7 4 -2 53727.5 4214.51 2
-7 4 -2 38587.2 4207.22 3
-7 4 -3 8451.20 1869.06 2
-7 4 -3 1384.45 1020.37 3
7 -4 4 3979.92 2120.44 1
7 -4 5 1275.89 1250.14 1
7 -4 6 29359.9 4886.66 1
-7 3 8 693.475 681.710 3
-7 3 8 99.0413 903.048 2
-7 3 7 34910.3 3400.02 2
-7 3 7 37924.1 3604.86 3
-7 3 6 2123.31 982.936 3
-7 3 6 1663.30 1039.04 2
-7 3 5 6010.09 1411.36 3
-7 3 5 6002.66 1445.34 2
-7 3 4 687.148 777.950 3
-7 3 4 831.797 904.274 2
-7 3 3 38942.1 3385.27 2
-7 3 3 40575.5 3409.26 3
-7 3 2 -315.853 651.031 3
-7 3 2 -629.206 932.672 2
-7 3 1 72482.3 4516.58 2
-7 3 1 71092.8 4486.74 3
-7 3 0 822.298 597.212 2
-7 3 0 3698.93 1282.99 3
-7 3 -1 -5569.43 1530.40 2
-7 3 -1 721.065 846.821 3
-7 3 -2 -343.816 849.785 2
-7 3 -2 384.005 923.801 3
-7 3 -3 50638.4 5066.91 3
-7 3 -3 59826.1 4798.65 2
-7 3 -4 1307.43 1144.59 2
7 -3 4 -754.875 1690.35 1
7 -3 5 25359.6 4236.20 1
7 -3 6 -1674.96 1806.52 1
7 -3 7 2202.20 1522.26 1
-7 2 8 655.790 838.393 3
-7 2 8 259.996 836.284 2
-7 2 7 472.309 598.474 3
-7 2 7 2738.16 1112.90 2
-7 2 6 34088.2 3287.45 2
-7 2 6 31200.1 2962.07 3
-7 2 5 10668.9 1716.74 3
-7 2 5 11792.6 1977.30 2
-7 2 4 78839.2 4920.92 2
-7 2 4 77332.8 4404.22 3
-7 2 3 495.526 660.790 3
-7 2 3 246.071 596.572 2
-7 2 2 1514.58 845.027 3
-7 2 2 1283.06 790.637 2
7 -2 -1 4127.38 1141.84 3
-7 2 1 5137.57 1153.67 3
-7 2 1 6861.49 1520.83 2
-7 2 0 92570.6 5336.30 2
7 -2 0 85596.9 4864.69 3
-7 2 0 92046.4 4864.04 3
-7 2 -1 -22.2969 1009.19 2
7 -2 1 -1103.07 1013.43 3
-7 2 -1 494.172 721.950 3
-7 2 -2 32124.3 3511.69 2
-7 2 -2 29171.6 3431.81 3
-7 2 -3 7773.78 1836.45 2
7 -2 3 3426.20 1463.87 1
-7 2 -4 8343.01 2035.02 2
7 -2 4 8305.00 2347.94 1
-7 2 -5 3308.90 1714.94 2
7 -2 5 330.859 1065.12 1
7 -2 6 66536.7 6157.10 1
7 -2 7 990.812 1034.72 1
7 -2 8 24762.0 3870.33 1
-7 1 8 -2093.82 1149.83 2
-7 1 7 21146.9 2696.82 2
-7 1 7 22704.0 2499.10 3
-7 1 6 12696.9 1848.50 3
-7 1 6 10455.1 1941.87 2
-7 1 5 -147.894 578.704 3
-7 1 5 311.021 671.528 2
-7 1 4 529.987 560.550 3
-7 1 4 1333.31 811.801 2
-7 1 3 152700. 6912.76 2
-7 1 3 149997. 5301.40 3
7 -1 -2 1875.50 737.777 1
-7 1 2 1453.13 608.442 3
-7 1 2 2324.70 1051.65 2
-7 1 1 4312.37 987.523 3
7 -1 -1 4758.91 1154.42 1
-7 1 1 2075.14 700.971 2
7 -1 0 6907.66 1333.09 3
-7 1 0 10265.1 1612.55 3
-7 1 0 8968.08 1791.41 2
-7 1 -1 4723.24 1440.31 2
7 -1 1 4120.55 1070.36 3
-7 1 -1 4956.47 1331.21 3
7 -1 2 628.830 627.567 3
-7 1 -2 678.773 994.454 2
7 -1 3 123522. 7609.78 1
-7 1 -3 127273. 7546.63 2
7 -1 3 107540. 6220.21 3
-7 1 -4 719.035 1103.98 2
7 -1 4 1270.65 1030.35 1
-7 1 -5 6878.14 2039.58 2
7 -1 5 5225.42 1708.79 1
7 -1 6 33508.3 3946.02 1
-7 1 -6 33744.4 4265.33 2
7 -1 7 34528.8 4130.93 1
7 -1 8 567.299 1006.42 1
7 -1 9 19794.9 3462.79 1
-7 0 7 4521.72 1411.01 2
-7 0 6 61577.8 4598.05 2
-7 0 6 67392.1 3753.36 3
-7 0 5 8552.39 1369.66 3
-7 0 5 7335.06 1684.05 2
-7 0 4 28090.4 3023.25 2
-7 0 4 30185.5 2279.35 3
-7 0 3 82667.5 5148.23 2
-7 0 3 81152.5 3451.55 3
7 0 -3 76774.6 4700.11 1
-7 0 2 34414.8 3287.99 2
-7 0 2 32758.4 2149.80 3
7 0 -2 31360.9 2763.92 1
-7 0 1 -333.667 960.730 2
7 0 -1 711.241 446.096 1
7 0 0 37885.5 2743.81 1
-7 0 0 38516.3 3633.34 2
-7 0 0 43064.3 2837.94 3
-7 0 -1 618.125 781.985 2
7 0 1 -1311.20 763.628 3
-7 0 -2 3805.01 1254.90 2
7 0 2 5449.18 1153.35 3
7 0 2 4576.23 1389.88 1
-7 0 -3 73302.8 5884.14 2
7 0 3 70699.3 4557.47 3
7 0 4 42660.2 3863.58 1
-7 0 -4 42120.8 4588.90 2
7 0 4 42218.3 3800.18 3
7 0 5 2309.02 1050.98 1
-7 0 -5 2650.71 1469.65 2
7 0 6 45054.0 4204.75 1
-7 0 -6 40982.7 4770.86 2
7 0 7 17349.8 2829.66 1
7 0 8 645.378 964.024 1
7 0 9 37791.0 4347.07 1
7 0 10 1059.76 773.497 1
-7 -1 7 1628.99 932.811 2
-7 -1 6 48326.9 4091.73 2
-7 -1 5 16220.5 2393.93 2
-7 -1 5 16300.0 1587.76 3
-7 -1 4 118.165 372.723 3
-7 -1 4 704.519 747.038 2
-7 -1 3 64862.5 4651.16 2
-7 -1 3 63079.4 2607.81 3
-7 -1 2 27507.1 3042.16 2
7 1 -2 25542.8 2439.22 1
-7 -1 2 26635.2 1613.84 3
7 1 -1 662.986 507.607 1
-7 -1 1 6.21544 330.281 3
-7 -1 1 1385.96 803.224 2
7 1 0 54613.4 2791.29 1
-7 -1 0 58205.8 4515.71 2
7 1 1 72551.5 3157.06 1
7 1 1 67885.6 3852.82 1
-7 -1 -1 77730.6 5343.15 2
7 1 1 74149.0 2699.68 3
-7 -1 -2 9115.43 2064.03 2
7 1 2 11800.7 1584.41 1
7 1 2 12827.5 1358.98 3
-7 -1 -3 13210.6 2475.86 2
7 1 3 18497.7 2122.65 1
7 1 3 14407.6 1793.63 3
7 1 4 68416.9 4242.70 1
-7 -1 -4 59338.8 5570.37 2
7 1 4 59285.7 4072.08 3
7 1 5 3152.43 1091.18 1
-7 -1 -5 402.661 998.124 2
-7 -1 -6 20652.3 3543.21 2
7 1 6 22594.7 2842.87 1
7 1 7 43370.3 4107.66 1
-7 -1 -7 43224.2 5166.15 2
7 1 8 1176.94 1051.79 1
7 1 9 3561.12 1618.86 1
-7 -2 7 2726.89 1148.01 2
-7 -2 6 22009.0 2880.56 2
-7 -2 5 28387.6 3274.15 2
-7 -2 4 1685.64 1002.96 2
-7 -2 3 78186.9 5217.63 2
-7 -2 3 68767.2 2062.33 3
-7 -2 2 51718.3 4202.86 2
7 2 -1 7057.00 971.888 1
-7 -2 1 8888.27 1900.20 2
-7 -2 0 537.978 758.304 2
-7 -2 -1 87623.3 5720.38 2
7 2 2 221.655 178.390 3
-7 -2 -2 -43.5290 901.954 2
7 2 2 568.092 400.021 1
-7 -2 -3 24119.7 3437.64 2
7 2 3 24395.3 2016.56 1
7 2 3 22604.3 1808.83 3
-7 -2 -4 33365.5 4360.22 2
7 2 4 37308.6 2934.17 1
-7 -2 -5 21133.3 3625.93 2
7 2 5 26687.6 2725.95 1
-7 -2 -6 -572.433 1511.67 2
7 2 6 791.932 862.558 1
-7 -2 -7 52394.7 5703.44 2
7 2 7 48119.1 4241.80 1
7 2 8 1249.86 1070.75 1
-7 -3 6 42041.5 4108.48 2
-7 -3 5 30471.0 3439.12 2
-7 -3 4 22762.1 2971.72 2
-7 -3 3 235.301 943.485 2
-7 -3 2 98787.5 5925.08 2
-7 -3 1 786.380 953.255 2
-7 -3 0 3319.32 1206.60 2
-7 -3 -1 27461.5 3438.59 2
-7 -3 -2 52613.0 4858.79 2
-7 -3 -3 355.510 1285.24 2
7 3 4 133024. 4105.48 1
-7 -3 -4 150274. 9274.71 2
-7 -3 -5 1604.75 1248.63 2
7 3 5 1202.89 721.006 1
-7 -3 -6 717.639 1194.53 2
-7 -3 -7 881.843 1839.15 2
-7 -3 -8 22608.4 4136.19 2
-7 -4 6 564.040 925.719 2
-7 -4 5 87583.7 5994.09 2
-7 -4 4 857.182 801.603 2
-7 -4 3 3820.27 1510.21 2
-7 -4 2 3374.52 1331.94 2
-7 -4 1 41873.7 4110.18 2
-7 -4 0 -1342.68 1380.14 2
-7 -4 -1 118150. 7101.05 2
-7 -4 -2 2979.69 1507.17 2
-7 -4 -3 5008.95 1527.77 2
-7 -4 -4 -908.935 1716.01 2
-7 -4 -5 32957.2 4766.24 2
-7 -4 -6 -253.404 1282.44 2
-7 -4 -7 37257.6 5226.30 2
-7 -4 -8 1287.15 1634.07 2
-7 -5 5 74.3472 912.494 2
-7 -5 4 33609.7 3887.33 2
-7 -5 3 2450.39 1484.03 2
-7 -5 2 93282.6 6275.99 2
-7 -5 1 835.329 1044.40 2
-7 -5 0 10866.5 2325.67 2
-7 -5 -1 994.862 1187.94 2
-7 -5 -2 125751. 7885.51 2
-7 -5 -3 12599.3 2687.71 2
-7 -5 -4 23912.8 3968.16 2
-7 -5 -5 -753.965 1458.19 2
-7 -5 -6 1879.81 1690.67 2
-7 -5 -7 8862.27 2911.29 2
-7 -6 4 3501.18 1603.68 2
-7 -6 3 15260.3 2750.42 2
-7 -6 2 6922.61 1962.85 2
-7 -6 1 64449.6 5499.49 2
-7 -6 0 15951.7 2822.26 2
-7 -6 -1 15740.3 3103.91 2
-7 -6 -2 1418.31 1276.07 2
-7 -6 -3 12931.5 2743.50 2
-7 -6 -4 1623.46 1430.27 2
-7 -6 -5 62222.2 6524.00 2
-7 -6 -6 4395.72 1653.23 2
-7 -6 -7 -921.812 1132.44 2
-7 -7 3 33053.7 4195.06 2
-7 -7 2 1210.10 1229.97 2
-7 -7 1 1306.80 1046.11 2
-7 -7 0 13670.4 2821.53 2
-7 -7 -1 1598.48 1318.99 2
-7 -7 -2 60982.3 6033.64 2
-7 -7 -3 40323.4 5190.40 2
-7 -7 -4 -519.547 2054.19 2
-7 -7 -5 6338.32 2417.69 2
-7 -7 -6 5215.23 2164.05 2
-7 -8 2 1850.57 1304.75 2
-7 -8 1 61195.2 5979.49 2
-7 -8 0 17105.9 3354.82 2
-7 -8 -1 6651.61 2234.83 2
-7 -8 -2 21650.9 3798.55 2
-7 -8 -3 667.530 1532.80 2
-7 -8 -4 7230.94 2227.05 2
-7 -8 -5 8537.12 2675.10 2
-7 -9 0 7250.66 2360.45 2
-7 -9 -1 6697.06 2263.50 2
-7 -9 -2 9386.48 2263.49 2
-7 -9 -3 19600.2 3672.55 2
-8 6 2 2172.09 1436.95 3
-8 6 1 17904.0 3037.45 3
-8 6 0 1322.70 1287.54 3
-8 6 -1 3996.94 1753.24 3
-8 5 5 -274.934 660.429 3
-8 5 4 30167.6 3626.52 3
-8 5 3 -775.432 1024.90 3
-8 5 2 2917.69 1259.70 3
-8 5 1 6721.51 1813.98 3
-8 5 0 10516.3 2326.49 3
-8 5 -1 893.796 950.195 3
-8 5 -2 27016.0 3918.20 3
-8 5 -3 -1294.22 1964.69 3
8 -5 4 -744.965 2020.53 1
-8 4 5 4197.19 1350.70 3
-8 4 4 1984.99 1228.87 3
-8 4 3 8056.66 1895.27 3
-8 4 2 916.597 955.053 3
-8 4 1 46485.0 4175.85 3
-8 4 0 3954.43 1535.37 3
-8 4 -1 821.423 909.114 3
-8 4 -2 728.574 918.097 3
8 -4 4 1445.98 1440.21 1
8 -4 5 22202.8 4432.20 1
-8 3 5 1189.30 843.954 2
-8 3 4 33863.1 3562.96 2
-8 3 4 30826.8 3105.50 3
-8 3 3 729.414 845.157 3
-8 3 3 -485.641 843.274 2
-8 3 2 4863.31 1314.18 3
-8 3 2 4787.68 1457.72 2
-8 3 1 1193.51 988.754 2
-8 3 1 515.654 757.852 3
-8 3 0 37015.1 3694.47 2
-8 3 0 41553.5 3828.42 3
-8 3 -1 -1171.74 1597.98 2
-8 3 -1 -2399.96 1492.28 3
-8 3 -2 32220.5 3681.25 2
-8 3 -2 25451.2 3511.63 3
-8 3 -3 1110.03 957.649 2
8 -3 3 -495.045 1905.99 1
-8 3 -4 14445.9 2637.17 2
8 -3 4 11579.1 2891.96 1
8 -3 5 6350.90 2424.79 1
8 -3 6 59882.8 6418.35 1
8 -3 7 -2194.56 1359.57 1
-8 2 7 17582.0 2633.32 2
-8 2 6 1642.75 977.394 2
-8 2 5 2319.69 1236.30 2
-8 2 4 15997.7 2465.68 2
-8 2 3 41752.0 3941.39 2
-8 2 3 40300.4 3193.57 3
-8 2 2 19002.3 2243.07 3
-8 2 2 14730.1 2325.12 2
-8 2 1 15426.3 2060.99 3
-8 2 1 16206.7 2487.24 2
-8 2 0 531.198 841.645 2
-8 2 0 2554.13 1067.69 3
-8 2 -1 17926.8 2688.31 2
-8 2 -1 15932.0 2430.85 3
-8 2 -2 4951.66 1430.10 2
8 -2 3 55799.8 6186.59 1
-8 2 -3 54795.0 5035.55 2
-8 2 -4 13929.3 2657.92 2
8 -2 4 9711.47 2573.84 1
-8 2 -5 2375.30 1336.13 2
8 -2 5 2006.61 1045.47 1
8 -2 6 12940.1 2817.83 1
8 -2 7 17747.6 3318.10 1
-8 1 6 17434.3 2639.08 2
-8 1 5 4989.33 1635.76 2
-8 1 4 3896.27 1481.57 2
-8 1 3 14728.0 2557.11 2
-8 1 2 9881.41 1481.93 3
-8 1 2 9811.74 2111.60 2
-8 1 1 1020.50 670.082 3
-8 1 1 -2017.89 1381.47 2
-8 1 0 102655. 6279.73 2
-8 1 0 107450. 5400.83 3
-8 1 -1 38540.2 3526.65 3
-8 1 -1 38094.9 3985.06 2
-8 1 -2 521.738 1148.37 2
8 -1 2 1281.30 1109.42 1
-8 1 -3 18067.0 3023.34 2
8 -1 3 16308.7 2840.70 1
-8 1 -4 14758.8 2822.12 2
8 -1 4 14140.0 2623.01 1
-8 1 -5 -78.5728 1023.46 2
8 -1 5 -1365.89 1137.17 1
8 -1 6 18699.2 3063.31 1
-8 1 -6 18579.5 3425.37 2
-8 0 6 7569.42 1839.20 2
-8 0 5 3289.87 1348.40 2
-8 0 4 1882.36 1133.18 2
-8 0 3 35835.3 3794.36 2
-8 0 2 34664.7 3752.79 2
-8 0 1 -694.656 1118.48 2
-8 0 0 46913.7 4306.63 2
-8 0 -1 24094.6 3259.99 2
-8 0 -2 5845.84 1645.62 2
8 0 2 6757.72 1685.64 1
-8 0 -3 17396.1 2971.26 2
8 0 3 17885.7 2441.00 1
8 0 4 39068.2 3548.25 1
-8 0 -4 41510.8 4736.16 2
8 0 5 5488.79 1491.08 1
-8 0 -5 5093.65 1701.70 2
-8 0 -6 33658.4 4469.76 2
-8 0 -7 12407.0 3082.29 2
-8 -1 6 10167.3 2084.36 2
-8 -1 5 23388.8 3066.80 2
-8 -1 4 1101.72 1020.00 2
-8 -1 3 21434.7 2992.70 2
-8 -1 2 20629.7 2947.42 2
-8 -1 1 29359.0 3455.32 2
-8 -1 0 21050.4 3032.08 2
-8 -1 -1 63811.8 5252.97 2
-8 -1 -2 1094.91 1239.36 2
-8 -1 -3 31208.9 4148.05 2
-8 -1 -4 17904.0 3278.42 2
-8 -1 -5 36533.7 4739.18 2
-8 -1 -6 -333.599 991.220 2
-8 -1 -7 43521.0 5326.92 2
-8 -2 5 860.228 952.745 2
-8 -2 4 20018.3 3004.38 2
-8 -2 3 10951.8 2222.23 2
-8 -2 2 52179.2 4634.05 2
-8 -2 1 -487.336 1000.73 2
-8 -2 0 11280.2 2296.21 2
-8 -2 -1 9352.27 2242.39 2
-8 -2 -2 41401.0 4511.69 2
-8 -2 -3 -1000.47 1770.05 2
-8 -2 -4 70353.8 6516.12 2
-8 -2 -5 -1508.03 1484.49 2
-8 -2 -6 1992.39 1560.62 2
-8 -2 -7 6661.98 2503.95 2
-8 -3 5 20827.7 3063.41 2
-8 -3 4 3652.60 1562.88 2
-8 -3 3 1185.69 1068.19 2
-8 -3 2 14432.5 2586.18 2
-8 -3 1 76034.9 5744.46 2
-8 -3 0 -274.550 1163.48 2
-8 -3 -1 77869.4 6000.35 2
-8 -3 -2 9944.67 2355.87 2
-8 -3 -3 1764.03 1262.59 2
-8 -3 -4 1773.82 1220.76 2
-8 -3 -5 57406.1 6235.71 2
-8 -3 -6 1936.22 1639.58 2
-8 -4 4 40168.4 4320.43 2
-8 -4 3 -1738.62 1329.62 2
-8 -4 2 36324.7 4124.27 2
-8 -4 1 11432.9 2397.48 2
-8 -4 0 8700.79 2134.45 2
-8 -4 -1 239.160 969.694 2
-8 -4 -2 34650.3 4368.64 2
-8 -4 -3 688.702 1020.78 2
-8 -4 -4 52570.5 5886.75 2
-8 -4 -5 -2364.28 1898.94 2
-8 -4 -6 57041.7 6348.45 2
-8 -5 3 20142.0 3200.58 2
-8 -5 2 928.757 1021.88 2
-8 -5 1 39213.5 4468.30 2
-8 -5 0 6518.01 1976.88 2
-8 -5 -1 31847.5 4176.99 2
-8 -5 -2 20723.7 3462.35 2
-8 -5 -3 14514.6 3026.45 2
-8 -5 -4 -1559.10 2044.17 2
-8 -5 -5 46402.9 5832.87 2
-8 -6 2 24854.1 3730.88 2
-8 -6 1 4353.62 1478.97 2
-8 -6 0 35526.6 4558.29 2
-8 -6 -1 75.1085 1159.01 2
-8 -6 -2 10599.1 2806.03 2
-8 -6 -3 19996.2 3881.34 2
-8 -6 -4 -916.648 2075.68 2
-8 -7 0 48201.6 5372.61 2
-8 -7 -1 1855.75 1410.10 2
-8 -7 -2 -595.464 1416.89 2
-8 -7 -3 11149.3 3018.86 2
-9 2 5 142.380 477.184 2
-9 2 4 3121.68 1383.98 2
-9 2 3 6128.81 1717.72 2
-9 2 2 22388.9 3189.31 2
-9 2 1 513.493 876.079 2
-9 2 0 4728.91 1626.17 2
-9 2 -1 23506.5 3343.42 2
-9 2 -2 -2298.43 1609.13 2
-9 2 -3 9978.88 2336.51 2
-9 2 -4 12056.8 2482.23 2
-9 1 5 17328.2 2813.55 2
-9 1 4 2486.21 1305.95 2
-9 1 3 13382.9 2511.39 2
-9 1 2 35285.2 4126.74 2
-9 1 1 3479.39 1481.93 2
-9 1 0 8845.37 2073.94 2
-9 1 -1 3188.02 1519.88 2
-9 1 -2 -3394.00 1912.12 2
-9 1 -3 7342.45 2050.98 2
-9 1 -4 41884.5 4844.90 2
-9 1 -5 9960.47 2602.37 2
-9 1 -6 3939.31 2174.90 2
-9 0 4 -861.827 1154.86 2
-9 0 3 7584.89 1853.14 2
-9 0 2 1942.33 932.868 2
-9 0 1 11244.9 2440.78 2
-9 0 0 1361.36 1103.90 2
-9 0 -1 40332.9 4529.27 2
-9 0 -2 1538.07 943.778 2
-9 0 -3 5140.70 1732.27 2
-9 0 -4 -826.567 1217.74 2
-9 0 -5 28980.7 4204.66 2
-9 0 -6 3045.88 1745.86 2
-9 -1 4 22526.4 3305.23 2
-9 -1 3 2451.37 1425.75 2
-9 -1 2 58222.8 5335.87 2
-9 -1 1 -2355.92 1803.78 2
-9 -1 0 -517.616 1190.08 2
-9 -1 -1 304.721 977.179 2
-9 -1 -2 38863.5 4642.58 2
-9 -1 -3 -3040.47 1834.73 2
-9 -1 -4 14843.4 3150.06 2
-9 -1 -5 -1277.43 1317.89 2
-9 -2 3 370.588 967.812 2
-9 -2 2 7847.39 2052.12 2
-9 -2 1 75244.5 6178.06 2
-9 -2 0 3133.55 1564.13 2
-9 -2 -1 10826.3 2589.99 2
-9 -2 -2 454.456 1023.48 2
-9 -2 -3 -2777.75 1909.65 2
-9 -2 -4 -1777.84 1960.48 2
-9 -2 -5 49102.7 5710.37 2
-9 -3 2 18128.3 3040.86 2
-9 -3 1 7225.44 1995.45 2
-9 -3 0 7409.71 2077.36 2
-9 -3 -1 2402.87 1475.30 2
-9 -3 -2 50485.5 5374.76 2
-9 -3 -3 -1341.07 1943.49 2
-9 -3 -4 -1110.51 1790.62 2
-9 -4 1 52689.9 5383.66 2
-9 -4 0 5794.16 2129.65 2
-9 -4 -1 -2393.17 1355.35 2
-9 -4 -2 11346.4 2837.42 2
-9 -4 -3 24541.0 4075.15 2
-10 1 2 2420.07 1198.08 2
-10 1 1 10246.3 2465.26 2
-10 1 0 -1509.18 1490.08 2
-10 1 -1 26264.4 3874.71 2
-10 1 -2 3615.94 1521.79 2
-10 1 -3 763.121 743.108 2
-10 0 1 417.138 1185.21 2
-10 0 0 -777.303 1435.08 2
-10 0 -1 -2261.21 1692.02 2
-10 0 -2 17856.0 3267.78 2
