#------------------------------------------------------------------------------
#$Date: 2019-11-11 15:54:25 +0200 (Mon, 11 Nov 2019) $
#$Revision: 226462 $
#$URL: file:///home/coder/svn-repositories/cod/cif/4/03/49/4034952.cif $
#------------------------------------------------------------------------------
#
# This file is available in the Crystallography Open Database (COD),
# http://www.crystallography.net/
#
# All data on this site have been placed in the public domain by the
# contributors.
#
data_4034952
loop_
_publ_author_name
'Yuan, Yao'
'Dong, Wuheng'
'Gao, Xiaoshuang'
'Gao, Huang'
'Xie, Xiaomin'
'Zhang, Zhaoguo'
_publ_section_title
;
 Visible-Light-Induced Radical Cascade Cyclization: Synthesis of the ABCD
 Ring Cores of Camptothecins.
;
_journal_issue                   5
_journal_name_full               'The Journal of organic chemistry'
_journal_page_first              2840
_journal_page_last               2846
_journal_paper_doi               10.1021/acs.joc.7b03283
_journal_volume                  83
_journal_year                    2018
_chemical_formula_moiety         'C15 H9 F N2 O'
_chemical_formula_sum            'C15 H9 F N2 O'
_chemical_formula_weight         252.24
_space_group_crystal_system      triclinic
_space_group_IT_number           2
_space_group_name_Hall           '-P 1'
_space_group_name_H-M_alt        'P -1'
_atom_sites_solution_hydrogens   geom
_audit_creation_method           SHELXL-2014/7
_cell_angle_alpha                100.1500(10)
_cell_angle_beta                 90.8700(10)
_cell_angle_gamma                97.2970(10)
_cell_formula_units_Z            2
_cell_length_a                   4.81580(10)
_cell_length_b                   8.0560(2)
_cell_length_c                   14.3600(4)
_cell_measurement_reflns_used    6875
_cell_measurement_temperature    173(2)
_cell_measurement_theta_max      66.56
_cell_measurement_theta_min      3.13
_cell_volume                     543.55(2)
_computing_cell_refinement       'Bruker SAINT'
_computing_data_collection       'Bruker APEX2'
_computing_data_reduction        'Bruker SAINT'
_computing_molecular_graphics    'Bruker SHELXTL'
_computing_publication_material  'Bruker SHELXTL'
_computing_structure_refinement  'SHELXL-2014 (Sheldrick, 2014)'
_computing_structure_solution    'SHELXS-97 (Sheldrick 2008)'
_diffrn_ambient_temperature      173(2)
_diffrn_measured_fraction_theta_full 0.995
_diffrn_measured_fraction_theta_max 0.995
_diffrn_measurement_device_type  'CCD area detector'
_diffrn_measurement_method       'phi and omega scans'
_diffrn_radiation_type           CuK\a
_diffrn_radiation_wavelength     1.54178
_diffrn_reflns_av_R_equivalents  0.0186
_diffrn_reflns_av_unetI/netI     0.0145
_diffrn_reflns_Laue_measured_fraction_full 0.995
_diffrn_reflns_Laue_measured_fraction_max 0.995
_diffrn_reflns_limit_h_max       5
_diffrn_reflns_limit_h_min       -5
_diffrn_reflns_limit_k_max       9
_diffrn_reflns_limit_k_min       -9
_diffrn_reflns_limit_l_max       17
_diffrn_reflns_limit_l_min       -17
_diffrn_reflns_number            8771
_diffrn_reflns_point_group_measured_fraction_full 0.995
_diffrn_reflns_point_group_measured_fraction_max 0.995
_diffrn_reflns_theta_full        66.577
_diffrn_reflns_theta_max         66.577
_diffrn_reflns_theta_min         3.129
_diffrn_source                   'sealed tube'
_exptl_absorpt_coefficient_mu    0.921
_exptl_absorpt_correction_type   none
_exptl_crystal_colour            colorless
_exptl_crystal_density_diffrn    1.541
_exptl_crystal_description       block
_exptl_crystal_F_000             248
_exptl_crystal_size_max          0.05
_exptl_crystal_size_mid          0.04
_exptl_crystal_size_min          0.03
_refine_diff_density_max         0.184
_refine_diff_density_min         -0.205
_refine_diff_density_rms         0.037
_refine_ls_extinction_method     none
_refine_ls_goodness_of_fit_ref   1.077
_refine_ls_hydrogen_treatment    constr
_refine_ls_matrix_type           full
_refine_ls_number_parameters     172
_refine_ls_number_reflns         1911
_refine_ls_number_restraints     0
_refine_ls_restrained_S_all      1.077
_refine_ls_R_factor_all          0.0340
_refine_ls_R_factor_gt           0.0318
_refine_ls_shift/su_max          0.000
_refine_ls_shift/su_mean         0.000
_refine_ls_structure_factor_coef Fsqd
_refine_ls_weighting_details
'w=1/[\s^2^(Fo^2^)+(0.0571P)^2^+0.1137P] where P=(Fo^2^+2Fc^2^)/3'
_refine_ls_weighting_scheme      calc
_refine_ls_wR_factor_gt          0.0925
_refine_ls_wR_factor_ref         0.0946
_reflns_Friedel_coverage         0.000
_reflns_number_gt                1768
_reflns_number_total             1911
_reflns_threshold_expression     'I > 2\s(I)'
_cod_data_source_file            jo7b03283_si_003.cif
_cod_data_source_block           a
_cod_database_code               4034952
_shelx_shelxl_version_number     2014/7
_shelx_space_group_comment
;
The symmetry employed for this shelxl refinement is uniquely defined
by the following loop, which should always be used as a source of
symmetry information in preference to the above space-group names.
They are only intended as comments.
;
_shelx_res_file
;

    a.res created by SHELXL-2014/7

TITL 171107HG_ZZG_YY_01_0m_a.res in P-1
CELL  1.54178   4.8158   8.0560  14.3600  100.150   90.870   97.297
ZERR    8.000   0.0001   0.0002   0.0004    0.001    0.001    0.001
LATT 1
SFAC C  H  F  N  O
UNIT 8 8 8 8 8
L.S. 22
ACTA
BOND $H
FMAP 2
PLAN 5
LIST 6
TEMP -100.150
WGHT    0.057100    0.113700
FVAR       1.33108
F1    3    1.417625    0.968783    0.898197    11.00000    0.04052    0.04906 =
         0.03361    0.00486   -0.00384   -0.01771
O1    5   -0.137909    0.206794    0.482960    11.00000    0.03515    0.04087 =
         0.02557    0.00695   -0.00327   -0.00340
N1    4    0.106302    0.299278    0.623061    11.00000    0.02530    0.02669 =
         0.02329    0.00520    0.00145    0.00078
C1    1   -0.110084    0.196881    0.567949    11.00000    0.02695    0.02767 =
         0.02696    0.00314    0.00045    0.00394
N2    4    0.497104    0.479898    0.837030    11.00000    0.02784    0.02624 =
         0.02355    0.00519    0.00154    0.00166
C2    1   -0.287515    0.090158    0.619363    11.00000    0.02696    0.02799 =
         0.03272    0.00375    0.00021   -0.00007
AFIX  43
H2    2   -0.438457    0.013712    0.586628    11.00000   -1.20000
AFIX   0
C3    1   -0.243794    0.096310    0.714089    11.00000    0.03091    0.02832 =
         0.03342    0.00810    0.00532    0.00045
AFIX  43
H3    2   -0.366324    0.024564    0.745713    11.00000   -1.20000
AFIX   0
C4    1   -0.022117    0.206021    0.766378    11.00000    0.03162    0.02937 =
         0.02577    0.00644    0.00291    0.00108
AFIX  43
H4    2    0.006079    0.209524    0.832353    11.00000   -1.20000
AFIX   0
C5    1    0.149875    0.306648    0.718942    11.00000    0.02721    0.02526 =
         0.02419    0.00371    0.00186    0.00547
C6    1    0.391935    0.434663    0.749640    11.00000    0.02669    0.02436 =
         0.02386    0.00470    0.00265    0.00523
C7    1    0.490598    0.501725    0.669551    11.00000    0.02636    0.02616 =
         0.02323    0.00508    0.00181    0.00428
C8    1    0.309575    0.418265    0.583915    11.00000    0.02610    0.03026 =
         0.02389    0.00666    0.00014   -0.00132
AFIX  23
H8A   2    0.215496    0.502347    0.556880    11.00000   -1.20000
H8B   2    0.419737    0.357288    0.534554    11.00000   -1.20000
AFIX   0
C9    1    0.717692    0.623827    0.680421    11.00000    0.02763    0.02813 =
         0.02383    0.00643    0.00227    0.00294
AFIX  43
H9    2    0.789321    0.671465    0.628275    11.00000   -1.20000
AFIX   0
C10   1    0.843056    0.677073    0.772656    11.00000    0.02673    0.02462 =
         0.02547    0.00475    0.00269    0.00514
C11   1    0.724997    0.602863    0.849258    11.00000    0.02719    0.02558 =
         0.02446    0.00440    0.00183    0.00412
C12   1    0.849520    0.657773    0.941492    11.00000    0.03470    0.03492 =
         0.02376    0.00607    0.00185    0.00053
AFIX  43
H12   2    0.772552    0.610128    0.992934    11.00000   -1.20000
AFIX   0
C13   1    1.079683    0.778866    0.956880    11.00000    0.03625    0.03938 =
         0.02353    0.00272   -0.00246   -0.00244
AFIX  43
H13   2    1.163541    0.815289    1.018617    11.00000   -1.20000
AFIX   0
C14   1    1.190120    0.848469    0.880391    11.00000    0.02828    0.03027 =
         0.03208    0.00269    0.00003   -0.00246
C15   1    1.080989    0.801665    0.790435    11.00000    0.02843    0.02803 =
         0.02696    0.00624    0.00292    0.00159
AFIX  43
H15   2    1.163008    0.851701    0.740509    11.00000   -1.20000
AFIX   0
HKLF 4

REM  171107HG_ZZG_YY_01_0m_a.res in P-1
REM R1 =  0.0318 for    1768 Fo > 4sig(Fo)  and  0.0340 for all    1911 data
REM    172 parameters refined using      0 restraints

END

WGHT      0.0540      0.1208

REM Highest difference peak  0.184,  deepest hole -0.205,  1-sigma level  0.037
Q1    1   0.8143  0.6298  0.8064  11.00000  0.05    0.18
Q2    1   0.4934  0.4458  0.7033  11.00000  0.05    0.17
Q3    1   0.7542  0.6584  0.8119  11.00000  0.05    0.16
Q4    1   0.4076  0.4973  0.7190  11.00000  0.05    0.16
Q5    1   1.2518  0.7626  1.0251  11.00000  0.05    0.15
;
_shelx_res_checksum              89127
_shelx_hkl_file
;
  -1   0   0  719.83   17.80
   1   0   0  717.63   17.80
   1   0   0  712.43   17.80
   1   0   0  721.53   17.80
  -2   0   0   46.50    1.30
  -2   0   0   47.10    1.40
  -2   0   0   48.70    1.30
  -2   0   0   50.29    1.50
   2   0   0   53.69    1.60
   2   0   0   50.39    1.50
   2   0   0   48.50    1.50
  -3   0   0  674.13   16.70
  -3   0   0  672.33   16.40
   3   0   0  658.13   16.70
   3   0   0  638.14   16.80
   3   0   0  638.24   16.60
   3   0   0  669.63   16.60
   3   0   0  657.43   16.80
  -4   0   0   42.20    1.50
   4   0   0   44.10    1.80
   4   0   0   45.40    1.80
   4   0   0   40.80    2.30
   4   0   0   44.70    1.80
  -5   0   0  162.98    4.60
   5   0   0  167.98    4.60
   5  -1   0    2.60    0.60
   4  -1   0   94.59    3.00
   4  -1   0   90.49    2.90
   4  -1   0   81.99    2.80
  -4   1   0   94.19    2.60
   3  -1   0    8.00    1.10
   3  -1   0    7.70    0.90
   3  -1   0    7.20    0.90
   3  -1   0    6.30    0.60
  -3   1   0    6.90    0.50
  -3   1   0    6.50    0.90
   2  -1   0  383.96    9.70
  -2   1   0  383.86    9.70
  -2   1   0  387.36    9.60
   1  -1   0  873.41   20.70
  -1   1   0  825.82   20.60
  -1   1   0  853.81   20.60
  -1   1   0  793.72   20.60
   0  -1   0  659.43   16.10
   0   1   0  647.94   16.10
  -1  -1   0  552.04   13.30
  -1  -1   0  527.45   13.50
  -1  -1   0  528.35   13.30
   1   1   0  546.95   13.40
   1   1   0  539.65   13.50
   1   1   0  549.54   13.40
  -2  -1   0  179.48    4.40
  -2  -1   0  175.38    4.60
  -2  -1   0  177.18    4.70
  -2  -1   0  173.48    4.60
   2   1   0  174.68    4.80
   2   1   0  175.88    4.60
   2   1   0  178.08    4.60
  -3  -1   0  316.17    8.40
  -3  -1   0  318.27    7.90
   3   1   0  317.17    8.20
   3   1   0  312.97    8.40
   3   1   0  315.07    8.40
   3   1   0  309.87    8.40
   3   1   0  320.97    8.20
   3   1   0  297.27    8.10
  -4  -1   0    0.90    0.50
   4   1   0    0.20    0.50
   4   1   0    2.00    0.80
   4   1   0    1.10    0.70
   4   1   0   -0.60    0.70
   5   1   0  253.17    6.80
   5  -2   0    6.30    0.80
  -5   2   0    6.90    0.80
  -5   2   0    5.30    0.80
   4  -2   0  303.47    8.10
   4  -2   0  305.37    8.10
  -4   2   0  303.97    7.80
  -4   2   0  294.37    7.80
   3  -2   0   48.70    1.90
   3  -2   0   47.30    1.60
   3  -2   0   45.20    1.70
  -3   2   0   47.00    1.50
  -3   2   0   46.90    1.70
  -3   2   0   49.40    1.70
   2  -2   0  324.57    8.20
  -2   2   0  326.77    8.10
  -2   2   0  319.37    8.10
   0  -2   0  368.46    9.10
   0  -2   0  367.56    9.20
   0   2   0  360.16    9.00
   0   2   0  350.56    9.20
   0   2   0  374.36    9.10
   0   2   0  371.76    9.00
  -1  -2   0    0.40    0.20
  -1  -2   0    0.50    0.10
   1   2   0    1.00    0.20
   1   2   0    0.70    0.20
  -2  -2   0  735.93   19.10
  -2  -2   0  781.52   19.20
  -2  -2   0  775.22   18.90
   2   2   0  757.42   18.90
   2   2   0  738.63   19.00
   2   2   0  772.22   19.20
  -3  -2   0  149.69    4.60
  -3  -2   0  147.89    4.50
  -3  -2   0  150.28    4.00
   3   2   0  152.08    4.50
   3   2   0  153.78    4.20
   3   2   0  154.28    4.20
   3   2   0  150.48    4.30
   3   2   0  146.39    4.40
   3   2   0  150.68    4.40
  -4  -2   0  368.26    9.60
   4   2   0  382.26   10.00
   4   2   0  373.16    9.90
   5   2   0    3.10    0.50
   5  -3   0   17.00    1.00
  -5   3   0   17.20    1.10
  -5   3   0   14.90    1.20
   4  -3   0    0.10    0.60
   4  -3   0   -0.30    0.70
  -4   3   0    0.70    0.50
  -4   3   0    0.40    0.50
   3  -3   0  123.89    3.50
   3  -3   0  130.09    3.80
   3  -3   0  129.29    3.60
  -3   3   0  123.89    3.40
   2  -3   0  425.56   10.80
  -2   3   0  431.16   10.80
  -2   3   0  428.46   10.80
   1  -3   0   82.19    2.20
   1  -3   0   75.59    2.40
   1  -3   0   81.59    2.20
   1  -3   0   83.09    2.30
  -1   3   0   74.49    2.20
  -1   3   0   83.19    2.20
   0  -3   0  182.08    4.70
   0  -3   0  178.38    4.50
   0   3   0  179.18    4.40
   0   3   0  171.38    4.50
   0   3   0  173.68    4.40
   0   3   0  167.88    4.60
  -1  -3   0  316.97    8.50
  -1  -3   0  331.27    8.40
  -1  -3   0  326.77    8.20
   1   3   0  330.47    8.40
   1   3   0  325.37    8.10
   1   3   0  320.17    8.20
  -2  -3   0  483.45   12.50
  -2  -3   0  469.35   12.10
  -2  -3   0  493.95   12.10
   2   3   0  465.65   12.50
   2   3   0  484.15   12.20
   2   3   0  472.65   12.40
   2   3   0  502.95   12.50
  -3  -3   0    1.80    0.80
  -3  -3   0    1.80    1.20
  -3  -3   0    3.00    1.10
  -3  -3   0    3.00    0.50
   3   3   0    1.00    0.70
   3   3   0    1.70    0.60
   3   3   0    3.20    0.80
   3   3   0    2.30    0.70
  -4  -3   0  361.76    9.20
  -4  -3   0  349.87    9.20
   4   3   0  357.26    9.50
   4   3   0  356.26    9.40
   5   3   0   22.80    1.00
   5  -4   0  112.59    3.30
  -5   4   0  117.99    3.10
   4  -4   0   32.10    1.80
   4  -4   0   34.10    1.50
   4  -4   0   32.50    1.30
  -4   4   0   34.30    1.30
  -4   4   0   32.90    1.40
   3  -4   0   75.79    2.30
   3  -4   0   83.39    2.70
   3  -4   0   75.39    2.40
   3  -4   0   75.19    4.00
  -3   4   0   78.59    2.40
  -3   4   0   78.29    2.30
   2  -4   0 9999.00  242.78
   2  -4   0 9721.73  242.58
   1  -4   0   59.49    2.00
   1  -4   0   64.49    1.90
   1  -4   0   60.09    1.90
  -1   4   0   64.19    1.80
  -1   4   0   63.79    1.80
   0  -4   0   34.70    1.20
   0  -4   0   34.00    1.20
   0  -4   0   34.00    1.40
   0   4   0   33.10    1.30
   0   4   0   33.90    1.30
  -1  -4   0  428.96   11.10
  -1  -4   0  428.16   10.80
  -1  -4   0  434.16   10.70
   1   4   0  428.46   10.70
   1   4   0  390.96   10.80
   1   4   0  435.46   11.00
  -2  -4   0  230.18    6.60
  -2  -4   0  226.58    6.10
  -2  -4   0  234.98    6.10
  -2  -4   0  233.78    6.60
   2   4   0  228.98    6.40
   2   4   0  239.68    6.50
   2   4   0  230.98    6.30
   2   4   0  232.68    6.10
  -3  -4   0  564.34   15.70
  -3  -4   0  577.04   14.90
  -3  -4   0  563.74   15.80
  -3  -4   0  599.94   15.00
   3   4   0  621.44   15.30
   3   4   0  606.64   15.60
   3   4   0  597.84   15.30
  -4  -4   0   16.60    1.20
  -4  -4   0   14.80    1.40
   4   4   0   16.00    1.20
   4   4   0   16.30    1.10
   5  -5   0    0.80    0.40
  -5   5   0    0.50    0.70
   4  -5   0   25.70    1.10
   4  -5   0   26.10    1.30
  -4   5   0   23.50    1.20
  -4   5   0   25.70    1.10
   3  -5   0  264.27    7.00
   3  -5   0  249.18    6.90
   3  -5   0  258.57    6.70
  -3   5   0  256.87    6.70
  -3   5   0  253.87    6.80
   2  -5   0   18.20    1.20
   2  -5   0   22.40    1.30
   2  -5   0   20.30    1.10
  -2   5   0   21.90    0.90
  -2   5   0   21.30    1.20
  -2   5   0   20.60    1.00
   1  -5   0    7.80    0.80
   1  -5   0   10.20    1.10
   1  -5   0    7.00    1.00
   1  -5   0   11.60    1.10
   1  -5   0   10.20    1.00
  -1   5   0    8.90    0.90
  -1   5   0    7.90    1.00
  -1   5   0    9.60    0.70
  -1   5   0    9.50    1.00
  -1   5   0   10.00    0.60
   0  -5   0  122.09    3.30
   0  -5   0  123.99    3.70
   0  -5   0  111.39    3.80
   0  -5   0  112.69    3.50
   0  -5   0  119.29    3.30
   0   5   0  112.59    3.40
   0   5   0  120.29    3.50
   0   5   0  118.89    3.50
  -1  -5   0  389.96   10.00
  -1  -5   0  387.06   10.40
  -1  -5   0  388.96    9.90
   1   5   0  385.66   10.20
   1   5   0  377.46   10.00
   1   5   0  387.16   10.20
  -2  -5   0   26.90    2.20
  -2  -5   0   27.30    2.00
  -2  -5   0   26.40    1.20
  -2  -5   0   26.60    1.30
   2   5   0   25.40    1.80
   2   5   0   25.30    1.60
   2   5   0   25.30    1.20
  -3  -5   0  308.87    7.90
  -3  -5   0  298.77    9.50
  -3  -5   0  303.37    8.20
   3   5   0  296.97    8.80
   3   5   0  304.27    8.20
   3   5   0  310.17    8.20
  -4  -5   0   40.70    1.60
   4   5   0   39.80    1.60
   4   5   0   43.20    1.70
   4  -6   0   18.60    0.90
  -4   6   0   20.90    0.90
  -4   6   0   18.70    1.10
  -4   6   0   17.80    1.30
   3  -6   0 2088.89   52.19
   3  -6   0 2134.69   52.39
  -3   6   0 2066.79   52.29
  -3   6   0 2137.59   52.29
   2  -6   0    3.10    0.50
   2  -6   0    4.40    0.70
  -2   6   0    5.90    0.80
  -2   6   0    3.80    1.00
  -2   6   0    5.80    0.70
  -2   6   0    2.80    1.00
  -2   6   0    4.30    0.50
   1  -6   0   16.40    1.70
   1  -6   0   18.10    1.20
   1  -6   0   16.40    1.20
   1  -6   0   15.80    1.00
  -1   6   0   15.30    0.80
  -1   6   0   15.50    1.10
  -1   6   0   16.80    1.20
  -1   6   0   17.00    1.40
   0  -6   0  116.59    3.90
   0  -6   0  114.89    3.40
   0  -6   0  116.89    3.30
   0  -6   0  114.59    3.70
   0   6   0  116.79    3.70
   0   6   0  112.79    3.50
   0   6   0  114.39    3.40
  -1  -6   0  166.38    4.70
  -1  -6   0  167.68    4.60
  -1  -6   0  167.78    5.30
   1   6   0  160.98    5.10
   1   6   0  171.58    4.70
   1   6   0  167.18    4.90
  -2  -6   0  597.24   16.20
  -2  -6   0  590.44   15.50
  -2  -6   0  604.84   15.30
   2   6   0  624.54   15.60
   2   6   0  610.14   15.30
   2   6   0  598.74   16.00
  -3  -6   0   22.90    1.10
  -3  -6   0   20.90    1.50
   3   6   0   24.20    1.40
   3   6   0   22.40    1.20
   4  -7   0  122.79    3.30
  -4   7   0  128.89    3.40
  -4   7   0  124.59    3.30
  -3   7   0   10.90    0.70
  -3   7   0   10.90    1.60
  -3   7   0   13.10    0.90
   2  -7   0   -0.40    0.50
  -2   7   0    0.10    0.40
  -2   7   0    0.20    0.50
  -2   7   0    0.90    0.80
   1  -7   0   27.90    1.40
   1  -7   0   29.00    1.40
   1  -7   0   26.80    2.70
  -1   7   0   26.20    3.00
  -1   7   0   26.80    1.40
  -1   7   0   27.20    1.30
   0  -7   0  157.08    4.40
   0  -7   0  156.68    4.70
   0  -7   0  157.58    4.70
   0  -7   0  166.58    5.40
   0   7   0  172.78    4.60
   0   7   0  159.08    5.30
  -1  -7   0   28.70    2.60
  -1  -7   0   31.80    1.30
  -1  -7   0   31.90    1.60
   1   7   0   37.40    3.00
   1   7   0   31.40    1.40
   1   7   0   30.90    1.70
  -2  -7   0  166.08    4.50
  -2  -7   0  158.58    4.70
   2   7   0  169.58    4.40
   2   7   0  163.78    4.70
   2   7   0  164.98    4.80
  -3  -7   0   30.30    1.40
  -3  -7   0   30.50    1.20
   3   7   0   27.60    1.50
   3   7   0   31.20    1.30
   3  -8   0   -0.20    0.30
  -3   8   0    0.30    0.40
   2  -8   0    4.00    0.50
  -2   8   0    3.70    0.60
  -2   8   0    3.10    0.80
   1  -8   0   17.80    1.60
   1  -8   0   14.50    1.10
  -1   8   0   14.40    1.00
   0  -8   0   95.39    2.90
   0  -8   0  102.19    3.30
   0   8   0  103.09    3.20
  -1  -8   0  412.56   10.70
   1   8   0  422.46   10.90
   1   8   0  434.36   10.80
  -2  -8   0   18.10    1.10
   2   8   0   15.80    0.90
   2   8   0   15.80    1.50
   2  -9   0    4.90    0.60
   1  -9   0   31.50    2.40
   1  -9   0   39.50    1.50
  -1   9   0   38.50    1.60
  -1   9   0   39.40    1.40
   0  -9   0   13.20    1.00
   0   9   0   12.50    0.80
   0   9   0   12.00    1.70
   1   9  -1   52.59    1.60
  -1  -9   1   52.89    1.80
   0   9  -1   92.99    2.70
   0  -9   1   89.99    3.00
   0  -9   1   91.19    2.80
  -1   9  -1   -0.20    0.50
   1  -9   1   -1.70    0.80
   1  -9   1    0.10    0.50
  -2   9  -1   42.30    2.00
   2  -9   1   42.20    1.40
   2  -9   1   38.60    1.60
   2   8  -1    4.50    0.70
   2   8  -1    3.60    0.50
  -2  -8   1    5.00    0.60
  -2  -8   1    4.20    0.60
   1   8  -1  200.18    5.30
   1   8  -1  196.98    5.50
  -1  -8   1  199.18    6.60
  -1  -8   1  192.88    5.20
   0   8  -1  156.48    4.40
   0   8  -1  159.18    4.50
   0  -8   1  146.19    4.20
   0  -8   1  151.58    4.50
   0  -8   1  159.08    4.50
  -1   8  -1  269.97    7.10
   1  -8   1  252.27    7.30
   1  -8   1  256.17    7.00
  -2   8  -1   14.00    1.00
  -2   8  -1   14.70    1.40
   2  -8   1   16.90    1.00
  -3   8  -1    3.20    0.50
  -3   8  -1    3.50    0.60
   3  -8   1    3.00    0.40
   3   7  -1    9.50    0.80
  -3  -7   1   11.50    1.10
  -3  -7   1   10.50    1.00
   2   7  -1  124.39    3.80
   2   7  -1  121.99    3.40
  -2  -7   1  116.39    3.70
  -2  -7   1  120.19    3.40
   1   7  -1  118.59    4.90
   1   7  -1  122.09    3.80
   1   7  -1  127.29    3.60
  -1  -7   1  117.79    3.80
  -1  -7   1  123.59    3.50
  -1  -7   1  125.39    4.60
   0   7  -1    3.00    1.50
   0   7  -1    1.30    0.60
   0  -7   1    1.90    0.90
   0  -7   1    0.90    1.00
   0  -7   1    1.60    1.30
   0  -7   1    1.50    0.50
  -1   7  -1   95.59    3.00
  -1   7  -1   91.99    2.90
   1  -7   1   90.69    3.20
   1  -7   1   95.89    3.00
  -2   7  -1    5.10    0.70
  -2   7  -1    6.20    0.70
  -2   7  -1    5.50    1.00
  -2   7  -1    6.10    1.00
   2  -7   1    6.90    0.80
  -3   7  -1    2.70    0.90
  -3   7  -1    5.60    0.60
  -3   7  -1    4.60    0.60
   3  -7   1    3.40    0.90
   3  -7   1    4.00    0.60
  -4   7  -1    0.10    0.60
  -4   7  -1    0.50    0.30
   4  -7   1    0.10    0.30
   3   6  -1    8.00    1.00
   3   6  -1    8.30    0.90
  -3  -6   1    8.30    1.30
  -3  -6   1    7.40    0.80
   2   6  -1  442.66   12.40
   2   6  -1  466.35   12.00
   2   6  -1  472.75   11.70
  -2  -6   1  456.65   11.90
  -2  -6   1  453.65   12.70
  -2  -6   1  456.95   12.20
   1   6  -1  394.86   10.50
   1   6  -1  393.76   10.70
   1   6  -1  402.56   10.40
  -1  -6   1  406.76   11.00
  -1  -6   1  414.26   10.30
  -1  -6   1  398.76   10.40
  -1  -6   1  381.86   10.80
   0   6  -1  831.12   20.70
   0   6  -1  819.92   20.70
   0   6  -1  813.62   20.80
   0  -6   1  827.72   20.60
   0  -6   1  804.12   21.10
   0  -6   1  813.62   20.70
   0  -6   1  825.92   20.70
   0  -6   1  806.72   20.50
  -1   6  -1    5.30    1.00
  -1   6  -1    6.30    0.90
  -1   6  -1    7.90    0.60
  -1   6  -1    9.30    1.30
   1  -6   1    7.90    1.50
   1  -6   1    7.30    1.00
   1  -6   1    6.80    0.70
   1  -6   1    7.50    1.00
  -2   6  -1   15.60    1.00
  -2   6  -1   16.20    1.90
  -2   6  -1   16.80    0.80
  -2   6  -1   17.00    1.10
   2  -6   1   17.70    1.10
  -3   6  -1   39.80    1.40
  -3   6  -1   40.50    1.60
  -3   6  -1   39.20    1.60
   3  -6   1   38.00    1.80
   3  -6   1   40.90    1.50
   3  -6   1   42.10    1.70
  -4   6  -1    0.40    0.70
  -4   6  -1    1.90    0.40
  -4   6  -1    1.10    0.60
   4  -6   1    1.40    0.40
   4  -6   1    1.40    0.50
   4   5  -1   10.00    0.80
   4   5  -1   10.60    1.10
  -4  -5   1    9.30    0.90
   3   5  -1  159.68    4.60
   3   5  -1  159.18    4.50
   3   5  -1  153.18    5.20
  -3  -5   1  157.08    4.30
  -3  -5   1  151.48    4.40
  -3  -5   1  144.99    6.50
   2   5  -1  104.79    3.60
   2   5  -1  105.09    3.10
   2   5  -1  100.59    3.40
  -2  -5   1  105.09    3.80
  -2  -5   1  104.09    3.70
  -2  -5   1  106.09    3.10
  -2  -5   1  102.99    3.00
   1   5  -1    4.40    0.60
   1   5  -1    4.70    0.80
   1   5  -1    5.20    1.10
  -1  -5   1    4.00    0.50
  -1  -5   1    3.60    0.80
  -1  -5   1    4.30    0.60
   0   5  -1  197.78    5.50
   0   5  -1  201.98    5.60
   0   5  -1  208.78    5.60
   0  -5   1  189.88    5.70
   0  -5   1  209.28    5.40
   0  -5   1  209.78    5.80
   0  -5   1  201.28    5.60
   0  -5   1  212.38    5.50
  -1   5  -1    0.40    0.30
  -1   5  -1    0.00    0.30
  -1   5  -1   -0.10    0.80
  -1   5  -1    0.00    0.60
  -1   5  -1    0.00    0.40
   1  -5   1    1.80    0.50
   1  -5   1   -0.40    0.70
   1  -5   1    0.80    0.60
   1  -5   1    0.50    0.60
   1  -5   1   -0.20    0.60
  -2   5  -1    6.70    0.60
  -2   5  -1    7.30    1.00
  -2   5  -1    7.90    0.90
  -2   5  -1    7.20    0.60
   2  -5   1    8.70    0.80
   2  -5   1    7.50    1.10
  -3   5  -1    1.20    0.40
  -3   5  -1    1.00    0.40
   3  -5   1   -0.20    0.90
   3  -5   1    0.80    0.60
   3  -5   1    1.00    0.40
  -4   5  -1    1.90    0.40
  -4   5  -1    0.70    0.60
  -4   5  -1    1.70    0.50
   4  -5   1    2.70    0.60
   4  -5   1    0.70    0.50
  -5   5  -1    0.10    0.40
   5  -5   1    0.20    0.40
   4   4  -1   11.80    1.20
   4   4  -1    9.90    0.90
  -4  -4   1    9.70    1.10
  -4  -4   1    9.60    1.30
   3   4  -1  674.43   17.60
   3   4  -1  691.43   17.50
   3   4  -1  690.13   17.80
  -3  -4   1  694.63   17.20
  -3  -4   1  664.63   18.10
  -3  -4   1  684.83   17.30
   2   4  -1  628.94   16.20
   2   4  -1  609.24   16.00
   2   4  -1  635.24   15.90
   2   4  -1  634.84   16.30
  -2  -4   1  672.83   17.30
  -2  -4   1  614.84   15.90
  -2  -4   1  622.54   16.40
  -2  -4   1  625.74   15.80
   1   4  -1 2017.50   49.60
   1   4  -1 1929.31   49.50
  -1  -4   1 1958.40   49.40
  -1  -4   1 2046.30   49.40
  -1  -4   1 2039.00   49.80
   0   4  -1    4.40    0.50
   0   4  -1    4.40    0.50
   0   4  -1    4.60    0.50
   0   4  -1    4.60    0.60
   0  -4   1    4.00    0.50
   0  -4   1    3.70    0.70
   0  -4   1    4.60    0.50
  -1   4  -1   69.19    2.10
  -1   4  -1   69.39    2.00
   1  -4   1   64.39    2.10
   1  -4   1   72.59    2.10
   1  -4   1   73.69    2.30
  -2   4  -1  108.69    2.90
  -2   4  -1  106.29    2.90
   2  -4   1  112.29    3.30
   2  -4   1  101.29    3.00
   2  -4   1  104.39    3.00
   2  -4   1  101.29    3.20
  -3   4  -1    0.10    0.40
  -3   4  -1   -0.10    0.40
   3  -4   1    0.40    0.90
   3  -4   1    0.20    0.50
   3  -4   1    0.10    0.60
  -4   4  -1   62.79    2.00
  -4   4  -1   63.29    2.00
   4  -4   1   61.89    2.20
   4  -4   1   60.19    2.30
  -5   4  -1  103.49    2.80
   5  -4   1  100.79    3.00
   5   3  -1    8.00    0.70
   4   3  -1  121.89    3.70
   4   3  -1  122.09    3.80
  -4  -3   1  128.59    3.60
  -4  -3   1  123.89    3.60
   3   3  -1   54.29    2.00
   3   3  -1   53.29    2.30
   3   3  -1   51.69    2.10
   3   3  -1   50.49    2.10
  -3  -3   1   51.59    2.50
  -3  -3   1   55.39    1.80
  -3  -3   1   51.49    2.70
  -3  -3   1   49.60    1.80
   2   3  -1   -0.60    0.80
   2   3  -1    0.00    0.30
   2   3  -1    0.50    1.00
   2   3  -1   -0.40    0.40
  -2  -3   1   -0.20    0.50
  -2  -3   1    0.50    0.50
  -2  -3   1   -0.10    0.30
  -2  -3   1    0.80    0.50
   1   3  -1  534.95   13.30
   1   3  -1  539.35   13.10
  -1  -3   1  520.25   13.40
  -1  -3   1  511.15   13.20
  -1  -3   1  528.65   13.20
   0   3  -1   76.59    2.20
   0   3  -1   75.39    2.10
   0  -3   1   78.89    2.10
   0  -3   1   78.59    2.30
  -1   3  -1   14.70    0.60
  -1   3  -1   13.20    0.70
   1  -3   1   14.50    0.70
   1  -3   1   15.00    0.60
   1  -3   1   14.40    0.80
   1  -3   1   14.20    0.70
  -2   3  -1   13.60    0.80
  -2   3  -1   13.70    0.60
   2  -3   1   13.80    0.70
  -3   3  -1   17.70    0.90
  -3   3  -1   18.60    0.80
   3  -3   1   18.60    1.00
   3  -3   1   16.20    1.70
   3  -3   1   15.50    1.00
   3  -3   1   20.00    1.30
  -4   3  -1    1.20    0.50
  -4   3  -1    0.60    0.50
   4  -3   1    2.10    0.60
   4  -3   1    0.00    0.70
   4  -3   1    0.20    0.90
  -5   3  -1   12.50    1.10
  -5   3  -1   14.40    1.10
   5  -3   1   14.20    0.90
   5   2  -1   13.40    0.80
   4   2  -1  508.15   13.10
   4   2  -1  514.15   13.10
   4   2  -1  514.65   13.10
  -4  -2   1  495.75   12.80
  -4  -2   1  487.15   12.90
   3   2  -1  416.16   10.50
   3   2  -1  410.86   10.80
   3   2  -1  407.26   10.60
   3   2  -1  411.86   10.70
   3   2  -1  410.06   10.80
  -3  -2   1  419.66   10.40
  -3  -2   1  391.96   10.80
  -3  -2   1  405.16   11.00
   2   2  -1 2409.56   61.19
   2   2  -1 2501.05   61.39
  -2  -2   1 2540.55   61.39
  -2  -2   1 2457.75   61.39
   1   2  -1  156.88    4.00
   1   2  -1  156.68    4.00
   1   2  -1  149.59    4.10
  -1  -2   1  153.28    4.10
  -1  -2   1  158.28    4.00
   0   2  -1   29.20    0.80
   0   2  -1   28.50    0.90
   0  -2   1   29.80    0.90
   0  -2   1   28.60    1.00
   0  -2   1   27.70    0.80
  -1   2  -1   80.39    1.90
  -1   2  -1   72.99    1.90
   1  -2   1   64.49    1.90
   1  -2   1   71.39    1.90
   1  -2   1   67.09    2.00
  -2   2  -1   49.70    1.40
   2  -2   1   49.30    1.50
  -3   2  -1  168.38    4.20
   3  -2   1  162.98    4.60
   3  -2   1  161.28    4.70
   3  -2   1  157.38    4.60
   3  -2   1  158.48    4.60
   3  -2   1  158.48    4.40
  -4   2  -1  365.46    9.00
  -4   2  -1  350.16    9.10
   4  -2   1  354.46    9.30
   4  -2   1  337.57    9.10
   4  -2   1  351.16    9.30
  -5   2  -1    4.50    0.90
  -5   2  -1    2.80    0.90
   5  -2   1    3.00    0.60
   5   1  -1   46.80    1.70
   4   1  -1    9.90    1.00
   4   1  -1    7.90    1.10
   4   1  -1    9.20    1.20
  -4  -1   1    9.30    0.90
   3   1  -1    5.10    0.60
   3   1  -1    4.90    0.90
   3   1  -1    3.50    0.90
   3   1  -1    3.00    0.60
   3   1  -1    4.40    0.70
   3   1  -1    3.60    0.70
  -3  -1   1    3.50    0.80
  -3  -1   1    3.60    0.50
   2   1  -1  412.96   10.40
   2   1  -1  414.66   10.60
  -2  -1   1  419.06   10.30
  -2  -1   1  413.36   10.60
  -2  -1   1  408.06   10.40
  -2  -1   1  413.96   10.50
   1   1  -1  347.87    8.60
   1   1  -1  340.47    8.70
   1   1  -1  346.37    8.60
  -1  -1   1  346.67    8.70
  -1  -1   1  334.87    8.60
  -1  -1   1  339.37    8.50
  -1  -1   1  343.57    8.50
   0   1  -1   34.70    0.90
   0   1  -1   33.30    0.90
   0   1  -1   33.60    0.90
   0  -1   1   32.60    0.90
   0  -1   1   35.50    0.90
   0  -1   1   37.60    1.00
  -1   1  -1  173.18    4.40
  -1   1  -1  171.48    4.30
   1  -1   1  179.98    4.40
   1  -1   1  174.48    4.40
  -2   1  -1   95.79    2.80
  -2   1  -1  107.49    2.80
  -2   1  -1  107.19    2.70
   2  -1   1  109.09    2.80
   2  -1   1  108.89    2.90
  -3   1  -1   43.00    1.30
  -3   1  -1   44.60    1.60
   3  -1   1   40.50    1.90
   3  -1   1   42.60    1.80
   3  -1   1   42.30    1.80
   3  -1   1   42.60    1.50
  -4   1  -1   78.89    2.30
   4  -1   1   76.79    3.10
   4  -1   1   77.29    2.60
   4  -1   1   75.29    2.50
   4  -1   1   78.69    2.60
  -5   1  -1    4.50    1.10
   5  -1   1    5.90    0.80
   5   0  -1  220.58    5.90
  -5   0   1  206.28    5.70
  -5   0   1  221.78    5.70
   4   0  -1  118.79    3.80
   4   0  -1  116.29    3.60
   4   0  -1  118.39    3.60
  -4   0   1  119.89    3.30
   3   0  -1 1255.17   30.60
   3   0  -1 1167.38   30.60
   3   0  -1 1223.28   30.50
   3   0  -1 1228.28   30.50
  -3   0   1 1255.77   30.60
  -3   0   1 1192.78   30.20
   2   0  -1  190.88    5.00
  -2   0   1  191.88    4.80
  -2   0   1  190.18    5.00
  -2   0   1  189.98    5.10
   1   0  -1    9.00    0.40
   1   0  -1    8.40    0.40
   1   0  -1    8.80    0.40
  -1   0   1    8.90    0.40
  -1   0   1    9.20    0.30
  -1   0   1    8.40    0.30
   0   0  -1   92.09    2.30
   0   0  -1   93.39    2.30
   0   0  -1   92.49    2.30
   0   0   1   91.89    2.30
   1   0   1  305.17    7.80
   1   0   1  306.07    7.70
   1   0   1  313.47    7.70
  -2   0  -1  335.37    8.70
   2   0   1  344.17    8.60
   2   0   1  338.67    8.60
   2   0   1  345.87    8.80
  -3   0  -1  874.91   21.30
  -3   0  -1  838.02   21.00
  -3   0  -1  854.31   21.30
   3   0   1  846.42   21.40
   3   0   1  834.62   21.40
   3   0   1  852.71   21.30
   3   0   1  819.62   21.20
   3   0   1  859.21   21.30
  -4   0  -1   12.60    0.90
   4   0   1   13.30    1.20
   4   0   1   15.10    1.10
   4   0   1   14.30    1.10
   4   0   1   13.40    1.20
   4   0   1   13.50    1.00
   5   0   1   34.80    1.40
  -5   1   1    2.10    0.70
  -5   1   1    1.60    0.70
   4  -1  -1   14.20    1.10
   4  -1  -1   15.50    1.40
  -4   1   1   13.60    0.90
  -4   1   1   13.90    1.10
   3  -1  -1   71.99    2.10
   3  -1  -1   66.49    2.40
   3  -1  -1   67.19    2.40
  -3   1   1   69.19    2.20
  -3   1   1   62.49    2.40
  -3   1   1   69.49    2.00
   2  -1  -1  393.86    9.90
  -2   1   1  394.86    9.80
  -2   1   1  380.96    9.90
   1  -1  -1    7.70    0.30
   1  -1  -1    7.80    0.40
   1  -1  -1    8.00    0.40
  -1   1   1    7.90    0.40
  -1   1   1    7.50    0.30
   0  -1  -1  237.48    5.80
   0  -1  -1  238.58    5.80
   0   1   1  228.28    5.80
   0   1   1  229.68    5.80
  -1  -1  -1  312.57    7.80
   1   1   1  320.57    8.00
   1   1   1  313.97    7.90
   1   1   1  310.97    7.80
  -2  -1  -1  329.27    8.50
  -2  -1  -1  334.97    8.30
   2   1   1  335.97    8.60
   2   1   1  313.37    8.40
   2   1   1  336.97    8.40
  -3  -1  -1  194.28    5.60
  -3  -1  -1  205.68    5.20
  -3  -1  -1  207.68    5.70
   3   1   1  200.38    5.50
   3   1   1  209.38    5.60
   3   1   1  211.98    5.60
   3   1   1  210.88    5.50
   3   1   1  207.78    5.80
   3   1   1  207.28    5.80
   3   1   1  203.08    5.70
  -4  -1  -1    0.90    0.60
   4   1   1    0.40    0.60
   4   1   1    2.00    0.90
   4   1   1    1.20    0.60
   4   1   1   -0.10    0.60
   4   1   1    1.40    0.60
   5   1   1   64.89    2.10
   5  -2  -1   18.30    1.10
  -5   2   1   16.90    1.20
  -5   2   1   16.90    1.00
   4  -2  -1  379.26    9.90
   4  -2  -1  376.46    9.90
  -4   2   1  381.46    9.70
  -4   2   1  371.26    9.60
   3  -2  -1   75.29    2.50
   3  -2  -1   73.39    2.30
   3  -2  -1   72.99    2.20
  -3   2   1   74.49    2.30
  -3   2   1   74.49    2.20
  -3   2   1   73.19    2.20
   2  -2  -1   10.60    0.60
  -2   2   1   10.30    0.80
  -2   2   1   10.20    0.50
   1  -2  -1  248.28    6.90
   1  -2  -1  282.67    6.80
   1  -2  -1  277.87    6.80
   1  -2  -1  271.97    6.80
  -1   2   1  270.27    6.80
   0  -2  -1  588.24   14.30
   0  -2  -1  575.84   14.40
   0   2   1  572.94   14.30
   0   2   1  577.14   14.30
   0   2   1  580.74   14.30
   0   2   1  567.24   14.40
  -1  -2  -1  157.98    4.00
  -1  -2  -1  153.28    4.20
   1   2   1  155.48    4.10
   1   2   1  158.48    4.00
   1   2   1  154.88    3.90
  -2  -2  -1  928.71   22.90
  -2  -2  -1  917.81   23.30
   2   2   1  932.21   23.00
   2   2   1  891.71   23.10
   2   2   1  965.20   23.30
  -3  -2  -1   23.30    1.70
  -3  -2  -1   25.80    1.00
  -3  -2  -1   19.50    2.20
   3   2   1   23.70    1.20
   3   2   1   25.00    1.30
   3   2   1   24.40    1.50
   3   2   1   23.60    1.50
   3   2   1   23.90    1.50
   3   2   1   22.50    1.20
   3   2   1   23.80    1.10
  -4  -2  -1  104.99    3.10
   4   2   1  107.59    3.40
   4   2   1  107.59    3.40
   4   2   1  110.39    3.30
   5   2   1    1.60    0.50
   5   2   1    0.50    0.40
   5  -3  -1   17.40    1.00
  -5   3   1   16.00    1.20
  -5   3   1   18.80    1.00
   4  -3  -1    9.40    0.90
   4  -3  -1   10.70    1.10
  -4   3   1   10.40    0.80
  -4   3   1    9.20    0.90
   3  -3  -1  148.89    4.30
   3  -3  -1  147.99    4.00
   3  -3  -1  142.39    4.10
  -3   3   1  145.59    4.00
  -3   3   1  146.79    3.90
   2  -3  -1    6.80    0.50
  -2   3   1    8.70    0.60
   1  -3  -1   23.90    1.00
   1  -3  -1   24.60    0.80
   1  -3  -1   24.20    0.90
  -1   3   1   24.20    0.90
  -1   3   1   22.50    0.90
   0  -3  -1  210.68    5.30
   0  -3  -1  208.48    5.50
   0  -3  -1  204.58    5.30
   0   3   1  201.68    5.30
   0   3   1  206.88    5.40
   0   3   1  209.48    5.20
   0   3   1  202.08    5.30
  -1  -3  -1  742.73   19.00
  -1  -3  -1  767.32   18.90
   1   3   1  775.62   19.00
  -2  -3  -1  177.78    4.90
  -2  -3  -1  186.28    5.20
  -2  -3  -1  185.98    4.80
   2   3   1  176.98    5.20
   2   3   1  182.68    4.90
   2   3   1  181.28    5.10
   2   3   1  186.68    5.10
  -3  -3  -1   46.90    1.60
  -3  -3  -1   46.20    2.50
  -3  -3  -1   45.50    2.50
   3   3   1   45.20    2.00
   3   3   1   46.00    1.90
   3   3   1   47.30    1.80
   3   3   1   45.70    2.20
  -4  -3  -1   79.59    2.60
   4   3   1   80.49    2.70
   4   3   1   80.99    2.70
   5   3   1   11.90    0.90
   5   3   1   12.00    0.70
   5  -4  -1   96.79    3.00
  -5   4   1  107.79    2.80
   4  -4  -1   28.00    1.20
   4  -4  -1   23.50    1.70
   4  -4  -1   26.10    1.40
  -4   4   1   26.50    1.20
  -4   4   1   28.80    1.30
   3  -4  -1    0.10    0.40
   3  -4  -1    0.60    0.60
   3  -4  -1   -0.10    0.60
  -3   4   1    0.30    0.40
  -3   4   1    0.50    0.40
   2  -4  -1  175.28    4.90
   2  -4  -1  179.68    5.00
   2  -4  -1  175.28    4.80
   2  -4  -1  176.58    4.70
  -2   4   1  182.68    4.70
  -2   4   1  176.38    4.70
   1  -4  -1  345.37    9.00
   1  -4  -1  349.37    8.80
   1  -4  -1  342.87    8.80
  -1   4   1  342.67    8.70
  -1   4   1  348.07    8.80
   0  -4  -1    0.60    0.30
   0  -4  -1    0.60    0.40
   0  -4  -1    0.60    0.30
   0   4   1    0.30    0.30
   0   4   1    0.60    0.50
   0   4   1    1.50    0.50
   0   4   1    0.50    0.30
  -1  -4  -1  510.45   13.00
  -1  -4  -1  510.65   12.60
  -1  -4  -1  495.15   12.60
   1   4   1  471.35   12.70
   1   4   1  504.55   12.60
   1   4   1  508.15   12.90
  -2  -4  -1   19.30    1.00
  -2  -4  -1   19.10    1.00
  -2  -4  -1   20.80    1.50
   2   4   1   19.60    1.40
   2   4   1   19.60    1.10
   2   4   1   19.10    1.50
   2   4   1   17.90    1.40
   2   4   1   20.50    1.20
  -3  -4  -1  188.08    5.30
  -3  -4  -1  193.08    6.30
  -3  -4  -1  192.58    5.40
   3   4   1  199.18    5.50
   3   4   1  209.38    5.70
   3   4   1  201.78    6.00
   3   4   1  198.08    5.60
  -4  -4  -1    0.90    0.80
  -4  -4  -1   -0.10    0.90
   4   4   1    1.00    0.60
   4   4   1    0.90    0.50
   5  -5  -1    0.50    0.40
  -5   5   1   -0.30    0.50
   4  -5  -1   27.10    1.10
   4  -5  -1   25.10    1.30
  -4   5   1   26.40    1.10
  -4   5   1   26.40    1.20
   3  -5  -1   10.10    1.30
   3  -5  -1   14.40    1.20
   3  -5  -1   12.70    0.90
  -3   5   1   11.80    0.80
  -3   5   1   13.50    0.90
   2  -5  -1    0.30    0.70
   2  -5  -1    0.20    0.80
  -2   5   1    0.50    0.60
  -2   5   1    0.60    0.30
  -2   5   1    1.10    1.10
  -2   5   1    1.20    0.40
   1  -5  -1   58.39    1.80
   1  -5  -1   50.29    1.90
   1  -5  -1   51.29    2.00
   1  -5  -1   50.39    1.90
   1  -5  -1   49.50    1.60
  -1   5   1   48.70    1.60
  -1   5   1   48.50    1.80
  -1   5   1   47.30    1.90
  -1   5   1   49.40    1.50
  -1   5   1   50.09    1.80
   0  -5  -1  586.14   15.40
   0  -5  -1  622.74   15.40
   0  -5  -1  623.64   15.30
   0  -5  -1  578.74   15.60
   0  -5  -1  623.64   15.80
   0   5   1  613.64   15.60
   0   5   1  621.74   15.50
   0   5   1  598.14   15.40
  -1  -5  -1   19.70    1.40
  -1  -5  -1   18.20    1.00
  -1  -5  -1   17.40    0.90
   1   5   1   19.30    1.40
   1   5   1   17.80    1.40
   1   5   1   17.00    1.10
  -2  -5  -1  119.39    3.40
  -2  -5  -1  121.19    4.20
  -2  -5  -1  119.09    3.50
   2   5   1  117.39    3.40
   2   5   1  118.69    4.10
   2   5   1  116.49    3.60
   2   5   1  118.39    3.80
  -3  -5  -1   56.69    1.90
  -3  -5  -1   52.79    2.10
  -3  -5  -1   63.29    4.80
   3   5   1   49.99    3.20
   3   5   1   59.19    2.20
   3   5   1   56.99    2.20
  -4  -5  -1   14.30    1.10
   4   5   1   13.30    0.90
   4   5   1   12.60    1.00
   4  -6  -1    0.00    0.50
   4  -6  -1    0.30    0.40
  -4   6   1    0.10    0.40
  -4   6   1    0.50    0.80
  -4   6   1    0.10    0.30
   3  -6  -1  105.79    3.10
   3  -6  -1  105.89    3.20
  -3   6   1  103.99    3.10
  -3   6   1  100.79    3.10
   2  -6  -1   66.49    2.30
   2  -6  -1   67.39    2.20
  -2   6   1   65.39    2.60
  -2   6   1   63.09    2.50
  -2   6   1   66.69    2.20
  -2   6   1   64.89    2.00
  -2   6   1   66.69    2.20
   1  -6  -1   11.50    1.10
   1  -6  -1   12.50    1.60
   1  -6  -1   10.00    0.90
   1  -6  -1    9.60    1.10
  -1   6   1    9.80    1.10
  -1   6   1   12.90    1.30
  -1   6   1   11.80    1.00
  -1   6   1    9.70    0.80
   0  -6  -1  143.79    4.20
   0  -6  -1  146.59    4.20
   0  -6  -1  144.99    4.00
   0  -6  -1  148.39    4.70
   0  -6  -1  149.59    5.60
   0   6   1  145.39    4.20
   0   6   1  145.69    4.30
   0   6   1  146.49    4.50
  -1  -6  -1    9.40    1.00
  -1  -6  -1   10.20    0.80
  -1  -6  -1   10.10    1.70
   1   6   1    9.40    1.30
   1   6   1    9.70    0.90
  -2  -6  -1  188.88    5.30
  -2  -6  -1  194.48    5.20
  -2  -6  -1  186.68    6.20
   2   6   1  192.28    5.50
   2   6   1  189.08    5.10
   2   6   1  186.48    6.10
  -3  -6  -1    2.70    0.60
  -3  -6  -1    3.70    0.90
   3   6   1    1.80    0.60
   3   6   1    3.40    0.80
   4  -7  -1   13.20    0.70
  -4   7   1   10.70    0.70
  -4   7   1   14.20    0.80
   3  -7  -1    0.10    0.40
  -3   7   1    0.60    0.40
  -3   7   1    1.00    0.50
   2  -7  -1   10.00    0.90
  -2   7   1   10.30    1.20
  -2   7   1   10.60    0.80
  -2   7   1   12.20    0.90
   1  -7  -1  288.47    8.90
   1  -7  -1  312.97    8.20
   1  -7  -1  315.77    8.20
  -1   7   1  318.07    8.20
  -1   7   1  311.07    8.20
  -1   7   1  300.57    8.70
   0  -7  -1    1.50    1.30
   0  -7  -1    3.50    1.00
   0  -7  -1    0.80    1.00
   0  -7  -1    2.10    0.80
   0  -7  -1    3.20    0.80
   0   7   1    1.60    0.50
   0   7   1    1.50    1.40
  -1  -7  -1  114.99    3.20
  -1  -7  -1  108.59    4.30
  -1  -7  -1   97.89    4.00
   1   7   1  115.59    3.50
   1   7   1  117.49    3.30
   1   7   1  110.89    4.40
  -2  -7  -1   25.40    1.10
  -2  -7  -1   23.60    1.60
   2   7   1   24.80    1.50
   2   7   1   23.20    1.10
   2   7   1   24.40    1.30
  -3  -7  -1   10.00    1.00
  -3  -7  -1    8.00    0.70
   3   7   1    9.60    0.80
   3  -8  -1    7.30    0.60
  -3   8   1    7.20    0.70
   2  -8  -1   14.90    1.00
  -2   8   1   17.20    1.00
  -2   8   1   14.90    1.20
   1  -8  -1   28.80    1.80
   1  -8  -1   30.10    1.40
  -1   8   1   32.10    1.40
  -1   8   1   31.80    1.40
   0  -8  -1    0.10    1.10
   0  -8  -1    2.00    0.60
   0   8   1   -0.50    0.50
   0   8   1    0.50    0.60
  -1  -8  -1  116.29    3.30
   1   8   1  119.69    3.50
   1   8   1  123.39    3.40
  -2  -8  -1    8.00    0.90
  -2  -8  -1    8.50    0.70
   2   8   1    8.30    0.80
   2   8   1    7.10    1.00
   2  -9  -1  134.09    3.60
  -2   9   1  132.19    3.70
   1  -9  -1    7.90    0.90
  -1   9   1   10.60    0.80
  -1   9   1    9.20    1.00
   0  -9  -1   72.69    2.20
   0   9   1   66.89    2.70
   0   9   1   72.69    2.10
   1   9  -2   14.90    0.80
  -1  -9   2   13.80    0.90
   0   9  -2   94.19    2.70
   0  -9   2   93.59    2.80
   0  -9   2   90.59    2.90
  -1   9  -2    0.90    0.50
   1  -9   2    0.90    0.80
   1  -9   2    1.10    0.50
  -2   9  -2   27.10    2.30
   2  -9   2   32.70    1.20
   2  -9   2   32.00    1.20
   2   8  -2    1.40    0.50
   2   8  -2    1.00    0.40
  -2  -8   2    1.40    0.40
  -2  -8   2    1.10    0.60
   1   8  -2   12.50    0.90
  -1  -8   2   11.60    0.80
  -1  -8   2   12.30    1.10
   0   8  -2   94.39    2.90
   0   8  -2   92.49    3.20
   0  -8   2   91.79    3.00
   0  -8   2   80.09    2.70
   0  -8   2   99.89    3.00
  -1   8  -2    3.00    0.60
   1  -8   2    2.10    1.10
   1  -8   2    3.30    0.60
  -2   8  -2   44.20    1.60
  -2   8  -2   41.80    2.00
   2  -8   2   45.10    1.60
  -3   8  -2    0.10    0.40
  -3   8  -2    1.00    0.60
   3  -8   2    0.40    0.70
   3  -8   2   -0.10    0.30
   3   7  -2    5.10    0.70
  -3  -7   2    5.10    0.70
  -3  -7   2    4.00    0.70
   2   7  -2   81.29    3.00
   2   7  -2   76.99    2.60
  -2  -7   2   79.49    2.80
  -2  -7   2   82.39    2.40
   1   7  -2  173.48    5.10
   1   7  -2  181.38    4.90
  -1  -7   2  172.18    4.70
  -1  -7   2  171.28    5.80
  -1  -7   2  173.78    5.00
   0   7  -2    2.10    0.60
   0  -7   2    1.10    0.70
   0  -7   2   -0.60    1.20
   0  -7   2   -1.30    1.00
   0  -7   2    1.00    0.50
  -1   7  -2  108.49    3.40
  -1   7  -2  111.59    3.30
   1  -7   2  107.39    3.50
   1  -7   2  110.89    3.30
  -2   7  -2    3.40    1.00
  -2   7  -2    1.20    0.80
  -2   7  -2    2.10    0.40
   2  -7   2    2.70    0.50
  -3   7  -2    1.60    0.40
  -3   7  -2    2.40    0.80
  -3   7  -2    1.70    0.70
   3  -7   2    2.50    0.70
   3  -7   2    1.70    0.40
  -4   7  -2    1.00    0.30
   4  -7   2    0.80    0.40
   3   6  -2    0.80    0.60
   3   6  -2   -0.20    1.00
  -3  -6   2    1.00    0.50
  -3  -6   2   -0.40    0.80
  -3  -6   2    0.30    0.80
   2   6  -2   82.09    3.00
   2   6  -2   87.39    2.60
   2   6  -2   82.19    3.50
  -2  -6   2   82.19    3.70
  -2  -6   2   80.19    2.70
   1   6  -2   62.59    2.20
   1   6  -2   61.79    2.60
   1   6  -2   60.79    2.60
  -1  -6   2   66.29    2.20
  -1  -6   2   63.59    2.80
  -1  -6   2   65.79    2.00
  -1  -6   2   62.69    2.80
   0   6  -2   -0.50    0.50
   0   6  -2    0.30    0.60
   0   6  -2    0.30    0.80
   0  -6   2    0.20    0.70
   0  -6   2    0.80    0.60
   0  -6   2    0.00    0.80
   0  -6   2    0.20    0.40
   0  -6   2    0.40    1.00
  -1   6  -2  200.08    5.40
  -1   6  -2  189.08    5.50
  -1   6  -2  198.98    5.10
  -1   6  -2  195.88    5.30
   1  -6   2  201.08    5.90
   1  -6   2  195.28    5.40
  -2   6  -2    3.10    0.50
  -2   6  -2    2.40    0.60
  -2   6  -2    1.60    0.30
   2  -6   2    2.80    0.60
  -3   6  -2   41.60    1.70
  -3   6  -2   41.00    1.40
  -3   6  -2   42.80    1.60
   3  -6   2   41.80    1.50
   3  -6   2   40.00    1.70
   3  -6   2   41.50    1.80
  -4   6  -2    2.00    0.70
  -4   6  -2    1.00    0.40
  -4   6  -2    2.10    0.80
   4  -6   2    1.00    0.50
   4  -6   2    0.60    0.40
   4   5  -2   10.70    0.80
   4   5  -2    9.90    1.40
  -4  -5   2    9.30    0.90
   3   5  -2  204.98    5.80
   3   5  -2  206.88    5.40
   3   5  -2  205.58    5.80
   3   5  -2  199.48    6.30
  -3  -5   2  205.88    5.50
  -3  -5   2  212.28    5.70
   2   5  -2  290.47    8.10
   2   5  -2  302.87    7.70
   2   5  -2  284.97    8.00
  -2  -5   2  300.37    7.70
  -2  -5   2  300.57    8.40
  -2  -5   2  289.17    7.80
   1   5  -2   42.40    1.70
   1   5  -2   42.00    2.40
   1   5  -2   43.10    1.80
  -1  -5   2   47.80    1.90
  -1  -5   2   43.00    1.60
  -1  -5   2   44.40    1.50
  -1  -5   2   44.10    2.00
   0   5  -2  383.26   10.10
   0   5  -2  384.86   10.10
   0   5  -2  386.96   10.20
   0   5  -2  389.56    9.90
   0  -5   2  382.06   10.20
   0  -5   2  402.76   10.10
   0  -5   2  403.36   10.00
   0  -5   2  394.26   10.20
   0  -5   2  398.06   10.40
  -1   5  -2   37.30    1.60
  -1   5  -2   41.40    1.40
  -1   5  -2   43.50    1.30
  -1   5  -2   38.80    1.70
  -1   5  -2   41.50    1.70
  -1   5  -2   41.90    2.00
   1  -5   2   40.50    1.70
   1  -5   2   41.10    1.60
   1  -5   2   37.30    1.50
   1  -5   2   42.80    1.90
  -2   5  -2  125.79    3.70
  -2   5  -2  122.39    3.60
  -2   5  -2  126.89    3.50
   2  -5   2  121.09    3.50
   2  -5   2  134.19    3.80
  -3   5  -2    6.80    0.80
  -3   5  -2    7.10    0.70
  -3   5  -2    5.70    0.60
   3  -5   2    7.10    1.00
   3  -5   2    5.50    0.90
   3  -5   2    7.50    0.80
  -4   5  -2   31.80    1.10
  -4   5  -2   28.20    2.10
  -4   5  -2   29.20    1.30
   4  -5   2   28.00    1.30
   4  -5   2   23.70    2.10
   4  -5   2   29.30    1.50
  -5   5  -2   60.39    1.70
   5  -5   2   58.49    1.80
   4   4  -2    2.40    0.80
   4   4  -2    0.90    0.50
  -4  -4   2    0.00    0.80
  -4  -4   2    1.50    0.60
   3   4  -2  199.28    6.00
   3   4  -2  201.28    5.70
   3   4  -2  203.48    5.30
   3   4  -2  198.58    5.70
  -3  -4   2  202.78    5.50
  -3  -4   2  194.28    6.80
  -3  -4   2  199.88    6.30
  -3  -4   2  203.58    5.40
   2   4  -2    7.20    1.00
   2   4  -2    7.00    0.70
   2   4  -2    7.60    1.20
  -2  -4   2    4.90    1.10
  -2  -4   2    6.10    0.70
  -2  -4   2    6.00    1.10
  -2  -4   2    8.60    0.70
   1   4  -2   11.10    1.10
   1   4  -2   12.30    0.80
  -1  -4   2   12.50    0.70
  -1  -4   2   11.50    1.00
  -1  -4   2   12.90    0.70
   0   4  -2  522.45   13.20
   0   4  -2  502.15   13.10
   0   4  -2  521.15   13.20
   0   4  -2  523.75   13.20
   0  -4   2  540.85   13.20
   0  -4   2  540.05   13.50
   0  -4   2  527.55   13.20
  -1   4  -2   21.30    0.80
  -1   4  -2   20.60    0.80
  -1   4  -2   21.40    0.80
   1  -4   2   18.10    1.00
   1  -4   2   20.70    1.10
  -2   4  -2  196.68    5.20
  -2   4  -2  200.88    5.20
   2  -4   2  194.18    5.30
   2  -4   2  199.18    5.20
   2  -4   2  200.68    5.50
  -3   4  -2   19.50    0.90
  -3   4  -2   20.60    1.00
   3  -4   2   21.40    1.30
   3  -4   2   17.20    1.50
   3  -4   2   21.00    1.10
  -4   4  -2   24.00    1.10
  -4   4  -2   24.50    1.20
   4  -4   2   23.60    1.50
   4  -4   2   23.70    1.30
   4  -4   2   22.80    1.50
  -5   4  -2    0.00    0.50
   5  -4   2    0.50    0.50
   5   3  -2   11.50    0.80
  -5  -3   2   11.90    1.20
   4   3  -2  304.67    8.10
   4   3  -2  299.97    8.20
  -4  -3   2  310.37    8.10
  -4  -3   2  305.57    7.90
   3   3  -2  349.87    9.60
   3   3  -2  347.17    9.00
   3   3  -2  352.46    9.20
   3   3  -2  355.46    9.40
   3   3  -2  344.47    9.40
  -3  -3   2  358.66    9.10
  -3  -3   2  356.66    9.70
  -3  -3   2  353.96    9.70
  -3  -3   2  362.66    9.20
   2   3  -2  187.68    5.30
   2   3  -2  192.68    5.00
   2   3  -2  180.68    5.10
   2   3  -2  188.88    5.30
  -2  -3   2  191.18    5.00
  -2  -3   2  194.98    5.30
  -2  -3   2  198.08    5.40
  -2  -3   2  190.38    5.00
   1   3  -2 1000.30   25.40
   1   3  -2 1015.80   25.20
  -1  -3   2 1023.20   25.50
  -1  -3   2 1020.90   25.30
  -1  -3   2 1032.20   25.50
  -1  -3   2 1016.10   25.30
   0   3  -2  244.08    6.10
   0   3  -2  235.68    6.10
   0   3  -2  245.48    6.10
   0  -3   2  237.38    6.30
   0  -3   2  242.48    6.20
  -1   3  -2 1683.63   41.60
   1  -3   2 1661.53   41.70
   1  -3   2 1736.93   41.60
   1  -3   2 1666.33   41.90
  -2   3  -2   54.09    1.70
  -2   3  -2   55.79    1.60
   2  -3   2   56.79    1.70
  -3   3  -2  140.19    3.80
  -3   3  -2  137.79    3.80
   3  -3   2  146.29    4.10
   3  -3   2  134.99    3.80
   3  -3   2  140.29    3.90
   3  -3   2  134.09    4.10
  -4   3  -2  154.78    4.30
  -4   3  -2  158.48    4.30
   4  -3   2  156.18    4.60
   4  -3   2  157.18    4.50
   4  -3   2  162.38    4.60
  -5   3  -2   21.80    1.20
   5  -3   2   22.80    1.10
   5   2  -2   11.90    0.80
  -5  -2   2    9.70    1.10
   4   2  -2  189.18    5.30
   4   2  -2  187.48    5.30
   4   2  -2  187.28    5.40
  -4  -2   2  184.18    5.10
   3   2  -2   23.00    1.40
   3   2  -2   22.30    1.40
   3   2  -2   23.30    1.10
   3   2  -2   21.50    1.60
   3   2  -2   24.10    1.30
  -3  -2   2   23.40    1.00
  -3  -2   2   17.80    1.70
  -3  -2   2   22.90    1.20
   2   2  -2   49.60    1.50
   2   2  -2   47.40    1.70
  -2  -2   2   49.10    1.40
  -2  -2   2   48.60    1.70
  -2  -2   2   45.30    1.60
  -2  -2   2   47.90    1.60
   1   2  -2  442.96   11.00
   1   2  -2  431.96   11.10
   1   2  -2  440.06   10.90
  -1  -2   2  443.36   11.20
  -1  -2   2  435.46   11.10
  -1  -2   2  441.86   11.00
  -1  -2   2  443.16   10.90
   0   2  -2   19.10    0.60
   0   2  -2   19.80    0.60
   0   2  -2   19.60    0.60
   0  -2   2   20.50    0.70
   0  -2   2   20.90    0.80
   0  -2   2   18.90    0.60
  -1   2  -2  676.83   17.20
   1  -2   2  723.13   17.30
   1  -2   2  687.83   17.20
  -2   2  -2  197.18    5.00
   2  -2   2  197.38    5.10
  -3   2  -2  132.59    3.30
   3  -2   2  123.29    3.70
   3  -2   2  126.29    3.70
   3  -2   2  125.09    3.70
   3  -2   2  119.59    3.80
   3  -2   2  123.19    3.50
  -4   2  -2    1.60    0.50
   4  -2   2    0.90    0.70
   4  -2   2    2.40    0.70
   4  -2   2    1.10    0.60
   5   1  -2  251.97    6.60
  -5  -1   2  242.78    6.40
   4   1  -2  225.08    6.20
   4   1  -2  224.98    6.20
   4   1  -2  232.88    6.30
  -4  -1   2  226.48    6.00
  -4  -1   2  218.58    7.20
  -4  -1   2  221.28    6.00
   3   1  -2  224.58    6.10
   3   1  -2  219.98    5.80
   3   1  -2  227.48    6.00
   3   1  -2  230.88    6.20
  -3  -1   2  211.08    6.00
  -3  -1   2  214.08    5.90
  -3  -1   2  229.48    6.20
   2   1  -2  739.43   18.80
   2   1  -2  747.13   18.70
  -2  -1   2  743.03   18.60
  -2  -1   2  735.23   18.60
  -2  -1   2  763.92   18.60
  -2  -1   2  750.82   18.80
   1   1  -2  408.36   10.10
   1   1  -2  405.76   10.20
  -1  -1   2  400.76   10.20
  -1  -1   2  417.46   10.10
  -1  -1   2  397.86   10.10
  -1  -1   2  392.16   10.20
  -1   1  -2  681.43   16.90
   1  -1   2  687.83   17.00
   1  -1   2  687.43   17.00
  -2   1  -2  471.15   11.80
   2  -1   2  469.55   11.90
   2  -1   2  476.95   11.90
  -3   1  -2  446.66   11.20
  -3   1  -2  451.95   11.40
  -3   1  -2  449.76   11.00
   3  -1   2  433.26   11.30
   3  -1   2  430.66   11.40
   3  -1   2  438.86   11.20
   3  -1   2  443.56   11.20
   3  -1   2  427.76   11.30
   3  -1   2  430.76   11.40
  -4   1  -2   80.19    2.30
   4  -1   2   81.99    2.70
   4  -1   2   82.19    2.70
   4  -1   2   76.79    2.60
   4  -1   2   79.99    2.60
   4  -1   2   81.49    2.60
   5  -1   2    7.20    0.90
   5  -1   2    7.60    0.80
   5   0  -2  104.39    3.10
  -5   0   2  103.89    3.00
  -5   0   2  101.49    3.10
   4   0  -2   77.49    2.60
   4   0  -2   75.99    2.60
   4   0  -2   77.99    2.60
  -4   0   2   75.99    2.30
  -4   0   2   74.49    2.40
   3   0  -2   42.10    1.80
   3   0  -2   44.70    1.50
   3   0  -2   40.80    1.80
   3   0  -2   38.80    1.60
  -3   0   2   40.90    1.60
  -3   0   2   41.50    1.40
  -3   0   2   43.60    1.70
   2   0  -2  120.59    3.20
  -2   0   2  119.69    3.30
  -2   0   2  118.79    3.10
  -2   0   2  115.69    3.30
   1   0  -2    5.50    0.50
   1   0  -2    5.10    0.30
   1   0  -2    5.10    0.40
  -1   0   2    5.80    0.30
  -1   0   2    5.60    0.40
  -1   0   2    5.40    0.40
   0   0   2 1236.98   30.50
  -1   0  -2  613.04   14.90
   1   0   2  599.04   14.80
   1   0   2  592.94   14.90
   1   0   2  591.34   14.90
  -2   0  -2  410.96   10.00
  -2   0  -2  369.26   10.10
   2   0   2  403.16   10.10
   2   0   2  396.66   10.00
   2   0   2  394.36   10.00
  -3   0  -2    1.50    0.70
  -3   0  -2    2.50    0.70
   3   0   2    2.00    0.50
   3   0   2    1.60    0.60
   3   0   2    2.70    0.60
   3   0   2    2.20    0.70
   3   0   2    3.20    0.50
   3   0   2    2.00    0.80
   3   0   2    1.70    0.70
  -4   0  -2  222.08    5.90
   4   0   2  235.28    6.30
   4   0   2  231.68    6.30
   4   0   2  233.48    6.20
   4   0   2  231.78    6.40
   4   0   2  234.28    6.40
   5   0   2   14.30    1.00
   5  -1  -2  106.19    3.10
  -5   1   2   99.89    3.00
  -5   1   2  101.59    2.90
   4  -1  -2  137.29    4.00
   4  -1  -2  135.99    4.00
  -4   1   2  137.69    3.80
  -4   1   2  135.79    3.80
   3  -1  -2  133.09    3.60
   3  -1  -2  124.69    3.50
   3  -1  -2  134.09    3.80
  -3   1   2  125.59    3.70
  -3   1   2  125.29    3.50
  -3   1   2  127.79    3.50
   2  -1  -2   91.39    2.50
  -2   1   2   84.79    2.70
  -2   1   2   89.99    2.40
  -2   1   2   89.59    2.50
   0  -1  -2 1455.75   37.00
   0   1   2 1538.75   36.90
  -1  -1  -2  656.03   17.70
   1   1   2  735.33   17.70
   1   1   2  727.03   17.60
   1   1   2  734.23   17.80
  -2  -1  -2 1099.89   25.70
   2   1   2  982.40   25.80
   2   1   2 1033.20   25.80
  -3  -1  -2  170.78    4.90
  -3  -1  -2  169.88    5.00
   3   1   2  174.08    4.70
   3   1   2  174.68    5.00
   3   1   2  172.78    4.70
   3   1   2  171.98    5.00
   3   1   2  174.38    4.80
   3   1   2  171.68    5.00
   3   1   2  176.58    4.80
  -4  -1  -2    3.80    0.70
   4   1   2    4.80    0.80
   4   1   2    4.10    0.70
   4   1   2    4.30    0.60
   4   1   2    6.30    1.00
   4   1   2    4.40    0.60
   5   1   2    0.30    0.50
   5   1   2    1.20    0.50
   5  -2  -2   58.69    2.00
  -5   2   2   53.89    2.00
  -5   2   2   58.59    1.80
   4  -2  -2    3.10    0.60
   4  -2  -2    3.20    0.70
   4  -2  -2    5.80    0.90
  -4   2   2    4.70    0.60
  -4   2   2    3.70    0.50
   3  -2  -2    5.20    0.60
   3  -2  -2    3.00    0.70
   3  -2  -2    3.00    0.50
  -3   2   2    3.60    0.50
  -3   2   2    5.50    0.80
  -3   2   2    4.70    0.50
   2  -2  -2    0.90    0.30
  -2   2   2    1.00    0.40
  -2   2   2    0.80    0.30
  -2   2   2    1.00    0.20
   1  -2  -2  885.01   21.00
   1  -2  -2  847.12   21.00
   1  -2  -2  840.62   21.00
  -1   2   2  825.12   21.00
  -1   2   2  842.92   21.20
   0  -2  -2  736.03   18.20
   0   2   2  708.33   18.30
   0   2   2  749.53   18.10
   0   2   2  723.43   18.10
   0   2   2  746.23   18.20
  -1  -2  -2  349.96    8.70
   1   2   2  342.47    8.70
   1   2   2  346.47    8.90
  -2  -2  -2    5.40    0.40
  -2  -2  -2    4.80    0.70
   2   2   2    5.40    0.70
   2   2   2    5.20    0.40
   2   2   2    5.90    0.50
  -3  -2  -2  517.25   13.50
  -3  -2  -2  527.05   13.00
  -3  -2  -2  513.65   13.60
   3   2   2  519.55   13.30
   3   2   2  526.45   13.30
   3   2   2  532.85   13.40
   3   2   2  530.45   13.60
   3   2   2  472.05   13.50
  -4  -2  -2   73.99    2.40
   4   2   2   81.29    2.60
   4   2   2   80.59    2.70
   4   2   2   78.99    2.60
   5   2   2    2.70    0.50
   5   2   2    1.80    0.50
   5  -3  -2   58.69    2.00
  -5   3   2   63.99    1.90
  -5   3   2   57.49    2.10
   4  -3  -2    7.20    1.00
   4  -3  -2    6.10    0.90
   4  -3  -2    6.40    0.80
  -4   3   2    6.70    0.70
   3  -3  -2    2.80    0.70
   3  -3  -2    4.10    0.60
   3  -3  -2    4.00    0.50
  -3   3   2    3.70    0.60
  -3   3   2    5.00    0.60
   2  -3  -2 6624.04  162.38
   2  -3  -2 6575.84  162.58
   1  -3  -2  624.94   16.20
   1  -3  -2  661.53   16.30
   1  -3  -2  665.43   16.20
   1  -3  -2  654.63   16.10
  -1   3   2  629.74   16.40
  -1   3   2  646.84   16.20
  -1   3   2  659.03   16.20
   0  -3  -2  274.57    7.40
   0  -3  -2  303.07    7.40
   0  -3  -2  300.57    7.60
   0   3   2  286.67    7.50
   0   3   2  302.17    7.30
   0   3   2  284.67    7.40
   0   3   2  292.47    7.60
  -1  -3  -2  830.92   20.80
  -1  -3  -2  849.81   20.80
  -1  -3  -2  835.62   21.10
   1   3   2  842.72   21.00
   1   3   2  823.72   20.80
  -2  -3  -2  174.48    4.50
  -2  -3  -2  176.78    5.00
   2   3   2  164.68    4.90
   2   3   2  171.18    4.70
   2   3   2  176.68    4.90
   2   3   2  164.08    4.80
   2   3   2  171.98    4.70
  -3  -3  -2    2.80    1.30
  -3  -3  -2    0.60    1.30
  -3  -3  -2    0.60    0.50
   3   3   2    0.50    0.80
   3   3   2    0.60    0.70
   3   3   2    1.00    0.60
   3   3   2    0.40    0.70
   3   3   2    0.60    0.60
  -4  -3  -2    0.90    0.80
   4   3   2    0.40    0.50
   4   3   2   -0.30    0.50
   4   3   2   -0.30    0.60
   5   3   2   60.29    1.80
   5   3   2   54.79    2.00
   5  -4  -2    0.40    0.50
  -5   4   2    0.50    0.40
   4  -4  -2    6.30    1.10
   4  -4  -2    6.10    0.90
   4  -4  -2    7.60    0.70
  -4   4   2    5.10    0.60
  -4   4   2    5.90    0.90
   3  -4  -2    7.10    0.80
   3  -4  -2    6.40    0.90
   3  -4  -2    7.90    0.90
   3  -4  -2    5.70    0.80
  -3   4   2    6.60    0.80
  -3   4   2    7.30    0.70
   2  -4  -2  264.17    7.00
   2  -4  -2  267.47    7.00
   2  -4  -2  275.37    7.20
   2  -4  -2  272.17    7.30
  -2   4   2  270.77    7.00
  -2   4   2  266.67    7.00
   1  -4  -2  360.96    8.80
   1  -4  -2  337.17    9.00
   1  -4  -2  339.07    8.60
   1  -4  -2  318.57    9.50
   1  -4  -2  362.56    8.80
  -1   4   2  331.17    8.90
  -1   4   2  352.76    8.70
  -1   4   2  353.56    8.80
   0  -4  -2   72.19    2.10
   0  -4  -2   74.79    2.40
   0  -4  -2   76.69    2.20
   0   4   2   72.39    2.30
   0   4   2   74.69    2.00
  -1  -4  -2   17.20    1.20
  -1  -4  -2   18.00    0.80
   1   4   2   17.70    1.10
   1   4   2   17.10    1.10
   1   4   2   17.10    0.90
  -2  -4  -2  463.25   12.20
  -2  -4  -2  456.25   11.70
  -2  -4  -2  446.86   11.60
   2   4   2  464.25   12.20
   2   4   2  453.95   11.80
   2   4   2  466.75   11.80
   2   4   2  457.15   11.60
  -3  -4  -2  171.58    5.90
  -3  -4  -2  168.58    4.70
  -3  -4  -2  164.48    4.70
   3   4   2  179.48    4.90
   3   4   2  174.28    5.00
   3   4   2  173.78    5.00
   3   4   2  172.78    5.40
  -4  -4  -2   -0.20    1.10
   4   4   2    0.00    0.50
   4   4   2    0.20    0.50
   5  -5  -2    0.20    0.40
  -5   5   2    0.80    0.40
  -5   5   2    0.50    0.30
   4  -5  -2    1.30    0.50
   4  -5  -2    0.10    0.50
  -4   5   2   -0.30    0.40
  -4   5   2   -1.00    0.60
   3  -5  -2 2547.84   62.19
   3  -5  -2 2658.53   62.49
   3  -5  -2 2309.57   62.49
  -3   5   2 2527.55   62.29
  -3   5   2 2537.25   62.19
   2  -5  -2  207.98    5.60
   2  -5  -2  215.28    5.80
   2  -5  -2  207.88    5.70
  -2   5   2  208.08    5.60
  -2   5   2  212.28    5.70
  -2   5   2  209.18    5.40
  -2   5   2  200.28    5.80
   1  -5  -2   36.30    1.80
   1  -5  -2   36.50    1.60
   1  -5  -2   35.00    1.60
   1  -5  -2   35.70    1.50
   1  -5  -2   37.20    1.30
  -1   5   2   35.40    1.20
  -1   5   2   37.90    1.50
  -1   5   2   37.80    1.60
  -1   5   2   38.00    1.60
   0  -5  -2  266.47    7.10
   0  -5  -2  266.77    7.20
   0  -5  -2  259.77    7.50
   0  -5  -2  277.17    7.50
   0  -5  -2  277.37    7.00
   0   5   2  276.77    7.30
   0   5   2  270.17    7.20
   0   5   2  278.77    7.40
  -1  -5  -2   90.19    3.30
  -1  -5  -2  100.29    2.80
  -1  -5  -2   99.69    2.90
  -1  -5  -2  100.89    3.40
   1   5   2  101.69    3.30
   1   5   2   96.69    3.10
  -2  -5  -2   25.70    1.20
  -2  -5  -2   27.50    2.00
  -2  -5  -2   25.40    1.30
   2   5   2   23.90    1.90
   2   5   2   25.90    1.30
   2   5   2   25.10    1.60
   2   5   2   26.60    1.60
  -3  -5  -2    0.00    0.70
  -3  -5  -2    0.60    0.60
   3   5   2    2.20    2.60
   3   5   2   -0.80    0.60
   3   5   2    0.70    0.60
  -4  -5  -2   96.49    2.90
   4   5   2   96.39    2.80
   4   5   2   96.29    2.90
   4  -6  -2   17.00    1.00
   4  -6  -2   17.90    0.90
  -4   6   2   17.70    1.00
  -4   6   2   18.50    0.80
   3  -6  -2   93.39    3.00
   3  -6  -2   92.99    2.80
  -3   6   2   90.79    2.80
  -3   6   2   95.59    4.20
   2  -6  -2   85.39    2.70
   2  -6  -2   82.09    2.50
  -2   6   2   78.59    2.60
  -2   6   2   78.19    2.70
  -2   6   2   79.69    3.00
  -2   6   2   80.89    2.30
  -2   6   2   80.09    2.60
   1  -6  -2    2.80    0.70
   1  -6  -2    3.80    0.50
   1  -6  -2    4.60    1.20
   1  -6  -2    0.50    1.20
   1  -6  -2    2.90    0.70
  -1   6   2    3.60    0.80
  -1   6   2    3.80    0.60
  -1   6   2    3.30    0.60
   0  -6  -2   23.40    1.30
   0  -6  -2   20.90    1.20
   0  -6  -2   21.20    2.00
   0  -6  -2   21.70    1.00
   0  -6  -2   21.10    1.80
   0   6   2   21.80    1.30
   0   6   2   20.90    1.20
   0   6   2   20.60    1.60
  -1  -6  -2  127.09    3.80
  -1  -6  -2  128.09    3.60
  -1  -6  -2  130.49    4.50
   1   6   2  129.49    4.00
   1   6   2  125.49    4.30
   1   6   2  129.99    3.70
  -2  -6  -2  212.98    5.60
  -2  -6  -2  203.18    5.90
  -2  -6  -2  203.68    6.70
   2   6   2  209.88    6.60
   2   6   2  206.78    5.50
   2   6   2  208.88    5.90
   2   6   2  214.88    5.90
  -3  -6  -2    0.10    0.90
  -3  -6  -2    0.50    0.50
   3   6   2    1.20    0.60
   3   6   2    0.90    0.60
   4  -7  -2  909.31   22.00
  -4   7   2  852.31   21.90
  -4   7   2  897.21   22.10
   3  -7  -2   67.29    2.00
  -3   7   2   65.49    2.10
  -3   7   2   63.09    1.90
   2  -7  -2    5.60    0.70
   2  -7  -2    6.50    0.80
  -2   7   2    5.30    0.80
  -2   7   2    5.50    0.80
   1  -7  -2   64.49    2.20
   1  -7  -2   64.19    3.80
   1  -7  -2   64.39    2.20
  -1   7   2   62.99    2.20
  -1   7   2   63.69    3.20
  -1   7   2   63.09    2.20
   0  -7  -2   23.50    2.50
   0  -7  -2   25.70    1.80
   0  -7  -2   27.70    1.20
   0  -7  -2   25.20    1.40
   0  -7  -2   24.10    2.00
   0   7   2   26.90    1.30
   0   7   2   24.30    2.50
  -1  -7  -2   71.99    2.20
  -1  -7  -2   67.29    3.60
  -1  -7  -2   70.29    2.60
   1   7   2   73.99    2.60
   1   7   2   73.59    2.30
  -2  -7  -2    0.10    0.90
  -2  -7  -2   -0.20    0.40
   2   7   2    0.70    0.50
   2   7   2    0.50    0.60
   2   7   2   -0.10    0.70
  -3  -7  -2   76.09    2.60
  -3  -7  -2   84.59    2.30
   3   7   2   80.29    2.40
   3  -8  -2   17.70    0.80
  -3   8   2   16.30    0.90
   2  -8  -2   -0.30    0.40
  -2   8   2   -0.20    0.60
  -2   8   2    0.40    0.40
   1  -8  -2   19.20    1.30
   1  -8  -2   20.80    1.70
  -1   8   2   17.00    1.10
  -1   8   2   18.20    1.00
   0  -8  -2   12.60    0.90
   0   8   2   12.70    0.90
   0   8   2   12.60    1.10
  -1  -8  -2  161.38    4.30
   1   8   2  163.58    4.50
   1   8   2  162.68    4.30
  -2  -8  -2    0.90    0.40
   2   8   2    1.60    0.70
   2   8   2    1.70    0.60
   1  -9  -2    4.20    0.70
  -1   9   2    3.70    0.50
  -1   9   2    4.50    0.60
   0  -9  -2   93.49    2.70
   0   9   2   93.99    2.60
   0   9   2   94.49    3.30
   1   9  -3   -0.10    0.30
  -1  -9   3    0.50    0.50
   0   9  -3   36.60    1.40
   0  -9   3   35.40    1.70
   0  -9   3   36.80    1.50
  -1   9  -3    8.10    0.90
   1  -9   3    8.20    0.80
   1  -9   3    8.00    1.20
  -2   9  -3   55.69    2.20
   2  -9   3   55.09    1.70
   2  -9   3   57.89    1.80
   2   8  -3    2.90    0.50
   2   8  -3    4.00    0.50
  -2  -8   3    2.90    0.60
  -2  -8   3    3.80    0.50
   1   8  -3   90.79    2.70
  -1  -8   3   94.79    3.00
  -1  -8   3   88.49    2.60
   0   8  -3   15.70    1.10
   0  -8   3   16.50    1.40
   0  -8   3   14.60    1.20
  -1   8  -3    0.60    0.60
  -1   8  -3   -0.40    0.80
   1  -8   3   -0.10    0.50
   1  -8   3   -1.10    0.80
  -2   8  -3    1.80    0.50
  -2   8  -3   -0.50    0.90
   2  -8   3    1.10    0.50
  -3   8  -3    0.40    0.40
   3  -8   3    0.30    0.60
   3  -8   3    0.10    0.30
   3   7  -3    0.40    0.40
  -3  -7   3    0.90    0.70
  -3  -7   3    0.50    0.40
   2   7  -3    1.00    0.60
  -2  -7   3    1.30    0.50
  -2  -7   3    1.80    0.90
   1   7  -3  186.88    5.10
  -1  -7   3  174.78    5.20
  -1  -7   3  179.58    5.90
  -1  -7   3  182.58    4.90
   0   7  -3    7.00    0.80
   0  -7   3    5.40    0.80
   0  -7   3    8.00    1.10
   0  -7   3    7.00    0.80
   0  -7   3    5.80    1.40
  -1   7  -3  153.88    4.30
  -1   7  -3  143.29    4.00
  -1   7  -3  151.98    4.40
   1  -7   3  153.58    4.50
   1  -7   3  151.38    4.30
  -2   7  -3  176.08    5.30
  -2   7  -3  182.08    4.90
  -2   7  -3  178.38    5.10
  -2   7  -3  190.78    5.10
   2  -7   3  189.58    5.00
  -3   7  -3    1.50    0.40
  -3   7  -3    2.20    0.70
  -3   7  -3    2.30    0.80
   3  -7   3    2.20    0.70
   3  -7   3    0.60    0.60
  -4   7  -3    0.90    0.30
   3   6  -3   -0.10    0.50
   3   6  -3    0.30    0.50
  -3  -6   3   -0.40    0.70
  -3  -6   3    0.80    0.80
  -3  -6   3    0.40    0.50
   2   6  -3  186.08    5.00
   2   6  -3  184.28    5.90
  -2  -6   3  184.88    5.20
  -2  -6   3  181.58    6.00
   1   6  -3   31.20    2.10
   1   6  -3   29.90    1.40
  -1  -6   3   30.10    2.10
  -1  -6   3   32.50    1.50
  -1  -6   3   30.20    1.20
  -1  -6   3   31.30    2.10
   0   6  -3   -0.10    0.60
   0   6  -3    0.40    0.90
   0  -6   3    0.40    0.90
   0  -6   3   -0.10    0.40
   0  -6   3    0.20    0.60
   0  -6   3   -0.50    1.10
   0  -6   3   -0.30    0.70
  -1   6  -3   26.90    1.40
  -1   6  -3   25.00    1.00
  -1   6  -3   25.30    2.00
  -1   6  -3   27.40    1.30
   1  -6   3   27.00    1.30
  -2   6  -3    3.00    0.60
  -2   6  -3    2.40    0.40
  -2   6  -3    3.00    0.70
   2  -6   3    2.40    0.50
  -3   6  -3   10.40    0.90
  -3   6  -3   11.60    0.70
  -3   6  -3    7.90    1.20
   3  -6   3   10.90    1.00
   3  -6   3   10.20    0.80
   3  -6   3   13.00    1.10
  -4   6  -3    1.10    0.40
  -4   6  -3    0.90    0.70
   4  -6   3    2.50    0.70
   4  -6   3    1.20    0.50
   4   5  -3    0.10    0.40
  -4  -5   3    0.60    0.50
   3   5  -3   17.00    2.50
   3   5  -3   20.30    1.80
   3   5  -3   24.10    1.30
   3   5  -3   19.40    1.10
  -3  -5   3   20.10    1.10
  -3  -5   3   20.80    1.30
  -3  -5   3   18.00    1.50
   2   5  -3  559.34   14.90
   2   5  -3  573.24   14.90
   2   5  -3  590.84   14.60
  -2  -5   3  567.94   14.60
  -2  -5   3  577.14   14.50
  -2  -5   3  574.64   15.10
  -2  -5   3  563.74   15.10
   1   5  -3  145.99    4.20
   1   5  -3  141.59    4.10
   1   5  -3  133.69    4.20
  -1  -5   3  145.89    4.00
  -1  -5   3  145.69    3.90
  -1  -5   3  146.39    4.30
  -1  -5   3  146.49    4.50
   0   5  -3  346.67    8.80
   0   5  -3  338.27    9.10
   0   5  -3  348.77    9.10
   0  -5   3  348.67    9.00
   0  -5   3  346.07    8.90
   0  -5   3  333.07    9.10
   0  -5   3  362.16    9.10
   0  -5   3  356.96    9.40
  -1   5  -3  599.24   14.70
  -1   5  -3  610.54   14.60
  -1   5  -3  573.14   14.90
  -1   5  -3  569.54   14.80
  -1   5  -3  562.44   14.60
  -1   5  -3  585.84   14.90
   1  -5   3  588.04   14.70
   1  -5   3  562.24   15.00
  -2   5  -3    0.60    0.40
  -2   5  -3    0.50    0.30
  -2   5  -3    0.20    0.70
  -2   5  -3   -1.10    0.80
   2  -5   3   -0.10    0.70
   2  -5   3    0.90    0.50
  -3   5  -3   43.00    1.50
  -3   5  -3   40.00    1.80
  -3   5  -3   41.10    1.40
   3  -5   3   41.20    1.50
   3  -5   3   42.20    1.80
   3  -5   3   41.60    1.80
  -4   5  -3    0.00    0.50
   4  -5   3    1.10    0.60
   4  -5   3    0.90    0.70
  -5   5  -3   25.60    1.00
   5  -5   3   24.50    1.00
   4   4  -3    8.20    1.00
   4   4  -3    7.70    0.80
  -4  -4   3    7.00    0.90
  -4  -4   3    9.10    0.90
   3   4  -3  225.78    6.60
   3   4  -3  223.18    6.30
   3   4  -3  227.78    5.90
   3   4  -3  221.38    6.30
  -3  -4   3  222.48    7.00
  -3  -4   3  238.88    6.20
  -3  -4   3  231.38    6.00
  -3  -4   3  215.28    6.40
   2   4  -3   43.90    2.20
   2   4  -3   44.90    1.90
   2   4  -3   46.70    2.50
   2   4  -3   47.00    1.70
  -2  -4   3   46.50    2.10
  -2  -4   3   49.30    2.10
  -2  -4   3   47.10    1.60
  -2  -4   3   47.30    1.60
   1   4  -3    2.90    0.60
   1   4  -3    2.20    0.50
   1   4  -3    2.80    0.40
  -1  -4   3    4.00    0.60
  -1  -4   3    2.50    0.40
  -1  -4   3    2.60    0.40
  -1  -4   3    2.50    0.60
   0   4  -3  113.99    3.10
   0   4  -3  112.09    3.10
   0   4  -3  117.19    3.10
   0   4  -3  111.19    3.10
   0  -4   3  116.39    3.20
   0  -4   3  114.49    3.40
   0  -4   3  117.99    3.20
   0  -4   3  113.09    3.10
  -1   4  -3   41.60    1.30
  -1   4  -3   41.60    1.50
  -1   4  -3   40.40    1.30
  -1   4  -3   40.80    1.30
  -2   4  -3   32.10    1.10
  -2   4  -3   32.70    1.10
   2  -4   3   31.80    1.30
   2  -4   3   35.90    1.70
  -3   4  -3   25.30    1.10
  -3   4  -3   24.90    1.00
   3  -4   3   21.10    1.40
   3  -4   3   24.20    1.20
   3  -4   3   24.40    1.50
   3  -4   3   23.30    1.40
  -4   4  -3    3.30    0.50
  -4   4  -3    3.40    0.50
   4  -4   3    3.10    0.70
   4  -4   3    4.10    0.70
  -5   4  -3    7.20    0.80
   5  -4   3    8.90    0.80
   5   3  -3    0.70    0.40
  -5  -3   3    1.20    0.60
   4   3  -3   84.89    2.80
   4   3  -3   86.99    2.80
  -4  -3   3   87.99    2.80
  -4  -3   3   86.89    2.60
   3   3  -3  905.21   22.80
   3   3  -3  895.11   22.30
   3   3  -3  887.11   22.70
   3   3  -3  861.91   22.70
   3   3  -3  893.61   22.50
  -3  -3   3  906.91   22.30
  -3  -3   3  905.41   23.00
  -3  -3   3  888.31   22.40
   2   3  -3  441.06   11.20
   2   3  -3  425.46   11.00
   2   3  -3  431.66   11.00
  -2  -3   3  428.76   11.30
  -2  -3   3  428.46   11.00
  -2  -3   3  429.96   10.90
  -2  -3   3  435.56   11.30
   1   3  -3  674.93   16.80
   1   3  -3  675.23   17.00
  -1  -3   3  670.93   16.90
  -1  -3   3  684.53   17.10
  -1  -3   3  666.73   17.10
  -1  -3   3  684.63   16.90
   0   3  -3 1387.66   34.40
   0   3  -3 1456.35   34.40
   0  -3   3 1374.66   34.70
   0  -3   3 1342.67   34.50
   0  -3   3 1402.76   34.50
  -1   3  -3    2.10    0.30
  -1   3  -3    2.20    0.40
  -1   3  -3    2.10    0.30
  -2   3  -3  290.77    7.60
  -2   3  -3  303.87    7.60
   2  -3   3  298.07    7.70
  -3   3  -3    5.90    1.10
  -3   3  -3    5.90    0.70
  -3   3  -3    6.70    0.60
   3  -3   3    7.90    0.70
   3  -3   3    5.50    0.80
   3  -3   3    7.50    1.10
   3  -3   3    7.20    0.80
  -4   3  -3  117.69    3.20
  -4   3  -3  112.39    3.30
   4  -3   3  118.59    3.60
   4  -3   3  117.59    3.60
   4  -3   3  117.39    3.50
  -5   3  -3    5.90    1.00
   5  -3   3    5.90    0.80
   5  -3   3    6.00    0.80
   5   2  -3   16.50    0.90
  -5  -2   3   15.00    1.00
   4   2  -3  170.58    4.80
   4   2  -3  166.88    4.80
   4   2  -3  167.88    4.90
  -4  -2   3  165.78    4.60
  -4  -2   3  167.18    4.70
   3   2  -3   41.50    1.80
   3   2  -3   42.30    1.60
   3   2  -3   40.50    2.00
   3   2  -3   43.70    1.60
  -3  -2   3   41.10    1.50
  -3  -2   3   41.60    2.00
  -3  -2   3   44.60    1.50
   2   2  -3    1.30    0.40
  -2  -2   3    1.40    0.50
  -2  -2   3    1.10    0.40
  -2  -2   3    1.60    0.50
  -2  -2   3    0.80    0.40
  -2  -2   3    0.50    0.30
   1   2  -3  136.39    3.60
   1   2  -3  130.59    3.50
   1   2  -3  137.49    3.50
  -1  -2   3  137.39    3.70
  -1  -2   3  133.89    3.50
  -1  -2   3  136.29    3.70
  -1  -2   3  142.39    3.60
   0   2  -3  230.18    6.10
   0   2  -3  241.38    6.10
   0  -2   3  253.87    6.10
   0  -2   3  236.28    6.10
   0  -2   3  243.98    6.30
  -1   2  -3  105.49    2.90
  -1   2  -3  108.59    2.80
   1  -2   3  108.49    2.80
  -2   2  -3  121.99    3.20
   2  -2   3  123.19    3.30
   2  -2   3  123.29    3.30
  -3   2  -3   67.39    2.50
   3  -2   3   61.49    2.40
   3  -2   3   63.19    2.30
   3  -2   3   62.99    2.40
   3  -2   3   63.39    2.30
   3  -2   3   63.79    2.00
  -4   2  -3   -0.30    0.50
   4  -2   3   -0.20    0.60
   4  -2   3    0.40    0.60
   4  -2   3    0.70    0.70
   4  -2   3    0.00    0.70
   5  -2   3    2.10    0.70
   5  -2   3    2.20    0.50
   5   1  -3  135.59    3.80
  -5  -1   3  133.69    3.70
   4   1  -3  668.83   17.10
   4   1  -3  647.84   17.00
   4   1  -3  670.13   17.10
  -4  -1   3  662.23   16.80
  -4  -1   3  681.33   16.80
   3   1  -3  380.96   10.20
   3   1  -3  395.06   10.10
   3   1  -3  397.76   10.30
   3   1  -3  378.86    9.90
  -3  -1   3  393.86    9.90
  -3  -1   3  391.06   10.30
  -3  -1   3  392.96   10.00
   2   1  -3  353.66    9.40
  -2  -1   3  376.16    9.30
  -2  -1   3  367.76    9.40
  -2  -1   3  372.86    9.50
  -2  -1   3  368.46    9.40
   1   1  -3 1395.36   34.80
  -1  -1   3 1440.06   34.90
  -1  -1   3 1400.76   34.90
   0   1  -3   20.80    0.70
   0   1  -3   21.20    0.70
   0   1  -3   20.90    0.60
   0  -1   3   20.10    0.70
   0  -1   3   20.70    0.70
   0  -1   3   21.30    0.70
  -1   1  -3  624.94   15.70
  -1   1  -3  614.04   15.50
  -1   1  -3  636.34   15.50
   1  -1   3  629.54   15.60
   1  -1   3  608.04   15.60
   1  -1   3  654.43   15.60
  -2   1  -3  130.69    3.50
  -2   1  -3  124.89    3.30
   2  -1   3  127.69    3.50
   2  -1   3  125.39    3.40
   2  -1   3  130.09    3.40
  -3   1  -3  573.34   14.60
  -3   1  -3  582.24   14.10
   3  -1   3  555.74   14.40
   3  -1   3  569.24   14.40
   3  -1   3  574.64   14.60
   3  -1   3  555.24   14.60
   3  -1   3  559.34   14.40
   3  -1   3  573.54   14.40
   4  -1   3   13.60    1.10
   4  -1   3   13.10    1.10
   4  -1   3   14.00    1.20
   4  -1   3   12.40    1.00
   4  -1   3   13.30    1.20
   5  -1   3   27.00    1.30
   5  -1   3   25.50    1.20
   5   0  -3   73.69    2.30
  -5   0   3   69.99    2.30
  -5   0   3   67.89    2.10
   4   0  -3   20.80    1.40
   4   0  -3   20.70    1.30
  -4   0   3   20.50    1.10
  -4   0   3   22.90    1.10
   3   0  -3   25.90    1.60
   3   0  -3   28.80    1.20
   3   0  -3   30.70    1.50
   3   0  -3   27.10    1.30
  -3   0   3   27.40    1.40
  -3   0   3   28.20    1.10
  -3   0   3   29.70    1.50
   2   0  -3   91.39    2.50
  -2   0   3   89.49    2.60
  -2   0   3   87.29    2.40
  -2   0   3   84.49    2.70
   1   0  -3  298.07    7.50
   1   0  -3  295.17    7.40
  -1   0   3  298.87    7.60
  -1   0   3  291.27    7.60
  -1   0   3  301.57    7.50
   0   0  -3   55.69    1.50
   0   0  -3   55.29    1.60
   0   0  -3   58.69    1.50
   0   0   3   54.89    1.50
   0   0   3   53.39    1.50
   0   0   3   56.49    1.50
  -1   0  -3  272.27    7.00
   1   0   3  282.47    6.90
   1   0   3  275.77    6.90
   1   0   3  268.87    6.90
  -2   0  -3  323.77    8.00
   2   0   3  311.87    7.90
   2   0   3  300.47    8.10
   2   0   3  315.67    8.10
  -3   0  -3   45.50    1.90
  -3   0  -3   49.90    1.90
  -3   0  -3   47.60    2.10
   3   0   3   50.29    1.80
   3   0   3   50.29    2.00
   3   0   3   51.19    1.90
   3   0   3   51.79    1.70
   3   0   3   50.99    1.80
   3   0   3   50.29    2.00
   3   0   3   48.60    1.80
   4   0   3    2.70    0.70
   4   0   3    1.50    0.80
   4   0   3    0.50    0.60
   4   0   3    1.10    0.50
   4   0   3    1.30    0.60
   5   0   3    0.70    0.50
   5   0   3    0.10    0.50
   5  -1  -3  319.97    8.40
  -5   1   3  327.57    8.20
  -5   1   3  312.87    8.30
   4  -1  -3  182.18    5.10
   4  -1  -3  174.88    5.10
   4  -1  -3  174.28    4.60
  -4   1   3  179.08    4.80
  -4   1   3  178.28    4.80
   3  -1  -3   60.99    2.20
   3  -1  -3   58.19    1.90
   3  -1  -3   60.79    2.00
  -3   1   3   59.09    1.80
  -3   1   3   58.29    2.10
  -3   1   3   58.69    1.80
   2  -1  -3  630.24   16.40
  -2   1   3  649.43   16.30
  -2   1   3  658.23   16.20
  -2   1   3  656.43   16.20
   1  -1  -3    1.30    0.20
   1  -1  -3    1.80    0.20
  -1   1   3    1.10    0.40
  -1   1   3    1.10    0.30
  -1   1   3    1.00    0.20
   0  -1  -3  393.66   10.40
   0  -1  -3  405.96   10.30
   0  -1  -3  414.86   10.30
   0   1   3  424.36   10.30
   0   1   3  416.06   10.20
  -1  -1  -3  541.35   13.50
   1   1   3  537.75   13.50
   1   1   3  543.65   13.60
  -2  -1  -3 1756.82   42.00
   2   1   3 1696.83   42.30
   2   1   3 1674.63   42.00
   2   1   3 1671.43   42.10
  -3  -1  -3   34.40    1.80
  -3  -1  -3   35.50    1.90
   3   1   3   35.90    1.70
   3   1   3   33.50    1.40
   3   1   3   37.40    1.80
   3   1   3   36.20    1.40
   3   1   3   34.70    1.50
   3   1   3   36.90    1.50
   3   1   3   35.80    1.70
   4   1   3   43.80    1.70
   4   1   3   43.30    1.80
   4   1   3   46.10    1.90
   4   1   3   41.10    2.30
   4   1   3   44.70    1.60
   5   1   3   19.10    1.00
   5   1   3   19.10    1.00
   5  -2  -3    3.60    0.60
  -5   2   3    4.90    0.70
  -5   2   3    3.90    0.80
   4  -2  -3   36.20    1.60
   4  -2  -3   35.60    1.30
   4  -2  -3   35.40    1.70
  -4   2   3   35.10    1.30
  -4   2   3   36.80    1.40
   3  -2  -3   20.00    1.00
   3  -2  -3   20.10    1.30
   3  -2  -3   18.60    1.10
  -3   2   3   20.70    0.90
  -3   2   3   19.90    0.90
  -3   2   3   20.40    1.50
   2  -2  -3   59.29    1.80
  -2   2   3   59.99    1.70
  -2   2   3   58.29    1.70
  -2   2   3   59.29    1.90
   1  -2  -3    3.10    0.30
   1  -2  -3    2.40    0.30
  -1   2   3    3.00    0.50
  -1   2   3    2.40    0.40
  -1   2   3    2.60    0.30
   0  -2  -3   81.19    2.00
   0  -2  -3   79.29    2.10
   0   2   3   79.79    2.20
   0   2   3   77.19    2.10
   0   2   3   77.79    2.20
   0   2   3   80.19    2.10
  -1  -2  -3  419.16   10.60
  -1  -2  -3  427.26   10.60
   1   2   3  430.66   10.80
   1   2   3  416.66   10.70
  -2  -2  -3  188.58    4.70
   2   2   3  181.88    4.90
   2   2   3  183.78    4.90
   2   2   3  177.68    5.10
   2   2   3  173.68    5.00
   2   2   3  186.48    5.10
   2   2   3  182.58    4.70
  -3  -2  -3   21.00    0.90
  -3  -2  -3   23.20    1.80
  -3  -2  -3   22.80    1.80
   3   2   3   23.30    1.10
   3   2   3   21.00    2.40
   3   2   3   21.60    1.40
   3   2   3   22.90    1.30
   3   2   3   23.50    1.60
   3   2   3   22.50    1.20
   4   2   3   11.50    1.00
   4   2   3   12.80    0.90
   4   2   3   12.60    1.10
   4   2   3   11.70    1.10
   5   2   3    0.30    0.40
   5   2   3    0.00    0.50
   5  -3  -3   70.39    2.30
  -5   3   3   71.09    2.10
   4  -3  -3   10.60    1.30
   4  -3  -3   11.30    1.00
   4  -3  -3   10.30    0.80
   3  -3  -3  109.49    3.70
   3  -3  -3  108.69    3.60
   3  -3  -3  113.29    3.30
  -3   3   3  114.89    3.20
  -3   3   3  114.29    3.10
   2  -3  -3   28.00    1.40
   2  -3  -3   28.10    1.70
   2  -3  -3   28.90    1.80
   2  -3  -3   25.50    1.30
   2  -3  -3   29.40    1.10
  -2   3   3   27.30    1.00
  -2   3   3   29.30    1.00
   1  -3  -3   69.99    2.10
   1  -3  -3   70.79    2.00
   1  -3  -3   72.09    1.90
   1  -3  -3   69.79    2.00
  -1   3   3   66.39    2.00
  -1   3   3   69.59    2.00
   0  -3  -3  345.97    8.80
   0  -3  -3  360.96    8.80
   0   3   3  338.67    9.30
   0   3   3  353.76    8.80
   0   3   3  341.17    8.90
  -1  -3  -3 1779.62   44.60
  -1  -3  -3 1793.12   44.60
  -1  -3  -3 1818.92   44.90
   1   3   3 1823.52   44.90
  -2  -3  -3   37.20    1.70
  -2  -3  -3   44.50    1.90
   2   3   3   43.80    1.60
   2   3   3   43.60    2.10
   2   3   3   42.30    1.60
   2   3   3   45.20    1.80
   2   3   3   44.30    1.90
   2   3   3   43.50    1.80
  -3  -3  -3   81.59    2.50
  -3  -3  -3   83.29    3.50
  -3  -3  -3   78.19    3.60
   3   3   3   79.79    3.80
   3   3   3   85.19    2.90
   3   3   3   85.89    2.80
   3   3   3   87.19    2.70
  -4  -3  -3   15.80    1.60
   4   3   3   20.80    1.30
   4   3   3   19.30    1.30
   4   3   3   20.30    1.10
   5  -4  -3   21.30    1.00
  -5   4   3   21.70    0.90
   4  -4  -3    1.50    1.20
   4  -4  -3    0.60    0.40
   4  -4  -3    1.40    0.60
  -4   4   3    0.10    1.00
  -4   4   3    0.00    0.40
   3  -4  -3    9.50    1.10
   3  -4  -3    9.50    1.10
   3  -4  -3   10.90    1.30
   3  -4  -3    9.50    0.80
  -3   4   3   10.30    0.70
  -3   4   3    9.30    0.90
   2  -4  -3   11.60    0.90
   2  -4  -3   10.80    1.10
   2  -4  -3   11.50    0.80
   2  -4  -3   11.60    1.00
   2  -4  -3   12.40    1.30
  -2   4   3   11.80    0.80
  -2   4   3   11.60    1.30
  -2   4   3   11.20    0.70
   1  -4  -3    0.30    0.40
   1  -4  -3    0.70    0.70
   1  -4  -3    0.60    0.50
   1  -4  -3    0.60    0.60
   1  -4  -3    0.30    0.40
  -1   4   3    0.00    0.30
  -1   4   3    0.60    0.70
  -1   4   3    0.40    0.30
  -1   4   3    0.50    0.30
  -1   4   3    0.20    0.60
   0  -4  -3   98.69    2.70
   0  -4  -3   81.19    2.80
   0  -4  -3  100.29    3.00
   0   4   3   97.99    2.90
   0   4   3   96.39    3.00
   0   4   3   91.79    2.80
   0   4   3   96.79    2.60
  -1  -4  -3  217.08    6.10
  -1  -4  -3  215.88    5.70
  -1  -4  -3  214.78    5.60
   1   4   3  211.98    6.00
   1   4   3  218.88    5.70
   1   4   3  210.38    5.70
  -2  -4  -3   38.80    1.50
  -2  -4  -3   39.60    1.40
  -2  -4  -3   39.10    2.00
   2   4   3   41.10    1.70
   2   4   3   34.50    1.60
   2   4   3   39.70    1.90
   2   4   3   38.40    1.80
  -3  -4  -3   42.20    3.40
  -3  -4  -3   41.00    2.10
  -3  -4  -3   44.80    1.70
   3   4   3   47.40    1.90
   3   4   3   45.20    1.90
   3   4   3   46.60    1.80
   3   4   3   46.10    2.60
   4   4   3    0.80    0.60
   4   4   3    0.90    0.50
   5  -5  -3    0.40    0.40
  -5   5   3    1.50    0.40
   4  -5  -3    6.80    0.70
   4  -5  -3    6.30    0.80
  -4   5   3    6.20    0.80
  -4   5   3    5.60    0.60
   3  -5  -3   52.59    1.80
   3  -5  -3   51.09    2.00
   3  -5  -3   52.69    2.00
  -3   5   3   50.19    1.70
  -3   5   3   49.80    1.90
   2  -5  -3    0.50    0.60
   2  -5  -3   -0.20    0.70
   2  -5  -3    0.70    0.50
  -2   5   3    0.40    0.50
  -2   5   3    0.60    0.50
  -2   5   3    0.20    0.30
   1  -5  -3   88.29    2.80
   1  -5  -3   91.89    2.80
   1  -5  -3   89.49    3.00
   1  -5  -3   90.09    2.80
   1  -5  -3   90.19    2.60
  -1   5   3   84.49    2.70
  -1   5   3   87.69    2.90
  -1   5   3   89.79    2.70
  -1   5   3   84.99    2.50
   0  -5  -3  840.62   21.60
   0  -5  -3  836.12   21.10
   0  -5  -3  827.42   21.20
   0  -5  -3  867.01   21.20
   0   5   3  850.01   21.50
   0   5   3  823.02   21.20
   0   5   3  857.91   21.30
  -1  -5  -3   15.50    1.50
  -1  -5  -3   16.30    0.90
  -1  -5  -3   16.60    1.00
  -1  -5  -3   13.20    1.60
   1   5   3   15.40    1.30
   1   5   3   17.50    1.00
   1   5   3   15.50    1.40
   1   5   3   14.90    1.40
  -2  -5  -3   97.49    3.70
  -2  -5  -3   95.39    2.90
  -2  -5  -3   96.09    2.80
   2   5   3   95.19    3.20
   2   5   3   92.69    3.00
   2   5   3   96.09    3.60
   2   5   3   96.29    3.20
   2   5   3   91.39    3.30
   2   5   3   92.19    2.80
  -3  -5  -3   14.90    1.10
  -3  -5  -3   13.90    1.30
   3   5   3   14.10    1.80
   3   5   3   13.80    1.20
  -4  -5  -3   56.79    2.10
   4   5   3   56.29    1.90
   4   5   3   57.19    1.90
   4  -6  -3    2.70    0.40
  -4   6   3    2.90    0.40
  -4   6   3    3.40    0.50
   3  -6  -3    9.80    0.80
  -3   6   3    9.20    0.70
  -3   6   3   10.20    0.90
  -3   6   3    9.50    1.40
   2  -6  -3    0.30    0.60
   2  -6  -3    1.30    0.50
  -2   6   3    0.10    0.50
  -2   6   3    1.30    1.00
  -2   6   3    1.60    0.70
  -2   6   3    1.10    0.40
   1  -6  -3    0.00    1.10
   1  -6  -3    4.10    1.30
   1  -6  -3    1.10    0.60
   1  -6  -3    2.10    0.50
   1  -6  -3    2.00    0.70
  -1   6   3    0.70    0.50
  -1   6   3    1.30    0.80
  -1   6   3    2.50    0.50
   0  -6  -3   80.79    3.30
   0  -6  -3   79.39    2.40
   0  -6  -3   81.59    2.60
   0  -6  -3   77.49    2.60
   0   6   3   81.39    2.50
   0   6   3   78.79    2.60
   0   6   3   81.59    4.10
  -1  -6  -3   23.90    1.70
  -1  -6  -3   21.30    1.30
  -1  -6  -3   23.30    2.10
  -1  -6  -3   22.60    1.10
   1   6   3   23.40    2.00
   1   6   3   22.10    1.20
   1   6   3   23.60    1.50
  -2  -6  -3   54.19    2.00
  -2  -6  -3   53.59    3.60
  -2  -6  -3   57.19    1.90
   2   6   3   55.29    2.20
   2   6   3   55.79    1.80
   2   6   3   53.49    2.10
   2   6   3   46.80    3.30
  -3  -6  -3    2.70    0.60
   3   6   3    3.40    0.70
   3   6   3    4.40    0.70
   4  -7  -3   50.19    1.50
  -4   7   3   47.80    1.50
   3  -7  -3    8.30    0.80
  -3   7   3    6.80    0.80
  -3   7   3    6.40    0.70
   2  -7  -3   23.80    1.20
   2  -7  -3   22.90    1.20
  -2   7   3   22.40    1.30
  -2   7   3   22.20    1.10
   1  -7  -3  259.87    7.00
   1  -7  -3  263.17    7.00
  -1   7   3  259.37    7.00
  -1   7   3  264.37    7.00
  -1   7   3  251.47    7.60
   0  -7  -3    5.60    0.80
   0  -7  -3    5.20    1.70
   0  -7  -3    5.10    0.60
   0   7   3    2.90    1.50
   0   7   3    6.00    0.80
  -1  -7  -3   62.59    2.00
  -1  -7  -3   58.29    2.30
   1   7   3   64.19    2.00
   1   7   3   60.59    2.30
  -2  -7  -3   12.30    0.80
   2   7   3   12.20    1.10
   2   7   3   12.00    1.10
   3  -8  -3    0.00    0.40
  -3   8   3    0.90    0.40
   2  -8  -3    4.20    0.60
  -2   8   3    5.30    0.70
  -2   8   3    5.10    0.70
   1  -8  -3   13.70    1.20
   1  -8  -3   11.80    1.60
  -1   8   3   12.90    0.90
  -1   8   3   13.10    1.00
   0  -8  -3   10.50    0.90
   0   8   3   10.10    1.00
   0   8   3    9.20    0.80
  -1  -8  -3   28.30    1.10
   1   8   3   29.00    1.30
   1   8   3   28.40    1.30
   1   8   3   27.90    1.10
   1   9  -4    2.90    0.40
  -1  -9   4    3.90    0.60
   0   9  -4  420.86   10.90
   0  -9   4  433.66   10.90
   0  -9   4  429.26   11.00
  -1   9  -4    3.40    0.60
   1  -9   4    2.90    0.50
   1  -9   4    3.20    0.80
  -2   9  -4    9.80    1.90
   2  -9   4   10.10    0.80
   2  -9   4   10.30    0.70
   2   8  -4   29.20    1.10
   2   8  -4   28.70    1.20
  -2  -8   4   28.80    1.30
  -2  -8   4   28.60    1.50
   1   8  -4    0.80    0.40
  -1  -8   4    0.20    0.50
  -1  -8   4   -0.20    0.50
   0   8  -4  159.08    4.60
   0  -8   4  158.08    4.70
   0  -8   4  165.88    4.60
  -1   8  -4   17.10    1.10
   1  -8   4   18.90    1.10
  -2   8  -4   30.50    1.20
  -2   8  -4   29.50    2.00
   2  -8   4   31.30    1.30
  -3   8  -4   99.69    2.80
   3  -8   4  105.99    2.90
   3  -8   4  102.69    2.80
   3   7  -4    5.40    0.70
  -3  -7   4    5.90    0.70
  -3  -7   4    5.70    0.90
   2   7  -4   11.50    0.90
  -2  -7   4   10.90    1.50
  -2  -7   4   10.90    1.10
  -2  -7   4   13.00    0.80
   1   7  -4  898.71   22.10
  -1  -7   4  898.21   22.30
  -1  -7   4  868.71   21.90
  -1  -7   4  829.32   22.20
   0   7  -4   19.90    1.20
   0   7  -4   19.20    1.30
   0  -7   4   20.50    1.40
   0  -7   4   21.20    1.10
   0  -7   4   22.00    1.40
  -1   7  -4   55.59    2.20
  -1   7  -4   56.59    1.80
   1  -7   4   61.39    2.10
   1  -7   4   61.49    2.30
  -2   7  -4   24.20    1.40
  -2   7  -4   22.80    1.40
  -2   7  -4   23.00    1.00
   2  -7   4   26.20    1.20
  -3   7  -4   32.10    1.20
  -3   7  -4   34.20    2.20
  -3   7  -4   31.30    1.60
   3  -7   4   31.10    1.40
   3  -7   4   29.90    1.30
  -4   7  -4    6.00    0.50
   4  -7   4    6.30    0.70
   3   6  -4   30.70    1.40
   3   6  -4   29.90    1.20
  -3  -6   4   31.90    1.70
  -3  -6   4   28.20    1.60
  -3  -6   4   30.30    1.20
   2   6  -4    0.60    0.50
  -2  -6   4    0.20    0.70
  -2  -6   4   -0.50    0.40
  -2  -6   4   -0.30    0.70
   1   6  -4  209.98    5.60
   1   6  -4  198.08    5.60
  -1  -6   4  212.28    6.20
  -1  -6   4  200.28    5.60
  -1  -6   4  206.78    5.40
  -1  -6   4  192.88    5.90
  -1  -6   4  201.18    6.10
   0   6  -4   78.89    2.50
   0  -6   4   73.19    2.50
   0  -6   4   74.99    2.30
   0  -6   4   77.69    2.70
  -1   6  -4   46.40    1.80
  -1   6  -4   43.40    1.70
  -1   6  -4   45.40    1.50
   1  -6   4   47.40    2.10
   1  -6   4   43.40    1.70
  -2   6  -4  399.96   10.80
  -2   6  -4  430.46   10.70
  -2   6  -4  425.56   10.90
   2  -6   4  423.36   10.80
  -3   6  -4   17.50    2.00
  -3   6  -4   18.70    0.90
  -3   6  -4   18.80    1.10
   3  -6   4   18.00    1.20
   3  -6   4   19.90    1.20
   3  -6   4   18.60    1.00
  -4   6  -4   16.50    1.20
  -4   6  -4   20.80    0.90
   4  -6   4   20.30    1.10
   4  -6   4   20.00    1.10
   4   5  -4    0.40    0.40
  -4  -5   4    0.50    0.50
   3   5  -4   28.80    1.50
   3   5  -4   31.00    1.30
  -3  -5   4   31.30    1.30
  -3  -5   4   30.50    1.60
  -3  -5   4   28.50    1.70
   2   5  -4 1134.19   29.00
   2   5  -4 1142.69   29.30
   2   5  -4 1187.08   29.00
  -2  -5   4 1154.28   29.60
  -2  -5   4 1142.19   29.50
  -2  -5   4 1169.28   28.90
  -2  -5   4 1181.28   29.10
   1   5  -4   55.89    2.10
   1   5  -4   52.49    1.90
   1   5  -4   51.29    2.10
  -1  -5   4   55.39    2.30
  -1  -5   4   52.99    1.90
  -1  -5   4   54.29    2.10
  -1  -5   4   53.29    1.70
   0   5  -4  351.96    9.40
   0   5  -4  371.96    9.20
   0   5  -4  364.16    9.30
   0   5  -4  361.76    9.40
   0   5  -4  363.26    9.50
   0  -5   4  362.86    9.40
   0  -5   4  351.36    9.50
   0  -5   4  371.36    9.50
   0  -5   4  372.36    9.80
   0  -5   4  366.96    9.30
  -1   5  -4    4.20    0.50
  -1   5  -4    2.90    0.70
  -1   5  -4    2.40    1.20
  -1   5  -4    2.70    0.40
  -1   5  -4    3.50    0.80
   1  -5   4    4.40    1.00
   1  -5   4    2.30    0.50
  -2   5  -4   58.39    1.70
  -2   5  -4   58.29    1.80
  -2   5  -4   56.49    2.30
  -2   5  -4   53.19    2.60
   2  -5   4   58.99    2.20
  -3   5  -4   16.80    0.80
  -3   5  -4   16.10    0.90
   3  -5   4   15.90    1.20
   3  -5   4   15.30    1.20
   3  -5   4   16.00    0.90
  -4   5  -4   -0.20    0.40
  -4   5  -4    0.60    0.50
   4  -5   4   -0.10    0.50
  -5   5  -4    0.30    0.40
   5  -5   4    1.30    0.40
   4   4  -4   14.90    1.00
  -4  -4   4   16.20    1.00
  -4  -4   4   17.50    1.40
   3   4  -4    4.40    0.60
   3   4  -4    4.00    0.70
  -3  -4   4    4.50    0.60
  -3  -4   4    4.20    0.70
   2   4  -4  172.38    5.10
   2   4  -4  176.98    4.80
   2   4  -4  181.28    4.80
   2   4  -4  175.38    5.00
  -2  -4   4  176.08    5.20
  -2  -4   4  176.38    4.70
  -2  -4   4  176.38    4.80
  -2  -4   4  179.08    5.20
   1   4  -4  213.68    6.20
   1   4  -4  222.98    6.10
  -1  -4   4  236.48    6.00
  -1  -4   4  237.68    6.40
  -1  -4   4  237.38    6.30
  -1  -4   4  233.18    6.10
   0   4  -4   68.09    2.00
   0   4  -4   67.79    1.90
   0   4  -4   67.89    2.00
   0   4  -4   66.59    2.10
   0  -4   4   68.49    2.10
   0  -4   4   67.49    2.30
   0  -4   4   69.19    2.10
   0  -4   4   67.59    2.00
  -1   4  -4 1492.75   36.60
  -1   4  -4 1466.95   36.40
  -1   4  -4 1442.76   36.30
  -2   4  -4   55.29    1.70
  -2   4  -4   57.19    2.20
  -2   4  -4   55.99    1.70
   2  -4   4   55.49    2.20
   2  -4   4   55.39    1.90
  -3   4  -4  132.19    3.60
  -3   4  -4  130.69    3.60
   3  -4   4  127.19    3.60
   3  -4   4  133.79    3.90
   3  -4   4  130.09    3.90
  -4   4  -4    6.40    0.80
  -4   4  -4    6.40    0.80
   4  -4   4    5.30    0.70
   4  -4   4    4.50    0.80
  -5   4  -4    5.20    0.70
   5  -4   4    6.00    0.70
   5  -4   4    5.30    0.70
   5   3  -4    0.60    0.40
  -5  -3   4   -0.20    0.50
   4   3  -4   45.50    1.80
  -4  -3   4   45.90    1.80
  -4  -3   4   45.60    1.60
   3   3  -4  913.61   23.50
   3   3  -4  927.81   23.80
   3   3  -4  933.61   23.30
   3   3  -4  930.21   23.70
  -3  -3   4  931.01   24.00
  -3  -3   4  953.30   23.40
  -3  -3   4  956.30   23.50
   2   3  -4   76.49    2.30
   2   3  -4   74.89    2.50
   2   3  -4   75.59    2.40
   2   3  -4   73.69    2.50
  -2  -3   4   73.09    2.30
  -2  -3   4   78.39    2.60
  -2  -3   4   77.99    2.60
  -2  -3   4   76.69    2.20
   1   3  -4 1266.87   31.20
   1   3  -4 1265.17   31.20
   1   3  -4 1245.68   31.10
  -1  -3   4 1305.67   31.10
  -1  -3   4 1274.37   31.20
  -1  -3   4 1276.27   31.30
  -1  -3   4 1148.69   31.50
   0   3  -4   13.20    0.60
   0   3  -4   12.80    0.60
   0   3  -4   12.20    0.60
   0  -3   4   11.70    0.60
   0  -3   4   11.80    0.70
   0  -3   4   11.40    0.70
  -1   3  -4  110.89    3.00
  -1   3  -4  112.19    3.00
  -1   3  -4  117.49    3.20
   1  -3   4  116.99    2.90
  -2   3  -4   48.30    1.40
  -2   3  -4   47.60    1.80
  -2   3  -4   45.10    1.50
   2  -3   4   46.60    1.40
  -3   3  -4   21.40    0.90
  -3   3  -4   19.70    2.00
  -3   3  -4   18.70    1.20
   3  -3   4   22.70    1.40
   3  -3   4   21.30    1.30
   3  -3   4   21.80    1.10
  -4   3  -4    2.60    1.30
  -4   3  -4    1.90    0.50
   4  -3   4    3.70    0.70
   4  -3   4    3.40    0.70
   5  -3   4    6.90    0.80
   5  -3   4    7.20    0.90
   5   2  -4    1.50    0.40
  -5  -2   4    1.60    0.50
   4   2  -4   40.90    1.70
   4   2  -4   41.70    2.10
  -4  -2   4   43.10    1.60
  -4  -2   4   42.60    1.70
   3   2  -4   91.39    2.70
   3   2  -4   92.19    3.20
   3   2  -4   97.19    2.90
   3   2  -4   83.09    3.70
  -3  -2   4   96.99    3.30
  -3  -2   4   93.69    2.70
  -3  -2   4   96.39    2.80
   2   2  -4  424.36   10.90
   2   2  -4  424.46   10.80
  -2  -2   4  418.96   11.00
  -2  -2   4  423.56   10.70
  -2  -2   4  423.96   10.80
  -2  -2   4  425.16   10.80
   1   2  -4   52.89    1.60
   1   2  -4   53.09    1.60
   1   2  -4   51.49    1.50
  -1  -2   4   49.70    1.60
  -1  -2   4   51.39    1.60
  -1  -2   4   54.19    1.70
  -1  -2   4   52.89    1.60
  -1   2  -4   54.09    1.50
  -1   2  -4   52.99    1.60
   1  -2   4   53.39    1.50
  -2   2  -4  565.74   14.00
  -2   2  -4  574.34   14.40
   2  -2   4  552.74   14.20
   2  -2   4  563.44   14.10
  -3   2  -4    7.20    0.50
  -3   2  -4    5.50    1.00
   3  -2   4    7.10    0.70
   3  -2   4    6.70    0.90
   3  -2   4    8.10    0.90
   3  -2   4    8.40    1.00
   3  -2   4    6.60    0.90
   3  -2   4    6.20    0.80
  -4   2  -4   32.10    1.20
   4  -2   4   32.30    1.40
   4  -2   4   29.90    1.50
   4  -2   4   31.40    1.60
   4  -2   4   29.20    1.50
   5  -2   4  140.59    3.80
   5  -2   4  141.49    4.00
   5   1  -4   39.60    1.50
  -5  -1   4   38.60    1.40
   4   1  -4  413.06   11.00
   4   1  -4  430.26   11.00
  -4  -1   4  418.16   10.70
  -4  -1   4  417.56   10.80
   3   1  -4   44.20    1.60
   3   1  -4   43.80    1.90
   3   1  -4   42.00    1.50
   3   1  -4   41.20    2.10
  -3  -1   4   43.50    1.50
  -3  -1   4   43.70    1.50
  -3  -1   4   42.90    1.90
   2   1  -4 1180.58   29.90
  -2  -1   4 1219.18   29.80
  -2  -1   4 1170.88   30.00
  -2  -1   4 1225.88   29.80
  -2  -1   4 1209.88   30.10
   1   1  -4   73.29    2.10
   1   1  -4   73.19    2.00
  -1  -1   4   74.69    2.00
  -1  -1   4   73.49    2.10
  -1  -1   4   73.19    2.10
   0   1  -4  207.58    5.30
   0   1  -4  204.08    5.30
   0   1  -4  209.18    5.20
   0  -1   4  209.38    5.30
   0  -1   4  202.48    5.30
   0  -1   4  209.98    5.30
  -1   1  -4  258.97    6.70
  -1   1  -4  258.17    6.50
  -1   1  -4  264.47    6.50
   1  -1   4  254.67    6.50
  -2   1  -4  271.47    7.00
  -2   1  -4  267.07    6.60
   2  -1   4  261.87    6.90
   2  -1   4  266.27    6.90
   2  -1   4  265.77    6.90
  -3   1  -4    1.70    0.80
   3  -1   4    1.40    0.50
   3  -1   4    1.20    0.60
   3  -1   4    1.30    0.50
   3  -1   4    2.50    0.70
   3  -1   4    2.40    0.80
   3  -1   4    3.20    0.80
   4  -1   4    0.70    0.60
   4  -1   4    0.20    0.60
   4  -1   4    0.80    0.70
   4  -1   4    0.30    0.50
   4  -1   4    0.20    0.60
   5  -1   4  323.57    8.30
   5  -1   4  319.77    8.40
   5   0  -4   79.99    2.50
  -5   0   4   75.19    2.50
  -5   0   4   79.69    2.30
   4   0  -4   33.50    1.60
   4   0  -4   30.70    1.30
   4   0  -4   30.90    1.50
  -4   0   4   31.30    1.40
  -4   0   4   32.50    1.30
   3   0  -4  288.57    7.60
   3   0  -4  286.47    7.50
   3   0  -4  289.97    7.80
  -3   0   4  300.87    7.90
  -3   0   4  288.27    7.50
  -3   0   4  282.67    7.40
   2   0  -4    1.10    0.30
  -2   0   4    1.30    0.30
  -2   0   4    1.90    0.40
  -2   0   4    1.50    0.40
   0   0  -4   21.70    0.70
   0   0  -4   20.10    0.90
   0   0  -4   21.30    0.80
   0   0   4   20.50    0.70
   0   0   4   22.00    0.80
   0   0   4   21.60    0.80
  -1   0  -4 1011.10   24.30
  -1   0  -4  982.30   24.50
  -1   0  -4  977.60   24.50
   1   0   4 1012.90   24.50
   1   0   4  954.50   24.50
  -2   0  -4   37.70    1.30
   2   0   4   35.40    1.20
   2   0   4   35.10    1.30
   2   0   4   33.50    1.20
  -3   0  -4  149.39    4.40
   3   0   4  148.69    4.40
   3   0   4  153.58    4.10
   3   0   4  147.19    4.40
   3   0   4  150.48    4.20
   3   0   4  146.69    4.40
   3   0   4  150.18    4.20
   3   0   4  147.99    4.20
   4   0   4  250.17    6.70
   4   0   4  242.68    6.70
   4   0   4  249.58    6.80
   4   0   4  244.38    6.60
   5   0   4   61.69    2.00
   5   0   4   60.59    1.90
   5  -1  -4   96.29    2.90
  -5   1   4   95.19    2.90
  -5   1   4   98.49    2.70
   4  -1  -4   16.60    1.00
   4  -1  -4   16.90    1.30
   4  -1  -4   16.40    1.20
  -4   1   4   17.70    0.90
  -4   1   4   18.00    1.00
   3  -1  -4  417.46   10.90
   3  -1  -4  412.76   10.80
   3  -1  -4  415.76   10.60
  -3   1   4  416.16   10.60
  -3   1   4  421.16   10.90
  -3   1   4  416.96   10.60
   2  -1  -4  101.59    2.80
  -2   1   4  100.39    2.80
  -2   1   4   98.79    2.80
  -2   1   4  101.39    2.90
   1  -1  -4   73.49    2.00
   1  -1  -4   72.99    2.00
  -1   1   4   68.99    2.20
  -1   1   4   70.39    2.10
   0  -1  -4  329.37    8.10
   0  -1  -4  308.17    8.20
   0   1   4  322.67    8.10
   0   1   4  334.07    8.20
  -1  -1  -4  732.73   18.20
  -1  -1  -4  720.13   18.00
   1   1   4  729.03   18.20
   1   1   4  733.53   18.20
  -2  -1  -4    4.20    0.60
   2   1   4    3.70    0.80
   2   1   4    3.50    0.50
   2   1   4    3.70    0.40
   2   1   4    4.20    0.60
   2   1   4    2.00    0.70
  -3  -1  -4   19.90    1.70
  -3  -1  -4   19.30    1.70
   3   1   4   19.00    1.30
   3   1   4   21.20    1.20
   3   1   4   22.30    1.10
   3   1   4   20.80    1.40
   3   1   4   20.90    1.40
   3   1   4   22.80    1.60
   4   1   4  438.06   11.20
   4   1   4  436.86   11.30
   4   1   4  432.26   11.40
   4   1   4  432.26   11.30
   5   1   4   10.90    0.90
   5   1   4   11.20    0.80
   5  -2  -4    3.40    0.60
  -5   2   4    5.20    0.70
  -5   2   4    3.40    0.80
   4  -2  -4   96.29    3.10
   4  -2  -4   96.29    3.10
   4  -2  -4   99.49    2.70
  -4   2   4   93.69    2.80
  -4   2   4   96.79    2.90
   3  -2  -4   17.70    1.30
   3  -2  -4   15.70    1.00
   3  -2  -4   14.00    1.00
  -3   2   4   15.90    0.80
  -3   2   4   16.60    0.90
  -3   2   4   14.90    1.30
   2  -2  -4  435.86   11.40
   2  -2  -4  444.86   11.30
  -2   2   4  456.55   11.50
  -2   2   4  447.46   11.20
  -2   2   4  449.36   11.30
   1  -2  -4   35.80    1.20
   1  -2  -4   36.10    1.20
   1  -2  -4   35.20    1.10
  -1   2   4   34.30    1.10
  -1   2   4   36.00    1.30
  -1   2   4   35.60    1.10
  -1   2   4   33.80    1.50
   0  -2  -4  887.41   22.50
   0  -2  -4  902.51   22.40
   0  -2  -4  986.00   22.70
   0   2   4  901.51   22.60
   0   2   4  863.91   22.60
   0   2   4  895.11   22.40
  -1  -2  -4  154.28    3.90
  -1  -2  -4  153.28    3.90
   1   2   4  147.59    3.90
   1   2   4  146.79    4.00
   1   2   4  144.09    4.20
  -2  -2  -4  339.87    8.60
   2   2   4  345.67    8.80
   2   2   4  335.07    9.00
   2   2   4  332.57    8.80
   2   2   4  337.87    8.90
   2   2   4  349.57    9.00
  -3  -2  -4  370.46   10.30
  -3  -2  -4  377.06   10.30
  -3  -2  -4  366.86    9.50
   3   2   4  383.56   10.00
   3   2   4  387.76    9.80
   3   2   4  376.96   10.00
   3   2   4  376.66   10.10
   3   2   4  383.46   10.00
   3   2   4  376.46    9.90
   4   2   4   42.60    1.50
   4   2   4   40.90    1.70
   4   2   4   41.00    1.60
   4   2   4   42.40    1.80
   5   2   4    5.60    0.70
   5  -3  -4   10.10    0.80
  -5   3   4   10.40    0.70
   4  -3  -4   88.09    2.50
   4  -3  -4   86.69    3.00
   4  -3  -4   87.69    2.80
  -4   3   4   87.29    2.60
   3  -3  -4   18.30    1.00
   3  -3  -4   19.30    1.40
   3  -3  -4   14.30    1.70
   3  -3  -4   18.10    1.10
  -3   3   4   18.70    1.00
  -3   3   4   19.10    0.90
   2  -3  -4   -0.10    0.50
   2  -3  -4   -0.20    0.80
   2  -3  -4    0.60    0.40
   2  -3  -4   -0.40    1.00
   2  -3  -4    0.00    0.50
  -2   3   4    0.30    0.30
  -2   3   4    0.40    0.30
   1  -3  -4  111.09    3.00
   1  -3  -4  109.99    3.10
   1  -3  -4  109.09    2.90
   1  -3  -4  113.79    3.10
  -1   3   4  110.69    3.00
  -1   3   4  109.19    3.00
   0  -3  -4  446.36   11.00
   0  -3  -4  447.16   11.00
   0   3   4  453.35   11.00
   0   3   4  433.96   11.20
   0   3   4  402.56   11.20
  -1  -3  -4   27.10    1.10
  -1  -3  -4   28.90    1.00
   1   3   4   28.30    1.30
   1   3   4   29.30    1.10
  -2  -3  -4  116.69    3.70
  -2  -3  -4  103.29    3.40
  -2  -3  -4  114.09    3.10
   2   3   4  116.39    3.40
   2   3   4  112.89    3.70
   2   3   4  117.59    3.40
   2   3   4  120.59    3.60
   2   3   4  111.49    3.30
   2   3   4  113.49    3.60
  -3  -3  -4  388.16   10.10
  -3  -3  -4  356.96   11.10
  -3  -3  -4  396.96   11.00
   3   3   4  397.96   10.50
   3   3   4  407.06   10.40
   3   3   4  407.16   10.40
   3   3   4  404.66   10.80
   3   3   4  402.86   10.50
   4   3   4   21.80    1.30
   4   3   4   21.00    1.30
   4   3   4   20.00    1.10
   5  -4  -4   22.70    1.00
   4  -4  -4    8.50    0.70
   4  -4  -4    8.30    0.90
  -4   4   4    8.90    0.80
  -4   4   4    8.70    1.10
   3  -4  -4   15.70    1.30
   3  -4  -4   14.20    0.90
   3  -4  -4   15.70    1.20
  -3   4   4   14.50    1.10
  -3   4   4   12.90    0.80
   2  -4  -4   27.20    1.60
   2  -4  -4   26.50    1.20
   2  -4  -4   26.20    1.30
   2  -4  -4   27.40    1.20
   2  -4  -4   24.50    1.40
  -2   4   4   26.50    1.10
  -2   4   4   26.70    1.20
  -2   4   4   26.70    1.70
   1  -4  -4  337.07    8.80
   1  -4  -4  330.47    8.70
   1  -4  -4  338.57    8.60
   1  -4  -4  333.77    8.50
   1  -4  -4  321.47    8.70
   1  -4  -4  336.87    8.70
  -1   4   4  333.27    8.40
  -1   4   4  340.77    8.70
  -1   4   4  333.97    8.70
  -1   4   4  331.17    8.60
  -1   4   4  341.17    8.50
   0  -4  -4  149.79    4.30
   0  -4  -4  149.19    3.90
   0  -4  -4  148.99    4.00
   0   4   4  140.49    4.00
   0   4   4  142.79    4.20
   0   4   4  146.19    4.20
   0   4   4  147.19    3.90
  -1  -4  -4  265.17    7.00
  -1  -4  -4  269.67    7.00
  -1  -4  -4  275.57    7.50
   1   4   4  260.27    7.00
   1   4   4  274.57    7.10
   1   4   4  264.37    7.20
   1   4   4  273.97    7.40
  -2  -4  -4  323.67    9.00
  -2  -4  -4  322.47    8.40
  -2  -4  -4  331.57    8.30
   2   4   4  319.77    8.90
   2   4   4  322.57    8.50
   2   4   4  327.87    8.50
   2   4   4  306.67    8.30
   2   4   4  322.37    8.70
   2   4   4  328.27    8.70
  -3  -4  -4   14.30    1.30
  -3  -4  -4   17.50    1.20
  -3  -4  -4   18.40    3.20
   3   4   4   18.50    1.10
   3   4   4   17.50    1.20
   3   4   4   17.50    2.10
   3   4   4   17.10    1.40
   3   4   4   21.00    2.30
   4   4   4    2.00    0.50
   4   4   4    3.50    0.80
   4  -5  -4    0.50    0.50
   4  -5  -4    0.20    0.40
  -4   5   4    0.50    0.40
  -4   5   4    0.30    0.80
   3  -5  -4    5.60    0.80
   3  -5  -4    6.50    1.00
   3  -5  -4    5.70    0.70
  -3   5   4    6.60    0.80
   2  -5  -4   31.70    1.50
   2  -5  -4   32.70    1.40
  -2   5   4   32.40    1.60
  -2   5   4   31.50    1.10
  -2   5   4   32.60    1.40
  -2   5   4   33.20    1.40
   1  -5  -4  105.49    3.30
   1  -5  -4  109.29    3.50
   1  -5  -4  110.59    3.30
   1  -5  -4  105.69    3.30
   1  -5  -4  105.59    3.20
   1  -5  -4  106.09    3.00
  -1   5   4  108.69    3.20
  -1   5   4  107.59    3.30
  -1   5   4  107.99    3.40
   0  -5  -4   43.20    1.60
   0  -5  -4   42.00    2.00
   0  -5  -4   41.30    1.50
   0   5   4   42.10    1.90
   0   5   4   40.70    1.60
   0   5   4   42.70    1.90
  -1  -5  -4  161.38    4.60
  -1  -5  -4  160.78    4.30
  -1  -5  -4  160.08    4.50
  -1  -5  -4  161.38    5.00
   1   5   4  157.48    4.40
   1   5   4  156.08    4.60
   1   5   4  160.38    4.70
   1   5   4  161.88    4.90
  -2  -5  -4  241.08    7.10
  -2  -5  -4  237.98    6.40
  -2  -5  -4  235.28    6.30
   2   5   4  244.78    6.70
   2   5   4  232.38    7.00
   2   5   4  232.08    6.50
   2   5   4  231.28    7.50
   2   5   4  237.28    6.40
   2   5   4  234.28    6.20
  -3  -5  -4   16.40    1.40
  -3  -5  -4   15.80    1.10
   3   5   4   17.10    1.30
   3   5   4   17.50    1.10
   3   5   4   16.50    1.20
   4   5   4    5.20    0.70
   4  -6  -4    8.10    0.60
  -4   6   4    8.00    0.60
  -4   6   4    8.50    0.70
   3  -6  -4   19.00    1.00
   3  -6  -4   18.30    1.20
  -3   6   4   20.30    1.00
  -3   6   4   20.00    0.90
   2  -6  -4   59.29    2.00
   2  -6  -4   59.99    2.10
  -2   6   4   62.69    2.70
  -2   6   4   60.49    2.10
  -2   6   4   60.59    2.20
  -2   6   4   55.69    2.00
   1  -6  -4   94.79    4.00
   1  -6  -4  100.79    3.10
   1  -6  -4   96.89    2.80
   1  -6  -4   98.89    3.00
  -1   6   4   97.99    3.40
  -1   6   4  104.49    3.00
  -1   6   4   96.29    3.00
   0  -6  -4  105.29    3.10
   0  -6  -4  108.29    3.40
   0  -6  -4  111.69    3.30
   0  -6  -4  109.59    4.00
   0   6   4  110.49    3.20
   0   6   4  107.09    3.70
   0   6   4  108.69    3.30
  -1  -6  -4  142.79    4.20
  -1  -6  -4  140.69    4.90
  -1  -6  -4  145.99    4.10
  -1  -6  -4  140.89    4.20
   1   6   4  149.88    4.00
   1   6   4  143.49    4.40
   1   6   4  145.39    4.80
  -2  -6  -4    2.20    0.50
  -2  -6  -4    2.40    0.70
   2   6   4    2.60    0.70
   2   6   4    1.90    0.60
   2   6   4    4.30    0.90
   3   6   4    0.70    0.60
   3  -7  -4    7.20    0.70
  -3   7   4    7.00    0.70
  -3   7   4    6.90    1.10
   2  -7  -4   23.90    1.40
   2  -7  -4   26.50    1.50
  -2   7   4   22.90    1.50
  -2   7   4   25.00    1.30
   1  -7  -4   24.80    1.40
   1  -7  -4   22.40    1.20
  -1   7   4   24.40    1.20
  -1   7   4   22.50    1.20
   0  -7  -4   82.29    2.50
   0  -7  -4   83.19    3.00
   0  -7  -4   83.39    2.60
   0   7   4   82.79    2.60
  -1  -7  -4   94.99    2.80
  -1  -7  -4   89.69    3.10
   1   7   4   99.39    2.80
   1   7   4   98.39    3.10
  -2  -7  -4    6.10    0.70
   2   7   4    5.40    1.40
   2   7   4    6.20    0.90
   2  -8  -4   48.10    1.60
  -2   8   4   47.70    1.70
  -2   8   4   49.10    1.60
   1  -8  -4   26.70    1.20
   1  -8  -4   23.30    1.50
  -1   8   4   29.00    1.20
   0  -8  -4   45.80    1.90
   0   8   4   49.10    1.60
   0   8   4   48.10    1.80
  -1  -8  -4   -0.70    0.40
   1   8   4   -0.10    0.40
   1   8   4    0.80    0.50
   1   9  -5    0.30    0.30
  -1  -9   5    0.60    0.50
   0   9  -5   54.79    1.80
   0  -9   5   54.99    1.90
   0  -9   5   55.99    1.90
  -1   9  -5   26.30    1.30
   1  -9   5   26.30    1.10
   1  -9   5   25.90    1.30
   2  -9   5    6.20    0.60
   2  -9   5    6.10    0.70
   2   8  -5    2.60    0.50
   2   8  -5    2.60    0.40
  -2  -8   5    2.80    0.60
  -2  -8   5    2.40    0.50
   1   8  -5   31.20    1.30
  -1  -8   5   30.10    1.40
  -1  -8   5   28.70    1.20
   0   8  -5  393.96   10.90
   0  -8   5  418.66   10.40
   0  -8   5  388.76   11.40
  -1   8  -5   27.90    1.50
  -1   8  -5   25.80    1.30
   1  -8   5   29.30    1.50
  -2   8  -5   51.59    1.60
   2  -8   5   51.19    1.70
  -3   8  -5    8.60    0.60
   3  -8   5    7.60    0.80
   3  -8   5    7.50    0.60
   3   7  -5   39.30    1.50
  -3  -7   5   37.80    1.80
  -3  -7   5   39.70    1.40
   2   7  -5    1.70    0.60
   2   7  -5    2.40    0.50
  -2  -7   5    3.10    0.50
  -2  -7   5    3.10    1.10
  -2  -7   5    2.40    0.70
   1   7  -5   61.19    2.10
  -1  -7   5   59.29    2.60
  -1  -7   5   60.99    1.90
  -1  -7   5   62.29    2.30
  -1  -7   5   63.19    3.40
   0   7  -5   60.09    2.10
   0   7  -5   58.79    2.20
   0  -7   5   63.09    2.30
   0  -7   5   61.49    2.20
  -1   7  -5    6.40    0.90
  -1   7  -5    6.50    0.70
   1  -7   5    8.80    1.20
   1  -7   5    8.50    0.90
  -2   7  -5  196.38    5.60
  -2   7  -5  203.08    5.30
   2  -7   5  200.28    5.40
  -3   7  -5    0.30    0.70
  -3   7  -5    0.20    0.30
   3  -7   5   -0.10    0.40
   3  -7   5    0.90    0.60
  -4   7  -5    0.30    0.40
   4  -7   5    0.20    0.50
   3   6  -5   17.00    0.90
   3   6  -5   15.90    1.00
  -3  -6   5   15.30    1.50
  -3  -6   5   14.60    0.90
  -3  -6   5   13.80    1.50
   2   6  -5   66.79    2.20
  -2  -6   5   65.59    2.40
  -2  -6   5   64.59    2.40
  -2  -6   5   63.59    2.10
   1   6  -5  575.94   14.60
   1   6  -5  592.14   14.60
  -1  -6   5  562.94   15.10
  -1  -6   5  553.24   14.60
  -1  -6   5  557.84   14.70
  -1  -6   5  560.84   14.40
  -1  -6   5  588.74   14.80
   0   6  -5  111.49    3.30
   0   6  -5  120.69    3.60
   0  -6   5  122.79    3.80
   0  -6   5  126.09    3.60
   0  -6   5  120.39    3.30
  -1   6  -5  141.49    3.70
  -1   6  -5  129.49    4.10
  -1   6  -5  138.69    3.90
   1  -6   5  138.89    4.20
  -2   6  -5   39.60    1.50
  -2   6  -5   38.00    1.30
  -2   6  -5   38.70    1.90
   2  -6   5   37.70    1.50
   2  -6   5   36.40    2.30
  -3   6  -5   44.60    1.70
  -3   6  -5   44.90    1.50
   3  -6   5   44.50    1.50
   3  -6   5   47.30    1.80
  -4   6  -5  164.48    4.20
  -4   6  -5  147.79    4.40
   4  -6   5  166.18    4.30
   4   5  -5   48.60    1.70
  -4  -5   5   49.10    1.60
   3   5  -5   10.10    1.00
   3   5  -5   11.00    0.80
  -3  -5   5   10.00    0.80
  -3  -5   5   10.30    1.10
  -3  -5   5   11.50    1.50
   2   5  -5   67.59    2.50
   2   5  -5   68.19    2.90
   2   5  -5   72.79    2.30
  -2  -5   5   67.89    3.00
  -2  -5   5   70.79    2.20
  -2  -5   5   71.19    2.40
  -2  -5   5   69.69    2.50
   1   5  -5  121.39    3.60
   1   5  -5  112.89    3.50
   1   5  -5  112.29    3.50
  -1  -5   5  118.99    3.50
  -1  -5   5  119.69    3.30
  -1  -5   5  124.19    3.90
  -1  -5   5  117.19    4.20
  -1  -5   5  115.89    3.70
   0   5  -5    0.30    0.60
   0   5  -5    0.20    0.30
   0   5  -5    0.20    0.70
   0   5  -5   -0.50    0.40
   0  -5   5    0.30    0.40
   0  -5   5   -0.20    0.50
   0  -5   5   -0.10    0.60
   0  -5   5    1.40    0.70
   0  -5   5   -0.40    0.70
  -1   5  -5  530.15   12.90
  -1   5  -5  503.95   13.30
  -1   5  -5  500.85   13.10
  -1   5  -5  499.45   13.00
  -1   5  -5  505.25   13.20
   1  -5   5  512.65   13.00
   1  -5   5  521.75   13.30
  -2   5  -5    3.00    0.40
  -2   5  -5    2.90    0.40
   2  -5   5    4.40    1.10
   2  -5   5    2.90    0.50
   2  -5   5    2.50    1.30
  -3   5  -5   14.30    0.90
  -3   5  -5   14.30    0.80
   3  -5   5   14.80    1.20
   3  -5   5   14.40    0.90
   3  -5   5   15.10    1.20
  -4   5  -5  128.39    3.70
  -4   5  -5  137.09    3.60
   4  -5   5  126.89    3.80
   4  -5   5  138.09    3.80
  -5   5  -5    2.30    0.50
   5  -5   5    2.50    0.80
   4   4  -5   22.20    1.20
  -4  -4   5   21.70    1.40
  -4  -4   5   23.40    1.10
   3   4  -5  118.49    3.70
   3   4  -5  119.69    3.40
  -3  -4   5  122.99    3.60
  -3  -4   5  120.29    3.40
   2   4  -5  565.74   14.50
   2   4  -5  557.14   14.40
   2   4  -5  566.34   14.30
  -2  -4   5  555.34   14.50
  -2  -4   5  570.34   14.20
  -2  -4   5  554.24   14.30
  -2  -4   5  562.34   14.70
   1   4  -5  361.76    9.60
   1   4  -5  366.96    9.70
   1   4  -5  366.56    9.60
  -1  -4   5  360.06    9.80
  -1  -4   5  386.36    9.50
  -1  -4   5  379.06    9.60
  -1  -4   5  377.96    9.80
   0   4  -5  494.95   12.60
   0   4  -5  502.15   12.50
   0   4  -5  503.25   12.40
   0  -4   5  513.65   12.60
   0  -4   5  473.95   12.80
   0  -4   5  501.25   12.50
   0  -4   5  479.75   12.60
  -1   4  -5  131.59    3.40
  -1   4  -5  128.09    3.70
   1  -4   5  125.39    4.30
   1  -4   5  120.69    3.50
  -2   4  -5   43.70    1.40
  -2   4  -5   42.00    1.30
   2  -4   5   42.70    1.50
   2  -4   5   35.90    4.00
   2  -4   5   38.80    1.90
  -3   4  -5  376.66    9.50
   3  -4   5  369.36    9.80
   3  -4   5  374.16    9.80
   3  -4   5  366.86    9.40
  -4   4  -5   18.40    1.00
  -4   4  -5   19.40    1.00
   4  -4   5   19.10    1.20
   4  -4   5   20.10    1.20
  -5   4  -5    3.40    0.70
   5  -4   5    3.80    0.60
   5  -4   5    5.00    0.70
   5   3  -5   27.20    1.00
  -5  -3   5   26.30    1.00
   4   3  -5   15.70    1.00
  -4  -3   5   15.30    1.00
  -4  -3   5   16.50    1.20
   3   3  -5   51.29    2.00
   3   3  -5   49.00    1.70
   3   3  -5   49.80    2.00
  -3  -3   5   49.00    1.80
  -3  -3   5   47.40    2.50
  -3  -3   5   49.10    1.70
   2   3  -5  156.18    4.30
   2   3  -5  155.98    4.40
   2   3  -5  157.18    4.60
   2   3  -5  160.98    4.30
  -2  -3   5  144.99    4.70
  -2  -3   5  156.08    4.60
  -2  -3   5  159.78    4.30
  -2  -3   5  158.18    4.20
   1   3  -5   51.09    1.60
   1   3  -5   48.40    1.60
   1   3  -5   49.70    1.60
  -1  -3   5   52.39    1.60
  -1  -3   5   50.79    1.60
  -1  -3   5   50.19    1.80
   0   3  -5 1144.69   28.60
   0   3  -5 1174.08   28.70
   0   3  -5 1129.89   28.80
   0  -3   5 1172.28   28.80
   0  -3   5 1160.68   28.70
   0  -3   5 1164.08   28.80
  -1   3  -5   71.59    2.20
  -1   3  -5   69.79    2.00
  -1   3  -5   73.39    2.00
   1  -3   5   72.59    1.90
  -2   3  -5  140.99    4.10
  -2   3  -5  138.79    3.60
  -2   3  -5  143.79    3.60
   2  -3   5  128.09    3.70
   2  -3   5  137.09    3.60
   2  -3   5  133.99    3.90
  -3   3  -5  308.87    8.20
  -3   3  -5  328.47    8.20
   3  -3   5  331.57    8.50
   3  -3   5  315.27    8.60
  -4   3  -5   11.10    0.90
   4  -3   5   12.00    1.00
   4  -3   5   11.70    1.00
   5  -3   5   87.79    2.60
   5  -3   5   85.79    2.50
   5   2  -5    9.70    0.70
  -5  -2   5   10.40    1.50
  -5  -2   5    9.20    0.80
   4   2  -5  160.48    5.00
   4   2  -5  168.78    4.80
  -4  -2   5  169.38    4.60
  -4  -2   5  175.68    4.80
   3   2  -5  289.97    7.70
   3   2  -5  283.27    7.60
   3   2  -5  274.57    7.40
  -3  -2   5  285.17    7.50
  -3  -2   5  282.07    7.90
  -3  -2   5  285.07    7.40
   2   2  -5  589.04   15.50
   2   2  -5  591.54   15.40
   2   2  -5  696.23   16.50
   2   2  -5  595.74   15.40
  -2  -2   5  604.04   15.30
  -2  -2   5  592.94   15.60
  -2  -2   5  600.64   15.40
   1   2  -5 1201.58   30.40
   1   2  -5 1204.58   30.30
  -1  -2   5 1238.88   30.30
  -1  -2   5 1240.58   30.30
  -1  -2   5 1218.78   30.50
  -1  -2   5 1227.08   30.40
   0   2  -5  187.38    4.70
   0   2  -5  181.08    4.80
   0   2  -5  178.28    4.70
   0  -2   5  183.48    4.70
   0  -2   5  180.78    4.70
   0  -2   5  173.48    4.80
  -1   2  -5    0.90    0.30
  -1   2  -5    1.30    0.20
   1  -2   5    1.80    0.30
  -2   2  -5  799.12   19.60
  -2   2  -5  823.42   20.00
   2  -2   5  754.72   19.90
   2  -2   5  789.52   19.90
  -3   2  -5   37.80    2.30
  -3   2  -5   38.00    1.20
   3  -2   5   36.90    1.70
   3  -2   5   36.70    1.80
   3  -2   5   36.40    1.50
   3  -2   5   38.20    1.70
   3  -2   5   35.10    1.80
  -4   2  -5   24.60    1.10
   4  -2   5   22.80    1.40
   4  -2   5   25.50    1.30
   4  -2   5   23.00    1.20
   5  -2   5   29.30    1.30
   5  -2   5   29.60    1.20
   5   1  -5   12.10    0.80
  -5  -1   5   11.90    0.80
   4   1  -5   14.80    0.90
   4   1  -5   16.10    1.10
   4   1  -5   17.20    1.40
  -4  -1   5   14.70    1.00
  -4  -1   5   15.40    1.10
   3   1  -5   88.09    2.90
   3   1  -5   83.29    2.60
   3   1  -5   88.89    2.80
  -3  -1   5   89.79    2.60
  -3  -1   5   88.99    2.60
  -3  -1   5   87.19    3.00
   2   1  -5   99.99    2.90
  -2  -1   5   99.89    2.80
  -2  -1   5  102.59    3.10
  -2  -1   5  102.69    2.90
   1   1  -5  910.41   25.20
   1   1  -5 1007.10   25.10
  -1  -1   5 1039.40   25.00
  -1  -1   5 1028.50   25.10
  -1  -1   5 1044.00   25.10
   0   1  -5  369.56    9.50
   0   1  -5  379.96    9.40
   0  -1   5  381.46    9.40
   0  -1   5  366.66    9.50
   0  -1   5  376.86    9.50
  -1   1  -5  368.06    9.50
  -1   1  -5  385.16    9.40
  -1   1  -5  381.86    9.70
   1  -1   5  379.16    9.50
  -2   1  -5  698.73   17.40
  -2   1  -5  729.53   17.80
   2  -1   5  700.53   17.60
   2  -1   5  680.73   17.60
  -3   1  -5   18.30    0.70
  -3   1  -5   18.00    2.00
   3  -1   5   16.50    1.50
   3  -1   5   18.60    1.10
   3  -1   5   20.10    1.20
   3  -1   5   18.60    1.20
   3  -1   5   18.90    1.50
   4  -1   5  206.38    5.80
   4  -1   5  215.88    5.70
   4  -1   5  212.08    5.70
   4  -1   5  205.58    5.80
   5  -1   5  197.28    5.30
   5  -1   5  202.68    5.30
   5   0  -5  145.99    4.10
  -5   0   5  144.59    3.90
   4   0  -5   95.49    2.70
   4   0  -5   90.59    3.10
   4   0  -5   98.39    3.00
  -4   0   5   93.99    2.90
  -4   0   5   92.69    2.70
   3   0  -5  380.06   10.00
   3   0  -5  383.96    9.80
   3   0  -5  382.06   10.00
  -3   0   5  383.66    9.80
  -3   0   5  381.86    9.70
   2   0  -5  942.51   24.10
  -2   0   5  989.90   24.00
  -2   0   5  948.01   24.00
  -2   0   5  979.30   24.30
   1   0  -5  116.59    3.00
   1   0  -5  113.29    3.10
  -1   0   5  112.19    3.20
  -1   0   5  115.89    3.00
  -1   0   5  105.49    3.00
  -1   0   5  110.59    3.10
   0   0  -5   61.69    1.70
   0   0  -5   60.89    1.80
   0   0   5   61.19    1.70
   0   0   5   61.39    1.80
   0   0   5   61.09    1.80
  -1   0  -5 1203.88   29.20
  -1   0  -5 1192.98   29.40
   1   0   5 1167.18   29.30
   1   0   5 1164.98   29.30
  -2   0  -5  144.19    4.00
   2   0   5  142.59    4.00
   2   0   5  129.59    4.00
   2   0   5  167.28    4.70
   2   0   5  142.89    3.90
   3   0   5   45.10    2.00
   3   0   5   48.60    2.10
   3   0   5   41.70    2.20
   3   0   5   47.50    2.00
   3   0   5   46.90    2.10
   3   0   5   48.50    1.80
   4   0   5   82.69    2.60
   4   0   5   82.69    2.80
   4   0   5   83.69    2.70
   4   0   5   83.89    2.70
   5   0   5   36.30    1.30
   5   0   5   35.10    1.50
   5  -1  -5    3.30    0.60
  -5   1   5    3.10    0.50
   4  -1  -5   24.30    1.50
   4  -1  -5   21.60    1.30
   4  -1  -5   25.00    1.10
  -4   1   5   27.30    1.20
  -4   1   5   24.20    1.80
  -4   1   5   23.60    1.10
   3  -1  -5   67.79    2.40
   3  -1  -5   64.79    2.10
   3  -1  -5   66.29    2.20
   3  -1  -5   63.99    2.30
  -3   1   5   65.99    2.00
  -3   1   5   64.09    2.80
  -3   1   5   67.99    2.10
   2  -1  -5  226.28    5.90
   2  -1  -5  230.78    6.10
  -2   1   5  229.08    6.10
  -2   1   5  222.78    5.80
  -2   1   5  221.98    5.90
   1  -1  -5  385.36    9.80
   1  -1  -5  393.36    9.80
   1  -1  -5  407.66    9.80
  -1   1   5  381.36    9.90
  -1   1   5  381.96   10.10
  -1   1   5  385.16    9.80
  -1   1   5  386.26    9.80
   0  -1  -5  431.76   11.00
   0  -1  -5  437.46   10.80
   0   1   5  426.66   11.00
  -1  -1  -5  701.63   17.40
  -1  -1  -5  704.83   17.60
   1   1   5  716.93   17.60
   1   1   5  698.03   17.60
   1   1   5  682.43   17.50
  -2  -1  -5   17.10    1.00
  -2  -1  -5   17.30    0.60
   2   1   5   17.80    1.00
   2   1   5   13.30    1.20
   2   1   5   15.30    1.10
   2   1   5   16.30    0.90
   2   1   5   16.10    1.50
  -3  -1  -5  329.87    8.90
  -3  -1  -5  329.97    9.30
   3   1   5  323.57    8.60
   3   1   5  334.07    8.50
   3   1   5  327.37    8.70
   3   1   5  321.37    8.70
   3   1   5  315.77    8.70
   3   1   5  330.07    8.80
   4   1   5  278.27    7.70
   4   1   5  292.87    7.70
   4   1   5  288.37    7.60
   4   1   5  295.87    7.80
   5   1   5    0.60    0.40
   5  -2  -5   32.60    1.30
  -5   2   5   34.30    1.20
   4  -2  -5  151.78    4.60
   4  -2  -5  159.88    4.20
   4  -2  -5  154.08    4.50
  -4   2   5  157.48    4.30
  -4   2   5  160.88    4.40
   3  -2  -5  465.65   11.60
   3  -2  -5  431.16   11.70
   3  -2  -5  467.55   11.80
  -3   2   5  446.56   11.90
  -3   2   5  467.85   11.70
  -3   2   5  445.96   11.80
  -3   2   5  461.25   11.50
   2  -2  -5   39.40    1.60
   2  -2  -5   40.70    1.40
  -2   2   5   40.60    1.60
  -2   2   5   40.70    1.40
  -2   2   5   40.80    1.30
  -2   2   5   44.70    2.10
   1  -2  -5  119.79    3.10
   1  -2  -5  117.49    3.20
   1  -2  -5  117.59    3.10
  -1   2   5  114.19    3.10
  -1   2   5  114.79    3.10
   0  -2  -5  426.26   10.50
   0  -2  -5  427.36   10.60
   0  -2  -5  430.76   10.60
   0   2   5  423.06   10.80
   0   2   5  398.16   10.80
  -1  -2  -5  297.97    7.50
  -1  -2  -5  291.97    7.60
  -1  -2  -5  285.77    7.60
   1   2   5  316.57    7.80
   1   2   5  298.57    7.70
   1   2   5  291.57    7.70
  -2  -2  -5   41.70    1.30
   2   2   5   42.40    1.70
   2   2   5   42.20    1.70
   2   2   5   40.40    1.90
   2   2   5   42.70    1.60
   2   2   5   39.30    1.60
  -3  -2  -5  150.18    5.10
  -3  -2  -5  150.88    4.00
  -3  -2  -5  152.98    4.90
   3   2   5  149.88    4.20
   3   2   5  166.48    4.80
   3   2   5  147.59    4.40
   3   2   5  150.28    4.50
   3   2   5  145.89    4.70
   3   2   5  147.59    4.50
   4   2   5   69.29    2.20
   4   2   5   68.39    2.30
   4   2   5   67.19    2.40
   4   2   5   71.09    2.40
   5  -3  -5    4.00    0.60
  -5   3   5    4.70    0.60
   4  -3  -5   28.40    1.40
   4  -3  -5   28.00    1.10
   4  -3  -5   28.40    1.90
  -4   3   5   29.00    1.20
   3  -3  -5   28.90    1.20
   3  -3  -5   28.30    1.40
   3  -3  -5   30.10    1.90
   3  -3  -5   29.20    1.60
  -3   3   5   29.20    1.10
  -3   3   5   28.00    1.30
   2  -3  -5  103.59    3.60
   2  -3  -5  112.69    3.40
   2  -3  -5  117.69    3.30
   2  -3  -5  114.69    3.20
   2  -3  -5  114.69    3.30
  -2   3   5  112.49    3.60
  -2   3   5  117.69    3.10
  -2   3   5  108.19    3.50
   1  -3  -5  161.68    4.60
   1  -3  -5  169.78    4.40
   1  -3  -5  168.38    4.30
   1  -3  -5  170.38    4.50
  -1   3   5  166.28    4.80
  -1   3   5  167.48    4.40
  -1   3   5  163.98    4.40
  -1   3   5  162.58    4.60
   0  -3  -5  135.99    3.60
   0  -3  -5  130.29    3.60
   0   3   5  132.39    3.80
   0   3   5  128.49    3.70
   0   3   5  133.19    3.60
  -1  -3  -5    5.20    0.50
  -1  -3  -5    5.00    0.70
   1   3   5    4.70    0.80
   1   3   5    4.30    0.60
   1   3   5    6.70    0.90
   1   3   5    5.70    0.90
  -2  -3  -5  290.67    7.30
  -2  -3  -5  280.37    7.30
  -2  -3  -5  282.87    7.90
   2   3   5  280.87    7.60
   2   3   5  284.37    7.80
   2   3   5  280.17    7.80
   2   3   5  285.27    7.80
   2   3   5  288.67    7.60
  -3  -3  -5  216.58    5.80
  -3  -3  -5  219.78    6.80
   3   3   5  219.88    6.50
   3   3   5  220.58    6.20
   3   3   5  222.08    6.00
   3   3   5  219.78    6.20
   4   3   5   -0.90    0.80
   4   3   5    0.20    0.50
   4   3   5   -0.10    0.60
   5  -4  -5   51.29    1.70
  -5   4   5   54.29    1.60
   4  -4  -5  173.38    4.90
   4  -4  -5  172.38    4.70
  -4   4   5  170.68    4.90
  -4   4   5  179.48    4.70
   3  -4  -5    3.40    0.50
   3  -4  -5    2.70    1.00
   3  -4  -5    2.80    0.80
   3  -4  -5    3.70    0.80
  -3   4   5    3.90    0.70
  -3   4   5    3.90    0.50
   2  -4  -5   46.50    2.10
   2  -4  -5   49.20    1.80
   2  -4  -5   48.40    1.80
   2  -4  -5   46.80    1.90
   2  -4  -5   45.80    1.70
  -2   4   5   45.60    2.00
  -2   4   5   48.90    1.70
  -2   4   5   50.39    1.60
   1  -4  -5   32.80    1.70
   1  -4  -5   35.90    1.30
   1  -4  -5   37.60    1.60
   1  -4  -5   37.80    1.60
   1  -4  -5   36.10    1.40
   1  -4  -5   37.80    1.60
  -1   4   5   37.40    1.60
  -1   4   5   36.00    1.50
  -1   4   5   35.80    1.50
  -1   4   5   36.50    1.30
   0  -4  -5  226.28    6.20
   0  -4  -5  221.98    5.80
   0  -4  -5  220.58    5.90
   0  -4  -5  220.28    6.10
   0   4   5  225.18    5.80
   0   4   5  224.38    6.10
   0   4   5  218.88    6.00
   0   4   5  222.78    5.90
  -1  -4  -5   19.90    1.40
  -1  -4  -5   16.70    0.90
  -1  -4  -5   16.30    0.90
   1   4   5   14.80    1.00
   1   4   5   15.50    1.00
   1   4   5   13.20    1.50
   1   4   5   14.50    1.30
  -2  -4  -5  102.89    3.00
  -2  -4  -5  101.59    3.00
   2   4   5   98.29    3.00
   2   4   5  105.09    3.20
   2   4   5  104.99    3.40
   2   4   5  104.49    3.30
  -3  -4  -5   84.19    2.70
  -3  -4  -5   78.89    2.60
   3   4   5   80.69    3.80
   3   4   5   80.89    2.80
   3   4   5   94.89    4.90
   3   4   5   85.09    2.60
   4   4   5    2.80    0.50
   4  -5  -5    5.60    0.70
   4  -5  -5    4.80    0.60
  -4   5   5    5.50    0.60
   3  -5  -5   21.30    1.30
   3  -5  -5   20.70    1.00
   3  -5  -5   22.10    1.30
  -3   5   5   22.70    1.00
  -3   5   5   20.50    1.50
   2  -5  -5   18.80    1.10
   2  -5  -5   18.20    1.20
  -2   5   5   17.70    0.90
  -2   5   5   17.00    1.20
  -2   5   5   18.00    1.50
  -2   5   5   20.50    1.10
   1  -5  -5    8.90    0.80
   1  -5  -5   10.80    1.60
   1  -5  -5   10.00    1.20
   1  -5  -5    9.80    1.00
   1  -5  -5    9.70    1.20
   1  -5  -5    8.60    1.10
  -1   5   5   12.90    1.20
  -1   5   5   10.70    1.00
  -1   5   5   10.30    1.00
   0  -5  -5    0.20    0.50
   0  -5  -5    0.40    0.60
   0  -5  -5    0.00    0.80
   0  -5  -5    0.60    0.40
   0   5   5    0.40    0.70
   0   5   5    1.40    0.50
   0   5   5    1.00    0.60
  -1  -5  -5  123.69    3.60
  -1  -5  -5  122.49    4.30
  -1  -5  -5  123.89    3.70
  -1  -5  -5  122.09    3.50
   1   5   5  124.59    3.90
   1   5   5  131.49    4.40
   1   5   5  126.99    4.90
   1   5   5  126.29    3.50
  -2  -5  -5   81.79    3.60
  -2  -5  -5   83.89    2.50
  -2  -5  -5   82.59    2.60
   2   5   5   80.19    2.70
   2   5   5   79.49    3.50
   2   5   5   87.49    2.90
  -3  -5  -5    1.10    0.60
  -3  -5  -5    3.80    0.90
   3   5   5    1.30    0.60
   4  -6  -5    0.30    0.30
  -4   6   5    1.00    0.40
  -4   6   5    1.40    0.40
   3  -6  -5    6.10    0.80
   3  -6  -5    7.00    0.70
  -3   6   5    6.10    0.70
  -3   6   5    5.50    0.70
  -3   6   5    6.70    1.00
   2  -6  -5    0.30    0.50
   2  -6  -5    0.10    0.60
  -2   6   5    0.70    0.50
  -2   6   5    1.30    0.60
  -2   6   5   -1.60    1.00
   1  -6  -5  127.99    3.70
   1  -6  -5  135.29    4.00
   1  -6  -5  130.49    5.10
   1  -6  -5  135.09    3.90
  -1   6   5  136.29    3.90
  -1   6   5  139.39    3.90
  -1   6   5  134.49    4.30
   0  -6  -5    1.20    0.60
   0  -6  -5    1.50    1.30
   0  -6  -5    0.10    0.40
   0  -6  -5    1.20    0.70
   0   6   5    0.60    0.60
   0   6   5    1.40    0.50
   0   6   5   -0.60    1.00
  -1  -6  -5   19.40    2.50
  -1  -6  -5   25.00    1.40
  -1  -6  -5   24.50    1.50
  -1  -6  -5   25.60    1.20
   1   6   5   24.80    1.50
   1   6   5   23.20    2.40
   1   6   5   26.30    1.20
  -2  -6  -5   53.19    2.10
  -2  -6  -5   56.39    1.80
   2   6   5   56.49    2.10
  -3  -6  -5    8.90    0.80
   3   6   5    8.60    0.80
   3  -7  -5    0.70    0.40
  -3   7   5    0.70    0.40
  -3   7   5   -0.40    0.90
   2  -7  -5    2.60    0.60
   2  -7  -5    2.10    0.50
  -2   7   5    2.00    0.60
  -2   7   5    0.80    0.40
   1  -7  -5    0.50    0.60
   1  -7  -5    0.60    0.70
  -1   7   5    0.40    0.70
  -1   7   5    0.50    0.50
   0  -7  -5   30.90    2.30
   0  -7  -5   38.80    1.40
   0  -7  -5   37.40    1.60
   0   7   5   36.40    1.70
  -1  -7  -5   13.90    1.60
  -1  -7  -5   10.60    0.80
   1   7   5   10.50    0.80
   1   7   5   12.40    1.20
  -2  -7  -5   -0.50    0.50
   2   7   5    0.20    0.50
   2  -8  -5   73.39    2.20
  -2   8   5   70.19    2.10
  -2   8   5   71.79    2.20
   1  -8  -5    2.00    0.90
   1  -8  -5    0.60    0.50
  -1   8   5    1.20    0.40
   0  -8  -5    2.20    0.70
   0   8   5    3.20    0.60
   0   8   5    3.60    0.50
  -1  -8  -5   26.50    1.10
   1   8   5   25.50    1.10
   1   8   5   25.50    1.00
   1   9  -6    0.50    0.40
   0   9  -6  213.48    5.60
   0  -9   6  206.88    5.60
   0  -9   6  212.68    5.60
  -1   9  -6   15.40    1.10
   1  -9   6   14.40    0.90
   1  -9   6   16.20    1.10
   2  -9   6    8.70    0.70
   2  -9   6    8.10    0.60
   2   8  -6    5.60    0.60
   2   8  -6    4.30    0.70
  -2  -8   6    6.10    0.80
  -2  -8   6    4.70    0.60
   1   8  -6  154.48    4.30
  -1  -8   6  152.28    4.50
  -1  -8   6  156.78    4.40
   0   8  -6   19.30    1.20
   0   8  -6   21.20    1.20
   0  -8   6   23.30    1.30
   0  -8   6   21.30    1.30
  -1   8  -6    4.00    0.70
  -1   8  -6    4.40    0.60
   1  -8   6    4.30    0.80
   1  -8   6    3.80    0.60
  -2   8  -6   15.00    0.80
   2  -8   6   13.60    0.90
   2  -8   6   13.90    0.90
  -3   8  -6    0.40    0.40
   3  -8   6    0.90    0.30
   3  -8   6   -0.10    0.40
   3   7  -6   14.00    0.80
  -3  -7   6   14.50    0.80
   2   7  -6    1.70    0.60
   2   7  -6    0.90    0.40
  -2  -7   6    0.90    0.40
  -2  -7   6   -1.80    1.30
  -2  -7   6    1.90    0.70
   1   7  -6  456.45   11.30
   1   7  -6  446.56   11.40
  -1  -7   6  416.06   11.40
  -1  -7   6  449.95   11.60
  -1  -7   6  429.96   11.20
   0   7  -6   48.60    1.90
   0   7  -6   49.80    1.80
   0  -7   6   51.29    2.00
   0  -7   6   51.19    1.90
  -1   7  -6   42.20    1.50
  -1   7  -6   37.80    1.80
   1  -7   6   42.70    1.60
   1  -7   6   42.10    1.80
  -2   7  -6   87.69    2.50
  -2   7  -6   82.09    2.80
   2  -7   6   86.39    2.60
  -3   7  -6   35.30    1.20
  -3   7  -6   31.50    1.70
   3  -7   6   35.30    1.40
   3  -7   6   35.00    1.30
  -4   7  -6    1.30    0.40
   4  -7   6    1.00    0.40
   3   6  -6   11.80    0.80
   3   6  -6   10.00    0.90
  -3  -6   6   13.50    1.50
  -3  -6   6   10.40    0.80
  -3  -6   6   10.20    1.20
   2   6  -6  440.96   11.10
  -2  -6   6  419.96   11.00
  -2  -6   6  422.56   11.20
  -2  -6   6  432.46   11.30
   1   6  -6    5.30    0.80
   1   6  -6    3.60    0.60
  -1  -6   6    4.80    1.90
  -1  -6   6    3.60    1.00
  -1  -6   6    4.30    0.80
  -1  -6   6    4.70    0.80
  -1  -6   6    5.00    0.70
   0   6  -6    3.20    0.70
   0   6  -6    2.80    0.60
   0   6  -6    4.40    0.50
   0  -6   6    3.30    0.60
   0  -6   6    2.60    0.60
   0  -6   6    3.50    0.70
  -1   6  -6   42.90    2.00
  -1   6  -6   45.70    1.50
  -1   6  -6   44.40    1.70
   1  -6   6   42.60    2.00
   1  -6   6   42.70    1.60
  -2   6  -6    0.00    0.30
   2  -6   6   -0.20    0.40
   2  -6   6    0.50    1.00
  -3   6  -6   30.90    1.20
  -3   6  -6   30.70    1.40
   3  -6   6   29.50    1.40
   3  -6   6   31.20    1.20
  -4   6  -6   80.49    2.30
   4  -6   6   81.79    2.40
   4   5  -6    1.00    0.40
  -4  -5   6    1.30    0.40
   3   5  -6    9.60    1.00
   3   5  -6    7.40    0.80
  -3  -5   6    8.90    1.20
  -3  -5   6    8.70    1.20
  -3  -5   6    8.30    0.80
   2   5  -6  738.43   19.00
   2   5  -6  766.52   19.00
  -2  -5   6  753.32   18.90
  -2  -5   6  753.42   19.20
  -2  -5   6  722.53   19.60
  -2  -5   6  766.22   19.10
   1   5  -6  128.19    3.70
   1   5  -6  126.19    3.70
  -1  -5   6  130.19    4.00
  -1  -5   6  125.99    3.50
  -1  -5   6  129.49    3.90
  -1  -5   6  122.39    3.70
  -1  -5   6  129.19    3.90
   0   5  -6  123.49    3.90
   0   5  -6  129.59    3.80
   0   5  -6  124.49    3.60
   0   5  -6  124.59    3.40
   0  -5   6  124.19    3.50
   0  -5   6  132.09    3.90
   0  -5   6  126.79    3.70
  -1   5  -6  405.56   10.20
  -1   5  -6  378.86   10.70
  -1   5  -6  408.86   10.10
  -1   5  -6  386.46   10.60
   1  -5   6  407.16   10.50
   1  -5   6  398.96   10.20
  -2   5  -6  150.58    4.30
  -2   5  -6  161.58    4.20
   2  -5   6  157.68    5.30
   2  -5   6  151.28    4.20
  -3   5  -6   10.60    0.90
  -3   5  -6   10.90    0.70
   3  -5   6   13.10    0.90
   3  -5   6   12.30    1.10
   3  -5   6   10.20    1.00
  -4   5  -6    1.60    0.50
  -4   5  -6    1.30    0.60
   4  -5   6    0.00    0.50
   4  -5   6    1.30    0.50
   4   4  -6   12.30    0.90
  -4  -4   6   14.80    0.80
  -4  -4   6   14.20    1.40
   3   4  -6  714.03   18.20
   3   4  -6  718.33   17.90
  -3  -4   6  705.13   18.10
   2   4  -6    0.70    0.70
   2   4  -6   -0.30    0.60
   2   4  -6    0.20    0.50
   2   4  -6    1.00    0.60
  -2  -4   6    0.30    0.30
  -2  -4   6    0.60    0.90
  -2  -4   6    0.60    0.50
   1   4  -6   18.50    1.10
   1   4  -6   20.10    1.20
  -1  -4   6   19.10    1.00
  -1  -4   6   18.50    1.40
  -1  -4   6   18.80    0.90
  -1  -4   6   18.00    1.20
  -1  -4   6   18.10    1.70
   0   4  -6   47.60    1.50
   0   4  -6   49.00    1.80
   0   4  -6   45.50    2.00
   0   4  -6   48.20    1.50
   0  -4   6   42.00    1.80
   0  -4   6   46.90    1.70
   0  -4   6   47.20    1.70
   0  -4   6   44.80    2.00
   0  -4   6   48.00    1.50
  -1   4  -6    5.70    0.50
  -1   4  -6    5.50    0.90
   1  -4   6    4.10    0.50
   1  -4   6    5.00    0.80
  -2   4  -6  115.99    3.10
  -2   4  -6  107.59    3.70
  -2   4  -6  112.19    3.00
   2  -4   6  105.19    3.10
   2  -4   6  117.19    3.50
  -3   4  -6  204.48    5.40
  -3   4  -6  209.08    5.50
   3  -4   6  204.58    5.70
   3  -4   6  203.88    5.40
   3  -4   6  207.98    5.70
  -4   4  -6   12.80    1.00
  -4   4  -6   12.80    0.90
   4  -4   6   11.90    1.00
   4  -4   6   12.50    1.00
   5  -4   6    5.10    0.70
   4   3  -6    8.40    0.90
   4   3  -6   11.10    1.20
  -4  -3   6   11.80    0.80
  -4  -3   6    9.60    1.10
   3   3  -6  804.12   19.90
   3   3  -6  796.72   20.20
   3   3  -6  771.02   20.30
  -3  -3   6  775.72   20.70
  -3  -3   6  820.22   20.00
  -3  -3   6  796.72   20.10
   2   3  -6  130.49    3.90
   2   3  -6  130.69    3.80
   2   3  -6  130.09    3.70
   2   3  -6  133.59    3.70
  -2  -3   6  130.19    3.70
  -2  -3   6  123.09    4.10
  -2  -3   6  132.39    3.60
  -2  -3   6  123.89    4.00
   1   3  -6  203.08    5.80
   1   3  -6  213.18    5.70
   1   3  -6  224.18    5.80
   1   3  -6  213.88    5.80
   1   3  -6  209.48    5.60
  -1  -3   6  221.48    5.60
  -1  -3   6  220.88    5.70
  -1  -3   6  222.68    5.90
   0   3  -6 1279.27   31.60
   0   3  -6 1249.88   31.80
   0   3  -6 1260.87   31.60
   0  -3   6 1295.77   31.70
   0  -3   6 1268.17   31.60
   0  -3   6 1296.67   31.70
  -1   3  -6  449.46   13.30
  -1   3  -6  495.85   12.50
  -1   3  -6  518.15   12.40
   1  -3   6  518.35   12.40
  -2   3  -6   88.19    2.90
  -2   3  -6   82.99    2.40
   2  -3   6   81.89    2.50
   2  -3   6   85.19    2.70
  -3   3  -6    0.00    0.30
   3  -3   6    0.50    0.80
   3  -3   6    1.20    1.10
   3  -3   6    0.30    0.60
  -4   3  -6    1.20    0.60
   4  -3   6    1.90    0.70
   4  -3   6    1.90    0.60
   5  -3   6   89.99    2.80
   5  -3   6  100.69    2.70
   5   2  -6   11.30    0.70
  -5  -2   6   10.90    0.70
  -5  -2   6    9.50    1.20
   4   2  -6  605.74   16.60
   4   2  -6  661.73   16.10
   4   2  -6  649.83   16.50
  -4  -2   6  654.13   16.20
  -4  -2   6  643.84   16.40
   3   2  -6    1.60    0.60
   3   2  -6    1.60    0.50
   3   2  -6    1.30    0.70
  -3  -2   6    1.50    0.40
  -3  -2   6    2.70    0.50
  -3  -2   6    2.00    1.00
   2   2  -6   96.59    2.90
   2   2  -6   99.79    2.90
   2   2  -6   89.39    3.20
  -2  -2   6   94.49    2.80
  -2  -2   6   95.89    3.10
  -2  -2   6   96.89    2.70
   1   2  -6   10.00    0.60
   1   2  -6    9.70    0.70
   1   2  -6    9.60    0.60
  -1  -2   6    8.60    1.00
  -1  -2   6    9.90    0.60
  -1  -2   6    9.50    0.70
  -1  -2   6   10.40    0.60
   0   2  -6   25.30    1.00
   0   2  -6   23.20    0.90
   0   2  -6   25.10    0.90
   0  -2   6   24.60    0.90
   0  -2   6   22.70    1.20
   0  -2   6   23.70    0.90
  -1   2  -6  315.37    7.50
  -1   2  -6  292.37    7.80
  -1   2  -6  288.17    7.50
   1  -2   6  297.17    7.60
  -2   2  -6  482.25   12.20
  -2   2  -6  465.15   11.70
   2  -2   6  466.35   11.90
   2  -2   6  462.35   12.00
  -3   2  -6   14.10    0.70
   3  -2   6   13.90    1.90
   3  -2   6   13.70    1.10
   3  -2   6   10.90    1.60
   3  -2   6   13.40    1.20
   3  -2   6   14.70    1.10
  -4   2  -6    4.60    0.60
   4  -2   6    4.60    0.80
   4  -2   6    5.90    0.80
   4  -2   6    4.20    0.60
   5  -2   6  433.06   11.70
   5  -2   6  484.05   11.60
   5   1  -6    2.90    0.50
  -5  -1   6    3.30    0.50
   4   1  -6  557.94   14.50
   4   1  -6  550.54   14.70
   4   1  -6  570.94   14.20
  -4  -1   6  568.74   14.40
  -4  -1   6  580.74   14.30
   3   1  -6   19.50    1.00
   3   1  -6   19.70    1.10
  -3  -1   6   18.20    1.60
  -3  -1   6   18.00    0.90
  -3  -1   6   19.70    1.00
   2   1  -6  198.48    5.40
   2   1  -6  202.98    5.40
  -2  -1   6  196.98    5.30
  -2  -1   6  199.68    5.20
  -2  -1   6  202.68    5.60
   1   1  -6 1934.61   47.60
   1   1  -6 1889.91   47.50
   1   1  -6 1860.11   47.80
  -1  -1   6 1938.91   47.60
  -1  -1   6 1964.90   47.80
  -1  -1   6 1969.80   47.60
  -1  -1   6 1928.31   47.80
   0   1  -6  607.54   14.80
   0   1  -6  586.54   15.00
   0   1  -6  592.84   14.80
   0  -1   6  601.64   14.90
   0  -1   6  578.14   15.00
   0  -1   6  598.14   14.80
  -1   1  -6  523.65   13.20
  -1   1  -6  532.15   13.00
  -1   1  -6  497.35   13.10
   1  -1   6  524.75   13.00
  -2   1  -6   25.90    0.80
  -2   1  -6   27.20    1.30
   2  -1   6   28.90    1.40
   2  -1   6   28.10    1.10
   2  -1   6   27.90    1.40
  -3   1  -6    5.20    1.50
  -3   1  -6    6.30    0.50
   3  -1   6    8.50    1.00
   3  -1   6    7.30    1.00
   3  -1   6    6.90    0.80
   4  -1   6  185.18    5.10
   4  -1   6  186.88    5.20
   4  -1   6  194.88    5.10
   4  -1   6  169.88    5.10
   5  -1   6   98.89    2.80
   5   0  -6  381.16    9.90
  -5   0   6  389.36    9.80
   4   0  -6    0.80    0.80
   4   0  -6    1.60    0.60
   4   0  -6    3.60    0.50
  -4   0   6    1.00    0.70
  -4   0   6    3.10    0.60
  -4   0   6    3.00    0.50
   3   0  -6  123.99    4.30
   3   0  -6  128.69    3.70
   3   0  -6  121.39    3.50
   3   0  -6  123.89    3.80
  -3   0   6  124.19    3.90
  -3   0   6  125.89    3.50
  -3   0   6  126.99    3.60
   2   0  -6    1.10    0.60
   2   0  -6    0.00    0.30
  -2   0   6    0.00    0.40
  -2   0   6    0.20    0.30
   1   0  -6    1.00    0.30
   1   0  -6    0.70    0.40
   1   0  -6    0.80    0.30
  -1   0   6    1.00    0.30
  -1   0   6    1.10    0.30
  -1   0   6    1.10    0.30
   0   0  -6  393.26    9.70
   0   0  -6  388.96    9.70
   0   0  -6  390.66    9.90
   0   0   6  374.76    9.70
   0   0   6  382.46    9.80
  -1   0  -6  669.63   16.50
  -1   0  -6  656.93   16.20
   1   0   6  623.44   16.50
   1   0   6  663.43   16.30
  -2   0  -6   17.70    0.60
  -2   0  -6   17.60    1.10
   2   0   6   18.00    0.90
   2   0   6   17.10    1.10
   2   0   6   18.30    1.20
   2   0   6   20.90    2.00
  -3   0  -6   50.89    1.60
   3   0   6   51.89    2.30
   3   0   6   54.99    2.00
   3   0   6   55.69    1.90
   3   0   6   56.19    2.00
   3   0   6   56.19    2.20
   4   0   6 1006.80   25.40
   4   0   6  980.90   25.60
   4   0   6 1013.10   25.30
   4   0   6 1045.90   25.50
   5   0   6    0.50    0.40
   5  -1  -6  281.37    7.40
  -5   1   6  288.27    7.30
   4  -1  -6    0.50    0.40
   4  -1  -6    0.20    0.80
   4  -1  -6    1.60    0.60
  -4   1   6    1.60    0.80
  -4   1   6    0.70    0.50
  -4   1   6    0.40    0.40
   3  -1  -6   73.39    2.70
   3  -1  -6   79.69    2.60
   3  -1  -6   76.69    2.40
   3  -1  -6   76.59    2.50
  -3   1   6   78.39    2.30
  -3   1   6   78.19    2.80
  -3   1   6   80.99    2.40
   2  -1  -6 1335.97   33.60
   2  -1  -6 1325.87   33.60
   2  -1  -6 1314.67   33.60
  -2   1   6 1365.06   33.80
  -2   1   6 1346.37   33.80
  -2   1   6 1394.66   33.50
  -2   1   6 1365.36   33.50
   1  -1  -6  255.07    6.50
   1  -1  -6  250.67    6.50
   1  -1  -6  253.67    6.50
  -1   1   6  254.07    6.50
  -1   1   6  256.67    6.50
  -1   1   6  252.17    6.70
   0  -1  -6  810.42   20.50
   0  -1  -6  826.72   20.30
   0  -1  -6  815.32   20.30
   0   1   6  793.32   20.50
   0   1   6  833.12   20.40
  -1  -1  -6  106.29    2.80
  -1  -1  -6  106.19    3.00
   1   1   6   99.59    3.10
   1   1   6  105.59    3.00
  -2  -1  -6    2.70    0.30
  -2  -1  -6    3.40    0.70
   2   1   6    1.00    0.90
   2   1   6    4.00    0.70
   2   1   6    3.20    0.60
   2   1   6    4.20    0.60
   2   1   6    3.20    0.60
  -3  -1  -6  252.67    6.40
   3   1   6  250.77    7.10
   3   1   6  254.67    6.70
   3   1   6  252.77    6.80
   3   1   6  248.28    6.90
   3   1   6  253.27    6.90
   4   1   6  152.08    4.40
   4   1   6  150.88    4.10
   4   1   6  147.49    4.30
   5  -2  -6    0.10    0.50
  -5   2   6    0.70    0.40
   4  -2  -6   84.99    3.00
   4  -2  -6   87.59    2.80
   4  -2  -6   89.69    2.60
  -4   2   6   92.49    2.80
  -4   2   6   87.99    2.60
   3  -2  -6    4.10    0.70
   3  -2  -6    2.50    0.90
   3  -2  -6    3.30    0.60
   3  -2  -6    4.00    0.60
  -3   2   6    3.00    0.80
  -3   2   6    3.30    1.10
  -3   2   6    3.30    0.50
  -3   2   6    2.50    0.40
   2  -2  -6   55.49    1.90
   2  -2  -6   57.79    1.80
   2  -2  -6   52.09    2.30
  -2   2   6   55.69    2.20
  -2   2   6   56.79    1.70
  -2   2   6   55.09    2.00
  -2   2   6   55.79    1.80
  -2   2   6   52.59    2.40
   1  -2  -6  182.08    4.90
   1  -2  -6  164.68    4.40
   1  -2  -6  165.58    4.40
   1  -2  -6  163.68    4.50
  -1   2   6  162.98    4.40
   0  -2  -6  236.18    6.10
   0  -2  -6  241.68    6.10
   0   2   6  234.28    6.30
   0   2   6  233.08    6.10
  -1  -2  -6   11.70    0.60
  -1  -2  -6   11.90    1.00
  -1  -2  -6   11.30    0.80
   1   2   6   10.60    1.20
   1   2   6   10.30    1.20
   1   2   6   11.80    0.90
   1   2   6   10.50    0.70
  -2  -2  -6  103.59    2.90
   2   2   6  104.29    3.20
   2   2   6  106.49    3.20
   2   2   6  105.19    3.10
   2   2   6  106.49    3.30
   2   2   6  100.39    3.30
  -3  -2  -6 1412.36   35.00
  -3  -2  -6 1412.26   35.80
   3   2   6 1426.16   35.40
   3   2   6 1401.36   35.30
   3   2   6 1428.86   35.60
   3   2   6 1408.96   35.10
   3   2   6 1393.96   35.40
   4   2   6    1.20    0.60
   4   2   6    0.70    0.50
   5  -3  -6    4.60    0.60
  -5   3   6    2.90    0.50
   4  -3  -6   18.00    1.20
   4  -3  -6   17.70    0.90
  -4   3   6   19.60    1.30
  -4   3   6   20.00    1.00
   3  -3  -6  509.15   12.80
   3  -3  -6  489.35   12.80
   3  -3  -6  500.85   12.80
   3  -3  -6  501.95   12.80
   3  -3  -6  495.55   12.70
  -3   3   6  487.65   12.90
  -3   3   6  494.45   12.60
   2  -3  -6   31.40    1.30
   2  -3  -6   30.40    1.40
   2  -3  -6   32.20    1.60
   2  -3  -6   33.40    1.40
  -2   3   6   32.40    1.70
  -2   3   6   31.50    1.70
  -2   3   6   32.20    1.20
  -2   3   6   32.40    1.30
   1  -3  -6  495.55   12.50
   1  -3  -6  485.95   12.80
   1  -3  -6  513.65   12.60
   1  -3  -6  496.55   12.80
   1  -3  -6  505.65   12.70
  -1   3   6  500.15   12.70
  -1   3   6  495.45   12.80
  -1   3   6  494.75   12.50
   0  -3  -6   29.20    1.10
   0  -3  -6   28.90    1.60
   0  -3  -6   28.90    1.10
   0   3   6   28.10    1.30
   0   3   6   29.10    1.20
   0   3   6   29.80    1.10
  -1  -3  -6    0.60    0.30
  -1  -3  -6    0.20    0.40
   1   3   6   -0.30    0.50
   1   3   6    1.20    0.70
   1   3   6    1.10    0.50
   1   3   6    0.60    0.80
   1   3   6    0.00    0.50
  -2  -3  -6  294.17    7.90
  -2  -3  -6  304.37    8.50
  -2  -3  -6  296.77    7.90
   2   3   6  313.27    8.30
   2   3   6  304.47    8.00
   2   3   6  311.97    8.20
   2   3   6  311.67    8.10
   2   3   6  304.87    8.40
  -3  -3  -6  145.59    5.40
  -3  -3  -6  151.28    4.10
   3   3   6  154.68    5.10
   3   3   6  152.68    4.30
   3   3   6  149.79    4.70
   3   3   6  151.58    4.50
   4   3   6   28.90    1.30
   4   3   6   28.10    1.20
   4  -4  -6    2.90    0.70
   4  -4  -6    2.20    0.40
  -4   4   6    3.10    0.50
  -4   4   6    4.60    1.00
   3  -4  -6   53.49    1.80
   3  -4  -6   51.99    2.10
   3  -4  -6   52.89    2.00
  -3   4   6   52.09    2.00
  -3   4   6   51.39    1.80
   2  -4  -6   38.00    1.50
   2  -4  -6   39.60    1.70
   2  -4  -6   38.00    1.60
   2  -4  -6   37.00    2.50
  -2   4   6   37.90    1.70
  -2   4   6   40.00    1.70
  -2   4   6   38.80    1.40
   1  -4  -6   44.90    1.50
   1  -4  -6   43.50    1.70
   1  -4  -6   43.50    1.80
   1  -4  -6   46.40    1.90
   1  -4  -6   42.20    2.00
  -1   4   6   42.00    1.70
  -1   4   6   44.20    1.60
  -1   4   6   43.70    1.60
  -1   4   6   46.70    1.90
   0  -4  -6    3.00    0.80
   0  -4  -6    3.20    0.80
   0  -4  -6    2.70    0.40
   0  -4  -6    3.00    0.50
   0   4   6    2.20    0.70
   0   4   6    3.20    0.80
   0   4   6    3.10    0.60
   0   4   6    3.40    0.50
  -1  -4  -6   58.89    2.50
  -1  -4  -6   57.99    1.80
   1   4   6   57.49    2.40
   1   4   6   57.49    2.30
   1   4   6   58.49    1.90
   1   4   6   53.99    2.20
   1   4   6   58.19    2.10
  -2  -4  -6 1351.16   33.80
  -2  -4  -6 1352.96   33.90
  -2  -4  -6 1359.66   34.60
   2   4   6 1363.96   34.10
   2   4   6 1384.16   34.30
   2   4   6 1342.97   34.50
   2   4   6 1377.56   34.00
  -3  -4  -6    3.00    0.80
  -3  -4  -6    3.40    0.80
   3   4   6    2.20    0.70
   3   4   6    3.40    0.80
   4   4   6    0.80    0.50
   4  -5  -6  151.18    3.90
  -4   5   6  140.09    3.80
  -4   5   6  146.49    4.00
   3  -5  -6   -0.30    0.60
   3  -5  -6    0.00    0.40
  -3   5   6    0.20    0.40
  -3   5   6   -0.10    1.00
  -3   5   6   -0.70    0.40
   2  -5  -6  187.28    5.10
   2  -5  -6  191.78    5.20
  -2   5   6  189.18    5.10
  -2   5   6  192.38    5.60
  -2   5   6  189.18    5.20
  -2   5   6  171.18    4.90
   1  -5  -6    1.20    0.70
   1  -5  -6    0.20    0.60
   1  -5  -6    2.20    0.80
   1  -5  -6   -1.20    1.20
   1  -5  -6   -0.30    0.60
   1  -5  -6    0.70    0.40
  -1   5   6   -0.20    0.50
  -1   5   6   -0.20    0.50
   0  -5  -6    4.20    1.00
   0  -5  -6    4.90    0.70
   0  -5  -6    6.00    1.10
   0  -5  -6    6.40    0.80
   0  -5  -6    4.70    0.70
   0   5   6    5.80    0.80
   0   5   6    4.10    0.60
  -1  -5  -6  269.07    7.10
  -1  -5  -6  272.77    7.20
  -1  -5  -6  268.87    7.20
  -1  -5  -6  272.27    7.90
   1   5   6  275.97    7.10
   1   5   6  267.27    7.50
   1   5   6  270.27    7.70
  -2  -5  -6  130.49    3.60
  -2  -5  -6  130.59    4.80
  -2  -5  -6  130.99    3.80
   2   5   6  135.19    4.00
   2   5   6  127.79    3.70
   2   5   6  120.39    4.70
  -3  -5  -6   28.50    1.30
   3   5   6   28.60    1.40
   3   5   6   26.40    1.20
   4  -6  -6   22.90    0.90
  -4   6   6   22.70    0.90
   3  -6  -6    9.30    0.80
   3  -6  -6    8.70    0.90
  -3   6   6    7.70    1.00
  -3   6   6    8.70    0.70
   2  -6  -6   13.70    1.00
   2  -6  -6   12.00    1.00
  -2   6   6   18.70    2.90
  -2   6   6   13.20    0.90
  -2   6   6   12.90    1.10
   1  -6  -6    3.50    0.60
   1  -6  -6    3.80    0.80
   1  -6  -6    4.00    0.70
  -1   6   6    3.40    1.10
  -1   6   6    4.30    0.60
  -1   6   6    2.80    0.60
   0  -6  -6   11.10    1.00
   0  -6  -6   11.50    1.30
   0  -6  -6   11.20    0.80
   0  -6  -6   15.70    2.50
   0   6   6    9.50    1.30
   0   6   6   11.80    1.10
   0   6   6   10.30    0.90
  -1  -6  -6  951.70   23.60
  -1  -6  -6  914.21   23.80
  -1  -6  -6  959.70   23.80
   1   6   6  942.91   23.90
   1   6   6  946.51   23.50
  -2  -6  -6    1.10    0.50
  -2  -6  -6    2.50    0.90
   2   6   6    1.80    0.60
   3  -7  -6   58.79    1.70
  -3   7   6   56.79    1.80
  -3   7   6   53.99    2.10
   2  -7  -6    3.90    0.60
   2  -7  -6    3.70    0.60
  -2   7   6    6.70    0.90
  -2   7   6    4.90    0.70
   1  -7  -6   11.10    1.40
   1  -7  -6   12.70    0.90
  -1   7   6   13.60    0.90
  -1   7   6   12.60    0.90
   0  -7  -6  165.58    4.50
   0  -7  -6  162.28    4.30
   0  -7  -6  151.88    6.40
   0   7   6  167.28    4.40
   0   7   6  157.98    4.60
  -1  -7  -6   82.29    2.40
   1   7   6   80.49    2.30
   1   7   6   79.39    2.60
  -2  -7  -6   12.80    0.80
   2   7   6   12.60    0.80
   1  -8  -6   -1.20    1.00
   1  -8  -6    0.80    0.50
  -1   8   6    0.80    0.40
  -1   8   6    0.90    0.40
   0   8   6  449.46   11.60
   0   8   6  464.65   11.50
   0   9  -7  258.67    6.80
   0  -9   7  260.67    6.90
   0  -9   7  270.97    6.90
  -1   9  -7    1.10    0.70
  -1   9  -7    1.40    0.80
   1  -9   7    2.30    0.60
   1  -9   7    1.70    0.40
   2   8  -7   26.40    1.00
   2   8  -7   24.80    1.10
  -2  -8   7   25.30    1.20
   1   8  -7   13.70    0.90
  -1  -8   7   15.20    1.00
  -1  -8   7   15.50    1.60
   0   8  -7    3.10    0.60
   0   8  -7    2.80    0.60
   0  -8   7    1.80    0.60
   0  -8   7    1.80    0.60
  -1   8  -7    6.50    0.90
  -1   8  -7    5.30    0.60
   1  -8   7    5.50    0.80
   1  -8   7    5.80    0.80
  -2   8  -7    9.20    0.70
   2  -8   7   11.50    0.80
   2  -8   7   10.20    0.70
  -3   8  -7    0.70    0.40
   3  -8   7    0.50    0.30
   3  -8   7    0.90    0.40
   3   7  -7   24.00    1.00
  -3  -7   7   25.70    1.00
   2   7  -7   15.60    1.10
   2   7  -7   14.00    0.90
  -2  -7   7   14.80    1.10
  -2  -7   7   14.00    0.90
   1   7  -7  588.94   15.10
   1   7  -7  601.04   15.00
  -1  -7   7  593.84   15.30
  -1  -7   7  608.94   15.20
  -1  -7   7  553.84   14.80
   0   7  -7    1.20    0.50
   0   7  -7    0.10    0.60
   0  -7   7    1.00    0.60
   0  -7   7    1.30    0.70
  -1   7  -7    9.80    0.70
  -1   7  -7   10.70    1.20
   1  -7   7    9.60    0.90
   1  -7   7   10.30    1.20
  -2   7  -7    1.60    0.40
  -2   7  -7    1.50    0.80
   2  -7   7    1.70    0.40
  -3   7  -7   24.50    1.60
  -3   7  -7   27.70    1.00
   3  -7   7   27.50    1.20
   3  -7   7   27.20    1.10
   3   6  -7   19.70    1.10
   3   6  -7   20.70    1.00
  -3  -6   7   19.70    0.90
  -3  -6   7   17.40    2.00
   2   6  -7   13.20    1.20
   2   6  -7   15.70    1.10
   2   6  -7   13.60    0.90
  -2  -6   7   13.60    1.50
  -2  -6   7   13.50    0.90
  -2  -6   7   14.50    1.20
   1   6  -7    2.90    0.60
   1   6  -7    1.40    0.70
  -1  -6   7    3.20    0.90
  -1  -6   7    2.60    0.70
  -1  -6   7    2.10    0.80
   0   6  -7    7.20    0.90
   0   6  -7    9.90    1.00
   0   6  -7    8.40    0.80
   0  -6   7    7.60    1.00
   0  -6   7    6.90    1.10
  -1   6  -7  147.29    3.90
  -1   6  -7  141.99    4.20
  -1   6  -7  141.29    4.30
   1  -6   7  146.49    4.10
   1  -6   7  148.39    4.40
  -2   6  -7    1.10    0.40
  -2   6  -7    1.30    0.50
   2  -6   7    1.20    0.50
  -3   6  -7    0.40    0.40
  -3   6  -7    0.80    0.60
   3  -6   7   -0.80    0.50
   3  -6   7    0.30    0.40
  -4   6  -7   46.60    1.50
   4  -6   7   50.29    1.60
   4   5  -7   15.00    0.80
  -4  -5   7   15.00    0.80
   3   5  -7   18.70    1.10
  -3  -5   7   20.10    1.00
  -3  -5   7   20.00    1.40
   2   5  -7  914.41   23.00
   2   5  -7  928.31   22.80
   2   5  -7  908.71   22.90
  -2  -5   7  882.01   22.70
  -2  -5   7  896.01   22.90
  -2  -5   7  904.61   23.00
   1   5  -7    1.20    0.60
   1   5  -7    1.50    0.60
  -1  -5   7    0.90    0.60
  -1  -5   7    0.00    0.60
  -1  -5   7    1.60    1.10
  -1  -5   7    1.50    0.80
  -1  -5   7    0.60    0.40
   0   5  -7    4.10    0.60
   0   5  -7    6.80    0.60
   0   5  -7    6.10    0.70
   0   5  -7    6.00    1.10
   0  -5   7    6.30    0.80
   0  -5   7    7.30    0.90
   0  -5   7    5.90    0.90
  -1   5  -7   21.90    1.00
  -1   5  -7   20.70    0.90
  -1   5  -7   21.50    2.00
   1  -5   7   19.60    1.10
   1  -5   7   20.50    2.10
  -2   5  -7  131.29    3.50
  -2   5  -7  121.69    3.60
   2  -5   7  128.69    3.60
  -3   5  -7  203.78    5.40
  -3   5  -7  200.88    5.50
   3  -5   7  203.18    5.60
   3  -5   7  204.98    5.30
  -4   5  -7   28.30    1.10
  -4   5  -7   28.30    1.40
   4  -5   7   30.00    1.30
   4   4  -7    6.40    0.80
  -4  -4   7    7.00    0.70
   3   4  -7   16.40    2.50
   3   4  -7   14.60    0.90
   3   4  -7   12.70    1.10
  -3  -4   7   14.40    0.90
  -3  -4   7   13.70    1.20
   2   4  -7    0.40    0.60
   2   4  -7   -0.30    0.70
   2   4  -7    0.60    0.50
   2   4  -7    0.90    0.50
  -2  -4   7    0.20    0.50
  -2  -4   7   -0.30    0.80
  -2  -4   7    0.70    0.40
  -2  -4   7   -0.10    1.10
   1   4  -7   18.40    1.10
   1   4  -7   17.60    1.20
   1   4  -7   20.40    1.50
  -1  -4   7   16.60    1.10
  -1  -4   7   19.20    1.30
  -1  -4   7   19.90    1.50
  -1  -4   7   20.10    0.90
  -1  -4   7   17.90    1.40
   0   4  -7  629.24   15.50
   0   4  -7  579.74   15.70
   0   4  -7  631.04   15.40
   0   4  -7  636.04   15.80
   0  -4   7  625.44   15.60
   0  -4   7  620.34   15.80
   0  -4   7  604.74   15.60
   0  -4   7  593.84   15.40
  -1   4  -7   13.00    1.20
  -1   4  -7   14.00    0.70
  -1   4  -7   13.70    0.70
   1  -4   7   12.80    1.40
   1  -4   7   13.00    0.90
  -2   4  -7    0.30    0.30
  -2   4  -7   -0.30    0.30
   2  -4   7   -0.10    0.50
   2  -4   7   -0.20    1.10
   2  -4   7   -0.30    0.50
  -3   4  -7  209.18    5.30
  -3   4  -7  206.58    5.40
   3  -4   7  192.88    5.60
   3  -4   7  204.08    5.60
  -4   4  -7    4.00    0.60
  -4   4  -7    3.30    0.60
   4  -4   7    3.60    0.70
   5  -4   7   14.90    0.80
   4   3  -7   18.50    1.00
   4   3  -7   18.10    1.10
  -4  -3   7   21.10    1.00
  -4  -3   7   17.80    1.30
   3   3  -7  878.91   22.10
   3   3  -7  871.11   22.20
   3   3  -7  866.31   21.90
  -3  -3   7  859.61   21.90
  -3  -3   7  888.01   22.10
   2   3  -7    0.10    0.50
   2   3  -7    0.50    0.50
   2   3  -7    0.10    0.80
   2   3  -7    1.30    0.50
  -2  -3   7    1.50    1.10
  -2  -3   7    0.10    0.70
  -2  -3   7    0.40    0.40
  -2  -3   7    0.10    0.30
   1   3  -7   12.90    1.00
   1   3  -7   12.30    1.00
   1   3  -7   12.90    0.70
   1   3  -7   11.10    1.20
  -1  -3   7   12.50    1.50
  -1  -3   7   13.60    1.00
  -1  -3   7   13.70    0.80
  -1  -3   7   13.90    0.70
  -1  -3   7   12.50    1.40
   0   3  -7  122.99    3.10
   0   3  -7  117.99    3.50
   0   3  -7  122.09    3.20
   0  -3   7  107.29    3.60
   0  -3   7  120.19    3.30
   0  -3   7  114.49    3.20
   0  -3   7  112.89    3.40
  -1   3  -7  365.26    9.20
  -1   3  -7  349.17    8.90
  -1   3  -7  341.67    8.90
   1  -3   7  361.66    8.90
   1  -3   7  341.07    9.00
   1  -3   7  342.27    9.30
  -2   3  -7  729.63   19.00
  -2   3  -7  736.33   18.40
  -2   3  -7  731.53   18.50
   2  -3   7  765.12   18.70
   2  -3   7  727.23   18.50
  -3   3  -7   36.00    1.40
  -3   3  -7   37.60    1.30
   3  -3   7   36.60    1.60
  -4   3  -7   53.49    1.90
   4  -3   7   57.99    2.00
   5  -3   7   18.90    0.90
  -5  -2   7    0.00    0.40
   4   2  -7   12.50    1.00
   4   2  -7   12.00    1.00
  -4  -2   7   11.40    1.10
  -4  -2   7   14.40    0.90
   3   2  -7    7.00    0.90
   3   2  -7    7.10    1.00
   3   2  -7    6.20    0.80
  -3  -2   7    5.80    0.80
  -3  -2   7    5.50    0.70
  -3  -2   7    5.60    1.20
   2   2  -7   28.10    1.20
   2   2  -7   24.50    2.00
   2   2  -7   27.30    1.30
  -2  -2   7   27.20    1.10
  -2  -2   7   26.80    1.20
  -2  -2   7   26.90    1.40
   1   2  -7 1168.58   29.50
   1   2  -7 1143.69   29.40
   1   2  -7 1194.58   29.20
   1   2  -7 1207.88   29.40
  -1  -2   7 1198.28   29.60
  -1  -2   7 1169.78   29.40
   0   2  -7   64.09    2.00
   0   2  -7   62.79    1.80
   0   2  -7   63.39    1.80
   0  -2   7   57.69    1.90
   0  -2   7   62.79    1.90
  -1   2  -7    1.70    0.50
  -1   2  -7    2.10    0.30
  -2   2  -7  673.23   17.00
  -2   2  -7  643.04   16.40
   2  -2   7  657.93   16.60
   2  -2   7  660.63   16.70
   2  -2   7  651.03   16.50
   2  -2   7  670.93   16.70
  -3   2  -7    0.20    0.30
   3  -2   7   -0.10    0.60
   3  -2   7    0.40    1.00
   3  -2   7    1.20    0.80
   3  -2   7   -0.70    0.50
  -4   2  -7    6.40    0.80
   4  -2   7    6.90    0.80
   4  -2   7    7.00    1.00
   5  -2   7   58.49    1.80
   5   1  -7   16.30    0.90
  -5  -1   7   15.40    0.80
  -5  -1   7   18.20    1.60
   4   1  -7  508.25   12.50
   4   1  -7  491.65   12.80
   4   1  -7  467.65   13.00
  -4  -1   7  503.35   12.60
  -4  -1   7  509.15   12.80
   3   1  -7    8.90    0.90
   3   1  -7    9.70    1.30
   3   1  -7    8.50    0.80
  -3  -1   7    9.90    1.30
  -3  -1   7    8.30    0.70
  -3  -1   7    8.80    0.90
   2   1  -7   34.30    1.40
   2   1  -7   33.40    1.30
  -2  -1   7   33.60    1.30
  -2  -1   7   34.90    1.20
  -2  -1   7   34.30    1.60
   1   1  -7  145.79    3.80
   1   1  -7  144.39    3.90
   1   1  -7  142.39    4.10
  -1  -1   7  141.49    4.00
  -1  -1   7  141.09    3.90
  -1  -1   7  145.99    3.80
   0   1  -7  473.45   12.10
   0   1  -7  467.85   11.90
   0   1  -7  474.45   11.90
   0  -1   7  465.85   12.00
   0  -1   7  485.35   11.80
  -1   1  -7 1598.54   39.10
  -1   1  -7 1594.84   39.40
  -1   1  -7 1564.24   39.10
   1  -1   7 1574.44   39.20
  -2   1  -7   19.80    1.40
  -2   1  -7   19.00    0.70
   2  -1   7   20.20    1.20
   2  -1   7   17.80    0.90
   2  -1   7   19.10    1.20
  -3   1  -7   48.20    1.50
   3  -1   7   45.70    1.80
   3  -1   7   45.50    1.80
   3  -1   7   45.20    2.10
   3  -1   7   53.09    1.80
   4  -1   7  121.19    3.70
   4  -1   7  123.09    3.50
   4  -1   7  128.49    4.60
   4  -1   7  121.29    3.60
   5  -1   7    0.30    0.40
   5   0  -7    7.70    0.80
  -5   0   7    7.30    0.60
   4   0  -7   14.80    0.90
   4   0  -7   16.40    1.50
   4   0  -7   15.50    1.10
  -4   0   7   14.60    1.20
  -4   0   7   15.80    0.90
   3   0  -7   11.90    1.40
   3   0  -7   12.40    0.90
   3   0  -7   10.30    1.20
   3   0  -7   10.20    1.00
  -3   0   7   13.30    0.90
  -3   0   7   10.00    1.50
  -3   0   7   11.00    0.70
   2   0  -7 1015.40   24.70
   2   0  -7  964.90   24.70
   2   0  -7  955.20   24.70
  -2   0   7 1011.60   24.50
  -2   0   7  982.90   24.90
  -2   0   7  979.90   24.60
   1   0  -7   13.20    0.70
   1   0  -7   12.50    0.70
   1   0  -7   11.70    0.90
  -1   0   7   11.40    0.70
  -1   0   7   11.90    0.70
  -1   0   7   12.50    0.80
   0   0  -7    6.00    0.60
   0   0  -7    5.70    0.50
   0   0  -7    6.10    0.50
   0   0   7    6.80    0.60
   0   0   7    5.90    0.50
  -1   0  -7 1267.57   31.70
  -1   0  -7 1298.37   32.00
  -1   0  -7 1294.87   31.70
   1   0   7 1231.48   31.80
   1   0   7 1311.97   31.80
  -2   0  -7    1.20    0.30
  -2   0  -7    0.30    0.70
   2   0   7    1.20    0.60
   2   0   7    0.70    0.40
   2   0   7    1.60    0.60
   2   0   7   -0.30    1.10
   2   0   7    0.80    0.60
  -3   0  -7    1.70    0.50
   3   0   7    2.30    0.80
   3   0   7    2.20    0.60
   3   0   7    1.70    0.50
   3   0   7    2.20    0.80
   4   0   7  210.98    5.80
   4   0   7  216.08    5.90
   4   0   7  216.48    5.70
   5  -1  -7  182.18    4.90
  -5   1   7  186.58    4.80
   4  -1  -7   14.60    0.90
   4  -1  -7   11.10    1.50
   4  -1  -7   14.90    1.20
  -4   1   7   14.30    0.80
  -4   1   7   14.60    1.20
  -4   1   7   14.30    1.30
   3  -1  -7   53.29    2.30
   3  -1  -7   56.79    1.90
   3  -1  -7   53.39    2.00
   3  -1  -7   55.69    2.00
  -3   1   7   55.69    2.10
  -3   1   7   55.39    1.90
  -3   1   7   55.69    1.80
  -3   1   7   55.19    2.50
   2  -1  -7   34.40    1.50
   2  -1  -7   37.20    1.40
   2  -1  -7   36.30    1.50
  -2   1   7   34.30    1.30
  -2   1   7   35.60    1.20
  -2   1   7   35.50    1.60
  -2   1   7   36.00    1.60
  -2   1   7   34.80    2.00
   1  -1  -7  286.87    7.30
   1  -1  -7  290.27    7.30
   1  -1  -7  285.97    7.20
  -1   1   7  283.27    7.20
  -1   1   7  253.97    7.50
  -1   1   7  281.27    7.20
  -1   1   7  286.37    7.50
   0  -1  -7 1497.45   37.40
   0  -1  -7 1526.75   37.60
   0  -1  -7 1510.25   37.30
   0   1   7 1500.85   37.50
  -1  -1  -7    3.90    0.40
  -1  -1  -7    4.00    0.60
  -1  -1  -7    3.90    0.50
   1   1   7    5.60    0.80
   1   1   7    5.10    0.70
   1   1   7    4.00    0.50
  -2  -1  -7   18.90    0.80
  -2  -1  -7   23.50    1.80
   2   1   7   17.70    1.10
   2   1   7   19.20    1.30
   2   1   7   17.80    1.10
   2   1   7   18.40    1.20
   2   1   7   18.60    1.70
  -3  -1  -7  349.77    8.70
   3   1   7  343.57    8.90
   3   1   7  344.47    9.10
   3   1   7  347.17    9.20
   3   1   7  333.67    9.00
   3   1   7  331.37    9.50
   4   1   7   11.30    1.00
   4   1   7   12.10    1.10
   4   1   7   11.00    1.20
   5  -2  -7   10.30    1.00
  -5   2   7   12.30    0.70
   4  -2  -7    4.20    0.90
   4  -2  -7    4.30    0.50
  -4   2   7    5.50    0.70
  -4   2   7    5.80    0.70
  -4   2   7    4.10    1.60
   3  -2  -7  421.46   10.60
   3  -2  -7  412.96   10.40
   3  -2  -7  407.16   10.60
   3  -2  -7  398.06   10.60
  -3   2   7  410.66   10.30
  -3   2   7  404.36   10.50
  -3   2   7  382.86   10.90
  -3   2   7  404.36   10.60
   2  -2  -7    7.00    0.90
   2  -2  -7    7.00    0.70
   2  -2  -7    6.10    0.80
  -2   2   7    6.60    0.70
  -2   2   7    6.40    0.60
  -2   2   7    7.20    1.10
  -2   2   7    6.40    0.90
   1  -2  -7   13.30    0.70
   1  -2  -7   14.00    0.80
   1  -2  -7   12.70    1.00
   1  -2  -7   12.50    0.70
   1  -2  -7   14.30    1.60
  -1   2   7   14.00    1.20
  -1   2   7   12.60    1.10
  -1   2   7   13.20    0.80
   0  -2  -7 1176.08   28.80
   0  -2  -7 1139.09   28.80
   0  -2  -7 1156.68   28.90
   0   2   7 1152.48   28.90
   0   2   7 1161.18   29.10
   0   2   7 1169.28   28.90
   0   2   7 1174.28   29.10
  -1  -2  -7    1.50    0.40
  -1  -2  -7    1.90    0.70
  -1  -2  -7    1.30    0.50
   1   2   7    1.30    0.80
   1   2   7    1.10    1.00
   1   2   7    1.40    0.60
   1   2   7    2.20    0.50
   1   2   7    1.20    0.50
   1   2   7    2.20    0.50
  -2  -2  -7   52.99    1.70
  -2  -2  -7   50.89    1.90
   2   2   7   54.09    2.00
   2   2   7   54.69    2.20
   2   2   7   53.59    2.20
   2   2   7   52.99    2.00
   2   2   7   51.49    1.80
  -3  -2  -7  420.26   10.80
  -3  -2  -7  424.46   11.80
   3   2   7  425.26   11.10
   3   2   7  440.96   11.00
   3   2   7  424.46   11.30
   3   2   7  418.56   11.60
   3   2   7  437.56   11.20
   4   2   7    0.10    0.50
   4   2   7    0.70    0.60
  -5   3   7   10.90    0.70
   4  -3  -7   75.69    2.50
   4  -3  -7   75.59    2.30
  -4   3   7   75.09    2.20
  -4   3   7   72.69    2.60
   3  -3  -7    4.50    0.70
   3  -3  -7    5.90    0.80
   3  -3  -7    5.20    1.10
   3  -3  -7    6.40    1.00
   3  -3  -7    6.10    1.10
  -3   3   7    5.80    0.70
  -3   3   7    5.10    0.90
  -3   3   7    5.70    0.80
   2  -3  -7   85.69    2.70
   2  -3  -7   88.79    2.70
   2  -3  -7   85.59    2.80
   2  -3  -7   85.59    2.70
  -2   3   7   88.79    2.70
  -2   3   7   84.79    2.90
  -2   3   7   86.29    2.50
   1  -3  -7  622.64   15.60
   1  -3  -7  592.24   15.60
   1  -3  -7  606.84   15.40
   1  -3  -7  607.84   15.50
  -1   3   7  613.94   15.60
  -1   3   7  626.74   15.50
   0  -3  -7   10.30    1.10
   0  -3  -7    8.70    0.70
   0  -3  -7   10.80    0.70
   0   3   7    9.40    1.00
   0   3   7    8.50    0.80
   0   3   7    8.70    0.90
   0   3   7    9.10    0.80
  -1  -3  -7    0.70    0.40
  -1  -3  -7   -0.30    0.40
   1   3   7    0.20    0.60
   1   3   7   -0.50    0.50
   1   3   7    0.50    0.50
   1   3   7    0.10    0.80
   1   3   7    1.50    0.70
  -2  -3  -7  542.75   13.80
  -2  -3  -7  547.35   13.80
   2   3   7  553.44   14.00
   2   3   7  529.35   14.40
   2   3   7  554.44   14.20
  -3  -3  -7   33.30    5.20
  -3  -3  -7   27.70    1.40
   3   3   7   35.30    3.40
   3   3   7   29.10    1.30
   3   3   7   28.90    1.50
   3   3   7   26.10    2.30
   4   3   7   58.19    1.90
   4   3   7   58.39    2.00
   4  -4  -7  123.29    3.60
   4  -4  -7  129.89    3.50
  -4   4   7  126.69    3.40
   3  -4  -7   10.50    1.20
   3  -4  -7   11.60    0.80
  -3   4   7   10.20    0.80
  -3   4   7   10.00    1.10
  -3   4   7    9.50    1.20
   2  -4  -7    2.50    0.60
   2  -4  -7    2.70    0.60
   2  -4  -7    2.50    0.70
  -2   4   7    2.90    0.60
  -2   4   7    4.20    0.50
   1  -4  -7  503.55   13.20
   1  -4  -7  510.95   13.20
   1  -4  -7  534.25   13.20
   1  -4  -7  511.05   13.00
   1  -4  -7  501.75   13.40
  -1   4   7  512.75   13.20
  -1   4   7  526.25   13.50
  -1   4   7  514.95   13.10
  -1   4   7  519.45   13.10
   0  -4  -7    0.10    0.40
   0  -4  -7    0.20    0.40
   0  -4  -7   -0.10    0.80
   0  -4  -7   -0.50    1.20
   0   4   7    0.60    0.70
   0   4   7    0.30    0.40
   0   4   7    0.60    0.60
   0   4   7    0.90    0.90
  -1  -4  -7  131.19    3.60
  -1  -4  -7  130.79    4.30
   1   4   7  132.09    3.90
   1   4   7  131.99    3.60
   1   4   7  131.49    3.80
   1   4   7  127.99    4.00
   1   4   7  131.79    4.20
  -2  -4  -7  414.36   10.50
  -2  -4  -7  411.96   10.60
  -2  -4  -7  400.76   11.30
   2   4   7  413.86   10.60
   2   4   7  403.36   11.20
   2   4   7  427.16   10.90
   2   4   7  402.76   10.90
  -3  -4  -7    0.80    0.70
  -3  -4  -7    0.70    0.90
   3   4   7    0.60    0.60
   3   4   7    1.10    0.50
   4  -5  -7    0.30    0.30
  -4   5   7    0.10    0.30
   3  -5  -7   13.10    1.10
   3  -5  -7   18.60    1.30
  -3   5   7   15.20    1.30
  -3   5   7   13.80    1.50
   2  -5  -7  163.68    4.70
   2  -5  -7  168.78    4.70
   2  -5  -7  166.18    4.60
  -2   5   7  165.78    4.60
  -2   5   7  167.18    5.10
  -2   5   7  168.58    4.70
   1  -5  -7   11.00    1.30
   1  -5  -7   10.90    1.70
   1  -5  -7   10.90    0.80
   1  -5  -7   10.20    1.00
   1  -5  -7    9.50    1.00
   1  -5  -7    9.90    1.20
  -1   5   7   12.40    1.10
  -1   5   7   10.50    1.40
  -1   5   7   10.40    0.90
   0  -5  -7    7.60    0.90
   0  -5  -7    8.50    0.80
   0  -5  -7   11.10    1.00
   0  -5  -7    6.70    1.00
   0  -5  -7    8.00    1.40
   0   5   7    9.50    1.50
   0   5   7    9.80    0.80
   0   5   7    9.30    1.30
  -1  -5  -7  437.66   11.40
  -1  -5  -7  446.06   11.30
  -1  -5  -7  449.86   11.40
  -1  -5  -7  431.66   12.00
   1   5   7  432.06   11.90
   1   5   7  437.76   11.60
   1   5   7  444.76   11.20
  -2  -5  -7   38.30    1.40
  -2  -5  -7   33.80    1.60
   2   5   7   33.20    1.70
   2   5   7   36.80    1.60
  -3  -5  -7   39.30    1.40
   3   5   7   38.70    1.50
   3   5   7   38.70    1.40
   3  -6  -7    0.60    0.40
   3  -6  -7    1.00    0.50
  -3   6   7   -0.20    0.40
   2  -6  -7  156.08    4.30
  -2   6   7  152.78    4.40
  -2   6   7  160.38    4.40
   1  -6  -7    0.20    0.60
   1  -6  -7   -0.20    0.50
  -1   6   7    0.10    0.40
  -1   6   7    0.50    0.50
  -1   6   7    0.40    1.50
   0  -6  -7  142.19    3.90
   0  -6  -7  144.19    4.10
   0  -6  -7  139.09    4.30
   0   6   7  145.89    4.00
  -1  -6  -7  210.88    5.60
  -1  -6  -7  210.68    5.50
  -1  -6  -7  199.68    5.70
   1   6   7  208.38    5.50
   1   6   7  210.78    5.80
  -2  -6  -7    0.80    0.40
   2   6   7   -0.40    0.50
   2  -7  -7    9.40    0.90
   2  -7  -7   10.40    0.80
  -2   7   7    9.60    0.80
  -2   7   7    9.00    0.70
   1  -7  -7    2.60    0.60
   1  -7  -7    4.10    0.90
  -1   7   7    3.40    0.50
  -1   7   7    3.40    0.60
   0  -7  -7  214.08    5.70
   0  -7  -7  219.68    5.80
   0   7   7  221.48    5.70
   0   7   7  216.38    5.90
  -1  -7  -7   26.50    1.00
   1   7   7   25.00    1.30
   1   7   7   25.60    1.00
   0   9  -8   38.30    1.40
   0  -9   8   38.70    1.40
   0  -9   8   39.80    1.50
  -1   9  -8    1.80    0.60
  -1   9  -8    3.50    0.80
   1  -9   8    2.50    0.40
   1  -9   8    2.90    0.40
   1   8  -8   20.10    1.00
   1   8  -8   18.80    1.10
   1   8  -8   19.30    1.30
  -1  -8   8   19.80    1.10
  -1  -8   8   22.30    1.50
   0   8  -8   27.70    1.30
   0   8  -8   29.00    1.30
   0  -8   8   29.60    1.40
   0  -8   8   30.90    1.30
  -1   8  -8    0.60    0.50
  -1   8  -8    0.00    0.80
   1  -8   8    0.60    0.60
   1  -8   8    0.20    0.40
  -2   8  -8   14.90    0.90
   2  -8   8   17.30    0.80
   2  -8   8   16.40    0.90
  -3   8  -8    5.00    0.60
   3  -8   8    4.80    0.60
   2   7  -8   27.30    1.30
   2   7  -8   29.40    1.20
  -2  -7   8   29.50    1.10
  -2  -7   8   29.40    1.40
   1   7  -8   60.19    2.00
   1   7  -8   55.99    2.30
  -1  -7   8   58.79    2.20
  -1  -7   8   59.19    2.20
   0   7  -8    0.50    0.60
   0   7  -8    1.40    0.60
   0  -7   8    0.20    0.50
   0  -7   8    0.00    0.60
  -1   7  -8   83.09    2.40
  -1   7  -8   79.79    2.80
   1  -7   8   86.09    2.60
   1  -7   8   80.09    2.80
  -2   7  -8    3.70    0.90
  -2   7  -8    3.20    0.50
   2  -7   8    3.90    0.70
   2  -7   8    3.60    0.60
  -3   7  -8    9.00    0.60
   3  -7   8    7.70    0.70
   3  -7   8    8.20    0.80
   3   6  -8   52.29    1.60
   3   6  -8   49.20    1.80
  -3  -6   8   49.20    1.60
   2   6  -8   80.29    2.90
   2   6  -8   88.39    2.60
   2   6  -8   86.89    2.70
  -2  -6   8   81.79    2.50
  -2  -6   8   79.19    3.10
  -2  -6   8   85.39    2.80
   1   6  -8   90.79    2.90
   1   6  -8   90.59    2.80
  -1  -6   8   90.79    2.90
  -1  -6   8   88.79    3.00
   0   6  -8    0.30    0.60
   0   6  -8    0.80    0.50
   0   6  -8    0.40    0.50
   0  -6   8    0.60    0.50
   0  -6   8    0.10    0.60
  -1   6  -8   27.90    1.40
  -1   6  -8   24.50    1.90
  -1   6  -8   26.30    1.10
   1  -6   8   27.10    1.60
   1  -6   8   27.80    1.30
  -2   6  -8    2.50    0.40
  -2   6  -8    1.90    0.60
   2  -6   8    1.10    0.40
   2  -6   8    2.80    0.60
  -3   6  -8   66.09    2.30
  -3   6  -8   69.69    2.10
   3  -6   8   71.19    2.10
  -4   6  -8    5.60    0.60
   4  -6   8    7.10    0.70
   4   5  -8    0.80    0.50
  -4  -5   8    0.30    0.40
   3   5  -8    9.60    1.00
   3   5  -8   11.60    0.80
  -3  -5   8   10.90    0.80
  -3  -5   8   10.90    1.40
   2   5  -8   55.69    2.20
   2   5  -8   58.79    2.00
   2   5  -8   59.19    2.10
  -2  -5   8   59.79    2.20
  -2  -5   8   56.29    2.20
   1   5  -8    3.70    0.60
   1   5  -8    4.80    0.70
  -1  -5   8    3.90    1.50
  -1  -5   8    3.10    0.70
  -1  -5   8    4.30    0.50
  -1  -5   8    3.60    0.80
  -1  -5   8    3.40    0.70
   0   5  -8   83.69    2.40
   0   5  -8   83.59    2.70
   0   5  -8   85.69    2.70
   0   5  -8   85.79    2.80
   0  -5   8   81.89    2.90
   0  -5   8   84.49    2.70
  -1   5  -8    1.90    0.40
  -1   5  -8    1.50    0.50
   1  -5   8    2.40    0.50
   1  -5   8    1.80    0.70
  -2   5  -8   19.90    1.00
  -2   5  -8   19.50    0.90
   2  -5   8   18.90    1.00
   2  -5   8   18.70    1.20
  -3   5  -8   98.59    2.80
   3  -5   8   94.19    2.70
   3  -5   8   98.69    3.00
  -4   5  -8   18.60    0.90
   4  -5   8   21.60    1.00
   4   4  -8   34.50    1.30
  -4  -4   8   35.00    1.20
   3   4  -8  189.18    5.90
   3   4  -8  191.58    5.40
   3   4  -8  199.68    5.20
  -3  -4   8  192.18    5.50
  -3  -4   8  197.28    5.20
   2   4  -8  165.58    4.60
   2   4  -8  172.98    4.70
   2   4  -8  165.78    4.80
   2   4  -8  163.18    4.80
  -2  -4   8  163.88    5.30
  -2  -4   8  163.58    4.90
  -2  -4   8  169.88    4.50
  -2  -4   8  165.58    4.70
  -1  -4   8    1.80    0.70
  -1  -4   8    1.60    0.40
  -1  -4   8    1.80    0.60
  -1  -4   8    1.10    1.10
   0   4  -8   64.89    2.50
   0   4  -8   61.59    2.40
   0   4  -8   68.49    2.00
   0  -4   8   65.29    2.20
   0  -4   8   69.19    2.40
  -1   4  -8    7.40    0.60
  -1   4  -8    6.80    1.00
  -1   4  -8    7.80    0.70
   1  -4   8    7.50    0.80
   1  -4   8    8.40    1.20
  -2   4  -8  162.78    4.50
  -2   4  -8  166.18    4.40
   2  -4   8  160.18    4.40
   2  -4   8  165.68    4.70
  -3   4  -8   24.70    1.10
  -3   4  -8   25.30    1.20
   3  -4   8   25.00    1.30
  -4   4  -8    5.90    0.80
  -4   4  -8   10.50    0.90
   4  -4   8    8.60    0.80
   4   3  -8    0.60    0.50
   4   3  -8    0.00    0.40
  -4  -3   8    0.30    0.80
  -4  -3   8    0.40    0.40
   3   3  -8   60.49    2.40
   3   3  -8   60.29    2.20
   3   3  -8   60.39    2.00
  -3  -3   8   59.89    2.20
   2   3  -8   14.30    1.10
   2   3  -8   14.00    1.00
   2   3  -8   15.50    1.00
   2   3  -8   12.90    1.60
  -2  -3   8   14.60    0.80
  -2  -3   8   15.00    1.80
  -2  -3   8   14.90    1.50
  -2  -3   8   14.30    1.50
  -2  -3   8   15.50    1.00
   1   3  -8   54.39    1.90
   1   3  -8   51.79    1.60
   1   3  -8   51.09    2.10
   1   3  -8   53.19    2.00
  -1  -3   8   49.99    1.80
  -1  -3   8   55.09    2.00
  -1  -3   8   52.69    2.10
  -1  -3   8   51.59    1.60
  -1  -3   8   50.79    2.00
   0   3  -8   22.30    1.30
   0   3  -8   24.80    0.90
   0   3  -8   22.60    1.00
   0   3  -8   23.10    1.20
   0  -3   8   20.70    1.40
   0  -3   8   23.70    1.10
   0  -3   8   22.00    1.20
  -1   3  -8   46.50    1.40
  -1   3  -8   47.70    2.00
  -1   3  -8   45.50    1.50
   1  -3   8   45.90    1.50
   1  -3   8   43.00    1.80
   1  -3   8   46.80    1.60
  -2   3  -8  491.65   12.20
  -2   3  -8  492.15   12.10
   2  -3   8  435.76   13.00
   2  -3   8  480.95   12.30
   2  -3   8  497.15   12.20
  -3   3  -8   82.09    2.40
  -3   3  -8   79.09    2.40
   3  -3   8   85.39    2.70
  -4   3  -8  214.38    5.70
   4   2  -8  249.97    7.00
   4   2  -8  270.37    6.80
  -4  -2   8  269.17    6.80
  -4  -2   8  261.67    7.10
   3   2  -8  176.58    4.90
   3   2  -8  173.98    5.10
   3   2  -8  171.48    5.10
  -3  -2   8  205.78    7.00
  -3  -2   8  177.28    5.00
  -3  -2   8  172.98    4.80
   2   2  -8    3.50    0.60
   2   2  -8    3.80    0.60
   2   2  -8    3.60    0.70
  -2  -2   8    3.00    0.80
  -2  -2   8    3.20    0.50
  -2  -2   8    3.70    1.00
  -2  -2   8    4.50    0.60
   1   2  -8  133.69    3.90
   1   2  -8  131.09    3.50
   1   2  -8  125.09    3.70
   1   2  -8  125.19    3.80
   1   2  -8  131.89    3.60
  -1  -2   8  127.99    4.00
  -1  -2   8  132.19    3.80
  -1  -2   8  126.59    3.80
  -1  -2   8  135.29    3.50
  -1  -2   8  133.29    3.60
   0   2  -8  139.09    4.00
   0   2  -8  137.89    3.70
   0   2  -8  129.19    3.70
   0  -2   8  138.79    3.80
   0  -2   8  131.09    3.80
  -1   2  -8  275.87    7.20
  -1   2  -8  265.87    6.80
  -1   2  -8  268.17    6.80
   1  -2   8  258.07    7.10
   1  -2   8  259.37    6.90
   1  -2   8  262.97    6.80
  -2   2  -8   57.39    1.80
  -2   2  -8   57.19    2.50
  -2   2  -8   57.89    1.80
   2  -2   8   57.69    2.00
   2  -2   8   57.59    1.90
   2  -2   8   57.59    1.90
   2  -2   8   59.29    2.00
  -3   2  -8    2.80    0.50
   3  -2   8    3.60    1.00
   3  -2   8    3.60    0.60
   3  -2   8    3.10    0.70
   3  -2   8    4.60    1.10
  -4   2  -8    0.30    0.90
   4  -2   8    1.70    0.50
   4  -2   8    2.60    0.70
   5  -2   8    0.30    0.40
   5   1  -8    8.00    0.90
  -5  -1   8   11.20    1.10
  -5  -1   8    9.20    0.60
   4   1  -8   54.39    1.80
   4   1  -8   54.69    2.00
  -4  -1   8   56.69    2.20
  -4  -1   8   57.79    2.10
  -4  -1   8   58.09    1.80
   3   1  -8    1.50    0.50
   3   1  -8    2.00    0.70
   3   1  -8    1.00    0.90
  -3  -1   8    2.10    1.20
  -3  -1   8    1.50    0.50
  -3  -1   8    1.90    0.40
   2   1  -8    9.10    0.80
   2   1  -8    9.10    1.00
   2   1  -8    7.60    0.90
  -2  -1   8    8.40    0.70
  -2  -1   8    8.70    1.10
  -2  -1   8    9.70    0.80
   1   1  -8   73.89    2.50
   1   1  -8   73.39    2.20
   1   1  -8   68.79    2.40
   1   1  -8   66.39    2.50
   1   1  -8   75.19    2.10
  -1  -1   8   70.69    2.50
  -1  -1   8   77.29    2.40
  -1  -1   8   73.09    2.10
  -1  -1   8   72.39    2.20
   0   1  -8   70.39    2.00
   0   1  -8   70.09    2.30
   0   1  -8   67.89    2.00
   0  -1   8   70.49    2.20
   0  -1   8   61.99    2.20
  -1   1  -8 1323.47   32.80
  -1   1  -8 1352.16   32.70
  -1   1  -8 1328.37   33.10
   1  -1   8 1303.27   32.80
   1  -1   8 1293.97   32.80
  -2   1  -8  159.98    4.90
  -2   1  -8  162.18    4.30
  -2   1  -8  161.78    4.30
   2  -1   8  169.68    4.60
   2  -1   8  159.98    4.50
   2  -1   8  159.18    4.50
  -3   1  -8  235.78    6.10
   3  -1   8  245.58    6.40
   3  -1   8  237.88    6.40
   3  -1   8  235.68    6.50
   3  -1   8  225.88    6.60
   4  -1   8  433.06   10.70
   4  -1   8  414.36   10.80
   4  -1   8  401.96   11.30
  -5   0   8  221.38    5.70
   4   0  -8   72.59    2.50
   4   0  -8   74.79    2.20
  -4   0   8   73.49    2.50
  -4   0   8   75.79    2.20
  -4   0   8   77.39    2.50
   3   0  -8    5.60    0.80
   3   0  -8    6.10    1.30
   3   0  -8    7.80    0.80
  -3   0   8    7.30    1.30
  -3   0   8    7.70    1.00
  -3   0   8    6.70    0.70
  -3   0   8    7.10    0.90
   2   0  -8  129.49    3.60
   2   0  -8  125.89    3.60
   2   0  -8  126.09    3.60
  -2   0   8  105.39    4.40
  -2   0   8  128.69    3.40
  -2   0   8  119.09    3.70
  -2   0   8  127.39    3.70
  -2   0   8  127.89    3.50
   1   0  -8  169.18    4.90
   1   0  -8  180.78    5.00
   1   0  -8  178.18    4.70
   1   0  -8  168.88    4.80
  -1   0   8  167.88    4.90
  -1   0   8  179.98    4.60
  -1   0   8  179.08    4.90
  -1   0   8  175.18    4.70
   0   0  -8  160.48    4.20
   0   0  -8  159.18    4.60
   0   0  -8  158.38    4.30
   0   0   8  164.08    4.30
  -1   0  -8   45.30    1.50
  -1   0  -8   47.00    1.50
  -1   0  -8   48.00    1.90
   1   0   8   46.80    1.80
   1   0   8   47.50    1.60
   1   0   8   45.90    1.60
   1   0   8   45.60    1.60
  -2   0  -8    6.10    0.60
  -2   0  -8    7.80    1.20
   2   0   8    6.10    1.30
   2   0   8    7.00    0.80
   2   0   8    6.50    0.80
   2   0   8    5.70    0.70
  -3   0  -8   -0.20    0.50
   3   0   8   -0.80    0.50
   3   0   8    0.30    0.50
   3   0   8    0.40    0.80
   3   0   8   -1.70    0.80
   4   0   8    0.60    0.50
   4   0   8    0.80    0.50
   4   0   8    0.30    0.60
  -5   1   8   41.00    1.30
   4  -1  -8    1.90    0.40
   4  -1  -8    0.80    0.90
  -4   1   8    2.90    0.70
  -4   1   8    2.10    0.80
  -4   1   8    2.80    0.50
   3  -1  -8    0.30    0.50
   3  -1  -8    0.10    0.50
   3  -1  -8   -1.10    0.60
  -3   1   8    0.70    0.60
  -3   1   8   -1.30    1.20
  -3   1   8   -0.20    0.30
  -3   1   8   -0.80    0.50
   2  -1  -8   61.39    2.10
   2  -1  -8   61.49    2.10
   2  -1  -8   61.79    2.10
  -2   1   8   58.99    2.30
  -2   1   8   60.59    2.30
  -2   1   8   60.79    2.20
  -2   1   8   60.89    1.90
  -2   1   8   62.19    2.00
   1  -1  -8   91.59    3.10
   1  -1  -8   98.59    2.70
   1  -1  -8   95.49    2.70
   1  -1  -8   93.19    2.80
  -1   1   8   93.39    2.60
  -1   1   8   95.09    3.00
  -1   1   8   95.89    3.00
   0  -1  -8 1543.85   37.80
   0  -1  -8 1475.45   37.50
   0  -1  -8 1514.05   37.40
   0   1   8 1511.95   37.70
   0   1   8 1493.25   37.60
   0   1   8 1523.85   37.50
  -1  -1  -8  164.78    4.30
  -1  -1  -8  160.58    4.30
  -1  -1  -8  164.58    4.70
   1   1   8  159.48    4.30
   1   1   8  152.18    4.50
   1   1   8  155.68    4.40
   1   1   8  168.78    5.10
   1   1   8  166.48    4.50
   1   1   8  166.48    4.50
  -2  -1  -8  136.99    3.70
   2   1   8  136.59    4.10
   2   1   8  133.39    3.90
   2   1   8  134.79    3.80
   2   1   8  133.69    4.00
   2   1   8  133.09    4.10
  -3  -1  -8  720.63   18.50
   3   1   8  735.93   18.90
   3   1   8  758.52   18.70
   3   1   8  765.02   19.10
   3   1   8  732.23   18.90
   4   1   8    1.50    0.50
   4   1   8    2.30    0.50
   4   1   8    1.90    0.60
   4  -2  -8    4.40    0.50
  -4   2   8    5.50    0.90
  -4   2   8    3.10    0.80
  -4   2   8    4.50    0.60
   3  -2  -8   64.79    2.20
   3  -2  -8   61.99    2.10
   3  -2  -8   62.49    2.30
  -3   2   8   62.19    2.20
  -3   2   8   59.49    1.90
  -3   2   8   64.69    2.30
   2  -2  -8   68.69    2.30
   2  -2  -8   69.99    2.30
   2  -2  -8   69.89    2.30
  -2   2   8   68.19    2.50
  -2   2   8   68.49    2.20
  -2   2   8   69.69    2.10
  -2   2   8   69.09    2.40
   1  -2  -8   24.00    1.60
   1  -2  -8   21.30    1.00
   1  -2  -8   21.40    1.10
   1  -2  -8   21.00    0.90
   1  -2  -8   20.80    1.20
  -1   2   8   21.60    1.30
  -1   2   8   22.80    1.20
   0  -2  -8    3.50    0.60
   0  -2  -8    2.90    0.40
   0  -2  -8    3.00    0.50
   0   2   8    3.80    0.50
   0   2   8    3.30    0.50
   0   2   8    2.60    0.60
  -1  -2  -8   33.90    2.20
  -1  -2  -8   32.70    1.30
  -1  -2  -8   31.90    1.20
   1   2   8   33.10    1.40
   1   2   8   33.00    1.30
   1   2   8   29.60    1.70
   1   2   8   32.30    2.00
   1   2   8   32.70    1.60
   1   2   8   34.90    1.50
  -2  -2  -8    3.80    0.60
  -2  -2  -8    3.70    0.70
   2   2   8    4.90    0.90
   2   2   8    3.60    0.60
   2   2   8    5.10    1.10
   2   2   8    4.90    0.90
   2   2   8    4.00    0.70
  -3  -2  -8   13.30    2.30
   3   2   8   12.90    1.20
   3   2   8   11.70    0.90
   3   2   8   11.90    1.00
   3   2   8    8.90    1.30
   4   2   8    9.00    0.80
   4   2   8   10.70    1.00
   4  -3  -8    0.50    0.40
  -4   3   8    0.30    0.40
  -4   3   8    0.30    1.30
   3  -3  -8   10.60    0.80
   3  -3  -8    8.50    1.40
   3  -3  -8    8.70    0.90
  -3   3   8   10.10    0.80
  -3   3   8    9.20    1.20
  -3   3   8    9.50    1.40
  -3   3   8    9.20    1.10
   2  -3  -8   59.89    2.10
   2  -3  -8   60.49    2.10
   2  -3  -8   59.59    2.10
   2  -3  -8   59.09    2.20
  -2   3   8   57.99    2.20
  -2   3   8   60.49    1.90
  -2   3   8   58.59    2.10
   1  -3  -8  768.42   19.20
   1  -3  -8  770.02   19.50
   1  -3  -8  767.52   19.40
   1  -3  -8  759.42   19.40
  -1   3   8  771.02   19.40
  -1   3   8  728.53   19.30
  -1   3   8  794.82   19.60
  -1   3   8  791.52   19.50
   0  -3  -8   93.69    2.90
   0  -3  -8   96.69    3.00
   0  -3  -8   97.19    2.80
   0   3   8   95.09    2.90
   0   3   8   98.89    2.90
   0   3   8   98.69    2.90
   0   3   8   98.89    3.10
  -1  -3  -8   23.40    1.10
  -1  -3  -8   23.80    1.10
   1   3   8   23.60    1.60
   1   3   8   23.80    1.30
   1   3   8   25.10    1.60
   1   3   8   26.30    1.30
   1   3   8   22.50    1.10
  -2  -3  -8  853.31   22.50
  -2  -3  -8  848.72   21.80
  -2  -3  -8  886.01   21.80
   2   3   8  866.01   22.00
   2   3   8  878.81   22.10
   2   3   8  865.91   22.40
   2   3   8  891.81   22.10
  -3  -3  -8    0.60    0.70
  -3  -3  -8    2.00    0.80
   3   3   8    1.90    0.90
   4   3   8   60.29    1.90
   4   3   8   59.29    1.80
   4  -4  -8   22.20    0.90
  -4   4   8   20.00    0.90
   3  -4  -8   16.00    1.20
   3  -4  -8   16.60    1.00
  -3   4   8   17.30    0.90
   2  -4  -8    2.50    0.60
   2  -4  -8    3.10    0.60
   2  -4  -8    3.00    0.70
  -2   4   8    3.70    0.60
  -2   4   8    3.90    0.70
   1  -4  -8    2.30    1.30
   1  -4  -8    2.30    0.60
   1  -4  -8    3.20    0.50
   1  -4  -8    2.80    0.80
   1  -4  -8    2.00    0.80
  -1   4   8    1.80    0.70
  -1   4   8    2.40    0.90
  -1   4   8    3.10    0.50
   0  -4  -8   31.90    1.50
   0  -4  -8   33.00    2.00
   0  -4  -8   30.50    1.20
   0  -4  -8   30.10    1.40
   0   4   8   30.80    2.10
   0   4   8   31.70    1.60
   0   4   8   30.90    1.30
   0   4   8   29.70    1.70
  -1  -4  -8   33.50    1.50
  -1  -4  -8   33.90    1.30
  -1  -4  -8   34.20    2.10
   1   4   8   31.90    1.30
   1   4   8   36.60    1.50
   1   4   8   34.30    1.70
   1   4   8   34.50    1.90
   1   4   8   32.20    2.10
  -2  -4  -8   35.20    2.80
  -2  -4  -8   35.40    1.50
  -2  -4  -8   39.30    1.40
   2   4   8   35.40    1.50
   2   4   8   36.60    3.10
   2   4   8   34.60    1.70
   2   4   8   42.20    2.70
  -3  -4  -8    5.30    0.80
   3   4   8    3.70    0.60
   3   4   8    5.30    0.70
   4  -5  -8   -0.20    0.30
  -4   5   8    0.60    0.30
   3  -5  -8   22.20    1.00
   3  -5  -8   22.60    1.20
  -3   5   8   23.90    1.40
  -3   5   8   22.40    1.10
   2  -5  -8  285.27    7.60
   2  -5  -8  288.87    7.60
   2  -5  -8  286.97    7.50
  -2   5   8  289.47    7.50
  -2   5   8  280.27    7.50
  -2   5   8  280.17    8.10
   1  -5  -8   26.50    1.30
   1  -5  -8   28.10    1.30
   1  -5  -8   25.70    1.60
   1  -5  -8   26.60    1.20
  -1   5   8   26.80    1.30
  -1   5   8   28.50    1.90
  -1   5   8   27.60    1.30
   0  -5  -8    3.50    1.40
   0  -5  -8    0.10    0.80
   0  -5  -8    1.20    0.60
   0  -5  -8    0.00    0.40
   0  -5  -8    0.70    0.70
   0   5   8   -0.40    0.90
   0   5   8    0.50    0.40
   0   5   8    1.30    1.10
  -1  -5  -8  637.44   16.20
  -1  -5  -8  617.54   16.90
  -1  -5  -8  649.74   16.10
  -1  -5  -8  652.23   16.10
   1   5   8  595.14   16.80
   1   5   8  644.64   16.00
   1   5   8  653.43   16.40
  -2  -5  -8    0.90    0.80
  -2  -5  -8    1.20    0.50
   2   5   8    2.20    0.80
   2   5   8    2.00    0.60
  -3  -5  -8   52.09    1.70
   3   5   8   52.99    1.70
   3  -6  -8   16.30    0.90
  -3   6   8   19.50    1.30
  -3   6   8   17.40    0.90
   2  -6  -8    5.40    0.70
   2  -6  -8    5.70    0.80
  -2   6   8    5.70    0.70
  -2   6   8    6.80    0.80
   1  -6  -8   15.90    1.50
   1  -6  -8   17.00    1.10
   1  -6  -8   17.80    1.10
  -1   6   8   18.60    1.00
  -1   6   8   16.40    1.10
   0  -6  -8   62.99    2.60
   0  -6  -8   61.09    2.00
   0  -6  -8   63.59    2.10
   0   6   8   59.69    2.00
   0   6   8   62.89    2.30
  -1  -6  -8   60.89    1.90
  -1  -6  -8   61.49    2.00
  -1  -6  -8   58.39    2.40
   1   6   8   60.99    2.20
   1   6   8   60.19    1.80
  -2  -6  -8    0.50    0.40
   2   6   8    0.00    0.40
   2  -7  -8    5.40    0.60
   2  -7  -8    5.40    0.60
  -2   7   8    6.10    0.70
  -2   7   8    5.50    0.70
   1  -7  -8    0.40    0.40
  -1   7   8    0.40    0.40
  -1   7   8   -0.10    0.50
   0  -7  -8  339.17    9.00
   0  -7  -8  364.76    9.10
   0   7   8  360.36    9.20
   0   7   8  361.96    9.00
  -1  -7  -8    2.30    0.50
   1   7   8    2.30    0.50
   1   8  -9   12.40    1.10
   1   8  -9   12.20    1.00
   1   8  -9   14.30    0.80
  -1  -8   9   14.80    1.30
  -1  -8   9   13.10    0.90
   0   8  -9    5.10    0.70
   0   8  -9    4.60    0.60
   0  -8   9    5.70    0.80
   0  -8   9    6.00    0.80
  -1   8  -9  152.68    4.50
  -1   8  -9  157.08    4.30
   1  -8   9  158.18    4.20
  -2   8  -9   19.70    0.90
  -2   8  -9   19.80    0.90
   2  -8   9   19.60    0.90
   2  -8   9   20.10    0.90
   2   7  -9   10.50    1.00
   2   7  -9   11.10    0.70
  -2  -7   9   10.20    1.00
   1   7  -9  123.69    3.50
   1   7  -9  118.09    3.60
   1   7  -9  119.89    3.50
  -1  -7   9  123.59    3.60
  -1  -7   9  120.59    3.60
   0   7  -9   36.70    1.80
   0   7  -9   34.60    1.50
   0  -7   9   37.10    1.50
   0  -7   9   37.80    1.60
  -1   7  -9  137.99    3.90
  -1   7  -9  130.09    3.70
  -1   7  -9  134.89    4.10
   1  -7   9  140.59    3.90
   1  -7   9  138.49    4.10
  -2   7  -9  115.99    3.20
  -2   7  -9  103.69    3.60
   2  -7   9  116.89    3.20
   2  -7   9  121.19    3.40
  -3   7  -9   13.50    0.70
   3  -7   9   13.40    0.80
   3  -7   9   14.30    0.80
   3   6  -9   22.60    1.20
   3   6  -9   23.10    1.00
  -3  -6   9   21.70    0.90
   2   6  -9   58.99    2.10
   2   6  -9   63.39    2.20
  -2  -6   9   67.79    2.30
  -2  -6   9   62.59    1.90
   1   6  -9    6.70    0.80
   1   6  -9    8.20    0.90
  -1  -6   9    7.30    1.00
  -1  -6   9    7.60    1.00
   0   6  -9  180.08    4.90
   0   6  -9  164.98    4.60
   0   6  -9  178.78    5.00
   0  -6   9  173.38    4.90
   0  -6   9  177.48    5.10
  -1   6  -9   24.80    1.50
   1  -6   9   24.90    1.50
   1  -6   9   27.00    1.20
  -2   6  -9    0.30    0.60
  -2   6  -9   -0.30    0.30
   2  -6   9    0.00    0.40
   2  -6   9    0.20    0.50
  -3   6  -9   56.89    2.10
  -3   6  -9   62.59    1.90
   3  -6   9   61.09    2.00
   3  -6   9   61.29    1.80
  -4   6  -9    1.90    0.40
   4  -6   9    1.10    0.40
   3   5  -9   11.90    1.10
   3   5  -9   11.10    0.80
  -3  -5   9   10.10    1.60
  -3  -5   9   11.40    0.70
   2   5  -9  183.98    5.30
   2   5  -9  199.08    5.40
   2   5  -9  192.48    5.20
  -2  -5   9  193.28    5.40
  -2  -5   9  188.28    5.10
  -2  -5   9  193.08    5.40
  -2  -5   9  185.78    5.60
   1   5  -9   42.70    1.70
   1   5  -9   42.70    1.70
  -1  -5   9   42.90    1.90
  -1  -5   9   42.50    1.80
  -1  -5   9   40.00    1.50
   0   5  -9  186.28    5.30
   0   5  -9  186.38    5.20
   0   5  -9  187.08    5.30
   0   5  -9  187.78    5.00
   0  -5   9  190.38    5.20
   0  -5   9  189.28    5.40
  -1   5  -9  140.69    3.80
  -1   5  -9  135.29    4.00
   1  -5   9  146.79    4.30
   1  -5   9  137.09    4.00
  -2   5  -9   73.29    2.20
  -2   5  -9   73.79    2.40
   2  -5   9   74.39    2.50
   2  -5   9   71.79    2.30
  -3   5  -9   20.80    0.90
  -3   5  -9   20.60    1.20
   3  -5   9   22.60    1.20
  -4   5  -9    7.00    0.90
   4  -5   9    6.80    0.70
   4   4  -9    9.70    1.00
   3   4  -9  129.29    3.80
   3   4  -9  128.89    3.60
  -3  -4   9  126.39    3.90
  -3  -4   9  129.79    3.60
   2   4  -9   11.50    1.30
   2   4  -9   10.00    0.90
   2   4  -9   11.10    1.20
   2   4  -9    9.20    0.90
  -2  -4   9   10.80    0.80
  -2  -4   9   10.50    1.20
  -2  -4   9   11.70    1.10
  -2  -4   9   10.50    1.10
   1   4  -9  103.29    3.00
   1   4  -9   98.29    3.10
  -1  -4   9   97.79    3.10
  -1  -4   9   99.79    2.80
  -1  -4   9   95.19    3.40
  -1  -4   9   97.49    3.20
   0   4  -9   29.20    1.10
   0   4  -9   29.40    1.30
   0   4  -9   27.10    2.30
   0   4  -9   29.40    1.30
   0   4  -9   29.70    1.70
   0  -4   9   29.40    1.40
  -1   4  -9   25.90    1.00
  -1   4  -9   26.00    1.10
   1  -4   9   24.30    1.20
   1  -4   9   27.90    1.40
  -2   4  -9   43.80    1.50
  -2   4  -9   45.40    1.60
   2  -4   9   44.50    1.60
   2  -4   9   46.10    1.80
  -3   4  -9    0.80    0.50
  -3   4  -9    0.80    0.40
   3  -4   9    1.40    0.60
  -4   4  -9  145.09    3.90
   4  -4   9  144.09    4.00
   4   3  -9    2.90    0.70
   4   3  -9    3.60    0.50
  -4  -3   9    4.60    0.60
   3   3  -9  179.18    5.30
   3   3  -9  179.68    4.90
   3   3  -9  176.68    5.10
  -3  -3   9  183.38    5.10
  -3  -3   9  183.18    4.90
   2   3  -9   44.10    1.70
   2   3  -9   40.80    1.80
   2   3  -9   42.60    1.70
  -2  -3   9   43.30    1.50
  -2  -3   9   41.00    2.30
  -2  -3   9   42.00    2.00
  -2  -3   9   39.80    1.70
   1   3  -9  126.49    3.80
   1   3  -9  129.59    4.20
   1   3  -9  128.89    3.50
   1   3  -9  121.59    3.70
  -1  -3   9  127.09    3.50
  -1  -3   9  124.79    4.00
  -1  -3   9  130.49    3.90
  -1  -3   9  130.89    3.80
   0   3  -9  105.79    2.90
   0   3  -9  100.29    3.40
   0   3  -9  102.19    3.40
   0   3  -9  104.69    3.00
   0   3  -9   99.69    3.00
   0  -3   9  103.89    3.10
   0  -3   9  102.29    3.30
   0  -3   9  101.79    3.10
  -1   3  -9  185.88    4.70
  -1   3  -9  181.08    4.80
  -1   3  -9  172.18    5.40
   1  -3   9  180.38    4.90
   1  -3   9  176.98    5.00
   1  -3   9  181.38    4.80
  -2   3  -9    8.80    0.70
  -2   3  -9    7.40    0.60
   2  -3   9    9.30    1.50
   2  -3   9    8.60    0.90
   2  -3   9    7.30    1.00
  -3   3  -9    4.50    0.60
   3  -3   9    5.40    0.70
   3  -3   9    5.10    0.80
  -4   3  -9  313.17    8.50
   4  -3   9  333.07    8.40
   4   2  -9  139.19    3.70
   4   2  -9  135.59    3.90
  -4  -2   9  130.79    4.00
  -4  -2   9  136.69    3.90
  -4  -2   9  135.49    3.70
   3   2  -9   20.70    1.50
   3   2  -9   21.90    1.10
  -3  -2   9   22.70    1.30
  -3  -2   9   18.00    1.30
   2   2  -9   27.80    1.30
   2   2  -9   27.60    1.30
   2   2  -9   28.70    1.40
  -2  -2   9   29.20    1.70
  -2  -2   9   27.90    1.30
  -2  -2   9   29.40    1.80
  -2  -2   9   28.90    1.10
   1   2  -9   25.90    1.40
   1   2  -9   22.90    1.20
   1   2  -9   22.80    1.20
   1   2  -9   24.10    1.60
   1   2  -9   25.20    1.00
  -1  -2   9   25.90    1.40
  -1  -2   9   24.90    1.40
  -1  -2   9   24.10    1.00
  -1  -2   9   22.10    1.20
   0   2  -9  136.29    4.10
   0   2  -9  149.09    3.90
   0   2  -9  148.19    4.00
   0   2  -9  149.09    4.40
   0  -2   9  141.49    4.40
   0  -2   9  142.99    4.10
   0  -2   9  152.58    4.10
  -1   2  -9    4.30    0.80
  -1   2  -9    5.10    0.60
  -1   2  -9    3.80    0.40
   1  -2   9    5.40    0.60
   1  -2   9    3.60    0.80
  -2   2  -9    3.30    0.50
  -2   2  -9    3.70    0.50
   2  -2   9    2.80    0.70
   2  -2   9    3.00    0.60
   2  -2   9    3.00    0.60
   2  -2   9    2.80    0.60
  -3   2  -9  340.17    8.90
  -3   2  -9  353.56    8.90
   3  -2   9  340.17    9.00
   3  -2   9  344.97    9.20
   3  -2   9  356.76    9.10
   4  -2   9  129.39    3.60
   4  -2   9  131.09    3.70
   4   1  -9  103.79    2.80
  -4  -1   9   96.79    3.10
  -4  -1   9  100.89    2.80
  -4  -1   9  101.89    3.10
   3   1  -9   38.70    1.50
   3   1  -9   35.40    1.70
  -3  -1   9   35.40    1.30
  -3  -1   9   38.20    1.60
   2   1  -9   16.90    1.30
   2   1  -9   17.70    1.10
   2   1  -9   18.10    1.10
  -2  -1   9   19.60    1.50
  -2  -1   9   19.10    1.50
  -2  -1   9   18.50    0.90
  -2  -1   9   17.00    1.10
   1   1  -9   20.90    1.10
   1   1  -9   22.90    1.00
   1   1  -9   22.60    1.20
   1   1  -9   20.20    1.50
   1   1  -9   22.90    1.50
  -1  -1   9   21.80    1.00
  -1  -1   9   23.30    1.40
  -1  -1   9   23.90    1.30
  -1  -1   9   27.50    1.30
   0   1  -9  208.68    5.30
   0   1  -9  208.38    5.40
   0   1  -9  197.48    5.60
   0   1  -9  204.88    5.80
   0  -1   9  205.98    5.60
   0  -1   9  196.68    5.70
   0  -1   9  198.08    5.40
  -1   1  -9    0.30    0.70
  -1   1  -9    0.60    0.30
  -1   1  -9    0.30    0.30
   1  -1   9    1.90    0.50
   1  -1   9    1.20    0.40
   1  -1   9   -1.10    0.80
  -2   1  -9    0.60    0.50
  -2   1  -9   -0.20    0.30
   2  -1   9    0.10    0.60
   2  -1   9    0.00    0.50
   2  -1   9    0.00    0.50
  -3   1  -9  663.13   16.80
   3  -1   9  664.83   17.10
   3  -1   9  672.83   17.20
   3  -1   9  685.93   17.00
   4  -1   9   16.60    1.00
   4  -1   9   17.10    0.90
   4   0  -9   23.90    1.00
  -4   0   9   21.00    1.50
  -4   0   9   24.10    1.00
  -4   0   9   25.00    1.30
   3   0  -9    8.90    1.10
   3   0  -9    5.70    0.80
   3   0  -9    6.60    0.80
  -3   0   9    5.80    0.70
  -3   0   9    7.70    0.90
  -3   0   9    6.70    0.60
   2   0  -9    2.90    0.60
   2   0  -9    4.10    0.70
   2   0  -9    4.70    0.60
  -2   0   9    4.10    0.80
  -2   0   9    4.90    0.60
  -2   0   9    4.80    0.60
  -2   0   9    5.20    0.70
  -2   0   9    4.60    0.80
   1   0  -9  157.08    4.70
   1   0  -9  157.98    4.20
   1   0  -9  155.48    4.50
  -1   0   9  152.28    4.10
  -1   0   9  156.98    4.30
  -1   0   9  152.18    4.50
  -1   0   9  157.28    4.50
   0   0  -9   31.10    1.10
   0   0  -9   32.80    1.60
   0   0  -9   34.40    1.20
   0   0   9   29.90    1.60
   0   0   9   28.20    1.30
   0   0   9   31.30    1.30
  -1   0  -9    7.90    1.10
  -1   0  -9    8.80    0.60
  -1   0  -9    7.90    0.70
   1   0   9    9.20    1.00
   1   0   9    6.60    0.80
   1   0   9    8.30    0.70
   1   0   9    9.00    0.90
  -2   0  -9  458.85   11.70
  -2   0  -9  451.15   11.60
   2   0   9  467.85   12.00
   2   0   9  464.65   11.80
   2   0   9  464.75   11.90
  -3   0  -9  106.09    3.10
   3   0   9  109.19    3.50
   3   0   9  117.19    3.60
   3   0   9  108.89    3.30
   3   0   9  111.29    3.20
   4   0   9    6.20    0.70
   4   0   9    6.50    0.80
   4   0   9    6.20    0.70
   4  -1  -9   18.30    0.90
  -4   1   9   18.90    1.30
  -4   1   9   16.70    0.90
  -4   1   9   16.80    1.50
   3  -1  -9    1.00    0.70
   3  -1  -9    1.50    0.50
   3  -1  -9    1.60    0.50
  -3   1   9    2.10    0.40
  -3   1   9    0.60    0.50
  -3   1   9    1.90    0.60
   2  -1  -9    0.00    0.40
   2  -1  -9    0.30    0.50
   2  -1  -9    0.70    0.60
  -2   1   9    0.80    0.50
  -2   1   9   -0.50    0.50
  -2   1   9    1.50    0.70
  -2   1   9    1.20    0.90
   1  -1  -9  139.39    4.20
   1  -1  -9  142.89    4.00
   1  -1  -9  137.09    4.00
   1  -1  -9  142.99    3.80
  -1   1   9  150.08    4.00
  -1   1   9  142.09    4.20
   0  -1  -9   17.60    1.50
   0  -1  -9   18.10    0.90
   0  -1  -9   16.30    0.80
   0   1   9   17.00    1.00
   0   1   9   18.00    0.90
   0   1   9   17.90    1.30
   0   1   9   17.90    1.10
  -1  -1  -9    0.30    0.40
  -1  -1  -9    0.10    0.40
  -1  -1  -9    0.20    1.00
   1   1   9    1.60    0.90
   1   1   9    0.40    0.50
   1   1   9    0.40    0.60
   1   1   9    0.40    0.50
   1   1   9    1.20    0.50
  -2  -1  -9  971.20   22.90
  -2  -1  -9  895.41   22.80
   2   1   9  905.71   22.90
   2   1   9  905.81   23.20
   2   1   9  915.51   23.10
   2   1   9  898.91   23.10
   3   1   9    6.10    1.40
   3   1   9    6.30    0.80
   3   1   9    6.60    0.80
   3   1   9    5.50    0.90
   4   1   9    2.60    0.50
   4   1   9    2.20    0.50
   4   1   9    4.60    0.70
   4  -2  -9    1.40    0.40
  -4   2   9    0.10    0.70
  -4   2   9    1.90    0.50
   3  -2  -9    0.40    0.90
   3  -2  -9    1.20    0.50
   3  -2  -9    1.10    0.50
  -3   2   9    1.30    0.70
  -3   2   9    1.60    0.90
  -3   2   9    0.10    0.40
  -3   2   9    0.10    0.50
   2  -2  -9   69.89    2.30
   2  -2  -9   67.59    2.40
   2  -2  -9   69.09    2.30
  -2   2   9   69.99    2.40
  -2   2   9   68.99    2.30
  -2   2   9   68.59    2.10
   1  -2  -9  104.69    3.20
   1  -2  -9  108.59    3.10
   1  -2  -9  103.89    3.20
   1  -2  -9  103.79    3.40
   1  -2  -9  107.39    3.00
  -1   2   9  106.49    3.30
  -1   2   9  108.09    3.20
   0  -2  -9    4.60    0.70
   0  -2  -9    5.90    1.10
   0  -2  -9    4.20    0.60
   0   2   9    5.40    0.80
   0   2   9    3.80    0.60
  -1  -2  -9  335.67    8.50
  -1  -2  -9  322.47    8.60
   1   2   9  335.97    8.80
   1   2   9  341.47    8.70
   1   2   9  335.17    8.50
   1   2   9  336.07    8.90
   1   2   9  319.47    8.60
  -2  -2  -9   29.90    1.30
  -2  -2  -9   28.90    1.30
   2   2   9   31.20    1.30
   2   2   9   32.00    2.40
   2   2   9   30.00    1.70
   2   2   9   30.00    1.70
   2   2   9   31.60    1.40
  -3  -2  -9    0.90    0.70
   3   2   9    1.40    0.50
   3   2   9    2.50    0.50
   3   2   9    1.20    0.70
   4   2   9   34.40    1.30
   4   2   9   33.90    1.40
   4  -3  -9    8.10    0.70
  -4   3   9    6.20    0.70
   3  -3  -9   -0.30    0.40
   3  -3  -9    0.00    0.40
   3  -3  -9   -1.60    1.00
  -3   3   9    1.00    0.50
  -3   3   9    0.60    0.80
  -3   3   9   -0.10    0.60
   2  -3  -9   49.60    1.90
   2  -3  -9   48.60    1.80
   2  -3  -9   48.70    1.90
  -2   3   9   47.00    1.90
  -2   3   9   47.20    1.80
   1  -3  -9   34.70    1.30
   1  -3  -9   35.70    1.50
   1  -3  -9   32.90    1.80
  -1   3   9   35.00    1.50
  -1   3   9   36.00    1.80
  -1   3   9   34.80    1.40
  -1   3   9   37.50    1.80
   0  -3  -9    4.30    0.70
   0  -3  -9    3.60    0.50
   0  -3  -9    3.70    0.60
   0   3   9    4.10    0.70
   0   3   9    3.90    0.90
   0   3   9    4.20    0.70
   0   3   9    3.50    0.50
  -1  -3  -9  621.34   15.70
  -1  -3  -9  622.24   15.70
  -1  -3  -9  637.04   15.60
   1   3   9  622.44   15.90
   1   3   9  570.54   17.30
   1   3   9  621.94   15.90
   1   3   9  639.14   15.80
   1   3   9  613.14   15.50
  -2  -3  -9    0.40    0.50
  -2  -3  -9    0.70    0.60
  -2  -3  -9   -0.30    1.20
   2   3   9    0.20    0.50
   2   3   9    1.00    1.60
   2   3   9    0.10    0.70
   2   3   9   -0.50    1.10
  -3  -3  -9    3.10    0.80
  -3  -3  -9    4.20    0.90
   3   3   9    3.60    0.60
   3   3   9    3.20    0.70
   4  -4  -9    1.90    0.40
  -4   4   9    1.40    0.40
   3  -4  -9   26.10    1.40
   3  -4  -9   26.80    1.20
  -3   4   9   27.00    1.50
   2  -4  -9   78.89    2.50
   2  -4  -9   77.99    2.50
   2  -4  -9   76.49    2.50
  -2   4   9   78.79    2.40
  -2   4   9   74.99    2.40
  -2   4   9   75.89    3.10
   1  -4  -9    1.90    1.60
   1  -4  -9    0.30    0.50
   1  -4  -9   -0.20    0.50
   1  -4  -9   -1.90    0.80
   1  -4  -9    1.00    0.90
  -1   4   9    2.80    1.10
  -1   4   9    0.30    0.80
  -1   4   9    0.00    0.40
  -1   4   9    0.90    0.80
   0  -4  -9  111.89    3.40
   0  -4  -9  112.89    4.00
   0  -4  -9  111.69    3.30
   0  -4  -9  111.59    3.20
   0   4   9  109.39    3.30
   0   4   9  113.69    3.60
   0   4   9  110.79    3.80
   0   4   9  110.59    3.20
  -1  -4  -9    3.20    0.50
  -1  -4  -9    2.20    0.60
  -1  -4  -9    3.30    1.30
   1   4   9    3.80    1.30
   1   4   9    2.60    0.80
   1   4   9    3.90    0.50
   1   4   9    3.00    1.30
   1   4   9    3.20    0.70
  -2  -4  -9    0.00    0.70
  -2  -4  -9   -0.30    0.50
   2   4   9    0.10    0.70
   2   4   9    0.60    0.60
  -3  -4  -9   50.59    1.80
   3   4   9   52.79    1.70
   3   4   9   51.89    1.80
   3  -5  -9   12.40    0.90
   3  -5  -9   12.00    0.80
  -3   5   9   10.90    0.80
  -3   5   9    9.40    1.10
   2  -5  -9   25.40    1.30
   2  -5  -9   25.30    1.30
   2  -5  -9   24.60    1.20
  -2   5   9   25.90    1.20
  -2   5   9   26.40    1.20
   1  -5  -9   13.80    1.00
   1  -5  -9   14.00    1.00
   1  -5  -9   14.90    1.50
   1  -5  -9   14.90    1.00
  -1   5   9   13.10    1.90
  -1   5   9   13.20    1.20
  -1   5   9   15.90    0.90
   0  -5  -9  223.98    6.30
   0  -5  -9  226.58    6.10
   0  -5  -9  234.58    6.20
   0  -5  -9  218.18    6.30
   0   5   9  229.68    6.40
   0   5   9  236.08    6.10
   0   5   9  243.58    7.60
  -1  -5  -9    5.60    0.80
  -1  -5  -9    5.80    0.80
  -1  -5  -9    6.30    0.70
   1   5   9    7.50    0.80
   1   5   9    5.30    0.90
  -2  -5  -9    1.40    0.50
   2   5   9    1.40    0.80
   2   5   9    2.00    0.60
   3  -6  -9   32.90    1.10
  -3   6   9   31.60    1.10
  -3   6   9   29.00    1.40
   2  -6  -9    0.90    0.60
   2  -6  -9    0.80    0.50
  -2   6   9    0.70    0.40
  -2   6   9    1.60    0.50
   1  -6  -9   11.90    0.90
   1  -6  -9   11.70    1.60
  -1   6   9   11.30    0.80
  -1   6   9   11.50    1.10
   0  -6  -9   39.10    1.40
   0  -6  -9   39.10    1.50
   0   6   9   39.00    1.60
   0   6   9   38.30    1.40
  -1  -6  -9    0.10    0.40
  -1  -6  -9    0.80    0.60
   1   6   9   -0.50    0.40
   1   6   9   -0.70    0.50
   1  -7  -9   50.49    1.60
  -1   7   9   50.49    1.70
  -1   7   9   52.49    1.60
   0  -7  -9    6.20    0.70
   0   7   9    5.80    0.60
   0   7   9    6.80    0.80
   1   8 -10    3.30    0.50
  -1  -8  10    3.10    0.50
  -1  -8  10    3.30    0.70
   0   8 -10    4.00    0.60
   0   8 -10    3.50    0.50
   0  -8  10    4.40    0.60
   0  -8  10    3.00    0.50
  -1   8 -10  109.39    3.00
   1  -8  10  107.49    3.00
   1  -8  10  104.19    3.00
  -2   8 -10  168.18    4.40
  -2   8 -10  162.58    4.40
   2  -8  10  165.98    4.30
   2  -8  10  171.58    4.40
   2   7 -10   59.59    1.80
   1   7 -10   -0.10    0.50
   1   7 -10   -0.30    0.40
  -1  -7  10    0.00    0.60
  -1  -7  10    0.30    0.50
   0   7 -10   25.20    1.20
   0   7 -10   20.70    1.30
   0  -7  10   22.30    1.10
   0  -7  10   22.20    1.30
  -1   7 -10   12.20    0.80
  -1   7 -10   14.90    0.90
   1  -7  10   12.10    0.90
   1  -7  10   15.00    1.00
  -2   7 -10   33.10    1.20
   2  -7  10   33.30    1.30
   2  -7  10   33.40    1.20
  -3   7 -10  268.37    6.90
   3  -7  10  270.97    6.90
   3   6 -10  142.69    3.60
  -3  -6  10  131.69    3.60
   2   6 -10    0.60    0.40
  -2  -6  10    0.60    0.50
  -2  -6  10    1.20    1.10
  -2  -6  10   -0.80    0.60
   1   6 -10    4.60    0.70
   1   6 -10    5.50    0.80
  -1  -6  10    5.30    0.70
  -1  -6  10    5.50    0.70
   0   6 -10  230.98    6.30
   0   6 -10  249.78    6.70
   0   6 -10  248.68    6.60
   0  -6  10  243.68    6.80
   0  -6  10  247.18    6.60
  -1   6 -10  321.97    8.20
  -1   6 -10  320.37    8.40
   1  -6  10  314.57    8.30
   1  -6  10  319.57    8.40
  -2   6 -10   16.20    0.80
  -2   6 -10   16.70    1.20
   2  -6  10   16.10    0.90
   2  -6  10   18.00    1.10
  -3   6 -10  157.78    4.20
   3  -6  10  160.78    4.40
   3   5 -10   59.49    1.90
  -3  -5  10   60.29    1.80
   2   5 -10    1.40    0.60
   2   5 -10    0.60    0.40
  -2  -5  10    1.40    0.50
  -2  -5  10    1.60    0.70
   1   5 -10   25.90    1.30
   1   5 -10   26.30    1.30
   1   5 -10   28.60    1.80
  -1  -5  10   25.40    1.50
  -1  -5  10   28.00    1.40
   0   5 -10   16.10    0.90
   0   5 -10   18.40    1.10
   0   5 -10   16.20    1.30
   0   5 -10   17.50    1.50
   0  -5  10   18.60    1.30
   0  -5  10   16.60    1.10
  -1   5 -10  128.39    3.50
  -1   5 -10  129.49    3.80
   1  -5  10  128.39    3.70
   1  -5  10  125.09    3.70
  -2   5 -10  564.54   14.30
  -2   5 -10  542.25   14.10
   2  -5  10  561.44   14.10
   2  -5  10  561.94   14.30
  -3   5 -10    6.60    1.00
  -3   5 -10    5.10    0.60
   3  -5  10    5.90    0.70
  -4   5 -10    1.20    0.40
   4  -5  10    0.20    0.30
  -4  -4  10  121.19    3.20
  -4  -4  10  123.49    3.40
   3   4 -10    5.00    0.70
  -3  -4  10    6.10    0.70
  -3  -4  10    7.20    1.20
   2   4 -10    7.80    1.20
   2   4 -10    7.90    0.80
   2   4 -10    6.30    0.80
  -2  -4  10    6.50    0.90
  -2  -4  10    9.90    1.50
  -2  -4  10    7.10    0.70
   1   4 -10  327.67    8.60
   1   4 -10  323.47    8.60
  -1  -4  10  328.97    8.30
  -1  -4  10  330.47    8.80
  -1  -4  10  332.97    8.60
  -1  -4  10  314.77    9.00
   0   4 -10  422.96   10.90
   0   4 -10  404.66   10.90
   0   4 -10  413.36   10.60
   0   4 -10  415.56   10.80
   0  -4  10  421.46   10.80
   0  -4  10  432.46   11.10
  -1   4 -10   14.70    0.70
  -1   4 -10   12.90    0.90
   1  -4  10   14.70    0.90
   1  -4  10   11.60    1.10
  -2   4 -10  147.69    4.30
  -2   4 -10  157.08    4.10
   2  -4  10  147.99    4.10
   2  -4  10  156.18    4.40
  -3   4 -10   -0.50    0.50
  -3   4 -10   -0.60    0.40
   3  -4  10   -0.30    0.50
  -4   4 -10  107.09    3.90
   4  -4  10  106.39    3.00
   4   3 -10   34.10    1.10
  -4  -3  10   32.90    1.10
  -4  -3  10   31.00    1.30
   3   3 -10    3.90    0.60
  -3  -3  10    4.40    0.90
  -3  -3  10    3.50    0.50
   2   3 -10   31.00    1.60
   2   3 -10   31.60    1.40
   2   3 -10   29.90    1.40
  -2  -3  10   28.70    1.60
  -2  -3  10   32.00    1.60
  -2  -3  10   30.50    1.20
  -2  -3  10   32.70    2.50
   1   3 -10   22.50    1.00
   1   3 -10   23.20    1.30
   1   3 -10   21.30    1.20
  -1  -3  10   22.70    1.30
  -1  -3  10   24.20    1.70
  -1  -3  10   24.00    1.10
   0   3 -10  250.57    6.40
   0   3 -10  241.48    6.90
   0   3 -10  255.47    6.60
   0  -3  10  239.48    6.80
   0  -3  10  250.67    6.60
  -1   3 -10  978.50   24.80
  -1   3 -10 1001.90   24.90
   1  -3  10 1010.50   24.80
   1  -3  10  993.10   24.90
   1  -3  10  988.10   24.90
  -2   3 -10   50.69    1.70
  -2   3 -10   49.00    1.60
   2  -3  10   49.80    1.80
   2  -3  10   49.20    1.70
   2  -3  10   50.29    1.90
  -3   3 -10    0.00    0.50
   3  -3  10    1.30    0.70
   3  -3  10   -0.20    0.50
  -4   3 -10   98.79    3.00
   4  -3  10  107.69    3.00
   4   2 -10   18.50    0.90
  -4  -2  10   20.00    1.10
  -4  -2  10   18.80    0.80
   3   2 -10   12.20    0.90
   3   2 -10   13.30    1.40
  -3  -2  10   13.80    0.80
   2   2 -10  276.47    7.30
   2   2 -10  274.97    8.10
   2   2 -10  261.47    7.30
  -2  -2  10  271.67    7.30
  -2  -2  10  281.17    7.10
  -2  -2  10  269.67    7.80
   1   2 -10  296.67    7.30
   1   2 -10  288.07    7.60
   1   2 -10  243.58    8.20
   1   2 -10  294.17    8.20
  -1  -2  10  276.27    8.00
  -1  -2  10  302.97    7.80
  -1  -2  10  290.37    7.30
   0   2 -10   17.30    0.80
   0   2 -10   17.70    0.90
   0   2 -10   15.10    1.70
   0   2 -10   18.40    1.20
   0  -2  10   16.30    1.00
   0  -2  10   17.40    1.20
   0  -2  10   16.40    1.50
  -1   2 -10   72.19    2.50
  -1   2 -10   77.99    2.20
  -1   2 -10   75.39    2.30
   1  -2  10   77.69    2.30
   1  -2  10   72.59    2.50
  -2   2 -10   11.10    0.80
  -2   2 -10   10.10    0.80
   2  -2  10   12.50    1.20
   2  -2  10   10.20    1.00
   2  -2  10   11.80    1.00
  -3   2 -10  282.97    7.40
  -3   2 -10  287.57    7.50
   3  -2  10  291.07    7.60
   3  -2  10  301.97    7.60
   3  -2  10  279.97    8.10
   4  -2  10   16.40    0.90
   4  -2  10   16.10    1.00
   4   1 -10    4.90    0.60
  -4  -1  10    6.00    0.90
  -4  -1  10    5.60    0.60
   3   1 -10   39.60    1.90
   3   1 -10   42.20    1.60
  -3  -1  10   40.70    1.70
  -3  -1  10   40.60    1.40
  -3  -1  10   37.30    1.70
   2   1 -10   27.10    1.40
   2   1 -10   28.20    1.40
   2   1 -10   29.30    1.40
  -2  -1  10   29.20    1.40
  -2  -1  10   27.20    1.90
  -2  -1  10   27.50    1.40
  -2  -1  10   26.90    1.10
  -2  -1  10   26.40    1.50
   1   1 -10  196.78    5.40
   1   1 -10  186.48    5.80
   1   1 -10  189.28    5.30
   1   1 -10  198.88    5.30
   1   1 -10  197.68    5.10
  -1  -1  10  198.28    5.50
  -1  -1  10  188.98    5.30
  -1  -1  10  185.98    5.10
  -1  -1  10  192.08    5.40
   0   1 -10 1264.97   31.30
   0   1 -10 1223.18   30.80
   0   1 -10 1242.08   30.70
   0   1 -10 1239.38   30.80
   0  -1  10 1203.38   30.80
   0  -1  10 1234.68   31.00
  -1   1 -10  151.88    4.20
  -1   1 -10  155.48    4.90
  -1   1 -10  154.48    4.10
   1  -1  10  154.18    4.20
   1  -1  10  147.49    4.40
   1  -1  10  143.69    4.30
  -2   1 -10    0.40    0.50
  -2   1 -10    0.70    0.40
   2  -1  10    0.50    0.60
   2  -1  10    0.40    0.50
   2  -1  10    0.80    0.50
   2  -1  10    0.80    0.70
  -3   1 -10  119.19    3.50
   3  -1  10  122.49    4.00
   3  -1  10  121.99    3.50
   3  -1  10  119.89    3.50
   4  -1  10   14.20    0.90
   4  -1  10   13.10    0.80
   4   0 -10    8.50    0.70
  -4   0  10    8.40    0.70
  -4   0  10    9.00    1.00
   3   0 -10  143.79    3.90
   3   0 -10  132.59    4.20
   3   0 -10  138.09    4.00
  -3   0  10  134.69    4.00
  -3   0  10  135.59    4.10
  -3   0  10  140.19    3.80
   2   0 -10   80.39    2.50
   2   0 -10   72.99    2.40
   2   0 -10   70.89    2.40
  -2   0  10   72.39    2.20
  -2   0  10   71.69    2.50
  -2   0  10   68.59    2.80
  -2   0  10   69.39    2.40
   1   0 -10   10.20    1.30
   1   0 -10    9.40    0.90
   1   0 -10    9.50    0.70
   1   0 -10    8.50    1.00
  -1   0  10   10.50    1.10
  -1   0  10   11.80    1.20
   0   0 -10    0.20    0.90
   0   0 -10    1.00    0.40
   0   0  10    2.00    0.60
   0   0  10    0.10    0.60
   0   0  10    1.30    0.50
  -1   0 -10   38.40    3.40
  -1   0 -10   34.20    1.20
  -1   0 -10   35.90    1.30
   1   0  10   30.10    1.80
   1   0  10   32.90    1.40
   1   0  10   34.80    1.50
  -2   0 -10  481.85   12.20
  -2   0 -10  483.25   12.20
   2   0  10  499.05   12.70
   2   0  10  474.75   12.40
   2   0  10  468.15   12.30
  -3   0 -10   81.19    2.50
   3   0  10   85.09    3.20
   3   0  10   81.39    2.60
   3   0  10   84.09    2.50
   4   0  10   -0.40    0.40
   4   0  10    0.10    0.40
   4  -1 -10   32.80    1.20
  -4   1  10   34.00    1.50
  -4   1  10   32.40    1.20
   3  -1 -10   26.30    1.80
   3  -1 -10   30.10    1.30
   3  -1 -10   29.60    1.30
  -3   1  10   28.00    1.90
  -3   1  10   30.40    1.20
  -3   1  10   29.80    1.40
  -3   1  10   27.10    1.70
   2  -1 -10   68.29    2.40
   2  -1 -10   70.59    2.30
   2  -1 -10   68.19    2.30
  -2   1  10   67.59    2.40
  -2   1  10   71.79    2.30
  -2   1  10   68.39    2.10
  -2   1  10   67.69    2.90
   1  -1 -10  808.72   20.90
   1  -1 -10  838.22   20.70
   1  -1 -10  826.32   20.80
   1  -1 -10  814.42   20.80
  -1   1  10  835.12   21.00
  -1   1  10  836.32   20.80
   0  -1 -10  145.09    4.00
   0  -1 -10  163.78    6.10
   0   1  10  142.29    4.20
   0   1  10  146.89    4.10
   0   1  10  143.99    4.30
  -1  -1 -10    1.20    0.50
  -1  -1 -10    0.90    0.40
   1   1  10    0.90    0.50
   1   1  10    1.20    0.50
   1   1  10    1.50    0.50
   1   1  10   -0.40    0.90
  -2  -1 -10   86.59    2.60
  -2  -1 -10   87.69    2.60
   2   1  10   85.39    2.70
   2   1  10   85.99    3.00
   2   1  10   84.49    2.60
   2   1  10   86.59    2.90
  -3  -1 -10   20.80    1.20
   3   1  10   20.50    1.70
   3   1  10   22.30    1.20
   3   1  10   22.90    1.10
   4   1  10   15.20    1.40
   4   1  10   14.40    0.80
   4  -2 -10   38.80    1.30
  -4   2  10   38.70    1.30
  -4   2  10   38.10    1.60
   3  -2 -10    2.40    0.50
   3  -2 -10    2.90    0.50
  -3   2  10    3.20    0.80
  -3   2  10    1.90    0.60
  -3   2  10    2.20    0.50
   2  -2 -10    7.40    0.80
   2  -2 -10   10.20    1.40
   2  -2 -10    7.20    0.80
   2  -2 -10    7.70    0.90
  -2   2  10    6.60    0.90
  -2   2  10    9.00    0.90
   1  -2 -10   27.70    1.30
   1  -2 -10   27.60    1.60
   1  -2 -10   26.90    1.50
   1  -2 -10   27.90    1.10
  -1   2  10   27.50    1.60
  -1   2  10   27.30    1.20
  -1   2  10   29.10    1.40
   0  -2 -10   30.30    1.30
   0  -2 -10   29.80    1.20
   0   2  10   30.90    1.30
   0   2  10   33.30    1.80
   0   2  10   31.70    1.40
  -1  -2 -10  477.95   12.40
  -1  -2 -10  500.45   12.60
   1   2  10  485.95   12.70
   1   2  10  490.25   12.90
   1   2  10  494.95   12.60
   1   2  10  487.05   12.40
  -2  -2 -10  174.68    4.70
  -2  -2 -10  176.68    4.80
   2   2  10  174.48    4.70
   2   2  10  177.48    4.90
   2   2  10  172.08    5.00
   2   2  10  174.58    5.20
  -3  -2 -10    1.00    0.80
  -3  -2 -10    0.70    0.90
   3   2  10    1.80    0.50
   3   2  10    2.30    0.70
   4  -3 -10   21.70    0.90
  -4   3  10   22.10    1.40
   3  -3 -10   15.40    1.20
   3  -3 -10   14.90    1.50
  -3   3  10   12.30    1.30
  -3   3  10   12.30    1.00
   2  -3 -10  347.77    9.00
   2  -3 -10  343.27    9.10
   2  -3 -10  342.17    9.00
  -2   3  10  340.77    9.40
  -2   3  10  350.16    9.10
  -2   3  10  346.97    9.00
   1  -3 -10   43.60    2.00
   1  -3 -10   46.60    1.80
   1  -3 -10   45.80    2.10
   1  -3 -10   44.80    1.60
  -1   3  10   46.30    2.20
  -1   3  10   45.00    1.70
  -1   3  10   45.40    1.90
   0  -3 -10    0.30    0.40
   0  -3 -10    0.60    0.60
   0  -3 -10    1.40    0.50
   0   3  10    0.50    0.40
   0   3  10    0.80    1.00
   0   3  10    0.30    0.60
   0   3  10    0.00    0.70
   0   3  10    0.00    0.90
  -1  -3 -10   41.20    1.70
  -1  -3 -10   43.00    1.80
   1   3  10   43.20    1.50
   1   3  10   36.60    2.60
   1   3  10   41.90    1.60
   1   3  10   41.90    2.00
   1   3  10   42.40    2.00
  -2  -3 -10   21.40    1.20
  -2  -3 -10   22.30    1.10
   2   3  10   21.80    1.10
   2   3  10   21.30    1.40
  -3  -3 -10   24.10    1.40
   3   3  10   25.50    1.10
   3   3  10   24.30    1.30
   3  -4 -10    7.80    0.70
   3  -4 -10    7.30    0.90
  -3   4  10    7.80    0.80
  -3   4  10    8.60    0.80
   2  -4 -10   35.50    1.50
   2  -4 -10   36.70    1.50
   2  -4 -10   35.00    1.50
  -2   4  10   36.00    1.50
   1  -4 -10   12.90    0.90
   1  -4 -10   12.00    1.00
   1  -4 -10   14.20    1.50
   1  -4 -10   11.60    1.00
  -1   4  10   14.50    0.90
  -1   4  10   13.30    1.90
   0  -4 -10  300.77    7.70
   0  -4 -10  296.47    7.90
   0  -4 -10  304.67    7.90
   0  -4 -10  290.27    8.60
   0   4  10  291.37    8.50
   0   4  10  295.97    7.80
   0   4  10  293.97    8.20
   0   4  10  300.17    8.00
   0   4  10  308.27    7.80
  -1  -4 -10  172.08    4.60
  -1  -4 -10  170.28    4.80
   1   4  10  172.28    4.90
   1   4  10  168.48    4.50
   1   4  10  171.48    4.80
  -2  -4 -10    3.20    0.60
  -2  -4 -10    3.60    0.80
   2   4  10    3.70    0.60
   2   4  10    4.40    0.80
  -3  -4 -10    5.10    0.80
   3   4  10    6.40    0.80
   3   4  10    4.20    0.60
   3  -5 -10   96.89    2.80
   3  -5 -10   99.69    2.80
  -3   5  10   99.89    2.90
  -3   5  10  101.59    2.80
   2  -5 -10    5.60    0.70
   2  -5 -10    7.10    0.80
  -2   5  10    6.40    0.80
  -2   5  10    6.70    0.70
   1  -5 -10    0.30    0.60
   1  -5 -10    0.50    0.50
   1  -5 -10    0.40    0.50
   1  -5 -10   -1.40    1.00
  -1   5  10    0.80    0.40
   0  -5 -10    5.70    0.70
   0  -5 -10    3.60    1.10
   0  -5 -10    6.70    0.90
   0  -5 -10    6.00    0.70
   0   5  10    7.70    1.10
   0   5  10    4.90    0.60
  -1  -5 -10    9.40    1.40
  -1  -5 -10   11.00    0.80
  -1  -5 -10   11.50    1.00
   1   5  10   10.20    0.80
   1   5  10   10.40    1.10
  -2  -5 -10   21.10    0.90
   2   5  10   20.60    1.10
   2  -6 -10    3.50    0.60
  -2   6  10    2.60    0.70
  -2   6  10    2.70    0.40
   1  -6 -10  124.09    3.50
  -1   6  10  128.49    3.60
  -1   6  10  130.09    3.50
   0  -6 -10   99.89    3.10
   0  -6 -10  106.49    3.00
   0   6  10  106.39    2.80
   0   6  10  102.59    3.00
  -1  -6 -10    2.40    0.50
  -1  -6 -10    3.50    0.70
   1   6  10    2.20    0.60
   0   8 -11    6.50    0.90
   0   8 -11    6.30    0.60
   0  -8  11    6.10    0.70
  -1   8 -11    4.90    0.60
   1  -8  11    5.10    0.60
   1  -8  11    5.30    0.50
   2   7 -11   44.70    1.40
   1   7 -11    0.70    0.50
   1   7 -11    0.30    0.40
  -1  -7  11    1.40    0.50
   0   7 -11  353.16    9.00
   0   7 -11  356.76    9.10
   0  -7  11  344.77    9.00
   0  -7  11  336.67    8.90
  -1   7 -11   39.20    1.40
  -1   7 -11   39.40    1.50
   1  -7  11   37.30    1.40
   1  -7  11   40.00    1.40
  -2   7 -11    5.90    0.70
  -2   7 -11    6.10    0.60
   2  -7  11    5.90    0.60
   2  -7  11    6.90    0.70
   2   6 -11    4.70    0.60
  -2  -6  11    6.00    0.90
   1   6 -11    4.00    0.60
   1   6 -11    4.40    0.60
  -1  -6  11    5.90    0.90
  -1  -6  11    3.60    0.60
   0   6 -11   75.99    2.40
   0   6 -11   76.09    2.90
   0  -6  11   76.39    2.40
  -1   6 -11  274.47    7.10
  -1   6 -11  279.37    7.30
  -1   6 -11  260.67    7.40
   1  -6  11  280.17    7.20
   1  -6  11  270.57    7.20
  -2   6 -11   61.49    2.00
  -2   6 -11   58.39    2.30
  -2   6 -11   62.09    1.90
   2  -6  11   60.89    1.90
   2  -6  11   61.39    2.00
  -3   6 -11   53.69    1.60
  -3   6 -11   55.39    1.80
   3  -6  11   54.59    1.80
   3   5 -11   31.20    1.10
  -3  -5  11   27.90    1.10
  -3  -5  11   29.90    1.20
   2   5 -11    0.50    0.50
  -2  -5  11    0.00    0.50
  -2  -5  11   -0.10    0.70
   1   5 -11  580.64   15.20
   1   5 -11  587.54   15.00
   1   5 -11  584.44   14.90
  -1  -5  11  590.54   14.90
  -1  -5  11  576.54   14.90
   0   5 -11   45.90    1.70
   0   5 -11   50.09    1.80
   0   5 -11   45.90    2.00
   0  -5  11   44.10    1.80
   0  -5  11   45.10    1.70
  -1   5 -11    6.30    0.80
  -1   5 -11    7.60    0.70
  -1   5 -11    8.20    0.80
   1  -5  11    7.50    0.90
   1  -5  11    6.60    0.80
  -2   5 -11  312.97    8.30
  -2   5 -11  317.37    8.10
   2  -5  11  314.77    8.20
   2  -5  11  308.47    8.10
  -3   5 -11   30.80    1.60
  -3   5 -11   32.00    1.20
   3  -5  11   34.60    1.30
   3   4 -11   30.80    1.20
  -3  -4  11   30.50    1.10
   2   4 -11    3.60    0.60
   2   4 -11    3.40    0.60
   2   4 -11    7.30    1.30
  -2  -4  11    4.80    0.70
  -2  -4  11    4.40    0.50
   1   4 -11  230.78    6.40
   1   4 -11  236.18    6.40
  -1  -4  11  240.18    6.40
  -1  -4  11  231.08    6.40
   0   4 -11  507.85   13.10
   0   4 -11  533.75   13.10
   0   4 -11  516.65   12.90
   0   4 -11  506.15   13.20
   0  -4  11  499.15   13.10
   0  -4  11  497.05   13.20
  -1   4 -11  245.78    6.30
  -1   4 -11  239.58    6.40
  -1   4 -11  231.68    6.40
   1  -4  11  235.68    6.30
   1  -4  11  238.58    6.40
  -2   4 -11  121.69    3.60
  -2   4 -11  122.09    3.40
   2  -4  11  120.09    3.40
   2  -4  11  120.19    3.50
  -3   4 -11   43.20    1.70
  -3   4 -11   42.30    1.40
   3  -4  11   43.20    1.60
  -4   4 -11   93.49    2.70
   4  -4  11  103.79    2.70
   4   3 -11   10.10    0.70
  -4  -3  11   11.20    0.70
  -4  -3  11    9.00    0.80
   3   3 -11    2.20    0.50
  -3  -3  11    1.20    0.40
  -3  -3  11    1.00    0.50
   2   3 -11  596.24   15.10
   2   3 -11  594.34   15.30
  -2  -3  11  575.24   14.90
  -2  -3  11  591.54   15.10
   1   3 -11   33.30    1.30
   1   3 -11   31.60    1.40
   1   3 -11   34.40    1.60
  -1  -3  11   33.30    1.50
  -1  -3  11   30.80    2.30
  -1  -3  11   32.90    1.60
   0   3 -11    8.60    1.30
   0   3 -11   10.40    0.70
   0   3 -11    9.60    0.90
   0   3 -11   10.40    1.00
   0  -3  11    8.60    1.10
   0  -3  11   11.20    1.00
   0  -3  11   10.50    0.90
  -1   3 -11  488.95   12.50
  -1   3 -11  495.45   12.40
  -1   3 -11  507.95   12.60
   1  -3  11  484.45   12.50
   1  -3  11  487.85   12.50
   1  -3  11  488.55   12.50
   1  -3  11  472.15   12.50
  -2   3 -11   42.80    1.50
  -2   3 -11   43.80    1.60
   2  -3  11   43.10    1.60
   2  -3  11   42.60    1.50
   2  -3  11   42.10    1.70
  -3   3 -11    4.90    0.60
  -3   3 -11    5.10    0.70
   3  -3  11    7.70    1.00
   3  -3  11    5.30    0.70
  -4   3 -11  173.88    5.10
   4  -3  11  182.78    4.70
   4   2 -11   54.09    1.60
  -4  -2  11   52.49    1.60
  -4  -2  11   53.69    1.80
   3   2 -11    2.70    0.50
  -3  -2  11    3.10    0.60
  -3  -2  11    3.90    1.10
  -3  -2  11    2.90    0.50
   2   2 -11  311.97    8.40
   2   2 -11  317.67    8.40
   2   2 -11  322.07    8.60
  -2  -2  11  317.47    8.40
  -2  -2  11  318.67    8.60
  -2  -2  11  324.87    8.20
   1   2 -11  605.74   15.50
   1   2 -11  611.34   15.50
   1   2 -11  608.94   15.30
  -1  -2  11  594.14   15.80
  -1  -2  11  595.74   15.40
  -1  -2  11  625.24   15.60
   0   2 -11  500.65   12.90
   0   2 -11  506.45   12.70
   0  -2  11  502.85   12.90
  -1   2 -11  171.08    4.70
  -1   2 -11  165.78    4.70
  -1   2 -11  175.58    4.50
   1  -2  11  169.18    4.70
   1  -2  11  165.08    4.60
   1  -2  11  172.28    4.70
   1  -2  11  160.78    4.70
  -2   2 -11   34.60    1.30
  -2   2 -11   36.70    1.40
   2  -2  11   33.70    1.50
   2  -2  11   34.50    1.30
   2  -2  11   37.20    1.50
   2  -2  11   36.70    1.80
  -3   2 -11  239.98    6.50
  -3   2 -11  252.97    6.40
   3  -2  11  243.58    6.60
   3  -2  11  253.77    6.60
   4  -2  11   30.70    1.20
   4  -2  11   32.10    1.10
   4   1 -11    4.80    0.60
  -4  -1  11    3.60    0.50
  -4  -1  11    4.20    0.60
   3   1 -11  356.86    9.10
  -3  -1  11  334.87    9.20
  -3  -1  11  350.06    8.90
  -3  -1  11  350.76    9.20
   2   1 -11   20.00    1.20
   2   1 -11   19.70    1.20
   2   1 -11   20.90    1.30
  -2  -1  11   19.50    1.20
  -2  -1  11   21.90    1.30
  -2  -1  11   20.50    1.00
   1   1 -11    7.00    0.70
   1   1 -11    7.60    1.00
   1   1 -11    7.20    1.00
   1   1 -11    7.90    1.20
  -1  -1  11    9.00    1.00
  -1  -1  11    7.50    0.90
  -1  -1  11    8.30    1.30
   0   1 -11  474.75   11.60
   0   1 -11  466.65   11.40
   0   1 -11  454.35   11.50
   0  -1  11  393.66   11.90
  -1   1 -11   36.30    1.30
  -1   1 -11   37.30    1.50
   1  -1  11   36.80    1.60
   1  -1  11   35.10    1.50
   1  -1  11   38.00    1.40
  -2   1 -11   46.50    1.60
  -2   1 -11   46.00    1.70
   2  -1  11   46.70    1.70
   2  -1  11   45.30    2.00
   2  -1  11   44.80    1.70
  -3   1 -11  387.56   10.40
  -3   1 -11  400.66   10.30
   3  -1  11  426.16   10.50
   3  -1  11  413.36   10.50
   4  -1  11   10.50    0.70
   4  -1  11   10.70    0.70
   4   0 -11    5.30    0.60
  -4   0  11    5.00    0.60
  -4   0  11    4.80    0.60
   3   0 -11  218.48    5.90
   3   0 -11  220.58    5.90
  -3   0  11  220.18    5.70
  -3   0  11  219.48    6.10
   2   0 -11  379.86   10.00
   2   0 -11  396.36   10.00
   2   0 -11  379.06   10.20
  -2   0  11  388.16   10.20
  -2   0  11  377.36    9.80
  -2   0  11  388.46   10.00
   1   0 -11  486.95   12.70
   1   0 -11  505.15   12.70
   1   0 -11  484.85   12.70
   1   0 -11  495.45   12.50
  -1   0  11  493.75   12.80
  -1   0  11  496.85   12.70
   0   0 -11  185.28    5.00
   0   0 -11  181.58    4.90
   0   0  11  183.98    5.10
   0   0  11  180.08    4.90
   0   0  11  180.88    5.20
  -1   0 -11   12.00    0.90
  -1   0 -11   13.30    0.80
   1   0  11   10.40    0.90
   1   0  11   11.50    1.00
   1   0  11   12.00    0.80
  -2   0 -11  452.75   11.60
  -2   0 -11  458.85   11.70
   2   0  11  449.36   11.80
   2   0  11  459.75   12.00
   2   0  11  466.35   11.70
  -3   0 -11   95.19    2.80
  -3   0 -11   88.79    2.80
   3   0  11   98.19    2.80
   4   0  11   17.90    0.80
   4   0  11   18.70    0.80
   4  -1 -11  136.69    3.60
  -4   1  11  129.69    3.60
  -4   1  11  136.59    3.80
   3  -1 -11    6.70    0.80
   3  -1 -11    7.50    0.80
  -3   1  11    5.70    0.90
  -3   1  11    5.90    0.80
  -3   1  11    8.20    1.00
   2  -1 -11    0.20    0.50
   2  -1 -11    0.40    0.80
   2  -1 -11    0.50    0.50
  -2   1  11    0.00    0.50
  -2   1  11    0.00    0.50
   1  -1 -11  235.18    6.50
   1  -1 -11  235.38    6.50
   1  -1 -11  233.48    6.50
   1  -1 -11  242.18    6.20
   1  -1 -11  245.58    6.50
  -1   1  11  236.38    6.40
  -1   1  11  240.48    6.70
   0  -1 -11   34.50    1.50
   0  -1 -11   33.60    1.30
   0   1  11   31.80    1.30
   0   1  11   32.80    1.50
  -1  -1 -11  113.49    3.40
  -1  -1 -11  113.59    3.20
   1   1  11  118.09    3.50
   1   1  11  115.19    3.20
   1   1  11  111.79    3.40
  -2  -1 -11  595.34   14.90
  -2  -1 -11  597.14   15.00
   2   1  11  573.24   14.90
   2   1  11  596.54   15.10
   2   1  11  590.54   15.30
  -3  -1 -11   16.30    1.30
  -3  -1 -11   16.30    1.30
   3   1  11   15.70    0.90
   3   1  11   15.30    0.90
   4  -2 -11   95.29    2.60
   3  -2 -11  166.38    4.60
   3  -2 -11  167.28    4.60
  -3   2  11  171.78    4.70
  -3   2  11  165.08    4.70
   2  -2 -11  264.77    7.10
   2  -2 -11  258.37    7.00
   2  -2 -11  261.47    7.00
  -2   2  11  269.17    7.20
  -2   2  11  263.97    7.00
   1  -2 -11  152.78    4.40
   1  -2 -11  152.08    4.10
   1  -2 -11  149.39    4.40
   1  -2 -11  153.18    4.40
  -1   2  11  150.28    4.70
  -1   2  11  151.78    4.40
  -1   2  11  152.48    4.20
  -1   2  11  153.38    4.40
   0  -2 -11    3.10    0.50
   0  -2 -11    2.00    0.60
   0   2  11    3.30    0.70
   0   2  11    2.90    0.50
   0   2  11    1.90    1.10
   0   2  11    2.50    0.60
  -1  -2 -11  587.54   15.90
  -1  -2 -11  635.74   15.90
   1   2  11  627.94   15.70
   1   2  11  635.34   15.90
   1   2  11  640.04   16.10
  -2  -2 -11  149.69    4.10
  -2  -2 -11  149.29    4.20
  -2  -2 -11  148.19    4.30
   2   2  11  150.28    4.20
  -3  -2 -11   20.00    1.30
   3   2  11   19.80    1.00
   3   2  11   20.30    1.40
   3  -3 -11    0.60    0.40
   3  -3 -11    1.00    0.40
  -3   3  11    1.80    0.70
  -3   3  11    2.50    0.60
   2  -3 -11   56.39    1.90
   2  -3 -11   54.59    1.90
   2  -3 -11   53.99    1.90
  -2   3  11   54.79    1.90
   1  -3 -11   20.60    1.00
   1  -3 -11   20.20    1.10
   1  -3 -11   19.00    1.90
   1  -3 -11   18.60    1.70
  -1   3  11   21.30    2.10
  -1   3  11   21.60    1.70
  -1   3  11   21.80    1.10
  -1   3  11   20.80    1.10
   0  -3 -11  120.09    3.60
   0  -3 -11  116.09    3.30
   0  -3 -11  119.09    3.50
   0   3  11  116.59    3.70
   0   3  11  119.79    3.30
   0   3  11  113.89    4.30
   0   3  11  116.29    3.40
  -1  -3 -11  559.84   14.10
  -1  -3 -11  557.74   14.10
  -1  -3 -11  572.34   14.00
   1   3  11  545.95   14.20
   1   3  11  525.75   14.30
   1   3  11  550.94   14.10
   1   3  11  556.64   13.90
  -2  -3 -11   11.90    0.90
  -2  -3 -11   11.80    1.20
   2   3  11   10.50    1.30
   2   3  11   11.60    0.90
  -3  -3 -11    2.00    0.70
   3   3  11    1.60    0.80
   3   3  11    1.70    0.40
   3  -4 -11   97.49    2.70
  -3   4  11   95.89    2.70
  -3   4  11   95.59    2.80
   2  -4 -11   84.69    2.60
   2  -4 -11   84.59    2.60
   2  -4 -11   81.49    2.60
  -2   4  11   83.79    2.50
   1  -4 -11    0.90    0.60
   1  -4 -11    1.60    0.60
   1  -4 -11    2.00    0.50
   1  -4 -11    0.00    1.00
  -1   4  11    1.30    0.40
   0  -4 -11  578.14   14.90
   0  -4 -11  577.44   15.00
   0  -4 -11  601.04   14.80
   0   4  11  602.14   14.90
   0   4  11  557.84   15.00
   0   4  11  603.54   14.80
  -1  -4 -11  116.29    3.50
  -1  -4 -11  115.39    3.20
   1   4  11  114.59    3.10
   1   4  11  114.59    3.30
   1   4  11  114.69    3.50
  -2  -4 -11   11.90    1.00
  -2  -4 -11   11.90    0.80
   2   4  11   11.70    0.80
   2   4  11   11.80    1.10
   2  -5 -11    5.00    0.60
   2  -5 -11    8.40    0.90
  -2   5  11    6.20    0.70
   1  -5 -11   61.99    2.00
   1  -5 -11   63.49    2.00
  -1   5  11   60.99    2.20
  -1   5  11   64.09    1.90
   0  -5 -11  313.57    8.00
   0  -5 -11  304.67    7.90
   0  -5 -11  308.67    8.00
   0   5  11  300.17    8.00
   0   5  11  312.37    7.90
  -1  -5 -11    6.40    0.80
  -1  -5 -11    4.40    0.60
   1   5  11    5.50    0.70
   1  -6 -11  356.86    9.10
  -1   6  11  365.56    9.00
  -1   6  11  347.87    9.10
   0  -6 -11   59.29    1.70
   0  -6 -11   54.59    1.80
   0   6  11   57.49    1.60
   0   6  11   55.09    1.90
   1   7 -12    0.70    0.40
   1   7 -12    0.40    0.40
  -1  -7  12    0.70    0.50
   0   7 -12    0.10    0.40
   0   7 -12   -0.60    0.60
   0  -7  12    0.80    0.60
   0  -7  12    0.00    0.40
  -1   7 -12  141.49    4.00
  -1   7 -12  156.28    4.10
   1  -7  12  151.88    4.00
   1  -7  12  149.99    4.00
  -2   7 -12    8.30    0.70
  -2   7 -12    7.60    0.70
   2  -7  12    7.60    0.60
   2  -7  12    7.10    0.60
   2   6 -12    0.30    0.30
  -2  -6  12    0.50    0.50
   1   6 -12  124.59    3.50
   1   6 -12  117.89    3.50
  -1  -6  12  130.39    3.60
   0   6 -12   17.90    1.00
   0   6 -12   17.90    1.30
   0  -6  12   17.50    1.00
   0  -6  12   16.50    1.20
  -1   6 -12    1.60    1.40
  -1   6 -12    2.10    0.40
  -1   6 -12    2.40    0.50
   1  -6  12    2.10    0.40
   1  -6  12    2.50    0.60
  -2   6 -12  444.96   11.20
  -2   6 -12  430.96   11.10
   2  -6  12  443.66   11.20
   2  -6  12  444.86   11.10
  -3   6 -12    9.40    0.80
  -3   6 -12    9.90    0.60
   3  -6  12   10.10    0.70
   3   5 -12   24.10    0.90
  -3  -5  12   23.60    1.00
   2   5 -12    0.00    0.40
  -2  -5  12   -0.60    0.70
  -2  -5  12    0.40    0.50
   1   5 -12    8.50    0.90
   1   5 -12    9.20    0.80
  -1  -5  12   10.70    1.30
  -1  -5  12    9.40    0.90
   0   5 -12  384.26    9.90
   0   5 -12  384.96   10.20
   0   5 -12  395.46   10.20
   0  -5  12  395.36   10.10
  -1   5 -12   16.80    0.80
  -1   5 -12   17.10    1.30
  -1   5 -12   16.70    1.00
   1  -5  12   17.00    1.10
   1  -5  12   16.10    0.90
  -2   5 -12  693.03   18.00
  -2   5 -12  719.73   17.90
  -2   5 -12  724.73   17.80
   2  -5  12  707.93   17.90
   2  -5  12  707.93   17.80
  -3   5 -12    1.30    0.60
  -3   5 -12    1.20    0.40
   3  -5  12    1.90    0.40
   3   4 -12    0.90    0.40
  -3  -4  12    0.50    0.40
   1   4 -12   17.20    1.10
   1   4 -12   17.80    1.60
   1   4 -12   17.40    1.00
  -1  -4  12   17.70    1.10
  -1  -4  12   16.50    1.20
   0   4 -12   45.20    2.00
   0   4 -12   45.50    2.20
   0   4 -12   47.90    1.80
   0  -4  12   47.90    1.70
  -1   4 -12  868.21   21.20
  -1   4 -12  832.12   21.00
  -1   4 -12  836.12   21.20
   1  -4  12  847.42   21.10
   1  -4  12  816.02   21.10
  -2   4 -12   18.00    1.10
  -2   4 -12   17.00    1.20
  -2   4 -12   16.10    0.90
   2  -4  12   15.50    1.00
   2  -4  12   16.40    0.90
  -3   4 -12   95.39    3.00
  -3   4 -12   95.79    3.20
  -3   4 -12  101.19    2.80
   3  -4  12  104.09    2.90
   3   3 -12    3.90    0.50
  -3  -3  12    4.70    0.70
  -3  -3  12    4.80    0.50
   2   3 -12   42.80    2.10
   2   3 -12   43.20    1.60
  -2  -3  12   44.30    1.80
  -2  -3  12   43.40    1.70
   1   3 -12  602.44   15.40
   1   3 -12  614.54   15.70
   1   3 -12  620.64   15.70
  -1  -3  12  631.04   15.80
  -1  -3  12  602.74   15.60
   0   3 -12   26.90    2.50
   0   3 -12   29.40    1.10
   0   3 -12   27.80    1.30
   0   3 -12   26.80    1.50
   0  -3  12   27.00    1.20
   0  -3  12   27.20    1.60
  -1   3 -12 1109.99   26.90
  -1   3 -12 1060.49   26.70
  -1   3 -12 1069.29   26.90
   1  -3  12 1056.99   26.80
   1  -3  12 1057.79   26.80
   1  -3  12 1080.09   26.80
  -2   3 -12    7.60    0.70
  -2   3 -12    7.70    0.90
  -2   3 -12    6.70    1.10
   2  -3  12    6.90    0.80
   2  -3  12    7.00    0.80
   2  -3  12    7.10    0.90
  -3   3 -12    1.60    0.80
  -3   3 -12    2.50    0.50
   3  -3  12    1.60    0.50
   3  -3  12    2.10    0.70
   4   2 -12    2.00    0.40
  -4  -2  12    1.70    0.40
   3   2 -12  107.49    3.10
  -3  -2  12  112.39    3.30
  -3  -2  12  108.29    3.00
   2   2 -12   25.90    1.30
   2   2 -12   27.80    1.70
   2   2 -12   25.00    1.40
  -2  -2  12   27.50    1.40
  -2  -2  12   25.60    1.40
   1   2 -12  143.19    4.10
   1   2 -12  146.59    4.20
   1   2 -12  146.29    3.90
  -1  -2  12  144.49    4.20
  -1  -2  12  140.09    4.90
   0   2 -12 1112.09   28.10
   0   2 -12 1171.58   28.40
   0   2 -12 1121.09   28.30
   0  -2  12 1108.59   28.20
   0  -2  12 1133.89   28.40
  -1   2 -12   10.90    1.10
  -1   2 -12    9.70    0.90
  -1   2 -12   10.00    0.70
   1  -2  12   10.50    1.20
   1  -2  12   10.30    0.90
  -2   2 -12  130.59    3.70
  -2   2 -12  129.49    3.50
   2  -2  12  124.19    3.60
   2  -2  12  128.59    3.70
   2  -2  12  126.59    4.10
  -3   2 -12   -0.10    0.50
  -3   2 -12   -0.50    0.80
   3  -2  12   -0.60    0.50
   3  -2  12   -0.10    0.40
   4  -2  12    1.20    0.30
   4  -2  12    0.30    0.60
   4   1 -12   12.00    0.70
  -4  -1  12   11.30    0.90
   3   1 -12   72.99    2.30
  -3  -1  12   75.19    2.20
  -3  -1  12   73.49    2.60
  -3  -1  12   75.09    2.50
   2   1 -12  595.04   14.80
   2   1 -12  550.74   15.00
   2   1 -12  578.84   14.80
  -2  -1  12  590.34   15.00
  -2  -1  12  588.44   14.80
   1   1 -12   31.80    1.60
   1   1 -12   33.30    1.30
   1   1 -12   33.00    1.70
  -1  -1  12   32.60    1.50
  -1  -1  12   31.90    2.30
  -1  -1  12   35.20    1.40
   0   1 -12 1133.19   28.50
   0   1 -12 1119.89   28.40
   0   1 -12 1183.68   28.60
   0  -1  12 1127.09   29.30
   0  -1  12 1136.89   28.50
   0  -1  12 1129.29   28.60
  -1   1 -12    9.70    0.90
  -1   1 -12    8.40    0.70
   1  -1  12    9.80    1.10
   1  -1  12   10.50    0.80
   1  -1  12   10.60    0.90
  -2   1 -12   19.30    1.10
  -2   1 -12   19.30    1.00
   2  -1  12   18.00    1.00
   2  -1  12   19.50    1.10
   2  -1  12   18.70    1.80
  -3   1 -12   76.59    2.40
  -3   1 -12   76.69    2.50
   3  -1  12   81.79    2.30
   3  -1  12   78.09    2.40
   4   0 -12   64.59    1.90
  -4   0  12   67.99    2.10
   3   0 -12   42.60    1.50
   3   0 -12   40.80    1.60
  -3   0  12   42.20    1.80
  -3   0  12   41.40    1.70
  -3   0  12   39.50    1.50
   2   0 -12  145.59    4.10
   2   0 -12  144.19    4.10
   2   0 -12  141.49    4.40
  -2   0  12  145.39    4.30
  -2   0  12  148.89    4.10
   1   0 -12 1047.30   26.20
   1   0 -12 1049.49   26.50
   1   0 -12 1058.39   26.50
   1   0 -12 1046.70   26.50
  -1   0  12 1065.59   26.60
   0   0 -12    0.40    0.50
   0   0 -12    0.40    0.40
   0   0  12    0.70    0.70
   0   0  12    0.30    0.50
   0   0  12   -0.70    0.40
  -1   0 -12   99.09    2.90
  -1   0 -12  101.79    3.00
   1   0  12   96.79    3.20
   1   0  12   99.09    3.00
   1   0  12   99.69    2.80
  -2   0 -12    1.80    0.70
  -2   0 -12    1.50    0.50
   2   0  12    1.60    0.50
   2   0  12    1.70    0.60
   2   0  12    2.20    1.20
  -3   0 -12    1.90    0.70
   3   0  12    0.60    0.40
   3   0  12    0.00    0.40
   4  -1 -12   67.79    1.90
  -4   1  12   65.69    2.40
   3  -1 -12  317.47    8.20
   3  -1 -12  312.27    8.30
  -3   1  12  320.37    8.40
  -3   1  12  320.77    8.30
   2  -1 -12   30.10    1.30
   2  -1 -12   29.40    1.40
   2  -1 -12   28.00    2.20
  -2   1  12   29.20    1.40
  -2   1  12   27.90    1.30
   1  -1 -12  799.52   20.20
   1  -1 -12  788.92   20.20
   1  -1 -12  813.22   19.90
   1  -1 -12  780.82   20.10
   1  -1 -12  783.32   20.20
  -1   1  12  805.42   20.30
  -1   1  12  802.12   20.10
   0  -1 -12   12.80    0.80
   0  -1 -12   12.00    1.10
   0   1  12   12.80    0.80
   0   1  12   13.30    1.20
  -1  -1 -12   53.19    1.80
  -1  -1 -12   54.29    1.90
   1   1  12   53.19    2.20
   1   1  12   51.29    1.70
   1   1  12   53.59    1.90
  -2  -1 -12   52.19    1.80
  -2  -1 -12   52.49    1.90
   2   1  12   53.49    1.80
   2   1  12   52.19    1.90
  -3  -1 -12    0.30    0.70
   3   1  12    1.20    0.40
   3  -2 -12   86.49    2.60
   3  -2 -12   88.69    2.60
  -3   2  12   84.69    2.60
  -3   2  12   88.49    2.70
   2  -2 -12  666.23   17.20
   2  -2 -12  678.63   17.10
  -2   2  12  667.73   17.10
  -2   2  12  690.53   17.30
   1  -2 -12    7.90    1.00
   1  -2 -12    7.00    1.30
   1  -2 -12    7.20    0.80
   1  -2 -12    7.10    0.80
  -1   2  12    5.90    1.00
  -1   2  12    7.40    0.80
   0  -2 -12   45.20    1.70
   0  -2 -12   46.10    1.60
   0  -2 -12   45.70    1.90
   0   2  12   47.10    1.60
   0   2  12   46.70    2.00
   0   2  12   46.40    1.70
  -1  -2 -12    7.10    0.90
  -1  -2 -12    7.90    0.80
  -1  -2 -12    7.10    1.00
   1   2  12    8.10    0.70
   1   2  12    7.00    0.80
   1   2  12    6.30    1.20
  -2  -2 -12   -0.50    0.70
  -2  -2 -12   -2.10    1.10
  -2  -2 -12    0.60    0.50
   2   2  12    0.30    0.40
  -3  -2 -12    4.40    0.80
   3   2  12    4.60    0.60
   3  -3 -12   21.60    1.00
  -3   3  12   19.60    1.10
   2  -3 -12  378.36    9.70
   2  -3 -12  375.46    9.70
   2  -3 -12  373.06    9.80
  -2   3  12  378.06    9.70
  -2   3  12  384.46    9.70
   1  -3 -12   16.00    1.70
   1  -3 -12   16.10    1.00
   1  -3 -12   17.10    1.00
  -1   3  12   15.60    0.90
  -1   3  12   16.60    1.40
   0  -3 -12   66.99    2.20
   0  -3 -12   70.49    2.50
   0  -3 -12   68.29    2.10
   0   3  12   68.89    2.20
   0   3  12   67.89    2.10
  -1  -3 -12   10.10    0.80
  -1  -3 -12    8.10    1.10
  -1  -3 -12   12.00    1.10
   1   3  12   11.80    0.90
   1   3  12   11.30    0.80
  -2  -3 -12    0.30    0.50
   2   3  12    0.00    0.40
   3  -4 -12  330.77    8.30
  -3   4  12  319.97    8.30
   2  -4 -12    7.60    0.70
   2  -4 -12    7.80    1.00
   2  -4 -12    6.20    0.80
  -2   4  12    7.90    0.70
   1  -4 -12   10.70    1.00
   1  -4 -12   10.40    0.80
   1  -4 -12    9.30    0.90
  -1   4  12   10.70    0.80
   0  -4 -12   14.80    0.90
   0  -4 -12   13.20    1.90
   0  -4 -12   14.60    1.00
   0   4  12   14.10    1.10
   0   4  12   14.70    0.80
  -1  -4 -12    1.00    0.50
   1   4  12    1.00    0.90
   1   4  12    1.60    0.50
  -2  -4 -12    0.40    0.70
  -2  -4 -12    1.30    0.40
   2   4  12    1.60    0.50
   2  -5 -12   11.30    1.00
   2  -5 -12   10.00    0.70
  -2   5  12   10.10    0.70
   1  -5 -12   56.09    1.70
  -1   5  12   52.29    1.70
   0  -5 -12    0.00    0.50
   0  -5 -12    0.60    0.50
   0   5  12   -0.40    0.90
   0   5  12    0.00    0.30
  -1  -5 -12    0.20    0.50
  -1  -5 -12    0.50    0.40
   1   5  12    3.60    1.00
   0   7 -13   31.30    1.50
   0   7 -13   29.50    1.10
   0  -7  13   29.60    1.10
  -1   7 -13    8.00    0.70
   1  -7  13    7.30    0.50
   1  -7  13    6.30    0.80
   2   6 -13    4.50    0.50
  -2  -6  13    3.50    0.70
   1   6 -13   28.60    1.20
   1   6 -13   28.90    1.30
  -1  -6  13   32.50    1.20
   0   6 -13    8.00    0.70
   0   6 -13    8.20    0.90
   0  -6  13    7.50    0.70
  -1   6 -13   41.00    1.50
  -1   6 -13   41.20    1.40
   1  -6  13   41.50    1.40
   1  -6  13   42.50    2.00
  -2   6 -13   15.90    0.80
  -2   6 -13   15.00    0.90
   2  -6  13   14.20    0.80
   2  -6  13   16.60    0.80
   2   5 -13    4.90    0.60
  -2  -5  13    6.00    0.70
  -2  -5  13    5.30    0.80
   1   5 -13   23.50    1.10
   1   5 -13   25.10    1.30
  -1  -5  13   25.50    1.10
   0   5 -13   38.90    1.70
   0   5 -13   39.30    1.40
   0   5 -13   41.30    2.00
  -1   5 -13   -0.20    0.90
  -1   5 -13    0.50    0.40
  -1   5 -13    0.80    0.50
   1  -5  13    1.00    0.60
   1  -5  13    1.00    0.40
  -2   5 -13    1.60    0.40
  -2   5 -13    1.50    0.60
   2  -5  13    1.40    0.50
  -3   5 -13   64.99    1.90
   3  -5  13   62.19    1.90
   3   4 -13    4.10    0.60
  -3  -4  13    4.00    0.60
   2   4 -13  104.79    3.00
  -2  -4  13  101.39    3.10
  -2  -4  13  102.59    3.00
   1   4 -13    2.30    0.90
   1   4 -13    2.40    0.50
  -1  -4  13    2.60    0.50
   0   4 -13   46.80    2.20
   0   4 -13   48.30    1.60
   0   4 -13   48.70    1.80
   0   4 -13   49.80    2.40
   0  -4  13   51.89    1.70
  -1   4 -13   38.90    1.50
  -1   4 -13   39.60    1.70
  -1   4 -13   38.90    1.30
   1  -4  13   34.30    1.80
   1  -4  13   38.20    1.40
  -2   4 -13    0.20    0.30
  -2   4 -13    1.00    0.70
  -2   4 -13    0.10    0.70
   2  -4  13    0.00    0.50
   2  -4  13    0.10    0.40
   3  -4  13   23.60    1.00
   3   3 -13    1.10    0.40
  -3  -3  13    1.50    0.40
   2   3 -13    8.80    0.90
  -2  -3  13   10.80    0.90
  -2  -3  13    8.20    0.90
   1   3 -13  113.99    3.40
   1   3 -13  115.69    3.40
   1   3 -13  110.49    3.70
  -1  -3  13  112.89    3.40
  -1  -3  13  111.79    3.30
   0   3 -13   27.10    1.30
   0   3 -13   26.90    1.10
   0   3 -13   24.90    1.60
   0  -3  13   22.30    2.40
   0  -3  13   27.30    1.20
  -1   3 -13   10.20    0.70
  -1   3 -13   10.30    1.00
  -1   3 -13   12.10    1.10
   1  -3  13   10.70    0.80
   1  -3  13   10.40    0.90
  -2   3 -13  128.89    3.70
  -2   3 -13  131.29    3.50
   2  -3  13  123.39    3.40
   2  -3  13  127.29    3.60
   2  -3  13  126.39    3.60
  -3   3 -13   10.00    0.80
   3  -3  13    9.80    0.70
   3  -3  13    8.80    1.00
   3   2 -13  160.08    4.20
  -3  -2  13  154.18    4.30
  -3  -2  13  147.89    4.30
   2   2 -13    0.90    0.50
   2   2 -13   -0.10    0.60
  -2  -2  13   -0.10    0.50
   1   2 -13   41.60    1.50
   1   2 -13   40.80    2.00
   1   2 -13   41.20    1.80
  -1  -2  13   43.60    1.70
  -1  -2  13   44.10    1.60
   0   2 -13   72.59    2.40
   0   2 -13   69.09    2.50
   0   2 -13   71.29    2.50
   0  -2  13   70.29    2.50
   0  -2  13   70.99    2.30
   0  -2  13   72.69    2.50
  -1   2 -13    1.60    0.40
  -1   2 -13    2.70    0.60
   1  -2  13    1.40    0.40
   1  -2  13    3.60    1.20
   1  -2  13    1.30    0.50
  -2   2 -13   56.69    1.70
  -2   2 -13   55.89    2.00
   2  -2  13   50.29    1.80
   2  -2  13   52.39    1.80
  -3   2 -13    5.70    0.60
   3  -2  13    5.30    0.70
   3  -2  13    5.50    0.70
   3   1 -13    1.90    0.40
  -3  -1  13    1.50    0.50
  -3  -1  13    2.00    0.80
   2   1 -13  198.18    5.50
   2   1 -13  202.38    5.50
  -2  -1  13  198.78    5.50
  -2  -1  13  204.28    5.60
   1   1 -13   94.49    2.70
   1   1 -13   93.89    3.00
   1   1 -13   93.09    3.20
  -1  -1  13   94.09    2.90
  -1  -1  13   98.09    3.00
   0   1 -13   30.50    1.50
   0  -1  13   31.80    1.50
   0  -1  13   32.20    1.30
   0  -1  13   31.60    1.60
  -1   1 -13  174.38    4.70
  -1   1 -13  179.38    4.90
   1  -1  13  165.58    5.00
   1  -1  13  175.08    4.60
   1  -1  13  172.88    4.80
  -2   1 -13   16.60    1.20
  -2   1 -13   16.70    0.90
   2  -1  13   14.60    0.90
   2  -1  13   16.00    1.10
  -3   1 -13   17.70    1.00
   3  -1  13   19.10    0.90
   3  -1  13   19.20    0.90
   3   0 -13    1.50    0.40
   3   0 -13    1.60    0.60
  -3   0  13    2.30    0.70
  -3   0  13    2.00    0.50
   2   0 -13   26.50    1.30
   2   0 -13   25.80    1.20
  -2   0  13   26.10    1.30
  -2   0  13   26.60    1.20
   1   0 -13   78.09    2.50
   1   0 -13   77.09    2.90
   1   0 -13   79.89    2.40
   1   0 -13   76.29    2.70
  -1   0  13   81.79    2.70
  -1   0  13   79.59    2.50
   0   0 -13    3.90    0.80
   0   0 -13    4.60    0.50
   0   0  13    4.20    0.90
   0   0  13    3.50    0.50
  -1   0 -13   60.19    1.90
  -1   0 -13   59.29    2.20
   1   0  13   59.49    2.00
   1   0  13   62.69    1.90
  -2   0 -13   31.40    1.20
  -2   0 -13   29.70    1.50
   2   0  13   30.70    1.30
   2   0  13   28.70    1.40
  -3   0 -13   26.70    1.20
   3   0  13   28.30    1.10
   3   0  13   28.20    1.10
   3  -1 -13  203.58    5.40
   3  -1 -13  211.58    5.40
  -3   1  13  204.68    5.50
  -3   1  13  202.68    5.50
   2  -1 -13  121.09    3.50
   2  -1 -13  113.29    3.60
  -2   1  13  121.39    3.40
   1  -1 -13   41.60    1.50
   1  -1 -13   40.80    1.60
   1  -1 -13   39.00    1.90
  -1   1  13   40.00    1.50
  -1   1  13   37.80    2.00
  -1   1  13   40.70    1.70
   0  -1 -13  108.69    3.10
   0  -1 -13  112.89    3.90
   0   1  13  108.09    3.10
   0   1  13  103.59    3.40
   0   1  13  106.59    3.20
  -1  -1 -13   32.30    1.30
  -1  -1 -13   33.20    1.50
   1   1  13   32.30    1.20
   1   1  13   32.20    1.30
  -2  -1 -13   35.80    1.60
  -2  -1 -13   37.00    1.30
   2   1  13   35.60    1.40
  -3  -1 -13   11.90    1.10
   3   1  13   10.80    0.70
   3  -2 -13    7.70    0.70
   3  -2 -13    6.60    0.70
  -3   2  13    6.70    0.70
   2  -2 -13   46.00    1.70
   2  -2 -13   45.00    1.60
   2  -2 -13   43.40    1.70
  -2   2  13   44.40    1.60
   1  -2 -13    7.40    0.80
   1  -2 -13    7.60    0.80
   1  -2 -13    7.70    1.10
  -1   2  13    6.60    0.70
   0  -2 -13   34.90    1.50
   0  -2 -13   36.60    1.30
   0  -2 -13   37.10    1.80
   0   2  13   36.40    1.30
   0   2  13   36.00    1.40
  -1  -2 -13   86.99    2.50
  -1  -2 -13   85.79    2.80
  -1  -2 -13   85.99    2.60
   1   2  13   82.89    2.40
   1   2  13   83.69    2.60
  -2  -2 -13   29.00    1.20
   2   2  13   33.10    1.20
   3  -3 -13  100.19    2.70
  -3   3  13   94.09    2.70
   2  -3 -13   39.60    1.50
   2  -3 -13   38.70    1.40
   2  -3 -13   37.80    1.50
  -2   3  13   37.20    1.40
  -2   3  13   35.40    1.40
   1  -3 -13   33.70    1.40
   1  -3 -13   37.10    1.40
   1  -3 -13   34.80    1.40
  -1   3  13   33.90    1.30
  -1   3  13   34.00    1.30
   0  -3 -13   65.49    2.00
   0  -3 -13   64.59    2.10
   0   3  13   65.19    2.00
   0   3  13   65.69    2.10
  -1  -3 -13   44.10    1.60
  -1  -3 -13   42.80    1.40
   1   3  13   40.70    1.50
  -2  -3 -13   11.90    0.80
   2   3  13   12.20    0.70
   2  -4 -13    9.90    0.80
   2  -4 -13   10.80    0.70
  -2   4  13   10.50    0.70
   1  -4 -13    9.80    0.80
   1  -4 -13    9.50    0.80
  -1   4  13    8.20    0.70
   0  -4 -13  123.99    3.50
   0  -4 -13  125.19    3.50
   0  -4 -13  123.29    3.40
   0   4  13  132.69    3.40
  -1  -4 -13   17.40    0.90
  -1  -4 -13   17.30    0.80
   1   4  13   16.10    1.00
   1   6 -14   23.50    1.10
   0   6 -14    2.70    1.00
   0   6 -14    2.40    0.50
   0  -6  14    1.80    0.40
  -1   6 -14    2.50    0.50
  -1   6 -14    3.20    0.50
   1  -6  14    2.30    0.40
   2   5 -14   66.29    2.00
  -2  -5  14   65.99    2.00
  -2  -5  14   63.09    2.00
   1   5 -14   29.80    1.40
   1   5 -14   33.40    1.30
  -1  -5  14   31.80    1.20
   0   5 -14    0.50    0.40
   0   5 -14    0.30    1.10
   0  -5  14   -0.70    0.30
  -1   5 -14   31.90    1.20
  -1   5 -14   33.20    1.30
   1  -5  14   31.40    1.20
  -2   5 -14   54.49    1.70
  -2   5 -14   51.49    1.60
   2  -5  14   46.50    1.60
   2   4 -14   26.40    1.10
  -2  -4  14   26.10    1.20
  -2  -4  14   27.70    1.20
   1   4 -14    0.80    0.60
   1   4 -14    1.60    0.50
   1   4 -14    1.30    0.80
  -1  -4  14    0.30    0.70
   0   4 -14    0.90    0.50
   0   4 -14    1.10    0.50
   0  -4  14    0.80    0.40
   0  -4  14    1.30    0.50
  -1   4 -14  243.28    6.10
  -1   4 -14  242.78    5.90
  -1   4 -14  227.78    6.30
   1  -4  14  195.28    5.90
  -2   4 -14   -0.20    0.30
   2  -4  14    0.60    0.50
   3   3 -14   76.09    2.10
  -3  -3  14   74.79    2.20
   2   3 -14   26.70    1.20
  -2  -3  14   27.30    1.20
  -2  -3  14   25.40    1.20
   1   3 -14    0.70    0.70
  -1  -3  14   -0.30    0.50
  -1  -3  14   -0.30    0.40
   0   3 -14  103.19    3.50
   0   3 -14  106.09    3.00
  -1   3 -14  122.99    3.80
  -1   3 -14  127.69    3.60
  -1   3 -14  123.19    3.40
   1  -3  14  125.79    3.50
  -2   3 -14   46.20    1.90
  -2   3 -14   48.70    1.60
   2  -3  14   47.90    1.60
   2  -3  14   49.50    1.70
  -3   3 -14   14.50    0.80
   3   2 -14   11.40    0.70
  -3  -2  14   10.90    0.80
  -3  -2  14   10.40    1.30
   2   2 -14   19.20    1.10
   2   2 -14   19.70    1.20
  -2  -2  14   19.40    1.00
  -2  -2  14   17.20    1.10
   1   2 -14   -0.50    0.70
   1   2 -14    1.50    0.70
  -1  -2  14    0.70    0.40
  -1  -2  14    0.20    0.60
   0   2 -14  464.05   11.70
   0   2 -14  463.25   12.00
   0  -2  14  441.76   11.90
   0  -2  14  471.25   11.80
  -1   2 -14    2.10    0.70
  -1   2 -14    1.90    0.40
   1  -2  14    2.60    0.50
   1  -2  14    2.00    0.40
  -2   2 -14   -0.20    0.40
  -2   2 -14    1.70    0.80
   2  -2  14    0.10    0.40
   2  -2  14    1.00    0.60
  -3   2 -14   50.89    1.60
   3  -2  14   45.80    1.70
   3  -2  14   53.89    1.60
   3   1 -14   17.70    0.90
  -3  -1  14   18.20    1.30
  -3  -1  14   17.70    0.90
   2   1 -14    4.20    0.60
   2   1 -14    5.60    0.80
  -2  -1  14    4.20    0.60
  -2  -1  14    3.50    0.50
   1   1 -14  192.18    5.50
   1   1 -14  183.88    5.20
   1   1 -14  187.28    5.00
  -1  -1  14  190.58    5.30
  -1  -1  14  192.88    5.10
   0   1 -14  147.59    4.10
   0   1 -14  151.78    4.50
   0  -1  14  153.28    4.20
   0  -1  14  156.68    5.10
  -1   1 -14  104.89    3.00
  -1   1 -14  106.69    3.20
   1  -1  14  103.39    3.30
   1  -1  14  103.79    3.10
  -2   1 -14   43.30    1.40
  -2   1 -14   41.20    1.80
   2  -1  14   42.40    1.50
  -3   1 -14   -0.30    0.60
   3  -1  14   -0.20    0.30
   3  -1  14    1.10    0.50
   3   0 -14   44.20    1.40
  -3   0  14   42.00    1.50
   2   0 -14    7.90    0.80
   2   0 -14    7.50    0.80
  -2   0  14    8.30    0.80
  -2   0  14    5.40    0.80
   1   0 -14  562.24   14.20
   1   0 -14  556.74   14.40
   1   0 -14  576.54   14.50
  -1   0  14  568.74   14.50
   0   0 -14    4.00    0.50
   0   0 -14    3.60    0.90
   0   0  14    5.10    0.60
   0   0  14    4.40    0.60
  -1   0 -14    0.70    0.40
  -1   0 -14    0.00    0.70
   1   0  14    0.40    0.40
  -2   0 -14  111.89    3.10
   2   0  14  108.09    3.10
   3  -1 -14   10.60    0.70
  -3   1  14    8.80    0.90
   2  -1 -14  205.28    5.50
   2  -1 -14  203.98    5.50
  -2   1  14  203.48    5.50
  -2   1  14  204.78    5.40
   1  -1 -14   90.29    2.60
   1  -1 -14   88.39    2.70
   1  -1 -14   85.69    3.00
  -1   1  14   88.49    2.60
   0  -1 -14  132.89    3.60
   0  -1 -14  130.59    3.90
   0  -1 -14  130.59    4.00
   0   1  14  135.09    3.90
   0   1  14  123.59    3.80
  -1  -1 -14   51.39    2.10
  -1  -1 -14   54.59    1.70
   1   1  14   54.49    1.60
   1   1  14   54.49    1.80
  -2  -1 -14    1.20    0.50
  -2  -1 -14    1.50    0.50
   2   1  14    1.20    0.40
   2  -2 -14  442.36   11.30
   2  -2 -14  451.65   11.20
   2  -2 -14  425.46   11.20
  -2   2  14  438.96   11.20
  -2   2  14  451.65   11.20
   1  -2 -14    3.00    0.50
   1  -2 -14    2.90    0.80
  -1   2  14    3.20    0.50
  -1   2  14    3.40    0.50
   0  -2 -14   -0.20    0.40
   0  -2 -14   -0.90    0.40
   0  -2 -14    1.60    1.50
   0   2  14   -0.20    0.40
   0   2  14   -0.20    0.40
  -1  -2 -14  122.29    3.30
  -1  -2 -14  121.89    3.40
   1   2  14  120.69    3.40
  -2  -2 -14    0.80    0.40
   2   2  14    0.90    0.40
   2  -3 -14   26.70    1.00
   2  -3 -14   26.10    1.20
  -2   3  14   27.40    1.00
   1  -3 -14   97.09    2.80
   1  -3 -14   98.39    2.80
  -1   3  14   98.39    2.80
  -1   3  14  100.49    2.70
   0  -3 -14   34.90    1.30
   0  -3 -14   34.50    1.30
   0   3  14   33.80    1.20
   0   3  14   34.40    1.20
  -1  -3 -14    1.70    0.40
   1   3  14    0.80    0.40
   1   5 -15   22.70    1.20
  -1  -5  15   20.50    0.90
   0   5 -15    5.20    0.70
  -1   5 -15   11.10    0.80
  -1   5 -15   12.10    0.90
   1  -5  15   11.30    0.60
   2   4 -15    0.80    0.40
  -2  -4  15    0.80    0.40
   1   4 -15    2.70    0.70
  -1  -4  15    2.60    0.40
   0   4 -15   84.79    2.50
   0   4 -15   87.99    2.60
   0  -4  15   86.59    2.50
   0  -4  15   88.09    2.50
  -1   4 -15    6.20    0.60
  -1   4 -15    7.40    0.80
   1  -4  15    5.30    0.70
   1  -4  15    5.50    0.60
  -2   4 -15   17.80    0.80
   2   3 -15   32.10    1.30
  -2  -3  15   32.80    1.20
  -2  -3  15   33.20    1.30
   1   3 -15    9.20    1.10
   1   3 -15   11.20    0.90
  -1  -3  15   10.50    1.00
  -1  -3  15   10.50    0.80
   0   3 -15   16.40    0.90
   0  -3  15   14.90    0.80
   0  -3  15   14.30    0.90
  -1   3 -15   26.20    1.10
   1  -3  15   28.30    1.10
   1  -3  15   28.60    1.20
  -2   3 -15    2.60    0.40
   2  -3  15    2.20    0.50
   2   2 -15   -0.30    0.60
   2   2 -15    0.50    0.50
  -2  -2  15    0.70    0.40
  -2  -2  15    0.50    0.40
   1   2 -15   84.79    2.60
   1   2 -15   87.29    2.80
  -1  -2  15   87.69    2.70
  -1  -2  15   87.09    2.60
   0   2 -15    9.00    0.80
   0   2 -15   11.40    1.50
   0  -2  15    8.80    0.70
   0  -2  15    9.80    0.70
  -1   2 -15   54.19    1.70
  -1   2 -15   50.69    2.20
   1  -2  15   53.79    1.60
   1  -2  15   54.99    1.80
  -2   2 -15    0.40    0.40
   2  -2  15    0.70    0.40
   2   1 -15   13.50    1.00
   2   1 -15   14.80    0.90
  -2  -1  15   15.10    0.90
  -2  -1  15   14.90    0.80
   1   1 -15   10.10    0.80
   1   1 -15   10.20    1.40
  -1  -1  15    9.50    0.90
  -1  -1  15   10.60    0.70
   0   1 -15   27.60    1.10
   0   1 -15   24.40    2.10
   0  -1  15   28.00    1.10
   0  -1  15   27.20    1.10
  -1   1 -15   11.00    1.40
  -1   1 -15   13.00    0.80
   1  -1  15   13.80    0.70
   1  -1  15   13.10    0.80
  -2   1 -15    0.10    0.40
   2  -1  15    0.70    0.40
   2   0 -15   36.20    1.40
   2   0 -15   36.20    1.30
  -2   0  15   36.60    1.30
  -2   0  15   37.90    1.40
   1   0 -15   11.70    0.80
   1   0 -15   12.90    1.60
  -1   0  15   11.80    0.70
   0   0 -15   85.49    3.70
   0   0 -15   88.09    2.60
   0   0 -15   86.59    2.50
   0   0  15   85.89    2.60
   0   0  15   85.99    2.50
  -1   0 -15    1.10    0.40
   1   0  15    1.00    0.40
   1   0  15    0.40    0.40
  -2   0 -15    9.40    0.70
   2   0  15    8.70    0.60
   2  -1 -15    4.80    0.60
   2  -1 -15    4.20    0.60
  -2   1  15    4.10    0.50
   1  -1 -15   15.80    0.90
  -1   1  15   16.60    0.80
  -1   1  15   15.80    0.80
   0  -1 -15   22.90    1.10
   0  -1 -15   22.70    1.00
   0   1  15   22.80    1.00
   0   1  15   23.80    0.90
  -1  -1 -15    2.80    0.50
  -1  -1 -15    3.10    0.50
   1   1  15    2.90    0.50
   2   1  15   31.90    1.10
   2  -2 -15    9.40    1.00
   2  -2 -15   10.00    0.60
  -2   2  15   11.00    0.70
  -2   2  15   10.10    0.60
   1  -2 -15   74.09    2.20
   1  -2 -15   73.49    2.20
  -1   2  15   75.79    2.10
  -1   2  15   71.19    2.10
   0  -2 -15    2.10    0.40
   0  -2 -15    2.70    0.70
   0   2  15    1.50    0.40
   0   2  15    2.10    0.40
  -1  -2 -15    9.30    0.70
   1   2  15    9.50    0.60
   1   4 -16    2.90    0.70
  -1  -4  16    2.00    0.30
  -1  -4  16    3.30    0.40
   0  -4  16  203.28    5.40
   0  -4  16  213.88    5.40
  -1   4 -16   29.00    1.10
   1  -4  16   29.00    1.00
   1   3 -16    3.20    0.50
   1   3 -16    4.50    1.10
  -1  -3  16    3.40    0.40
  -1  -3  16    2.20    0.30
   0   3 -16   28.30    1.20
   0  -3  16   27.40    1.00
   0  -3  16   29.20    1.10
  -1   3 -16    1.70    0.70
   1  -3  16    1.90    0.40
   1  -3  16    2.00    0.40
  -2  -2  16    1.90    0.40
  -2  -2  16    1.70    0.30
   1   2 -16  127.29    4.80
   1   2 -16  145.79    3.80
  -1  -2  16  140.59    3.70
   0   2 -16   58.39    1.80
   0  -2  16   58.99    1.80
   0  -2  16   59.49    1.80
  -1   2 -16   26.30    1.00
   1  -2  16   26.70    1.00
   1  -2  16   26.90    1.00
   2   1 -16    4.40    0.50
  -2  -1  16    4.90    0.50
   1   1 -16    5.20    0.60
  -1  -1  16    4.50    0.50
  -1  -1  16    5.40    0.50
   0   1 -16    1.40    0.50
   0   1 -16    1.50    0.40
   0  -1  16    1.60    0.30
   0  -1  16    2.60    0.40
  -1   1 -16    6.50    0.60
   1  -1  16    6.40    0.60
   1   0 -16   70.49    2.10
  -1   0  16   71.69    2.10
  -1   0  16   71.09    2.10
   0   0 -16    7.50    0.70
   0   0  16    9.20    0.60
   0   0  16    9.40    0.60
  -1   0 -16    5.10    0.60
  -1   0 -16    6.30    0.60
   1   0  16    5.50    0.50
   1  -1 -16   -0.20    0.50
   1  -1 -16   -0.30    0.30
  -1   1  16    0.20    0.30
  -1   1  16    0.10    0.30
   0  -1 -16    3.50    0.60
   0  -1 -16    3.10    0.40
   0   1  16    3.20    0.40
   0   1  16    3.90    0.50
   0   2 -17   -0.10    0.30
   0  -2  17   -0.20    0.30
   0  -2  17   -0.10    0.30
   0   1 -17    1.90    0.30
   0  -1  17    2.20    0.30
   0  -1  17    2.50    0.30
   0   0   0    0.00    0.00

_computing_structure_solution     'SHELXT 2014/5 (Sheldrick, 2014)'
;
_shelx_hkl_checksum              17251
loop_
_space_group_symop_operation_xyz
'x, y, z'
'-x, -y, -z'
loop_
_atom_site_label
_atom_site_type_symbol
_atom_site_fract_x
_atom_site_fract_y
_atom_site_fract_z
_atom_site_U_iso_or_equiv
_atom_site_adp_type
_atom_site_occupancy
_atom_site_site_symmetry_order
_atom_site_calc_flag
_atom_site_refinement_flags_posn
_atom_site_refinement_flags_adp
F1 F 1.41763(17) 0.96878(11) 0.89820(5) 0.0435(2) Uani 1 1 d . .
O1 O -0.13791(18) 0.20679(11) 0.48296(6) 0.0345(2) Uani 1 1 d . .
N1 N 0.1063(2) 0.29928(12) 0.62306(7) 0.0252(2) Uani 1 1 d . .
C1 C -0.1101(2) 0.19688(15) 0.56795(8) 0.0274(3) Uani 1 1 d . .
N2 N 0.4971(2) 0.47990(12) 0.83703(7) 0.0260(2) Uani 1 1 d . .
C2 C -0.2875(3) 0.09016(15) 0.61936(9) 0.0298(3) Uani 1 1 d . .
H2 H -0.4385 0.0137 0.5866 0.036 Uiso 1 1 calc R U
C3 C -0.2438(3) 0.09631(15) 0.71409(9) 0.0308(3) Uani 1 1 d . .
H3 H -0.3663 0.0246 0.7457 0.037 Uiso 1 1 calc R U
C4 C -0.0221(3) 0.20602(15) 0.76638(9) 0.0290(3) Uani 1 1 d . .
H4 H 0.0061 0.2095 0.8324 0.035 Uiso 1 1 calc R U
C5 C 0.1499(2) 0.30665(15) 0.71894(8) 0.0255(3) Uani 1 1 d . .
C6 C 0.3919(2) 0.43466(14) 0.74964(8) 0.0247(3) Uani 1 1 d . .
C7 C 0.4906(2) 0.50173(14) 0.66955(8) 0.0251(3) Uani 1 1 d . .
C8 C 0.3096(2) 0.41827(15) 0.58391(8) 0.0270(3) Uani 1 1 d . .
H8A H 0.2155 0.5023 0.5569 0.032 Uiso 1 1 calc R U
H8B H 0.4197 0.3573 0.5346 0.032 Uiso 1 1 calc R U
C9 C 0.7177(2) 0.62383(15) 0.68042(8) 0.0264(3) Uani 1 1 d . .
H9 H 0.7893 0.6715 0.6283 0.032 Uiso 1 1 calc R U
C10 C 0.8431(2) 0.67707(15) 0.77266(8) 0.0254(3) Uani 1 1 d . .
C11 C 0.7250(2) 0.60286(15) 0.84926(8) 0.0257(3) Uani 1 1 d . .
C12 C 0.8495(3) 0.65777(16) 0.94149(9) 0.0314(3) Uani 1 1 d . .
H12 H 0.7726 0.6101 0.9929 0.038 Uiso 1 1 calc R U
C13 C 1.0797(3) 0.77887(17) 0.95688(9) 0.0341(3) Uani 1 1 d . .
H13 H 1.1635 0.8153 1.0186 0.041 Uiso 1 1 calc R U
C14 C 1.1901(3) 0.84847(16) 0.88039(9) 0.0311(3) Uani 1 1 d . .
C15 C 1.0810(2) 0.80167(15) 0.79043(9) 0.0278(3) Uani 1 1 d . .
H15 H 1.1630 0.8517 0.7405 0.033 Uiso 1 1 calc R U
loop_
_atom_site_aniso_label
_atom_site_aniso_U_11
_atom_site_aniso_U_22
_atom_site_aniso_U_33
_atom_site_aniso_U_23
_atom_site_aniso_U_13
_atom_site_aniso_U_12
F1 0.0405(5) 0.0491(5) 0.0336(4) 0.0049(3) -0.0038(3) -0.0177(3)
O1 0.0351(5) 0.0409(5) 0.0256(5) 0.0069(4) -0.0033(4) -0.0034(4)
N1 0.0253(5) 0.0267(5) 0.0233(5) 0.0052(4) 0.0014(4) 0.0008(4)
C1 0.0270(6) 0.0277(6) 0.0270(6) 0.0031(5) 0.0005(5) 0.0039(5)
N2 0.0278(5) 0.0262(5) 0.0235(5) 0.0052(4) 0.0015(4) 0.0017(4)
C2 0.0270(6) 0.0280(6) 0.0327(6) 0.0038(5) 0.0002(5) -0.0001(5)
C3 0.0309(6) 0.0283(6) 0.0334(7) 0.0081(5) 0.0053(5) 0.0004(5)
C4 0.0316(6) 0.0294(6) 0.0258(6) 0.0064(5) 0.0029(5) 0.0011(5)
C5 0.0272(6) 0.0253(6) 0.0242(6) 0.0037(5) 0.0019(5) 0.0055(5)
C6 0.0267(6) 0.0244(6) 0.0239(6) 0.0047(5) 0.0026(5) 0.0052(5)
C7 0.0264(6) 0.0262(6) 0.0232(6) 0.0051(4) 0.0018(4) 0.0043(5)
C8 0.0261(6) 0.0303(6) 0.0239(6) 0.0067(5) 0.0001(5) -0.0013(5)
C9 0.0276(6) 0.0281(6) 0.0238(6) 0.0064(5) 0.0023(5) 0.0029(5)
C10 0.0267(6) 0.0246(6) 0.0255(6) 0.0047(5) 0.0027(5) 0.0051(5)
C11 0.0272(6) 0.0256(6) 0.0245(6) 0.0044(5) 0.0018(5) 0.0041(5)
C12 0.0347(7) 0.0349(7) 0.0238(6) 0.0061(5) 0.0019(5) 0.0005(5)
C13 0.0362(7) 0.0394(7) 0.0235(6) 0.0027(5) -0.0025(5) -0.0024(5)
C14 0.0283(6) 0.0303(6) 0.0321(6) 0.0027(5) 0.0000(5) -0.0025(5)
C15 0.0284(6) 0.0280(6) 0.0270(6) 0.0062(5) 0.0029(5) 0.0016(5)
loop_
_atom_type_symbol
_atom_type_description
_atom_type_scat_dispersion_real
_atom_type_scat_dispersion_imag
_atom_type_scat_source
C C 0.0181 0.0091 'International Tables Vol C Tables 4.2.6.8 and 6.1.1.4'
H H 0.0000 0.0000 'International Tables Vol C Tables 4.2.6.8 and 6.1.1.4'
F F 0.0727 0.0534 'International Tables Vol C Tables 4.2.6.8 and 6.1.1.4'
N N 0.0311 0.0180 'International Tables Vol C Tables 4.2.6.8 and 6.1.1.4'
O O 0.0492 0.0322 'International Tables Vol C Tables 4.2.6.8 and 6.1.1.4'
loop_
_geom_angle_atom_site_label_1
_geom_angle_atom_site_label_2
_geom_angle_atom_site_label_3
_geom_angle
C5 N1 C1 124.95(10)
C5 N1 C8 112.93(10)
C1 N1 C8 122.08(10)
O1 C1 N1 119.53(11)
O1 C1 C2 126.76(12)
N1 C1 C2 113.69(11)
C6 N2 C11 115.27(10)
C3 C2 C1 121.47(12)
C3 C2 H2 119.3
C1 C2 H2 119.3
C2 C3 C4 121.91(11)
C2 C3 H3 119.0
C4 C3 H3 119.0
C5 C4 C3 117.56(11)
C5 C4 H4 121.2
C3 C4 H4 121.2
C4 C5 N1 120.38(11)
C4 C5 C6 132.42(11)
N1 C5 C6 107.20(10)
N2 C6 C7 126.38(11)
N2 C6 C5 125.46(10)
C7 C6 C5 108.17(10)
C9 C7 C6 119.11(11)
C9 C7 C8 131.35(11)
C6 C7 C8 109.54(10)
N1 C8 C7 102.17(9)
N1 C8 H8A 111.3
C7 C8 H8A 111.3
N1 C8 H8B 111.3
C7 C8 H8B 111.3
H8A C8 H8B 109.2
C7 C9 C10 117.40(11)
C7 C9 H9 121.3
C10 C9 H9 121.3
C15 C10 C9 121.35(11)
C15 C10 C11 119.47(11)
C9 C10 C11 119.19(11)
N2 C11 C12 118.40(11)
N2 C11 C10 122.65(11)
C12 C11 C10 118.95(11)
C13 C12 C11 120.45(11)
C13 C12 H12 119.8
C11 C12 H12 119.8
C12 C13 C14 119.12(12)
C12 C13 H13 120.4
C14 C13 H13 120.4
F1 C14 C15 119.01(11)
F1 C14 C13 117.60(11)
C15 C14 C13 123.39(12)
C14 C15 C10 118.62(11)
C14 C15 H15 120.7
C10 C15 H15 120.7
loop_
_geom_bond_atom_site_label_1
_geom_bond_atom_site_label_2
_geom_bond_distance
F1 C14 1.3563(15)
O1 C1 1.2434(15)
N1 C5 1.3793(15)
N1 C1 1.3854(16)
N1 C8 1.4702(15)
C1 C2 1.4390(17)
N2 C6 1.3179(16)
N2 C11 1.3687(16)
C2 C3 1.3646(18)
C2 H2 0.9500
C3 C4 1.4095(18)
C3 H3 0.9500
C4 C5 1.3596(17)
C4 H4 0.9500
C5 C6 1.4614(17)
C6 C7 1.4180(16)
C7 C9 1.3621(17)
C7 C8 1.5005(16)
C8 H8A 0.9900
C8 H8B 0.9900
C9 C10 1.4186(17)
C9 H9 0.9500
C10 C15 1.4122(17)
C10 C11 1.4336(17)
C11 C12 1.4183(17)
C12 C13 1.3678(18)
C12 H12 0.9500
C13 C14 1.4010(19)
C13 H13 0.9500
C14 C15 1.3581(18)
C15 H15 0.9500
