#------------------------------------------------------------------------------
#$Date: 2019-11-11 15:29:14 +0200 (Mon, 11 Nov 2019) $
#$Revision: 226382 $
#$URL: file:///home/coder/svn-repositories/cod/cif/4/03/48/4034862.cif $
#------------------------------------------------------------------------------
#
# This file is available in the Crystallography Open Database (COD),
# http://www.crystallography.net/
#
# All data on this site have been placed in the public domain by the
# contributors.
#
data_4034862
loop_
_publ_author_name
'Sharp, Phillip P.'
'Mikusek, Jiri'
'Ho, Junming'
'Krenske, Elizabeth H.'
'Banwell, Martin G.'
'Coote, Michelle L.'
'Ward, Jas S.'
'Willis, Anthony C.'
_publ_section_title
;
 Mechanistic Studies on the Base-Promoted Conversion of
 Alkoxy-Substituted, Ring-Fused gem-Dihalocyclopropanes into Furans:
 Evidence for a Process Involving Electrocyclic Ring Closure of a Carbonyl
 Ylide Intermediate.
;
_journal_issue                   22
_journal_name_full               'The Journal of organic chemistry'
_journal_page_first              13678
_journal_page_last               13690
_journal_paper_doi               10.1021/acs.joc.8b01766
_journal_volume                  83
_journal_year                    2018
_chemical_formula_moiety         'C10 H13 Cl3 O'
_chemical_formula_sum            'C10 H13 Cl3 O'
_chemical_formula_weight         255.55
_space_group_crystal_system      triclinic
_space_group_IT_number           2
_space_group_name_Hall           '-P 1'
_space_group_name_H-M_alt        'P -1'
_atom_sites_solution_hydrogens   geom
_atom_sites_solution_primary     dual
_audit_creation_date             2018-05-23
_audit_creation_method
;
Olex2 1.2
(compiled 2018.05.18 svn.r3508 for OlexSys, GUI svn.r5497)
;
_cell_angle_alpha                81.507(7)
_cell_angle_beta                 85.452(7)
_cell_angle_gamma                80.354(7)
_cell_formula_units_Z            2
_cell_length_a                   7.3031(6)
_cell_length_b                   8.9170(7)
_cell_length_c                   9.1413(8)
_cell_measurement_reflns_used    1570
_cell_measurement_temperature    150.01(10)
_cell_measurement_theta_max      28.7650
_cell_measurement_theta_min      4.2760
_cell_volume                     579.54(8)
_computing_cell_refinement       'CrysAlisPro 1.171.39.46 (Rigaku OD, 2018)'
_computing_data_collection       'CrysAlisPro 1.171.39.46 (Rigaku OD, 2018)'
_computing_data_reduction        'CrysAlisPro 1.171.39.46 (Rigaku OD, 2018)'
_computing_molecular_graphics    'Olex2 (Dolomanov et al., 2009)'
_computing_publication_material  'Olex2 (Dolomanov et al., 2009)'
_computing_structure_refinement  'ShelXL (Sheldrick, 2015)'
_computing_structure_solution    'ShelXT (Sheldrick, 2015)'
_diffrn_ambient_environment      N~2~
_diffrn_ambient_temperature      150.01(10)
_diffrn_detector                 'CCD plate'
_diffrn_detector_area_resol_mean 10.3744
_diffrn_detector_type            Atlas
_diffrn_measured_fraction_theta_full 0.998
_diffrn_measured_fraction_theta_max 0.798
_diffrn_measurement_details
;
List of Runs (angles in degrees, time in seconds):

  # Type    Start    End  Width  t~exp~   \w     \q     \k     \f   Frames
--------------------------------------------------------------------------
  1  \w    -72.00   9.00   1.00    7.00    --  -11.22 -77.00  30.00   81
  2  \w    -54.00  35.00   1.00    7.00    --   11.38 -57.00 150.00   89
  3  \w    -16.00  84.00   1.00    7.00    --   11.38  57.00 -60.00  100
;
_diffrn_measurement_device       'four-circle diffractometer'
_diffrn_measurement_device_type  'New Xcalibur, Atlas'
_diffrn_measurement_method       '\w scans'
_diffrn_orient_matrix_type
'CrysAlisPro convention (1999,Acta A55,543-557)'
_diffrn_orient_matrix_UB_11      0.0282550000
_diffrn_orient_matrix_UB_12      0.0211973000
_diffrn_orient_matrix_UB_13      -0.0752041000
_diffrn_orient_matrix_UB_21      0.0893338000
_diffrn_orient_matrix_UB_22      0.0062227000
_diffrn_orient_matrix_UB_23      0.0215152000
_diffrn_orient_matrix_UB_31      0.0309354000
_diffrn_orient_matrix_UB_32      -0.0783978000
_diffrn_orient_matrix_UB_33      -0.0074614000
_diffrn_radiation_monochromator  graphite
_diffrn_radiation_probe          x-ray
_diffrn_radiation_type           MoK\a
_diffrn_radiation_wavelength     0.71073
_diffrn_reflns_av_R_equivalents  0.0250
_diffrn_reflns_av_unetI/netI     0.0541
_diffrn_reflns_Laue_measured_fraction_full 0.998
_diffrn_reflns_Laue_measured_fraction_max 0.798
_diffrn_reflns_limit_h_max       9
_diffrn_reflns_limit_h_min       -10
_diffrn_reflns_limit_k_max       12
_diffrn_reflns_limit_k_min       -11
_diffrn_reflns_limit_l_max       12
_diffrn_reflns_limit_l_min       -8
_diffrn_reflns_number            4583
_diffrn_reflns_point_group_measured_fraction_full 0.998
_diffrn_reflns_point_group_measured_fraction_max 0.798
_diffrn_reflns_theta_full        25.242
_diffrn_reflns_theta_max         30.073
_diffrn_reflns_theta_min         3.378
_diffrn_source                   'fine-focus sealed X-ray tube'
_diffrn_source_type              'Enhance (Mo) X-ray Source'
_exptl_absorpt_coefficient_mu    0.756
_exptl_absorpt_correction_T_max  1.00000
_exptl_absorpt_correction_T_min  0.97316
_exptl_absorpt_correction_type   multi-scan
_exptl_absorpt_process_details
;
CrysAlisPro 1.171.39.46 (Rigaku Oxford Diffraction, 2018)
Empirical absorption correction using spherical harmonics,
 implemented in SCALE3 ABSPACK scaling algorithm.
;
_exptl_crystal_colour            colourless
_exptl_crystal_colour_primary    colourless
_exptl_crystal_density_diffrn    1.464
_exptl_crystal_description       plate
_exptl_crystal_F_000             264
_exptl_crystal_size_max          0.439
_exptl_crystal_size_mid          0.355
_exptl_crystal_size_min          0.051
_refine_diff_density_max         0.374
_refine_diff_density_min         -0.313
_refine_diff_density_rms         0.072
_refine_ls_extinction_method     none
_refine_ls_goodness_of_fit_ref   1.058
_refine_ls_hydrogen_treatment    constr
_refine_ls_matrix_type           full
_refine_ls_number_parameters     128
_refine_ls_number_reflns         2712
_refine_ls_number_restraints     0
_refine_ls_restrained_S_all      1.058
_refine_ls_R_factor_all          0.0602
_refine_ls_R_factor_gt           0.0412
_refine_ls_shift/su_max          0.000
_refine_ls_shift/su_mean         0.000
_refine_ls_structure_factor_coef Fsqd
_refine_ls_weighting_details
'w=1/[\s^2^(Fo^2^)+(0.0282P)^2^+0.2252P] where P=(Fo^2^+2Fc^2^)/3'
_refine_ls_weighting_scheme      calc
_refine_ls_wR_factor_gt          0.0774
_refine_ls_wR_factor_ref         0.0913
_reflns_Friedel_coverage         0.000
_reflns_number_gt                2141
_reflns_number_total             2712
_reflns_threshold_expression     'I > 2\s(I)'
_cod_data_source_file            jo8b01766_si_002.cif
_cod_data_source_block           JM-PSF-09_scale
_cod_database_code               4034862
_shelxl_version_number           2014/6
_shelx_space_group_comment
;
The symmetry employed for this shelxl refinement is uniquely defined
by the following loop, which should always be used as a source of
symmetry information in preference to the above space-group names.
They are only intended as comments.
;
_reflns_odcompleteness_completeness 99.83
_reflns_odcompleteness_iscentric 1
_reflns_odcompleteness_theta     26.32
_olex2_refinement_description
;
1. Fixed Uiso
 At 1.2 times of:
  All C(H) groups, All C(H,H) groups
 At 1.5 times of:
  All C(H,H,H) groups
2.a Ternary CH refined with riding coordinates:
 C6(H6)
2.b Secondary CH2 refined with riding coordinates:
 C3(H3A,H3B), C4(H4A,H4B), C5(H5A,H5B), C9(H9A,H9B)
2.c Aromatic/amide H refined with riding coordinates:
 C11(H11)
2.d Idealised Me refined as rotating group:
 C10(H10A,H10B,H10C)
;
_shelx_res_file
;
TITL jm-psf-09_scale_a.res in P-1
REM Old TITL JM-PSF-09_scale in P-1
REM SHELXT solution in P-1
REM R1 0.129, Rweak 0.006, Alpha 0.021, Orientation as input
REM Formula found by SHELXT: C10 O Cl3
CELL 0.71073 7.3031 8.917 9.1413 81.507 85.452 80.354
ZERR 2 0.0006 0.0007 0.0008 0.007 0.007 0.007
LATT 1
SFAC C H Cl O
UNIT 20 26 6 2

L.S. 4 0 0
PLAN  20
BOND $H
list 4
fmap 2 53
ACTA
REM <olex2.extras>
REM <HklSrc "%.\\JM-PSF-09_scale.hkl">
REM </olex2.extras>

WGHT    0.028200    0.225200
FVAR       1.02130
C1    1    0.612119    0.271446    0.352076    11.00000    0.01957    0.01738 =
         0.01713   -0.00410   -0.00079   -0.00300
C2    1    0.740722    0.370373    0.264619    11.00000    0.01814    0.01828 =
         0.01785   -0.00178   -0.00217   -0.00237
C3    1    0.853240    0.312892    0.132952    11.00000    0.02291    0.02467 =
         0.02023   -0.00497    0.00368   -0.00602
AFIX  23
H3A   2    0.968466    0.355092    0.119485    11.00000   -1.20000
H3B   2    0.784388    0.348893    0.044670    11.00000   -1.20000
AFIX   0
C4    1    0.897853    0.138363    0.151453    11.00000    0.02780    0.02430 =
         0.02644   -0.01029    0.00117    0.00107
AFIX  23
H4A   2    0.971334    0.106613    0.064980    11.00000   -1.20000
H4B   2    0.971537    0.102453    0.237156    11.00000   -1.20000
AFIX   0
C5    1    0.722137    0.065317    0.171084    11.00000    0.03692    0.01889 =
         0.02477   -0.00781   -0.00190   -0.00364
AFIX  23
H5A   2    0.654064    0.093299    0.081618    11.00000   -1.20000
H5B   2    0.755630   -0.045578    0.186965    11.00000   -1.20000
AFIX   0
C6    1    0.598894    0.117433    0.301641    11.00000    0.02651    0.01789 =
         0.01848   -0.00138   -0.00146   -0.00623
AFIX  13
H6    2    0.579257    0.035131    0.382204    11.00000   -1.20000
AFIX   0
C7    1    0.439553    0.247299    0.283209    11.00000    0.02330    0.02293 =
         0.01638   -0.00056   -0.00111   -0.00593
O8    4    0.584780    0.281146    0.502811    11.00000    0.02260    0.02744 =
         0.01523   -0.00515   -0.00042   -0.00410
C9    1    0.742948    0.211869    0.586184    11.00000    0.02560    0.02993 =
         0.02156   -0.00383   -0.00492   -0.00301
AFIX  23
H9A   2    0.845001    0.269325    0.558909    11.00000   -1.20000
H9B   2    0.783563    0.107331    0.565910    11.00000   -1.20000
AFIX   0
C10   1    0.686186    0.212765    0.747198    11.00000    0.03645    0.04592 =
         0.01965   -0.00022   -0.00372   -0.01119
AFIX 137
H10A  2    0.650810    0.316844    0.766799    11.00000   -1.50000
H10B  2    0.788651    0.163674    0.805645    11.00000   -1.50000
H10C  2    0.582719    0.158351    0.772337    11.00000   -1.50000
AFIX   0
C11   1    0.751996    0.500527    0.313104    11.00000    0.02313    0.02116 =
         0.02186   -0.00291    0.00251   -0.00612
AFIX  43
H11   2    0.678255    0.526334    0.396178    11.00000   -1.20000
AFIX   0
CL12  3    0.898455    0.625080    0.228321    11.00000    0.03891    0.02424 =
         0.03641   -0.00568    0.00672   -0.01556
CL13  3    0.236946    0.237357    0.399609    11.00000    0.02274    0.03805 =
         0.02804   -0.00398    0.00220   -0.01107
CL14  3    0.385940    0.340758    0.106428    11.00000    0.02787    0.03659 =
         0.02199    0.00295   -0.00685   -0.00405
HKLF 4

REM  jm-psf-09_scale_a.res in P-1
REM R1 =  0.0412 for    2141 Fo > 4sig(Fo)  and  0.0602 for all    2712 data
REM    128 parameters refined using      0 restraints

END

WGHT      0.0282      0.2252

REM Highest difference peak  0.374,  deepest hole -0.313,  1-sigma level  0.072
Q1    1   0.7873  0.3456  0.1923  11.00000  0.05    0.37
Q2    1   0.6563  0.1761  0.3409  11.00000  0.05    0.32
Q3    1   0.2500  0.3577  0.1325  11.00000  0.05    0.31
Q4    1   0.5779  0.2962  0.7582  11.00000  0.05    0.31
Q5    1   0.8592  0.2319  0.1352  11.00000  0.05    0.31
Q6    1   0.3706  0.2449  0.3469  11.00000  0.05    0.31
Q7    1   0.0900  0.2643  0.3731  11.00000  0.05    0.28
Q8    1   0.7794  0.6190  0.2617  11.00000  0.05    0.28
Q9    1   0.5010  0.2714  0.0595  11.00000  0.05    0.28
Q10   1   0.8286  0.1612  0.5207  11.00000  0.05    0.27
Q11   1   0.6709  0.3144  0.2980  11.00000  0.05    0.27
Q12   1   0.5336  0.3246  0.0820  11.00000  0.05    0.27
Q13   1   0.6488  0.3999  0.7560  11.00000  0.05    0.26
Q14   1   0.4939  0.2973  0.3241  11.00000  0.05    0.26
Q15   1   0.9220  0.3596  0.0942  11.00000  0.05    0.26
Q16   1   0.4022  0.2955  0.2158  11.00000  0.05    0.26
Q17   1   0.2986  0.2804  0.4967  11.00000  0.05    0.25
Q18   1   0.7204  0.4418  0.0187  11.00000  0.05    0.25
Q19   1   0.9867  0.5723  0.1551  11.00000  0.05    0.25
Q20   1   0.6863  0.6831  0.4088  11.00000  0.05    0.25
;
_shelx_res_checksum              96255
_shelx_hkl_file
;
   0   0   2 2471.35   30.86
   0   0  -2 2345.82   30.02
   0   0  -2 2330.00   31.64
   0   0  -3  418.40   15.71
   0   0   3  406.17   15.97
   0   0  -3  395.35   16.08
   0   0  -4  143.93   11.27
   0   0  -4  138.73   10.62
   0   0   4  158.65   11.55
   0   0  -5   52.05    7.66
   0   0  -5   53.11    7.48
   0   0   5   47.42    7.32
   0   0  -6  534.20   25.29
   0   0  -6  561.32   26.78
   0   0   6  582.65   26.65
   0   0  -7   11.29    4.47
   0   0   7   11.89    5.11
   0   0   8  408.82   26.46
   0   0   9    0.67    3.92
   0   0  10  203.73   21.55
   0   0  11   88.96   15.41
   0   0  12   29.47    9.71
   0  -1  11  167.06   21.27
   0  -1  10   57.39   12.53
   0  -1   9  384.68   28.62
   0  -1   8    0.77    3.00
   0  -1   7   15.37    5.90
   0   1  -6   19.19    5.78
   0  -1   6   27.71    6.61
   0   1  -6   24.28    5.95
   0   1  -5  232.15   17.17
   0   1  -5  223.25   15.79
   0  -1   5  252.25   16.83
   0   1  -5  234.47   16.68
   0   1  -4  162.59   12.50
   0   1  -4  170.59   13.35
   0  -1   4  160.15   12.11
   0  -1   3 2760.14   43.73
   0   1  -3 2838.38   44.90
   0  -1   2  236.97   11.14
   0   1  -2  232.74   11.12
   0   1  -1 1500.89   21.98
   0   1   2   77.64    5.78
   0   1   2   85.31    5.60
   0  -1  -2   81.99    5.64
   0  -1  -2   73.68    5.06
   0  -1  -3 3008.26   40.42
   0  -1  -3 2996.03   39.11
   0   1   3 3103.16   42.07
   0   1   3 3098.76   39.89
   0  -1  -4  980.53   27.03
   0  -1  -4  982.05   26.19
   0   1   4  969.15   26.46
   0   1   4 1093.17   29.83
   0   1   4  980.19   27.18
   0  -1  -5 1711.42   41.07
   0   1   5 1839.31   40.99
   0  -1  -5 1790.27   40.41
   0  -1  -6  916.83   33.13
   0  -1  -6  881.83   31.32
   0   1   6  935.82   32.73
   0   1   7  494.86   26.05
   0  -1  -7  510.73   27.10
   0  -1  -7  476.50   25.37
   0   1   8  558.90   30.04
   0   1   9   50.54   10.00
   0   1  10    1.72    3.63
   0   1  11   69.17   13.65
   0   1  12   20.53    7.58
   0  -2  11   -6.65    4.68
   0  -2  10   68.42   13.28
   0  -2   9   38.45    9.67
   0  -2   8  186.43   19.70
   0  -2   7  120.12   14.64
   0  -2   6 1308.54   43.45
   0   2  -6 1384.23   47.61
   0   2  -6 1376.56   45.99
   0  -2   5   14.12    5.12
   0   2  -5   22.86    5.68
   0  -2   4   19.64    4.93
   0   2  -4   25.96    5.74
   0  -2   3  927.73   27.61
   0   2  -3  923.74   28.36
   0   2  -2  828.81   23.30
   0  -2   2  853.88   23.53
   0  -2   1 2404.96   33.87
   0   2  -1 2342.95   33.58
   0   2   0 6848.68   48.26
   0  -2   0 6869.48   47.83
   0   2   1  383.94   10.50
   0  -2  -1  361.83   10.55
   0   2   1  373.27   10.45
   0   2   2   12.51    2.75
   0  -2  -2   11.46    2.53
   0  -2  -2   11.68    2.54
   0   2   2    9.46    2.38
   0   2   3 1690.79   30.38
   0  -2  -3 1695.57   29.27
   0   2   3 1692.82   29.59
   0  -2  -3 1718.53   29.48
   0   2   4 1171.44   28.51
   0   2   4 1203.20   30.09
   0  -2  -4 1210.75   28.19
   0  -2  -4 1177.36   28.80
   0  -2  -5   64.46    7.80
   0  -2  -5   56.78    7.25
   0   2   5   63.22    7.89
   0   2   5   70.84    8.67
   0   2   6    7.01    4.02
   0  -2  -6    6.58    3.15
   0  -2  -6   12.16    3.79
   0   2   6    9.71    4.40
   0  -2  -7  228.66   17.19
   0  -2  -7  208.30   16.74
   0   2   7  230.52   17.48
   0   2   8  426.85   25.91
   0   2   9   46.58    9.72
   0   2  10   83.24   13.08
   0   2  11   80.68   14.16
   0   2  12   86.99   15.35
   0  -3  10   -4.55    5.43
   0  -3   9  186.78   21.44
   0  -3   8  243.68   23.15
   0  -3   7    5.58    4.80
   0  -3   6  590.98   30.95
   0   3  -5  263.59   19.80
   0  -3   5  252.32   18.72
   0  -3   4   50.81    8.20
   0   3  -4   74.04    9.73
   0   3  -3  975.35   31.62
   0  -3   3 1013.89   31.36
   0   3  -2  649.91   23.33
   0  -3   2  635.46   22.74
   0  -3   1  230.25   12.38
   0   3  -1  234.25   12.48
   0   3   0 1151.09   24.66
   0  -3   0 1158.58   24.34
   0   3   1 1897.89   29.11
   0   3   1 1892.14   28.94
   0   3   2  847.61   19.87
   0  -3  -2  871.44   20.27
   0   3   2  842.89   19.79
   0  -3  -3  517.42   16.96
   0   3   3  538.61   17.30
   0   3   3  541.31   17.74
   0  -3  -3  548.70   17.28
   0  -3  -4   64.57    6.90
   0   3   4   70.85    7.59
   0  -3  -4   62.89    6.89
   0   3   4   66.82    7.17
   0  -3  -5  175.22   12.44
   0   3   5  156.54   12.21
   0  -3  -5  168.80   11.96
   0   3   5  159.36   12.06
   0   3   6   68.85    9.41
   0   3   6   74.94    9.35
   0  -3  -6   76.87    8.93
   0  -3  -6   84.32    9.73
   0  -3  -7  733.10   30.71
   0   3   7  760.70   33.65
   0   3   7  689.92   30.76
   0  -3  -7  757.03   30.42
   0   3   7  782.87   31.78
   0   3   8  236.74   18.88
   0   3   9  170.81   17.63
   0   3  10   51.64   10.14
   0   3  11   78.21   13.48
   0   3  12   56.04   11.55
   0  -4  10   45.19   13.19
   0  -4   9  230.54   24.87
   0  -4   8   69.28   12.81
   0  -4   7   14.76    5.95
   0  -4   6    2.30    3.72
   0  -4   5   28.92    7.46
   0  -4   4   57.01    9.11
   0   4  -4   43.37    7.80
   0   4  -3 1040.24   35.15
   0  -4   3  977.15   33.25
   0  -4   2 2172.33   45.77
   0   4  -2 2166.37   46.93
   0  -4   1  445.10   19.14
   0   4  -1  480.50   20.37
   0  -4   0   38.56    5.58
   0   4   0   39.43    5.60
   0   4   1 5818.26   59.62
   0   4   1 5965.83   60.54
   0   4   2   58.09    6.02
   0  -4  -2   55.11    5.99
   0   4   2   50.41    5.56
   0   4   2   54.33    5.91
   0   4   3  187.56   11.15
   0  -4  -3  169.47   10.64
   0   4   3  170.97   10.73
   0  -4  -4  345.37   16.03
   0   4   4  392.00   17.82
   0  -4  -4  339.41   15.92
   0   4   4  375.72   17.09
   0   4   5  228.75   15.19
   0  -4  -5  229.77   14.30
   0  -4  -5  218.01   14.01
   0   4   5  218.82   14.34
   0   4   6  312.45   19.24
   0   4   6  301.78   18.50
   0  -4  -6  308.18   17.99
   0  -4  -6  319.74   18.64
   0  -4  -7  150.71   13.90
   0  -4  -7  139.54   13.29
   0   4   7  184.01   16.33
   0   4   7  163.76   14.89
   0   4   8    6.68    4.02
   0   4   8   -2.55    4.11
   0   4   8    4.84    3.76
   0   4   9  356.03   24.77
   0   4  10   15.81    6.35
   0   4  11   20.00    7.34
   0  -5   9    1.14    4.99
   0  -5   8  111.10   16.85
   0  -5   7   -5.79    4.93
   0  -5   6    4.59    5.38
   0  -5   5  700.12   34.93
   0  -5   4   13.97    5.23
   0   5  -3   74.19   10.37
   0  -5   3   70.43    9.87
   0   5  -2 1592.14   43.86
   0  -5   2 1554.33   41.90
   0   5  -1   11.70    4.07
   0  -5   1    9.08    3.92
   0   5   0   21.46    4.87
   0  -5   0   18.97    4.65
   0   5   1  175.46   12.14
   0   5   1  193.45   12.44
   0   5   2  309.97   15.04
   0   5   2  279.29   14.46
   0   5   2  279.84   14.65
   0  -5  -3  219.63   13.19
   0   5   3  210.42   12.61
   0   5   3  222.21   13.38
   0   5   3  231.16   13.57
   0   5   4  857.85   27.54
   0   5   4  818.31   26.57
   0  -5  -4  812.21   26.43
   0  -5  -5  394.80   19.38
   0  -5  -5  387.64   19.09
   0   5   5  413.51   20.71
   0   5   5  417.14   20.51
   0   5   6 2446.40   53.01
   0   5   6 2422.88   54.57
   0  -5  -6 2340.29   50.22
   0  -5  -6 2405.37   51.23
   0   5   7    7.93    4.38
   0  -5  -7   -1.81    1.93
   0  -5  -7    2.27    2.71
   0   5   7    1.75    2.50
   0   5   8    3.79    3.51
   0   5   8    7.02    4.53
   0   5   9    5.00    3.07
   0   5   9   13.57    5.27
   0   5  10   14.62    5.99
   0   5  11    3.14    3.46
   0  -6   8   37.05   11.08
   0  -6   7    3.30    5.09
   0  -6   6   26.36    9.52
   0  -6   5  491.84   31.12
   0  -6   4   13.00    5.95
   0  -6   3   34.02    8.14
   0  -6   2   12.10    5.10
   0   6  -2    7.34    3.65
   0   6  -1   70.07    9.66
   0  -6   1   55.55    8.68
   0   6   0    9.91    3.64
   0  -6   0   12.32    4.24
   0   6   0   13.68    4.93
   0   6   1 1802.22   41.85
   0   6   1 1872.07   43.80
   0   6   2    2.57    2.98
   0   6   2   11.68    3.73
   0   6   2    7.80    2.70
   0   6   3  653.55   24.64
   0   6   3  660.40   24.99
   0   6   3  673.50   24.92
   0   6   4   72.84    8.57
   0  -6  -4   76.89    8.90
   0   6   4   74.72    8.82
   0   6   4   78.27    8.63
   0   6   5  215.01   15.72
   0  -6  -5  235.77   16.08
   0   6   5  223.04   15.71
   0   6   6   32.45    6.85
   0   6   6   27.48    6.28
   0  -6  -6   16.32    4.53
   0   6   7    3.12    3.08
   0   6   7   -9.15    4.59
   0  -6  -7   -4.90    2.76
   0  -6  -7    9.83    4.05
   0   6   8   33.57    8.43
   0   6   8   27.82    7.08
   0   6   9  414.58   29.26
   0   6   9  376.58   26.33
   0   6  10   76.21   11.87
   0   6  10   91.51   15.25
   0  -7   7   14.31    7.48
   0  -7   6  222.78   23.45
   0  -7   5   23.57    8.28
   0  -7   4    2.07    4.25
   0  -7   3   12.74    5.42
   0  -7   2 1324.41   45.20
   0  -7   1   32.18    7.66
   0   7   0  600.71   27.47
   0   7   0  629.68   29.24
   0  -7   0  647.27   28.49
   0   7   1   23.40    6.15
   0   7   1   29.19    6.13
   0   7   2  107.62   10.85
   0   7   2  131.55   12.35
   0   7   2  102.94   11.01
   0   7   3    9.50    4.47
   0   7   3    9.88    3.45
   0   7   3   14.22    4.99
   0   7   4   13.33    4.30
   0   7   4   14.02    4.02
   0   7   4   18.08    5.70
   0   7   5   75.11    9.08
   0   7   5   91.51   10.80
   0  -7  -5   89.45   10.40
   0   7   5   81.79   10.24
   0  -7  -6  495.41   25.37
   0   7   6  490.27   24.06
   0   7   6  502.40   26.25
   0   7   6  493.11   26.30
   0   7   7    6.40    3.94
   0   7   7    5.27    4.01
   0   7   8  180.67   17.84
   0   7   8  188.20   17.88
   0   7   9  122.97   16.04
   0   7   9  122.13   15.47
   0   7  10  172.28   20.22
   0  -8   6   -8.26    5.75
   0  -8   5   13.15    6.70
   0  -8   4   23.37    8.05
   0  -8   3   12.44    6.68
   0  -8   2  469.57   29.09
   0   8  -1  210.44   18.52
   0  -8   1  205.96   18.53
   0  -8   0  552.53   28.53
   0   8   0  547.86   28.52
   0   8   1   17.45    5.82
   0   8   2   73.30    9.80
   0   8   2   84.36   10.95
   0   8   2   81.87   10.28
   0   8   3  279.94   18.77
   0   8   3  291.58   19.64
   0   8   3  287.47   19.46
   0   8   4  151.89   13.92
   0   8   4  142.80   13.85
   0   8   4  139.64   13.85
   0   8   5   24.85    6.29
   0   8   5   33.45    7.20
   0   8   5   30.72    6.36
   0   8   6  191.34   16.90
   0   8   6  175.98   16.44
   0   8   7   78.12   11.51
   0   8   7   68.67   10.78
   0   8   8   -1.00    3.42
   0   8   8    0.82    3.39
   0   8   9   26.19    7.58
   0   8   9   28.05    7.85
   0  -9   5   14.35    7.58
   0  -9   4   75.60   14.32
   0  -9   3  100.48   15.12
   0  -9   2   -6.05    4.10
   0   9  -2   -0.47    4.08
   0   9  -1   59.15   10.95
   0  -9   1   68.76   11.65
   0   9   0   -0.03    3.43
   0   9   1    4.58    4.14
   0   9   2  270.07   20.38
   0   9   2  269.34   19.74
   0   9   3   44.42    8.72
   0   9   3   40.29    8.07
   0   9   4  314.54   21.71
   0   9   4  332.32   22.15
   0   9   5   -0.86    2.58
   0   9   5   -1.94    3.35
   0   9   6   31.47    7.32
   0   9   6   16.21    5.40
   0   9   7  233.27   20.55
   0   9   7  233.66   19.91
   0 -10   4   24.97    7.99
   0  10  -3    0.75    4.62
   0 -10   3   11.39    5.99
   0  10  -2   13.69    6.30
   0 -10   2    9.49    6.77
   0  10  -1   44.67   10.12
   0  10   0   57.82   10.98
   0  10   1  168.28   17.69
   0  10   2   20.20    6.67
   0  10   2   32.42    7.57
   0  10   3   10.98    5.51
   0  10   3    5.64    3.79
   0  10   4  104.72   13.58
   0  10   4  112.35   13.98
   0  10   5   41.13    8.58
   0  10   5   25.07    7.23
   0  10   6   13.69    5.33
   0  10   6   12.26    5.44
   0 -11   2   51.36   11.64
   0  11  -2   46.87   11.35
   0  11  -1   89.05   14.62
   0  11   0   -0.64    2.41
   0  11   1  100.78   14.29
   0  11   1  104.51   14.82
   0  11   2   -2.97    3.78
   0  11   2   -8.25    3.92
   0  11   3    4.26    3.51
   0  11   3   17.48    6.28
   0  11   4   38.31    8.34
   0  12   0   11.60    6.01
   0  12   1   -4.09    4.19
  -1  12   2   15.93    6.38
  -1  12   1   89.72   14.86
  -1  11   4   98.51   14.82
  -1  11   3   28.03    7.76
  -1  11   2   17.60    6.00
  -1  11   1   -1.66    2.20
  -1  11   1    0.42    1.99
  -1  11   0   34.90    8.42
  -1  11  -1   51.44   11.01
   1 -11   2   64.14   12.67
  -1  11  -2   52.02   12.08
  -1  10   7   26.42    8.19
  -1  10   6   18.29    6.79
  -1  10   5    5.17    4.54
  -1  10   4   35.55    8.55
  -1  10   3   -9.53    4.37
  -1  10   3   10.96    5.27
  -1  10   2   29.89    6.99
  -1  10   2   30.66    7.79
  -1  10   1  104.03   14.56
  -1  10   1   83.45   11.92
  -1  10   0   31.97    8.60
  -1  10  -1   78.17   12.74
   1 -10   1   90.50   14.08
   1 -10   2    4.76    4.02
  -1  10  -2   -0.84    3.60
   1 -10   3   -8.21    5.17
   1 -10   4   72.05   14.60
  -1   9   8   -2.62    3.40
  -1   9   7  137.22   17.39
  -1   9   6   23.28    7.09
  -1   9   5  139.62   13.81
  -1   9   5  114.63   14.51
  -1   9   4   39.47    8.29
  -1   9   4   38.33    7.24
  -1   9   3    8.10    4.29
  -1   9   3   18.67    5.47
  -1   9   2   21.43    6.62
  -1   9   2   21.42    5.54
  -1   9   1  216.44   18.00
  -1   9   0   24.11    6.10
   1  -9   1  804.88   37.86
  -1   9  -1  849.15   38.61
   1  -9   2   51.12   10.47
   1  -9   3    3.44    4.12
   1  -9   4   12.70    7.38
   1  -9   5   -3.39    5.70
  -1   8  10   69.68   14.00
  -1   8   9   29.05    8.70
  -1   8   8   47.08   10.09
  -1   8   7   -4.05    3.78
  -1   8   7    5.21    4.80
  -1   8   6    8.44    5.62
  -1   8   6    8.93    3.63
  -1   8   5    9.79    4.79
  -1   8   5   21.91    5.29
  -1   8   4   21.51    5.41
  -1   8   4   18.34    4.92
  -1   8   4   12.52    5.01
  -1   8   3    6.37    2.76
  -1   8   3    7.60    3.75
  -1   8   2  369.66   23.28
  -1   8   2  364.58   21.44
  -1   8   2  367.98   20.77
  -1   8   1   28.87    7.02
  -1   8   1   28.13    6.22
  -1   8   0    6.81    3.65
   1  -8   0    9.12    4.40
   1  -8   1  181.65   17.18
   1  -8   2    5.57    4.76
   1  -8   3  151.75   17.52
   1  -8   4  341.02   27.31
   1  -8   5  177.74   20.76
   1  -8   6  134.92   19.42
  -1   7  11   25.95    8.79
  -1   7  10   42.12   10.73
  -1   7   9   -8.83    5.34
  -1   7   8   44.07   10.28
  -1   7   8   31.93    7.09
  -1   7   7  264.16   18.51
  -1   7   7  248.13   21.80
  -1   7   6   21.31    6.69
  -1   7   6   15.46    4.65
   1  -7  -6   20.64    4.88
  -1   7   6    5.28    2.49
  -1   7   5  313.41   18.12
  -1   7   5  338.83   22.46
  -1   7   5  336.20   17.40
  -1   7   4  107.30    9.93
  -1   7   4  104.65   10.21
  -1   7   4  118.60   12.68
  -1   7   3   32.65    5.86
  -1   7   3   29.77    6.26
  -1   7   3   40.06    6.42
  -1   7   2  205.29   14.13
  -1   7   2  181.11   15.42
  -1   7   2  211.94   14.81
  -1   7   1   61.86    8.08
  -1   7   1   52.79    8.03
   1  -7   0   96.04   10.94
  -1   7   0  110.07   12.04
  -1   7   0   96.13   10.77
  -1   7  -1  664.45   31.03
   1  -7   1  653.36   29.70
   1  -7   2    6.64    4.75
   1  -7   3   12.01    5.02
   1  -7   4   94.94   14.07
   1  -7   5  315.42   26.64
   1  -7   6   -7.22    5.80
   1  -7   7    6.46    4.95
  -1   6  11  119.02   18.29
  -1   6  10   11.30    5.97
  -1   6   9   15.53    6.59
  -1   6   8  159.89   18.11
  -1   6   8  158.81   14.99
  -1   6   8  168.80   14.51
   1  -6  -7   41.30    6.89
  -1   6   7   48.34    7.96
  -1   6   7   45.15    9.72
   1  -6  -6   65.97    8.24
  -1   6   6   80.18    9.46
  -1   6   6   72.37   10.76
  -1   6   5   14.17    3.98
  -1   6   5   20.74    4.05
  -1   6   5   15.97    5.22
   1  -6  -5   19.13    4.32
  -1   6   4    1.53    2.72
  -1   6   4    4.21    2.15
  -1   6   4   -0.70    2.70
  -1   6   3   89.79   10.31
  -1   6   3   87.04    8.31
  -1   6   3   90.24    8.69
  -1   6   2  663.57   23.49
  -1   6   2  675.99   23.05
  -1   6   2  707.80   27.71
  -1   6   1    6.18    2.39
  -1   6   1    7.05    3.31
  -1   6   0  214.58   15.27
   1  -6   0  253.85   15.96
  -1   6  -1  234.95   17.12
   1  -6   1  232.50   16.44
  -1   6  -2 1265.23   42.34
   1  -6   2 1248.24   40.67
   1  -6   3   19.15    6.76
   1  -6   4   34.01    8.70
   1  -6   5    3.71    4.63
   1  -6   6  111.55   16.16
   1  -6   7   -2.74    5.82
   1  -6   8  182.64   23.03
  -1   5  10   -8.75    6.11
  -1   5   9  115.48   13.06
  -1   5   9  115.88   16.28
   1  -5  -8  422.55   23.14
  -1   5   8  476.89   24.38
  -1   5   8  485.60   30.44
   1  -5  -7  204.78   15.00
  -1   5   7  210.60   18.87
  -1   5   7  197.04   15.54
   1  -5  -6   69.41    8.05
  -1   5   6   63.47   10.06
   1  -5  -6   62.26    9.23
  -1   5   6   52.70    7.40
  -1   5   5   95.61    9.11
   1  -5  -5  103.95   11.00
   1  -5  -5  106.69    9.31
  -1   5   5   97.72   11.43
  -1   5   4   16.09    3.25
   1  -5  -4   16.22    3.70
  -1   5   4   11.99    3.25
  -1   5   4    5.32    3.44
  -1   5   3  398.07   20.04
  -1   5   3  410.15   16.08
  -1   5   3  394.01   15.34
  -1   5   2  528.01   18.57
  -1   5   2  503.87   17.56
  -1   5   2  520.35   22.16
  -1   5   1  304.61   14.95
  -1   5   1  292.62   14.19
   1  -5  -1  282.79   14.06
   1  -5   0  254.69   14.48
  -1   5   0  249.82   14.78
   1  -5   1  430.55   20.46
  -1   5  -1  432.14   21.08
   1  -5   2  406.25   21.57
  -1   5  -2  388.36   21.81
   1  -5   3   -1.71    3.63
  -1   5  -3    9.89    4.05
   1  -5   4   15.94    6.16
   1  -5   5  404.07   26.91
   1  -5   6    0.17    4.52
   1  -5   7  103.69   15.81
   1  -5   8  277.50   27.02
   1  -5   9   64.71   14.33
  -1   4  10   33.07    9.91
  -1   4  10   56.69    9.98
  -1   4   9   45.73    8.71
  -1   4   9   43.02   10.43
  -1   4   8   34.49    7.11
  -1   4   8   13.67    5.83
   1  -4  -8   25.89    6.72
  -1   4   7   94.59   12.53
   1  -4  -7  100.37   10.73
  -1   4   7   99.25   10.48
   1  -4  -6   13.17    3.86
   1  -4  -6   11.29    4.18
  -1   4   6    9.23    4.77
  -1   4   6   11.50    4.03
  -1   4   5    2.44    3.46
   1  -4  -5    1.81    1.56
   1  -4  -5    2.17    2.25
  -1   4   5    2.40    2.62
   1  -4  -4  996.25   30.57
   1  -4  -4  965.56   23.86
  -1   4   4  976.77   31.15
  -1   4   4 1020.79   25.12
  -1   4   3  124.68    7.66
   1  -4  -3  120.81    7.99
  -1   4   3  135.25   11.03
  -1   4   3  138.08    8.47
  -1   4   2    9.75    3.76
  -1   4   2    9.61    2.49
  -1   4   2    7.95    2.20
   1  -4  -1 2676.95   36.81
  -1   4   1 2720.39   38.46
  -1   4   1 2658.97   36.68
   1  -4   0  737.31   21.54
  -1   4   0  706.68   21.86
   1  -4   1  339.16   16.49
  -1   4  -1  353.89   17.29
   1  -4   2  537.76   22.81
  -1   4  -2  556.47   23.80
  -1   4  -3   34.19    6.83
   1  -4   3   31.10    6.82
  -1   4  -4   23.75    6.25
   1  -4   4   24.63    6.20
   1  -4   5  687.14   33.16
   1  -4   6  320.36   24.61
   1  -4   7  558.58   34.46
   1  -4   8   97.74   15.99
   1  -4   9  130.15   19.33
  -1   3  11   -4.07    3.19
  -1   3  10   30.72    7.85
  -1   3   9   65.85   10.55
  -1   3   9   80.05   13.97
  -1   3   8   95.39   13.93
  -1   3   8   97.68   11.61
   1  -3  -8   88.46   10.96
  -1   3   7  167.70   13.66
   1  -3  -7  160.30   13.48
  -1   3   7  173.10   16.76
  -1   3   6  120.29   12.84
  -1   3   6  110.88   10.09
   1  -3  -6  122.92   12.60
   1  -3  -6  105.59    9.81
  -1   3   5    1.76    2.47
   1  -3  -5    0.89    1.36
   1  -3  -5    1.94    2.39
  -1   3   5    1.15    3.97
  -1   3   4 2111.15   44.03
   1  -3  -4 2097.86   43.25
   1  -3  -4 2054.86   33.45
  -1   3   4 2092.73   34.83
   1  -3  -3   10.00    3.21
  -1   3   3   11.30    2.56
   1  -3  -3    9.51    2.28
  -1   3   3   10.52    3.83
  -1   3   2   37.75    3.61
  -1   3   2   38.39    3.55
  -1   3   2   43.08    5.84
   1  -3  -2   37.84    3.73
   1  -3  -1   -0.05    1.59
  -1   3   1    2.12    1.57
  -1   3   1    0.35    1.40
   1  -3   0  291.34   11.79
  -1   3   0  291.07   12.03
  -1   3  -1    3.49    2.37
   1  -3   1    2.45    2.67
   1  -3   2 1570.61   35.75
  -1   3  -2 1587.79   37.07
  -1   3  -3   65.10    8.78
   1  -3   3   65.84    8.64
   1  -3   4  424.99   22.82
  -1   3  -4  449.93   24.03
   1  -3   5   60.30    9.95
  -1   3  -5   93.74   11.92
   1  -3   6  129.79   15.26
   1  -3   7   95.21   14.32
   1  -3   8   96.89   15.14
   1  -3   9  296.23   27.16
   1  -3  10  325.29   30.55
  -1   2  12   24.81    7.69
  -1   2  11   -1.61    3.47
  -1   2  10   44.82    9.32
  -1   2   9    8.80    4.59
  -1   2   8   22.32    7.36
   1  -2  -8   31.60    6.65
  -1   2   8   34.05    7.07
   1  -2  -7  613.07   26.86
  -1   2   7  667.79   33.25
  -1   2   7  653.23   27.51
   1  -2  -6    2.90    3.38
  -1   2   6    1.36    4.05
   1  -2  -6   -3.24    2.14
  -1   2   6    1.64    2.64
   1  -2  -5  853.17   29.63
  -1   2   5  873.83   31.60
   1  -2  -5  839.50   25.06
  -1   2   5  890.12   25.51
  -1   2   4 1099.22   24.16
  -1   2   4 1081.80   31.21
   1  -2  -4 1072.80   24.45
   1  -2  -4 1089.03   30.53
  -1   2   3    1.97    1.87
   1  -2  -3    0.54    1.52
  -1   2   3    2.31    3.10
   1  -2  -3    2.82    2.48
  -1   2   2  263.94    7.83
  -1   2   2  263.39   12.54
   1  -2  -2  247.12   11.86
   1  -2  -2  259.15    7.66
  -1   2   1 9711.47   40.90
  -1   2   1 9752.90   41.95
  -1   2   1 9999.00   68.19
   1  -2   0   80.40    5.23
  -1   2   0   85.88    5.33
   1  -2   1 2032.96   31.47
  -1   2  -1 1942.29   31.32
  -1   2  -2  185.84   11.60
   1  -2   2  164.26   10.93
  -1   2  -3  877.89   28.83
   1  -2   3  891.25   28.46
   1  -2   4   11.53    4.81
  -1   2  -4    6.58    3.30
  -1   2  -5   -3.28    2.62
   1  -2   5    3.49    3.74
   1  -2   6  146.79   15.22
   1  -2   7  907.65   40.22
   1  -2   8   10.65    5.70
   1  -2   9  310.31   27.39
   1  -2  10   35.22   10.90
   1  -2  11   81.59   15.94
  -1   1  12    7.64    5.80
  -1   1  11   27.06    8.47
  -1   1  10  554.21   33.33
  -1   1   9   -0.94    2.74
  -1   1   8   50.20    8.88
   1  -1  -7  131.84   13.06
  -1   1   7  136.45   13.38
  -1   1   6  222.76   18.14
   1  -1  -6  210.48   14.97
  -1   1   6  191.71   14.05
   1  -1  -6  228.70   17.02
   1  -1  -5  444.16   19.31
  -1   1   5  509.43   24.22
   1  -1  -5  507.44   23.30
  -1   1   5  493.22   19.93
   1  -1  -4  368.64   15.23
  -1   1   4  415.43   15.89
  -1   1   4  431.32   19.58
   1  -1  -4  413.61   18.96
  -1   1   3  461.82   18.08
   1  -1  -3  472.71   14.35
  -1   1   3  495.20   14.14
   1  -1  -3  476.74   17.95
   1  -1  -2   31.90    4.49
  -1   1   2   27.60    2.64
   1  -1  -2   26.64    2.72
  -1   1   2   28.50    4.73
   1  -1  -1 2740.23   31.92
  -1   1   1 2904.23   32.88
   1  -1   0  135.07    4.97
  -1   1   0  129.05    4.89
  -1   1  -1 1350.64   22.57
   1  -1   1 1333.58   22.45
   1  -1   2 3027.78   41.88
  -1   1  -2 2978.15   39.68
  -1   1  -3  593.67   20.82
   1  -1   3  617.52   22.21
  -1   1  -4 2462.25   48.20
   1  -1   4 2505.57   49.84
  -1   1  -5  238.53   16.57
   1  -1   5  229.87   16.92
   1  -1   6  373.54   23.48
  -1   1  -6  396.15   24.35
  -1   1  -6  393.58   23.23
   1  -1   7  103.52   13.69
   1  -1   8  237.92   21.67
   1  -1   9   30.26    9.27
   1  -1  10   81.08   14.84
   1  -1  11    9.45    6.62
  -1   0  12   -2.51    4.69
  -1   0  11   -0.54    5.56
  -1   0  10  132.40   16.95
  -1   0   9   40.74    8.82
  -1   0   8   12.11    5.20
  -1   0   7  621.96   29.10
   1   0  -7  634.95   29.55
   1   0  -6   13.06    4.85
  -1   0   6   21.69    5.50
   1   0  -6   11.04    4.06
   1   0  -5 1753.16   40.77
  -1   0   5 1898.86   48.38
  -1   0   5 1821.85   40.37
   1   0  -5 1826.24   45.42
  -1   0   4   17.60    5.33
   1   0  -4   19.38    4.82
  -1   0   4   17.95    4.19
   1   0  -4   15.92    3.76
  -1   0   3 1501.40   33.74
   1   0  -3 1513.15   27.96
  -1   0   3 1529.41   27.78
   1   0  -3 1562.58   33.19
   1   0  -2 2121.79   26.48
   1   0  -2 2020.42   31.67
  -1   0   2 2123.25   26.03
  -1   0   2 2128.24   33.14
   1   0  -1   13.77    2.56
  -1   0   1   11.73    1.71
   1   0  -1    9.72    1.57
  -1   0   1   11.70    2.64
  -1   0  -1 1309.90   18.98
   1   0   1 1393.54   19.80
  -1   0  -2   86.74    6.57
   1   0   2   93.75    7.22
  -1   0  -3 4325.22   52.77
   1   0   3 4458.12   54.08
   1   0   4  372.79   18.42
  -1   0  -4  336.68   17.13
   1   0   5  651.92   26.95
  -1   0  -5  665.66   27.29
  -1   0  -5  640.57   26.24
  -1   0  -6   24.39    5.73
  -1   0  -6   29.71    6.70
   1   0   6   15.99    5.65
  -1   0  -7  710.91   32.88
   1   0   7  679.95   32.96
   1   0   8   86.56   13.17
   1   0   9  133.53   17.37
   1   0  10  122.67   17.53
   1   0  11  298.59   28.33
  -1  -1  11  -10.64    6.05
  -1  -1  10  117.73   16.68
  -1  -1   9    8.78    4.71
  -1  -1   8   93.98   13.03
  -1  -1   7  125.29   14.00
   1   1  -6  912.30   36.42
  -1  -1   6  888.06   33.27
   1   1  -6  932.94   35.12
   1   1  -5  269.79   18.30
  -1  -1   5  251.02   16.27
   1   1  -5  258.06   16.93
  -1  -1   4   73.64    8.23
   1   1  -4   71.14    8.17
   1   1  -4   86.91    9.58
  -1  -1   3  536.79   18.69
   1   1  -3  488.55   18.24
   1   1  -3  502.96   19.93
  -1  -1   2   95.74    8.19
   1   1  -2  106.76    7.45
  -1  -1   2   99.48    7.28
   1   1  -2  107.33    7.93
   1   1  -1  149.91    7.43
  -1  -1   1  153.63    7.38
  -1  -1   1  164.46    7.98
   1   1  -1  150.72    7.36
  -1  -1   0    9.04    2.12
  -1  -1  -1  629.32   14.12
   1   1   1  635.14   14.16
   1   1   2 1567.65   26.49
  -1  -1  -2 1592.68   26.40
   1   1   3    1.72    2.91
  -1  -1  -3    3.35    2.35
  -1  -1  -3    5.37    2.86
  -1  -1  -4  344.84   16.58
   1   1   4  345.16   16.93
  -1  -1  -4  326.84   15.29
   1   1   5 1076.57   33.34
  -1  -1  -5 1027.00   31.98
  -1  -1  -5 1009.36   30.49
  -1  -1  -6  204.79   15.31
   1   1   6  187.34   15.87
  -1  -1  -6  226.07   16.47
   1   1   7   -0.85    3.65
  -1  -1  -7    3.59    3.37
   1   1   8  133.41   15.66
   1   1   9  145.68   17.45
   1   1  10  185.75   21.08
   1   1  11  176.51   21.81
   1   1  12  221.31   25.05
  -1  -2  11    4.28    4.14
  -1  -2  10  129.60   17.88
  -1  -2   9  532.79   33.81
  -1  -2   8  326.87   24.98
  -1  -2   7   98.48   12.96
  -1  -2   6   23.15    6.70
   1   2  -6   18.91    5.86
   1   2  -5  215.68   17.26
   1   2  -5  202.78   16.12
  -1  -2   5  205.12   15.78
   1   2  -4   73.52    8.94
   1   2  -4   85.70   10.10
  -1  -2   4   71.07    8.74
   1   2  -3 1211.78   33.53
  -1  -2   3 1292.02   32.09
   1   2  -3 1287.94   32.76
  -1  -2   2 1276.74   28.59
   1   2  -2 1226.71   28.40
   1   2  -1    7.37    2.75
  -1  -2   1    3.17    2.77
   1   2   0 4668.12   44.37
  -1  -2   0 4703.92   44.60
   1   2   0 4548.94   44.44
   1   2   1  472.53   14.25
  -1  -2  -1  442.09   13.83
  -1  -2  -2 5146.95   50.58
   1   2   2 5204.34   32.62
  -1  -2  -2 5120.26   31.16
   1   2   2 5111.89   50.99
   1   2   3   23.14    4.67
   1   2   3   29.86    3.99
  -1  -2  -3   30.66    3.71
  -1  -2  -3   22.18    4.17
  -1  -2  -4    0.99    1.99
   1   2   4    2.32    3.11
  -1  -2  -4   -0.72    1.93
   1   2   5  272.19   16.70
  -1  -2  -5  247.40   15.54
  -1  -2  -5  267.19   14.77
   1   2   6   51.10    8.15
  -1  -2  -6   39.70    7.01
  -1  -2  -6   28.92    5.72
  -1  -2  -7   56.32    8.38
   1   2   7   62.02    9.92
   1   2   7   57.52    9.77
  -1  -2  -7   56.82    8.97
   1   2   8  921.03   39.91
   1   2   9   22.46    7.52
   1   2  10   -5.55    4.74
   1   2  11   20.04    7.89
   1   2  12   29.52    9.61
  -1  -3  10    0.76    2.91
  -1  -3   9  313.18   27.06
  -1  -3   8   83.51   13.53
  -1  -3   7  366.00   25.59
  -1  -3   6  503.80   27.96
   1   3  -5   19.52    5.84
  -1  -3   5   29.19    6.95
   1   3  -5   26.92    6.62
   1   3  -4  724.77   30.78
  -1  -3   4  708.60   28.46
   1   3  -4  729.27   29.74
   1   3  -3 1447.95   38.40
  -1  -3   3 1408.28   36.88
  -1  -3   2  277.90   15.19
   1   3  -2  286.17   15.72
  -1  -3   1 1392.95   30.96
   1   3  -1 1410.92   31.44
   1   3   0    9.78    3.35
   1   3   0    8.13    3.68
  -1  -3   0    6.24    2.82
  -1  -3  -1  156.54    9.54
   1   3   1  180.81   10.39
   1   3   1  158.65    9.51
  -1  -3  -2  683.05   20.23
   1   3   2  682.63   13.34
   1   3   2  707.41   20.56
   1   3   3   13.04    3.79
  -1  -3  -3    8.39    3.15
   1   3   3   10.28    2.22
  -1  -3  -3    9.48    2.21
   1   3   4  756.37   21.34
  -1  -3  -4  706.98   24.34
   1   3   4  743.09   25.06
  -1  -3  -4  667.71   19.00
   1   3   5 2401.02   44.82
  -1  -3  -5 2282.37   47.13
   1   3   5 2329.24   48.24
  -1  -3  -5 2259.74   40.46
  -1  -3  -6  106.31   10.16
   1   3   6  109.18   11.80
  -1  -3  -6  131.82   12.44
  -1  -3  -7    0.69    1.47
  -1  -3  -7   -0.75    1.52
   1   3   7    1.22    3.93
   1   3   8   52.22   10.15
   1   3   8   44.12    9.26
  -1  -3  -8   34.47    7.30
   1   3   9   69.65   11.85
   1   3  10   44.15   10.26
   1   3  11   67.74   12.87
   1   3  12   99.05   17.03
  -1  -4  10   -1.87    4.01
  -1  -4   9   16.85    8.06
  -1  -4   8  154.38   19.06
  -1  -4   7   -6.34    5.16
  -1  -4   6  418.72   26.90
  -1  -4   5  164.06   16.25
  -1  -4   4 1666.25   46.91
   1   4  -4 1713.88   48.76
   1   4  -3   75.51   10.11
  -1  -4   3   65.19    9.04
  -1  -4   2   17.44    5.58
   1   4  -2   15.29    4.29
  -1  -4   1  293.48   16.08
   1   4  -1  307.15   16.62
   1   4   0  347.54   16.41
  -1  -4   0  344.36   16.34
   1   4   0  329.68   16.29
   1   4   1  373.21   16.59
   1   4   1  368.33   16.45
   1   4   2 1601.96   24.81
   1   4   2 1545.90   33.60
  -1  -4  -2 1598.21   34.66
  -1  -4  -3  448.23   19.02
   1   4   3  432.97   18.68
   1   4   3  472.95   14.74
   1   4   4    9.89    3.82
  -1  -4  -4    5.48    2.31
   1   4   4    8.56    2.66
  -1  -4  -4    5.26    2.61
  -1  -4  -5  499.05   18.74
   1   4   5  543.68   24.04
   1   4   5  512.49   20.09
  -1  -4  -5  492.52   22.49
  -1  -4  -6   20.89    4.51
  -1  -4  -6   20.96    5.46
   1   4   6   22.68    5.09
   1   4   6   24.96    6.31
   1   4   7  286.76   20.93
  -1  -4  -7  281.63   17.60
   1   4   7  292.09   19.71
  -1  -4  -8  605.40   28.19
   1   4   8  585.03   31.55
   1   4   9   64.41   11.66
   1   4   9   61.82   11.97
   1   4  10   39.69    9.86
   1   4  11   26.91    8.58
   1   4  12   59.81   13.62
  -1  -5   9   71.10   14.52
  -1  -5   8    5.58    5.85
  -1  -5   7  663.92   38.35
  -1  -5   6   -3.65    4.18
  -1  -5   5  171.11   17.44
  -1  -5   4  138.81   14.77
   1   5  -3   17.96    5.00
  -1  -5   3    7.01    3.99
   1   5  -2   95.50   11.15
  -1  -5   2   78.86   10.06
   1   5  -1  846.91   30.53
  -1  -5   1  838.89   29.78
   1   5   0  445.70   21.16
  -1  -5   0  387.05   19.39
   1   5   0  397.75   19.51
   1   5   1  110.83   10.27
   1   5   1  102.91    9.81
  -1  -5  -2   15.55    4.14
   1   5   2   15.50    3.20
   1   5   2   13.92    3.89
   1   5   2    8.02    3.57
   1   5   3  889.29   22.30
   1   5   3  875.74   28.52
  -1  -5  -3  885.05   28.87
  -1  -5  -4  205.22   14.51
   1   5   4  212.35   11.93
   1   5   4  230.84   15.49
   1   5   5  169.02   14.14
  -1  -5  -5  170.89   13.76
  -1  -5  -5  152.74   10.59
   1   5   5  170.67   11.98
   1   5   6   22.09    5.99
  -1  -5  -6   39.96    7.56
  -1  -5  -6   43.71    6.39
   1   5   6   32.98    6.13
   1   5   7  157.17   14.48
   1   5   7  185.24   16.90
  -1  -5  -7  150.83   12.88
  -1  -5  -8    9.16    3.60
   1   5   8   16.68    5.97
   1   5   9  565.87   33.58
   1   5  10   26.71    7.93
   1   5  11   12.60    6.62
   1   5  12   48.07   11.99
  -1  -6   8  120.73   18.06
  -1  -6   7  171.18   21.10
  -1  -6   6   -1.92    4.63
  -1  -6   5   38.66    9.58
  -1  -6   4  520.16   29.99
  -1  -6   3   94.99   12.09
   1   6  -2    8.44    4.10
  -1  -6   2    6.23    4.63
   1   6  -1  623.40   28.58
  -1  -6   1  571.91   26.65
   1   6   0  248.13   17.41
  -1  -6   0  236.32   16.52
   1   6   0  233.30   16.41
   1   6   1  140.89   12.57
   1   6   1  135.99   12.42
   1   6   2  128.59   11.78
   1   6   2  138.26    9.82
   1   6   2  124.69   11.69
   1   6   3   23.61    5.39
   1   6   3   25.27    4.52
  -1  -6  -3   23.62    5.22
   1   6   3   32.68    6.71
  -1  -6  -4   14.94    4.57
   1   6   4   20.54    5.88
   1   6   4   23.66    4.48
   1   6   5   70.54    7.99
   1   6   5   78.77   10.47
  -1  -6  -5   72.93    9.55
   1   6   6  208.29   14.89
  -1  -6  -6  218.82   17.11
   1   6   6  210.83   17.45
   1   6   7   -3.82    3.19
   1   6   7    0.64    2.44
  -1  -6  -7    1.02    1.71
   1   6   8   -3.18    4.05
   1   6   8   -3.95    3.37
  -1  -6  -8    1.82    2.88
   1   6   9  108.25   15.08
   1   6  10    9.69    6.10
   1   6  11   44.71   11.05
  -1  -7   7  308.87   28.80
  -1  -7   6    0.45    5.48
  -1  -7   5  246.36   23.31
  -1  -7   4  165.28   18.32
  -1  -7   3 1046.00   43.29
  -1  -7   2    3.30    3.18
   1   7  -1  178.69   16.34
  -1  -7   1  173.82   16.29
   1   7   0   22.16    5.16
   1   7   0   21.35    6.21
   1   7   1   40.66    7.68
   1   7   1   42.97    7.84
   1   7   2    1.93    3.32
   1   7   2    3.99    2.21
   1   7   2    2.66    2.38
   1   7   3  976.31   35.09
   1   7   3  971.80   35.01
   1   7   3 1016.80   29.29
  -1  -7  -4  243.61   17.84
   1   7   4  246.02   14.82
   1   7   4  253.42   17.97
   1   7   4  222.51   17.33
   1   7   5   -2.51    3.66
   1   7   5    2.06    1.98
   1   7   5    2.65    2.42
   1   7   6  179.93   16.69
   1   7   6  173.76   14.07
   1   7   7   -3.36    4.06
   1   7   7    6.45    3.64
   1   7   8   13.52    4.98
   1   7   8    0.03    3.08
   1   7   9   50.61   11.30
   1   7   9   67.50   10.57
   1   7  10    7.83    5.49
  -1  -8   6   73.01   14.61
  -1  -8   5    9.78    6.68
  -1  -8   4   82.72   14.39
  -1  -8   3  102.20   14.61
  -1  -8   2   45.44    9.68
  -1  -8   1    2.11    3.60
   1   8  -1    0.77    4.35
   1   8   0  243.88   19.89
   1   8   1   29.51    7.72
   1   8   2   31.79    6.06
   1   8   2   26.37    6.91
   1   8   3  885.48   35.78
   1   8   3  918.51   30.66
   1   8   4    2.83    2.38
   1   8   4  -13.87    5.55
   1   8   5  218.98   18.39
   1   8   5  249.10   16.70
   1   8   6   -2.37    3.27
   1   8   6    1.71    2.90
   1   8   7   33.44    8.14
   1   8   7   42.05    7.69
   1   8   8    0.08    1.87
   1   8   8    4.43    4.39
   1   8   9   80.12   13.59
   1   8  10   32.02    8.95
  -1  -9   5   27.50    9.60
  -1  -9   4  -14.80    6.97
  -1  -9   3  144.35   18.79
  -1  -9   2   24.99    7.81
   1   9  -2   10.27    5.77
  -1  -9   1   -7.64    4.30
   1   9  -1   -3.94    4.20
   1   9   0  409.65   27.52
   1   9   1   97.60   13.39
   1   9   2  151.66   13.66
   1   9   2  153.32   16.35
   1   9   3   36.35    8.12
   1   9   3   27.25    5.90
   1   9   4   49.96    7.75
   1   9   4   53.06   10.10
   1   9   5    2.93    3.28
   1   9   5   -1.97    2.02
   1   9   6  139.04   13.55
   1   9   6  108.12   14.39
   1   9   7   -1.80    3.71
   1   9   8   43.35    9.70
   1   9   9   13.28    6.18
  -1 -10   4   37.39   11.38
  -1 -10   3  149.88   19.62
   1  10  -3  136.96   19.01
  -1 -10   2   11.01    6.92
   1  10  -2   18.19    6.89
   1  10  -1   92.52   14.30
   1  10   0   -0.07    3.71
   1  10   1    9.05    5.25
   1  10   2   91.33   13.08
   1  10   2   94.13   11.51
   1  10   3   97.92   13.90
   1  10   3   87.25   11.16
   1  10   4  171.01   15.27
   1  10   4  182.73   18.94
   1  10   5   42.85    9.69
   1  10   6  182.61   18.97
   1  10   7  -11.81    6.15
   1  10   8   -1.11    3.75
   1  11  -2   20.64    8.03
   1  11  -1   39.38   10.66
   1  11   0   34.02    9.66
   1  11   1    4.34    2.74
   1  11   1   14.69    5.87
   1  11   2   80.83   11.58
   1  11   2   90.68   14.15
   1  11   3   13.29    6.39
   1  11   4   24.58    7.96
   1  11   5   65.85   12.45
   1  11   6    7.34    4.37
   1  12   1  140.54   18.73
   1  12   2   28.77    9.39
   1  12   3  173.72   20.23
   1  12   4    2.39    3.21
  -2  11   5   31.09    9.01
  -2  11   4   24.65    8.15
  -2  11   3    3.69    4.25
  -2  11   2    7.45    4.68
  -2  11   1    1.66    2.65
  -2  11   0  170.68   20.91
  -2  10   7   -1.78    2.39
  -2  10   6  -12.76    6.44
  -2  10   5    2.28    3.53
  -2  10   4    5.24    4.54
  -2  10   3  178.67   19.98
  -2  10   2   19.20    6.99
  -2  10   1   33.40    8.55
  -2  10   0  139.90   15.25
  -2  10  -1    9.72    3.68
   2 -10   1   15.44    6.10
   2 -10   2   15.05    6.16
  -2  10  -2   13.34    6.05
   2 -10   3    5.81    3.95
   2 -10   4    5.75    4.82
  -2   9   8   10.13    5.86
  -2   9   7   22.45    8.07
  -2   9   6  120.45   16.88
  -2   9   5  114.42   15.54
  -2   9   4    1.41    3.22
  -2   9   3   36.42    6.31
  -2   9   3   33.09    8.58
  -2   9   2  402.95   28.34
  -2   9   2  433.43   22.68
  -2   9   1   43.69    7.92
  -2   9   1   27.18    7.89
   2  -9   0   -2.01    3.20
  -2   9   0    2.52    3.16
   2  -9   1   -2.81    3.32
  -2   9  -1    5.15    3.65
   2  -9   2    6.87    5.28
   2  -9   3   91.32   14.61
   2  -9   4  118.60   17.39
   2  -9   5   70.28   14.57
  -2   8   9   18.10    7.30
  -2   8   8   16.53    7.70
  -2   8   7   35.06    9.59
  -2   8   6   19.19    6.97
  -2   8   5  178.68   18.90
  -2   8   5  170.50   12.32
  -2   8   4   59.70    7.47
  -2   8   4   59.73   10.85
  -2   8   3    4.00    2.61
  -2   8   3    4.40    3.87
  -2   8   2   -3.21    2.05
  -2   8   2   -0.02    1.31
  -2   8   2   -0.80    2.98
  -2   8   1    4.32    2.83
  -2   8   1    3.63    2.15
  -2   8   1    2.51    3.79
  -2   8   0   60.82    8.91
   2  -8   0   59.46    8.91
  -2   8   0   53.55    9.24
   2  -8   1  198.85   17.72
   2  -8   2   10.84    5.28
   2  -8   3  202.38   20.16
   2  -8   4   66.92   12.76
   2  -8   5   21.93    7.91
   2  -8   6   51.67   12.28
  -2   7  10   -0.10    4.03
  -2   7   9  156.33   20.36
  -2   7   8  354.99   28.90
  -2   7   7   91.26   14.05
  -2   7   6   -3.17    2.62
  -2   7   6    5.82    3.70
  -2   7   5   40.66    9.01
  -2   7   5   62.79    7.35
  -2   7   4  109.60    8.69
  -2   7   4  101.40   13.34
  -2   7   4  114.16    9.20
  -2   7   3    3.86    2.10
  -2   7   3    2.70    1.76
  -2   7   2  135.81   10.80
  -2   7   2  112.05   13.22
  -2   7   2  129.31   10.94
  -2   7   1   35.65    6.09
  -2   7   1   42.39    6.48
  -2   7   1   40.74    8.37
  -2   7   0    9.22    3.93
  -2   7   0    3.62    3.06
   2  -7   0    9.68    4.08
   2  -7   1  338.00   21.20
  -2   7  -1  358.37   22.84
   2  -7   2   34.13    8.09
   2  -7   3  136.73   15.84
   2  -7   4   39.34    9.45
   2  -7   5   11.60    6.48
   2  -7   6   66.35   13.70
   2  -7   7   59.58   13.25
  -2   6  10   77.68   15.56
  -2   6   9    7.86    5.22
  -2   6   8  156.76   19.09
  -2   6   7   29.17    8.39
  -2   6   7   33.83    5.02
  -2   6   6   65.64    7.45
   2  -6  -6   54.21    6.71
  -2   6   6   69.05   11.57
  -2   6   6   56.81    5.61
  -2   6   5 1390.55   30.98
  -2   6   5 1321.27   25.68
  -2   6   5 1337.56   46.20
  -2   6   4   95.67    7.11
  -2   6   4  102.07   12.74
  -2   6   4  105.53    8.17
  -2   6   3  881.12   22.93
  -2   6   3  911.95   23.23
  -2   6   3  882.20   35.65
  -2   6   2  498.28   18.03
  -2   6   2  435.66   24.34
  -2   6   2  444.82   17.88
  -2   6   1    0.84    1.85
   2  -6  -1    1.92    2.55
  -2   6   1    3.83    2.17
  -2   6   1   -3.67    3.44
  -2   6   0  184.49   13.91
   2  -6   0  183.36   13.38
  -2   6  -1   31.12    6.31
   2  -6   1   28.39    5.90
   2  -6   2   20.61    6.06
  -2   6  -2   34.59    7.23
   2  -6   3   44.65    9.16
   2  -6   4    6.54    4.53
   2  -6   5  239.71   22.20
   2  -6   6  387.76   29.97
   2  -6   7   30.22    9.24
   2  -6   8   15.53    7.77
  -2   5  10   -0.05    4.36
  -2   5   9   -1.74    2.84
  -2   5   8  118.48   16.48
  -2   5   8  132.90   11.26
  -2   5   7    8.55    5.63
   2  -5  -7    3.94    2.34
  -2   5   7    4.05    2.39
   2  -5  -6   59.91    6.69
  -2   5   6   59.91   10.68
  -2   5   6   66.66    6.41
  -2   5   5  987.98   38.46
   2  -5  -5  935.73   23.59
  -2   5   5  947.02   19.85
  -2   5   5  996.39   24.90
  -2   5   4  951.65   35.73
  -2   5   4  942.27   18.85
  -2   5   4  960.29   21.99
  -2   5   3  567.51   15.79
  -2   5   3  556.14   15.29
  -2   5   3  573.78   26.64
  -2   5   2  219.50   10.31
  -2   5   2  219.90   10.77
  -2   5   2  209.21   15.77
  -2   5   1   59.17    6.02
   2  -5  -1   52.66    5.91
  -2   5   1   52.70    8.15
  -2   5   1   64.78    6.64
   2  -5   0   42.53    6.09
  -2   5   0   31.24    5.32
   2  -5   1  639.37   24.76
  -2   5  -1  632.73   25.69
   2  -5   2   21.67    5.65
  -2   5  -2   13.49    4.28
  -2   5  -3 1564.70   47.46
   2  -5   3 1517.70   45.29
   2  -5   4  180.42   17.34
   2  -5   5    0.06    3.51
   2  -5   6  106.63   15.05
   2  -5   7   11.04    7.54
   2  -5   8   12.21    8.07
   2  -5   9  133.48   20.43
  -2   4  10    3.30    4.27
  -2   4   9    6.55    3.16
  -2   4   9    2.79    4.65
  -2   4   8  170.30   19.26
  -2   4   8  195.16   14.03
   2  -4  -8  158.20   13.32
  -2   4   7  245.48   21.50
   2  -4  -7  221.19   14.33
  -2   4   7  242.64   13.99
   2  -4  -6  764.45   23.40
  -2   4   6  817.98   22.41
  -2   4   6  783.94   35.38
   2  -4  -5   80.51    6.64
  -2   4   5   76.46   10.63
   2  -4  -5   82.22   10.58
  -2   4   5   78.53    5.93
  -2   4   4  166.44    6.83
   2  -4  -4  160.64    8.18
   2  -4  -4  161.86   13.84
  -2   4   4  164.58   14.39
  -2   4   4  161.00    8.43
  -2   4   3    0.72    0.88
  -2   4   3   -2.00    3.07
  -2   4   3   -1.42    1.10
  -2   4   2  441.66   21.57
  -2   4   2  467.41   11.92
  -2   4   2  428.99   11.98
  -2   4   1  326.87   17.78
   2  -4  -1  347.51   12.20
  -2   4   1  344.51   11.79
  -2   4   1  323.50   12.51
   2  -4   0  944.78   23.95
  -2   4   0  834.05   23.57
   2  -4   1  999.98   28.14
  -2   4  -1  941.29   28.56
   2  -4   2  361.83   19.10
  -2   4  -2  331.27   19.00
   2  -4   3   16.80    5.54
  -2   4  -3   12.67    4.34
   2  -4   4 1221.30   41.71
  -2   4  -4 1281.02   43.98
   2  -4   5   16.87    6.82
   2  -4   6  225.46   21.15
   2  -4   7   -2.50    4.94
   2  -4   8   23.71    8.88
   2  -4   9  170.36   22.29
  -2   3  10   30.07    7.45
  -2   3  10   28.53    9.33
  -2   3   9  218.60   23.33
  -2   3   9  200.75   16.43
   2  -3  -8    7.57    3.46
  -2   3   8   10.96    5.80
  -2   3   8   13.77    4.27
  -2   3   7  412.09   26.99
  -2   3   7  414.00   19.19
   2  -3  -7  410.44   20.00
  -2   3   6  128.04   14.21
  -2   3   6  154.07   10.34
   2  -3  -6  133.24   10.22
  -2   3   5   55.70    9.10
   2  -3  -5   36.33    4.60
  -2   3   5   42.81    4.67
   2  -3  -5   46.75    7.64
  -2   3   4   90.73   10.62
   2  -3  -4  102.77   10.79
   2  -3  -4   95.79    6.14
  -2   3   4   95.69    5.24
   2  -3  -3  663.23   12.42
  -2   3   3  677.81   26.00
   2  -3  -3  674.00   25.17
  -2   3   2  688.19    9.76
  -2   3   2  680.00   24.54
   2  -3  -1  334.72    9.53
  -2   3   1  322.95   16.18
  -2   3   1  324.17    8.47
  -2   3   1  321.95    9.81
  -2   3   0  289.17   12.11
   2  -3   0  326.39   12.34
   2  -3   1  238.58   12.71
  -2   3  -1  213.10   12.37
  -2   3  -2   99.74    9.71
   2  -3   2   90.67    9.20
   2  -3   3 1147.37   35.23
  -2   3  -3 1155.92   36.27
  -2   3  -4   42.08    7.43
   2  -3   4   40.37    7.94
   2  -3   5    8.80    6.00
  -2   3  -5    8.84    4.14
   2  -3   6  111.11   14.30
   2  -3   7  360.00   27.27
   2  -3   8  186.88   21.16
   2  -3   9   -0.36    4.21
   2  -3  10  218.37   25.14
  -2   2  10  131.98   15.00
  -2   2   9   26.28    6.98
  -2   2   9    9.67    5.54
   2  -2  -8   17.14    5.21
  -2   2   8   22.35    5.66
  -2   2   8   24.68    7.95
  -2   2   7  189.28   18.63
  -2   2   7  185.57   13.63
   2  -2  -7  163.24   13.23
  -2   2   6 1250.74   43.19
   2  -2  -6 1298.73   42.40
   2  -2  -6 1175.86   31.71
  -2   2   6 1180.01   30.55
   2  -2  -5   39.53    7.09
  -2   2   5   34.78    7.44
   2  -2  -5   25.04    4.18
  -2   2   5   34.58    4.72
  -2   2   4 1964.49   45.77
  -2   2   4 1794.87   25.40
   2  -2  -4 1913.35   44.59
   2  -2  -4 1794.13   28.31
  -2   2   3  725.36   10.04
   2  -2  -3  714.67   13.32
   2  -2  -3  716.94   25.11
  -2   2   3  695.78   25.05
   2  -2  -2 2799.25   45.46
  -2   2   2 2853.18   46.82
  -2   2   1   -0.36    3.01
   2  -2   0  196.31    8.34
  -2   2   0  181.38    7.07
   2  -2   1   -0.22    2.19
  -2   2  -1    1.09    1.85
  -2   2  -2    4.45    2.24
   2  -2   2    5.11    3.60
   2  -2   3    0.66    3.37
  -2   2  -3   -4.25    2.43
   2  -2   4 1884.25   47.90
  -2   2  -4 1874.36   45.07
  -2   2  -5   48.64    8.11
   2  -2   5   43.45    8.34
   2  -2   6  161.07   16.75
   2  -2   7  313.63   24.64
   2  -2   8   45.09   10.30
   2  -2   9    3.42    5.14
   2  -2  10  201.52   24.17
  -2   1  11    1.80    2.73
  -2   1  10   -1.13    3.23
  -2   1   9   55.80    9.81
  -2   1   8   17.07    7.95
  -2   1   8   19.80    5.84
   2  -1  -7  874.55   32.44
  -2   1   7  864.36   31.02
  -2   1   6  259.18   20.17
  -2   1   6  217.44   14.19
   2  -1  -6  221.56   14.88
   2  -1  -6  221.96   17.79
   2  -1  -5  139.86   10.44
  -2   1   5  135.92   13.39
   2  -1  -5  140.23   12.94
  -2   1   5  144.09   10.08
  -2   1   4  652.37   26.90
   2  -1  -4  606.65   18.53
  -2   1   4  611.05   17.40
  -2   1   3 1251.78   33.17
  -2   1   3 1267.02   19.32
   2  -1  -3 1237.59   32.03
   2  -1  -3 1172.26   21.03
   2  -1  -2  317.35   14.85
   2  -1  -2  312.72    6.77
  -2   1   2  320.92   15.23
   2  -1  -1   88.13    7.34
  -2   1   1   89.65    7.76
  -2   1   0  109.52    7.94
   2  -1   0  119.31    5.20
  -2   1   0  116.40    4.94
   2  -1   1 5895.52   48.85
  -2   1  -1 5822.61   47.78
  -2   1  -2  563.75   18.28
   2  -1   2  548.80   19.35
   2  -1   3  250.50   15.18
  -2   1  -3  243.31   14.03
   2  -1   4 2233.83   49.29
  -2   1  -4 2122.62   46.38
   2  -1   5   16.38    5.79
  -2   1  -5   10.58    4.36
  -2   1  -6    9.60    4.02
   2  -1   6   10.86    5.25
   2  -1   7   20.64    7.42
   2  -1   8    6.02    5.76
   2  -1   9   -0.24    4.68
   2  -1  10   85.19   15.62
   2  -1  11  216.60   25.68
  -2   0  12   24.69    8.83
  -2   0  11   -4.88    4.18
  -2   0  10  163.16   18.11
  -2   0   9   13.11    5.33
  -2   0   8  172.49   16.17
  -2   0   7   79.21   10.32
   2   0  -7   56.30    9.17
   2   0  -6  493.93   26.88
  -2   0   6  529.81   29.42
  -2   0   6  506.82   23.11
   2   0  -6  513.38   24.16
   2   0  -5 1278.09   39.35
  -2   0   5 1298.73   41.52
  -2   0   5 1159.22   30.86
   2   0  -5 1174.88   32.23
  -2   0   4  700.20   27.28
   2   0  -4  663.11   25.93
  -2   0   4  682.76   20.75
   2   0  -4  702.08   21.91
   2   0  -3   24.00    3.76
  -2   0   3   22.27    5.44
   2   0  -3   23.88    4.83
  -2   0   3   28.49    4.03
  -2   0   2 3103.11   44.93
   2   0  -2 2979.23   43.04
  -2   0   2 3001.52   30.81
   2   0  -2 2984.77   32.04
   2   0  -1  437.68   10.28
   2   0  -1  409.54   10.29
  -2   0   1  423.21   14.60
   2   0  -1  399.59   14.25
  -2   0   0 1667.03   21.08
  -2   0   0 1715.20   26.30
   2   0   0 1725.81   21.49
   2   0   1 5276.28   45.41
  -2   0  -1 5100.60   44.55
  -2   0  -2 3556.64   44.17
   2   0   2 3678.74   45.87
  -2   0  -3  286.03   14.56
   2   0   3  301.69   15.31
   2   0   4  212.30   14.60
  -2   0  -4  202.00   13.76
  -2   0  -5  196.85   15.05
   2   0   5  200.08   16.09
  -2   0  -6    8.60    3.82
   2   0   6    4.23    4.09
   2   0   7 1203.44   45.63
  -2   0  -7 1256.80   44.54
   2   0   8  150.92   17.63
   2   0   9  207.87   22.38
   2   0  10   32.31    9.95
   2   0  11  101.30   17.13
  -2  -1  11   85.48   14.40
  -2  -1  10  119.99   16.21
  -2  -1   9    7.48    4.05
  -2  -1   8  323.19   22.96
  -2  -1   7  395.78   23.64
   2   1  -7  397.80   24.55
  -2  -1   6  185.53   14.88
   2   1  -6  204.55   16.35
  -2  -1   5  448.34   25.55
   2   1  -5  450.14   24.07
  -2  -1   5  438.73   20.68
   2   1  -5  463.79   22.21
   2   1  -4  269.78   17.06
  -2  -1   4  281.36   18.37
  -2  -1   4  270.27   14.70
   2   1  -4  259.69   15.03
  -2  -1   3   61.84    8.50
   2   1  -3   65.36    7.75
  -2  -1   3   58.53    6.43
   2   1  -3   59.81    6.50
   2   1  -2 1426.68   30.40
  -2  -1   2 1525.37   27.57
  -2  -1   2 1575.51   32.20
   2   1  -2 1553.38   28.28
   2   1  -1 3728.69   39.64
  -2  -1   1 3794.68   42.34
   2   1  -1 3705.40   39.15
   2   1  -1 3781.00   41.69
  -2  -1   0  240.13    9.83
   2   1   0  219.36    8.14
  -2  -1   0  242.30    8.66
   2   1   0  226.79    9.55
  -2  -1  -1  204.40    9.65
  -2  -1  -1  193.13    6.53
   2   1   1  219.25   10.25
   2   1   2  323.17   13.82
  -2  -1  -2  339.89   14.02
   2   1   3  468.39   18.89
  -2  -1  -3  442.46   17.93
  -2  -1  -4 2345.40   46.10
   2   1   4 2369.90   47.36
  -2  -1  -5 1337.09   38.32
   2   1   5 1374.87   39.46
  -2  -1  -5 1301.46   35.12
  -2  -1  -6  144.84   13.28
  -2  -1  -6  150.85   14.07
   2   1   6  148.29   14.69
   2   1   7  487.24   28.87
  -2  -1  -7  506.50   26.32
   2   1   8  203.81   19.88
   2   1   9   57.83   12.17
   2   1  10   -5.95    5.19
   2   1  11   23.62    8.64
  -2  -2  11  107.29   17.08
  -2  -2  10    7.37    5.48
  -2  -2   9    1.12    4.70
  -2  -2   8   45.08    9.52
  -2  -2   7  219.72   18.68
  -2  -2   6  896.53   34.49
   2   2  -6  969.39   37.57
  -2  -2   5 3910.85   67.33
   2   2  -5 3910.55   69.28
   2   2  -4  245.13   16.83
  -2  -2   4  263.48   16.20
   2   2  -4  276.47   16.87
   2   2  -3  276.10   15.96
  -2  -2   3  250.33   14.34
   2   2  -3  275.89   15.59
   2   2  -2  145.65   10.36
  -2  -2   2  156.97   10.45
   2   2  -2  158.21   10.78
   2   2  -1   -0.74    1.85
   2   2  -1    2.67    2.22
  -2  -2   1    1.25    2.83
  -2  -2   1    0.48    2.37
   2   2   0   74.50    4.76
  -2  -2   0   77.29    6.69
  -2  -2   0   69.74    4.86
   2   2   0   64.35    6.47
   2   2   0   77.03    6.66
  -2  -2  -1 5131.60   53.68
   2   2   1 5059.73   52.70
  -2  -2  -2  674.13   20.64
   2   2   2  712.63   21.43
  -2  -2  -3  242.84    9.06
   2   2   3  300.26   15.36
  -2  -2  -3  257.87   14.13
  -2  -2  -4   89.60    9.21
   2   2   4   91.53    9.64
  -2  -2  -4   81.73    6.76
  -2  -2  -5 1257.04   30.57
   2   2   5 1321.48   38.63
  -2  -2  -5 1352.88   38.21
   2   2   6   13.80    5.37
  -2  -2  -6   17.80    5.40
  -2  -2  -6   14.05    4.03
   2   2   7    3.32    3.94
  -2  -2  -7    5.74    3.13
  -2  -2  -8   19.73    5.89
   2   2   8   22.08    7.09
   2   2   9  127.35   16.90
   2   2  10   86.30   14.80
   2   2  11  236.92   25.66
  -2  -3  10   -2.32    5.13
  -2  -3   9    4.08    5.20
  -2  -3   8  432.09   29.79
  -2  -3   7   -0.66    3.83
  -2  -3   6  204.52   17.88
  -2  -3   5  146.85   14.35
   2   3  -5  145.89   14.90
   2   3  -5  172.70   15.69
   2   3  -4  538.32   26.00
  -2  -3   4  542.59   24.95
   2   3  -4  548.47   25.94
   2   3  -3  400.35   20.59
  -2  -3   3  426.78   20.52
   2   3  -3  441.24   21.64
   2   3  -2  112.06    9.76
  -2  -3   2  146.35   11.46
   2   3  -2  134.30   11.15
   2   3  -1 3342.93   45.00
  -2  -3   1 3481.80   51.23
   2   3  -1 3498.88   51.94
   2   3   0  202.93   12.43
   2   3   0  192.41    8.67
   2   3   0  206.93   12.45
  -2  -3  -1   45.97    5.98
   2   3   1   43.71    6.26
   2   3   1   47.44    2.61
  -2  -3  -2 5260.35   62.43
   2   3   2 5084.59   62.50
  -2  -3  -3  334.28   16.74
   2   3   3  331.64   17.05
  -2  -3  -3  292.66    7.32
   2   3   4   40.43    7.02
  -2  -3  -4   47.46    7.00
  -2  -3  -4   41.61    4.21
  -2  -3  -5   80.33    9.57
  -2  -3  -5   78.93    7.07
   2   3   5   82.24   10.08
   2   3   6  112.17   12.60
  -2  -3  -6  118.10    9.94
  -2  -3  -6  119.67   12.44
  -2  -3  -7  226.47   15.52
   2   3   7  225.20   19.17
   2   3   8  133.00   16.26
  -2  -3  -8  114.89   12.35
   2   3   9    1.18    4.91
   2   3   9    7.56    4.63
   2   3  10  142.39   18.71
   2   3  11   -1.39    4.04
  -2  -4  10    3.13    6.83
  -2  -4   9   69.05   13.17
  -2  -4   8   74.56   13.17
  -2  -4   7  148.89   17.63
  -2  -4   6   59.01   10.96
  -2  -4   5  526.90   28.31
  -2  -4   4   10.62    5.27
   2   4  -4   14.05    5.17
   2   4  -4   12.68    4.79
  -2  -4   3    4.54    3.57
   2   4  -3    3.77    2.85
   2   4  -3    8.54    3.46
   2   4  -2  110.62   10.60
  -2  -4   2  109.15   11.13
   2   4  -2  103.90   10.96
  -2  -4   1 2472.49   48.08
   2   4  -1 2492.33   49.15
   2   4   0  347.63   17.68
   2   4   0  332.09   17.33
   2   4   1  120.91   10.35
   2   4   1  113.18   10.13
  -2  -4  -1  126.52   10.56
   2   4   2  153.79   11.81
  -2  -4  -2  161.92   12.15
   2   4   2  162.16    5.01
   2   4   3  498.07   10.53
  -2  -4  -3  484.46   21.28
   2   4   3  531.57   22.47
  -2  -4  -4  127.19    6.57
   2   4   4  122.58   11.64
  -2  -4  -4  121.57   11.28
  -2  -4  -5  573.44   25.81
  -2  -4  -5  532.71   16.77
   2   4   5  528.08   25.51
  -2  -4  -6  190.78   11.85
   2   4   6  222.61   17.87
  -2  -4  -6  219.77   17.21
  -2  -4  -7  375.12   18.80
   2   4   7  439.05   26.67
   2   4   8  531.66   31.43
  -2  -4  -8  492.00   24.05
   2   4   9   15.48    6.33
   2   4  10  222.99   23.56
   2   4  11   57.61   12.57
   2   4  12    5.45    4.87
  -2  -5   9   48.78   11.98
  -2  -5   8  165.18   20.41
  -2  -5   7    3.07    4.67
  -2  -5   6   63.64   11.47
  -2  -5   5   70.00   11.37
   2   5  -4 1285.57   45.61
  -2  -5   4 1178.98   42.48
  -2  -5   3   26.34    6.64
   2   5  -3   40.62    8.07
   2   5  -3   27.78    6.31
  -2  -5   2  134.79   13.41
   2   5  -2  124.18   12.68
  -2  -5   1  142.99   13.00
   2   5  -1  149.83   13.37
   2   5  -1  149.31   13.44
   2   5   0  579.50   24.96
   2   5   0  580.28   24.84
   2   5   1  304.88   17.76
   2   5   1  327.53   18.57
   2   5   2 1755.37   42.26
  -2  -5  -2 1722.82   42.77
   2   5   2 1802.82   43.15
   2   5   2 1702.73   23.18
   2   5   3  116.19   11.57
   2   5   3  136.98    6.56
  -2  -5  -3  122.75   11.66
   2   5   4  324.45   11.64
  -2  -5  -4  329.18   19.38
   2   5   4  323.94   19.76
  -2  -5  -5  100.20   11.19
   2   5   5  110.11    8.43
   2   5   5   95.72   11.55
  -2  -5  -5  100.00    7.14
   2   5   6  383.26   23.77
  -2  -5  -6  346.17   15.34
   2   5   7   52.50    9.88
  -2  -5  -7   34.90    5.62
   2   5   8  105.71   14.65
  -2  -5  -8  135.51   12.25
   2   5   9    0.87    3.59
   2   5  10   24.83    8.66
   2   5  11   10.81    5.87
  -2  -6   8    1.90    5.07
  -2  -6   7  142.18   19.07
  -2  -6   6    6.21    4.37
  -2  -6   5   33.22    8.60
  -2  -6   4  356.90   25.10
  -2  -6   3   58.18    9.99
  -2  -6   2  190.70   16.85
   2   6  -1 1288.49   42.75
  -2  -6   1 1214.35   40.32
   2   6  -1 1247.87   40.60
   2   6   0   15.42    5.10
   2   6   0   14.85    4.95
   2   6   1  135.48   12.89
   2   6   1  123.72   12.39
   2   6   2 1360.80   40.13
   2   6   2 1326.04   25.23
  -2  -6  -3  324.09   20.36
   2   6   3  370.24   21.08
   2   6   3  340.23   12.29
   2   6   3  316.41   19.84
   2   6   4  423.55   14.57
   2   6   4  438.05   23.84
  -2  -6  -4  459.24   24.48
   2   6   5   95.17    7.76
   2   6   5   66.91   10.09
   2   6   6    1.31    1.92
   2   6   6    1.47    4.04
   2   6   7   62.59   11.27
  -2  -6  -7   72.90    7.69
   2   6   8    3.03    4.35
   2   6   9   75.19   13.17
   2   6  10  151.90   19.44
   2   6  11   54.24   13.95
   2   6  11   58.44   12.44
  -2  -7   7  201.40   23.23
  -2  -7   6  -17.14    7.95
  -2  -7   5   65.29   13.06
  -2  -7   4   70.20   12.41
  -2  -7   3    0.47    3.46
  -2  -7   2  112.84   14.07
  -2  -7   1  200.89   17.95
   2   7  -1  237.28   19.50
   2   7   0 1647.38   49.08
   2   7   1  711.38   31.94
   2   7   2    7.06    4.99
   2   7   2    6.30    2.45
   2   7   3   31.96    4.70
   2   7   3   26.61    6.96
   2   7   4   15.52    5.84
   2   7   4   12.08    3.27
   2   7   5   83.40   12.07
   2   7   5  101.27    8.42
   2   7   6  248.51   14.39
   2   7   6  225.56   19.76
   2   7   7  393.64   20.41
   2   7   7  366.83   26.28
   2   7   8  236.97   22.10
   2   7   9    5.83    6.72
   2   7  10    9.08    4.82
   2   7  11  116.95   18.37
  -2  -8   6   -5.83    6.19
  -2  -8   5    7.49    6.05
  -2  -8   4  191.04   21.40
  -2  -8   3  120.91   16.30
   2   8  -2  314.51   24.60
  -2  -8   2  349.28   26.23
   2   8  -1    3.26    3.69
   2   8   0  124.15   14.95
   2   8   1  175.98   17.14
   2   8   2    8.56    4.20
   2   8   2    9.36    3.10
   2   8   3  404.28   25.71
   2   8   3  422.87   17.87
   2   8   4   25.16    4.46
   2   8   4   24.81    6.82
   2   8   5  324.73   24.02
   2   8   5  332.45   16.12
   2   8   6   63.10   10.97
   2   8   6   80.55    8.37
   2   8   7   13.32    5.51
   2   8   8  182.47   20.17
   2   8   9   -8.54    6.22
   2   8  10   21.99    8.54
  -2  -9   5  131.21   19.50
  -2  -9   4   19.22    7.66
   2   9  -3  177.54   20.52
  -2  -9   3  160.57   19.64
  -2  -9   2   -4.04    4.30
   2   9  -2   -3.43    4.49
   2   9  -1   31.01    8.94
   2   9   0   52.37   10.50
   2   9   1  124.94   15.72
   2   9   2   -2.67    5.41
   2   9   2    3.90    2.50
   2   9   3  211.62   19.84
   2   9   3  238.80   14.85
   2   9   4    8.95    3.19
   2   9   4   18.81    6.48
   2   9   5  293.25   23.99
   2   9   6  114.41   15.53
   2   9   7    2.54    4.53
   2   9   8   34.76    9.92
   2   9   9   -3.48    4.32
   2  10  -3  186.85   22.40
  -2 -10   3  201.20   23.22
   2  10  -2   33.68   10.08
   2  10  -1   59.22   12.31
   2  10   0  259.51   24.39
   2  10   1   23.22    8.10
   2  10   2  179.22   14.54
   2  10   2  175.12   18.93
   2  10   3   17.52    7.74
   2  10   4   18.28    7.20
   2  10   5   20.31    7.67
   2  10   6   22.07    7.65
   2  10   7   70.98   13.22
   2  10   8   90.94   14.86
   2  10   9    4.27    3.79
   2  11  -1   51.15   12.34
   2  11   0   26.37    8.37
   2  11   1   36.46    9.75
   2  11   2   74.68   13.61
   2  11   3   73.12   13.60
   2  11   4   41.58   10.97
   2  11   5  320.86   27.26
   2  11   6   31.53    9.60
   2  11   7  -11.15    5.79
   2  12   3   26.40    8.33
   2  12   4  123.62   18.33
  -3  10   5   37.85   10.50
  -3  10   4   29.39    8.64
  -3  10   3    0.79    2.12
  -3  10   2    6.54    5.11
  -3  10   1   -8.97    4.79
  -3  10   0   42.86   10.94
   3 -10   3    7.81    5.45
  -3   9   7   29.40    9.41
  -3   9   6    8.95    5.77
  -3   9   5   46.71   11.67
  -3   9   4  167.14   19.84
  -3   9   3    9.61    5.25
  -3   9   2    4.56    4.52
  -3   9   1    6.02    4.07
   3  -9   0   13.33    5.24
  -3   9   0    9.77    4.91
  -3   9  -1   75.71   10.57
   3  -9   1   85.28   12.29
   3  -9   2  139.90   16.49
   3  -9   3    8.20    5.36
   3  -9   4   51.47   11.39
   3  -9   5   43.57   11.02
  -3   8   8   11.56    5.88
  -3   8   7   22.26    8.91
  -3   8   6  125.60   17.76
  -3   8   5    4.87    4.81
  -3   8   4  115.18   16.58
  -3   8   3   62.95   11.85
  -3   8   2   23.36    4.78
  -3   8   2   31.84    8.60
  -3   8   1  127.87   11.06
  -3   8   1  124.48   16.37
   3  -8   0  174.74   14.81
  -3   8   0  173.64   14.07
   3  -8   1   17.37    5.69
   3  -8   2   29.01    8.15
   3  -8   3   33.60    8.79
   3  -8   4   64.20   12.38
   3  -8   5   21.79    8.73
   3  -8   6  145.98   20.67
  -3   7   9    3.97    4.86
  -3   7   8    6.80    3.78
  -3   7   7   36.93    9.86
  -3   7   6  170.27   19.68
  -3   7   5  201.94   20.58
  -3   7   4  519.40   31.79
  -3   7   3    5.30    1.75
  -3   7   3   -2.34    3.82
  -3   7   2    3.80    1.95
  -3   7   2    1.19    1.37
  -3   7   2    0.28    4.01
  -3   7   1  134.74   10.33
  -3   7   1  168.12   17.48
  -3   7   1  128.25   11.25
  -3   7   0    1.78    1.48
  -3   7   0    6.82    3.00
   3  -7   0    3.20    2.69
   3  -7   1   21.58    5.82
  -3   7  -1   29.81    6.71
   3  -7   2  347.72   23.10
   3  -7   3  128.77   15.37
   3  -7   4   -1.69    3.43
   3  -7   5   24.03    7.88
   3  -7   6   84.67   14.70
   3  -7   7   16.19    8.72
  -3   6   9   23.10    7.40
  -3   6   8    8.25    5.56
  -3   6   7  174.38   20.11
  -3   6   6   13.07    5.49
  -3   6   5   51.43   10.51
  -3   6   4  230.99   20.24
  -3   6   3   50.52    9.34
  -3   6   3   52.19    3.75
  -3   6   2  659.83   18.98
  -3   6   2  673.80   33.14
  -3   6   2  661.98   16.89
  -3   6   1   76.34    7.07
   3  -6  -1   73.65    7.37
  -3   6   1   74.97   11.38
  -3   6   1   65.46    7.31
   3  -6   0  853.64   27.74
  -3   6   0  780.05   28.01
  -3   6  -1   19.77    5.59
   3  -6   1   21.65    5.17
   3  -6   2   18.71    5.91
  -3   6  -2   12.82    4.69
   3  -6   3  415.65   25.95
   3  -6   4    6.06    4.51
   3  -6   5   69.18   12.51
   3  -6   6   53.10   11.70
   3  -6   7   53.80   12.44
  -3   5  10  203.65   24.54
  -3   5   9   40.56   10.40
  -3   5   8   75.85   14.87
  -3   5   7  153.32   18.64
   3  -5  -6   65.05    5.15
  -3   5   6   69.99   12.14
  -3   5   5   32.97    8.65
  -3   5   4  209.37   18.48
  -3   5   3    3.80    3.73
  -3   5   2    0.25    0.61
  -3   5   2   -4.32    3.99
  -3   5   1    9.40    2.47
  -3   5   1    9.74    2.62
  -3   5   1    3.23    3.34
   3  -5  -1   12.44    3.04
  -3   5   0  696.15   24.03
   3  -5   0  803.92   24.64
  -3   5  -1   63.82    8.24
   3  -5   1   75.88    8.81
   3  -5   2   28.13    6.23
  -3   5  -2   31.60    6.59
  -3   5  -3   -0.16    1.32
   3  -5   3    9.10    5.16
   3  -5   4   12.02    5.62
   3  -5   5    7.27    5.26
   3  -5   6  450.96   32.03
   3  -5   7  194.84   22.20
   3  -5   8   77.35   14.83
  -3   4  10    9.12    7.11
  -3   4   9   62.57   13.21
  -3   4   8   28.31    8.21
  -3   4   7  246.70   23.36
   3  -4  -7  258.18   13.38
  -3   4   7  244.59    9.61
   3  -4  -6   24.24    3.57
  -3   4   6   24.33    8.34
   3  -4  -5  101.51    5.23
  -3   4   5  115.08   13.97
  -3   4   4    5.86    4.55
  -3   4   3 1523.04   45.14
  -3   4   2    3.03    3.77
  -3   4   1   90.22    5.02
  -3   4   1   90.08    5.09
   3  -4  -1   89.45    6.01
  -3   4   1  101.58   11.48
  -3   4   0    1.36    1.42
   3  -4   0    5.90    2.23
  -3   4  -1  169.97   11.36
   3  -4   1  182.71   12.49
   3  -4   2  178.57   13.92
  -3   4  -2  166.00   12.70
   3  -4   3  737.97   30.85
  -3   4  -3  682.98   28.24
  -3   4  -4   21.06    5.88
   3  -4   4   23.05    7.02
   3  -4   5    1.24    4.04
   3  -4   6    6.76    6.47
   3  -4   7  461.32   33.06
   3  -4   8   -2.80    5.03
   3  -4   9   -4.75    5.91
  -3   3  10   -6.45    5.13
  -3   3   9   11.71    5.77
  -3   3   8  196.48   21.50
  -3   3   8  177.52   12.13
  -3   3   7  176.89   19.58
  -3   3   7  166.26   10.17
   3  -3  -7  147.86   11.04
   3  -3  -6  255.28   12.43
  -3   3   6  260.59   10.11
  -3   3   6  258.26   21.47
   3  -3  -5    1.08    0.92
  -3   3   5    1.39    3.75
  -3   3   4   48.27    8.60
   3  -3  -4   52.67    8.39
   3  -3  -3  221.08   15.97
  -3   3   3  198.21   15.76
  -3   3   2  231.54   16.30
   3  -3  -1  270.61    8.31
  -3   3   1  270.94   16.89
  -3   3   0  972.31   19.41
   3  -3   0 1010.78   22.70
  -3   3  -1    4.30    1.91
   3  -3   1    0.02    2.21
  -3   3  -2    1.68    1.88
   3  -3   2    1.23    2.96
  -3   3  -3 1011.76   32.42
   3  -3   3 1002.94   34.31
  -3   3  -4  246.45   17.75
   3  -3   4  257.44   19.30
   3  -3   5  172.17   17.14
   3  -3   6   20.45    7.25
   3  -3   7   22.08    7.58
   3  -3   8   96.71   15.86
   3  -3   9    6.05    5.58
  -3   2  10   23.07   10.01
  -3   2   9  319.67   29.58
  -3   2   9  268.92   18.27
   3  -2  -8   11.49    3.90
  -3   2   8   17.27    4.58
  -3   2   8   20.38    7.34
  -3   2   7   32.11    5.47
   3  -2  -7   17.25    4.17
  -3   2   7   42.12    9.22
  -3   2   6  774.54   36.89
  -3   2   6  797.56   21.93
   3  -2  -6  776.89   24.10
  -3   2   5   29.91    3.46
   3  -2  -5   33.60    4.37
  -3   2   5   25.52    7.96
  -3   2   4  357.48   21.59
   3  -2  -4  342.18   20.63
   3  -2  -4  348.85   10.62
   3  -2  -3  260.81   16.90
  -3   2   3  263.97   17.29
  -3   2   2   22.53    5.65
   3  -2  -2   17.97    4.67
  -3   2   1   77.94    8.92
   3  -2  -1   75.60    4.09
  -3   2   0 1206.15   19.17
  -3   2   0 1288.36   32.78
   3  -2   0 1179.76   23.04
   3  -2   1 1796.19   34.42
  -3   2  -1 1865.18   31.17
   3  -2   2 1768.78   39.38
  -3   2  -2 1757.92   35.57
  -3   2  -3  224.82   14.65
   3  -2   3  218.34   15.73
  -3   2  -4   60.49    8.69
   3  -2   4   60.62    9.22
   3  -2   5  215.55   18.53
  -3   2  -5  185.94   16.07
   3  -2   6   36.44    8.75
   3  -2   7  306.62   25.29
   3  -2   8  182.89   21.00
   3  -2   9  161.68   20.94
   3  -2  10   61.62   14.26
  -3   1  10   28.55    6.94
  -3   1   9  443.12   34.99
  -3   1   9  421.05   24.52
   3  -1  -8   14.09    4.99
  -3   1   8   16.56    4.93
  -3   1   8    7.06    5.25
  -3   1   7   -0.59    2.07
   3  -1  -7   -4.51    2.73
  -3   1   7   -4.93    4.83
  -3   1   6   -0.93    2.06
   3  -1  -6    0.40    1.76
  -3   1   6   -1.76    3.34
   3  -1  -5    4.96    3.61
  -3   1   5    1.40    1.88
   3  -1  -5    2.61    1.86
  -3   1   5    5.88    4.58
   3  -1  -4    2.49    1.65
   3  -1  -4    4.02    1.74
  -3   1   4    2.80    3.82
   3  -1  -4    2.77    2.43
  -3   1   4    1.07    1.02
  -3   1   3  519.41   23.56
   3  -1  -3  547.38   23.67
   3  -1  -3  568.15   13.12
   3  -1  -2 1135.71   14.43
  -3   1   2 1205.74   32.77
   3  -1  -2 1101.56   15.11
   3  -1  -2 1204.70   32.70
   3  -1  -1  630.03   11.12
   3  -1  -1  629.54   21.82
  -3   1   1  623.82   22.22
   3  -1   0   21.31    3.00
  -3   1   0   15.60    2.48
  -3   1   0   15.30    4.16
   3  -1   1 1669.89   29.29
  -3   1  -1 1639.76   28.06
   3  -1   2  947.20   26.02
  -3   1  -2  927.58   25.07
  -3   1  -3  127.95   10.51
   3  -1   3  143.58   12.43
   3  -1   4 1672.88   45.45
  -3   1  -4 1613.86   41.51
   3  -1   5  125.48   13.98
  -3   1  -5  113.11   12.02
   3  -1   6  947.31   40.30
   3  -1   7    3.26    4.18
   3  -1   8   97.11   15.51
   3  -1   9   32.14   10.50
   3  -1  10   -5.84    5.49
  -3   0  10   56.08   10.97
  -3   0   9    9.69    4.81
  -3   0   8   33.09    7.56
  -3   0   8   31.05    9.78
   3   0  -7   45.54    7.75
  -3   0   7   42.91    9.90
  -3   0   7   41.57    7.17
  -3   0   6  801.01   37.63
  -3   0   6  732.01   26.57
   3   0  -6  726.13   27.75
  -3   0   5  269.54   20.38
  -3   0   5  242.72   13.83
   3   0  -5  243.48   18.28
   3   0  -5  247.84   14.62
  -3   0   4  556.11   26.31
   3   0  -4  563.84   25.44
  -3   0   4  515.42   17.89
   3   0  -4  545.94   19.13
   3   0  -3    1.56    2.44
  -3   0   3    2.94    1.82
   3   0  -3    2.73    1.82
  -3   0   3    2.30    3.62
   3   0  -2 1114.17   20.80
  -3   0   2 1160.34   31.14
   3   0  -2 1067.31   21.02
   3   0  -2 1158.46   30.66
   3   0  -1  157.87    7.59
   3   0  -1  154.50    7.77
   3   0  -1  170.01   10.79
  -3   0   1  144.27   10.31
  -3   0   0   51.91    4.71
   3   0   0   50.68    4.77
  -3   0   0   44.37    5.60
   3   0   1  735.38   19.93
  -3   0  -1  753.07   19.77
   3   0   2 1192.83   28.58
  -3   0  -2 1258.05   28.71
   3   0   3   58.26    7.77
  -3   0  -3   68.19    7.60
   3   0   4 1023.83   33.24
  -3   0  -4  988.11   32.24
   3   0   5   70.65   10.29
  -3   0  -5   63.04    8.74
   3   0   6  508.28   29.05
   3   0   7   74.03   12.45
   3   0   8  116.17   16.60
   3   0   9   24.44    8.61
   3   0  10   60.28   13.75
  -3  -1  11  117.13   16.87
  -3  -1  10    4.35    4.54
  -3  -1   9  155.89   16.90
  -3  -1   8  209.38   18.35
  -3  -1   7    1.76    3.21
   3   1  -7   -4.30    3.64
  -3  -1   6 1040.32   34.64
   3   1  -6 1017.48   35.66
  -3  -1   5  382.60   24.85
  -3  -1   5  345.96   18.33
   3   1  -5  365.29   19.51
   3   1  -5  361.88   22.57
  -3  -1   4  381.21   22.38
  -3  -1   4  391.72   17.81
   3   1  -4  369.91   17.94
   3   1  -4  386.78   21.51
   3   1  -3   42.27    5.59
   3   1  -3   38.41    6.44
  -3  -1   3   47.02    7.50
  -3  -1   3   40.50    5.41
  -3  -1   2 1197.70   31.93
   3   1  -2 1192.19   30.30
   3   1  -2 1194.58   26.55
  -3  -1   1 1728.59   33.11
   3   1  -1 1703.94   30.12
   3   1  -1 1599.71   31.25
   3   1  -1 1741.46   29.82
  -3  -1   0    3.97    2.34
   3   1   0    7.39    2.78
  -3  -1   0    6.58    2.31
   3   1   0    8.19    2.41
  -3  -1  -1  868.52   22.38
  -3  -1  -1  824.64   18.33
   3   1   1  887.92   23.01
   3   1   2   20.27    4.73
  -3  -1  -2   14.05    3.61
   3   1   3  287.65   16.03
  -3  -1  -3  295.49   15.96
   3   1   4   47.53    7.80
  -3  -1  -4   36.85    6.51
   3   1   5  140.45   13.73
  -3  -1  -5  152.86   13.68
   3   1   6   15.22    5.64
   3   1   7   11.17    5.55
   3   1   7   28.02    8.24
  -3  -1  -7   28.00    6.67
   3   1   8  206.29   21.55
   3   1   9  369.63   30.15
   3   1  10    1.02    3.91
   3   1  11   81.26   15.89
  -3  -2  11   30.80    9.11
  -3  -2  10   20.58    7.55
  -3  -2   9   -5.14    4.88
  -3  -2   8  410.61   27.36
  -3  -2   7   49.02    9.56
  -3  -2   6   12.14    5.12
   3   2  -6    5.68    4.29
   3   2  -5  125.21   13.81
  -3  -2   5   98.03   10.75
   3   2  -5  110.40   11.96
  -3  -2   4  186.91   16.26
  -3  -2   4  178.16   13.68
   3   2  -4  204.27   14.87
   3   2  -4  185.35   15.23
   3   2  -3  107.34   10.58
  -3  -2   3  123.50   12.13
  -3  -2   3   87.52    9.09
   3   2  -3  106.48   10.01
  -3  -2   2 3329.89   53.19
  -3  -2   2 3138.34   48.14
   3   2  -2 3168.36   49.71
   3   2  -2 3173.13   50.15
   3   2  -1  630.59   20.87
  -3  -2   1  617.66   19.68
   3   2  -1  612.00   20.78
   3   2  -1  624.58   19.24
  -3  -2   0 2105.59   37.92
  -3  -2   0 2152.88   31.11
   3   2   0 2088.46   29.51
  -3  -2  -1   42.01    5.81
  -3  -2  -1   47.04    3.94
   3   2   1   50.63    6.37
  -3  -2  -2  127.03   10.09
  -3  -2  -2  124.24    5.48
   3   2   2  122.12   10.51
   3   2   3  605.87   23.70
  -3  -2  -3  576.26   22.88
   3   2   4  226.28   15.89
  -3  -2  -4  218.39   15.21
  -3  -2  -5  116.66   11.97
  -3  -2  -5  106.64    9.32
   3   2   5  112.61   12.29
  -3  -2  -6  952.58   30.73
   3   2   6 1003.63   38.67
  -3  -2  -7   10.43    3.90
   3   2   7    9.21    5.64
  -3  -2  -8  134.03   13.87
   3   2   8  148.25   17.70
   3   2   9  132.18   18.03
   3   2  10   56.53   13.47
   3   2  11    2.40    4.00
  -3  -3  10    0.04    4.12
  -3  -3   9   -0.87    4.09
  -3  -3   8    5.82    5.27
  -3  -3   7    9.46    4.87
  -3  -3   6   28.11    6.92
  -3  -3   5  374.07   22.49
   3   3  -5  446.80   25.46
   3   3  -4   60.64    8.87
   3   3  -4   55.57    8.93
  -3  -3   4   59.28    8.83
   3   3  -3  667.97   26.99
  -3  -3   3  691.54   26.90
   3   3  -3  690.31   28.08
   3   3  -2  349.77   17.30
  -3  -3   2  305.45   16.99
   3   3  -2  311.70   17.61
   3   3  -1 1815.71   33.81
   3   3  -1 1837.01   39.72
   3   3  -1 1823.05   40.49
   3   3   0 1202.72   31.56
   3   3   0 1122.18   21.72
   3   3   0 1236.21   32.25
   3   3   1   15.13    4.30
  -3  -3  -1   18.71    4.35
   3   3   1   17.42    1.93
  -3  -3  -2  127.61   10.81
   3   3   2  126.78   11.01
  -3  -3  -3  141.57   11.92
   3   3   3  141.47   12.11
  -3  -3  -4   56.08    4.29
   3   3   4   65.09    9.18
  -3  -3  -4   59.82    8.42
  -3  -3  -5  594.01   18.15
   3   3   5  663.55   29.62
  -3  -3  -5  666.81   28.89
  -3  -3  -6  364.72   16.78
   3   3   6  385.68   24.56
  -3  -3  -7  783.42   27.85
   3   3   7  883.43   39.12
  -3  -3  -8  406.98   22.31
   3   3   8  452.08   30.17
   3   3   9   75.70   13.60
   3   3  10   15.94    7.72
   3   3  11   22.63    8.91
  -3  -4  10   37.39   11.20
  -3  -4   9   -1.12    4.81
  -3  -4   8   63.17   12.34
  -3  -4   7    5.07    5.30
  -3  -4   6   42.96    8.89
  -3  -4   5  186.32   17.09
  -3  -4   4  648.94   29.96
   3   4  -4  675.40   31.43
   3   4  -3  914.72   32.49
  -3  -4   3  980.65   34.77
   3   4  -3 1019.83   36.45
  -3  -4   2   66.34    9.18
   3   4  -2   52.66    7.22
   3   4  -2   72.32    9.30
   3   4  -1    3.73    2.61
   3   4  -1    0.96    3.57
   3   4  -1    3.97    2.58
   3   4   0   65.41    8.65
   3   4   0   67.04    5.82
   3   4   0   77.63    9.35
   3   4   1 1247.06   34.78
  -3  -4  -1 1241.93   35.32
   3   4   1 1245.97   35.33
   3   4   1 1219.01   16.40
   3   4   2  384.74   20.07
  -3  -4  -2  384.19   20.01
  -3  -4  -3 1404.92   39.02
   3   4   3 1347.31   38.80
   3   4   4  309.47   19.40
  -3  -4  -4  302.36   18.94
  -3  -4  -5    2.41    1.40
   3   4   5    3.81    4.47
  -3  -4  -5    4.12    2.77
  -3  -4  -6  202.73   10.94
   3   4   6  211.07   18.27
   3   4   7  443.48   28.31
  -3  -4  -7  447.24   19.15
  -3  -4  -8   83.20    9.30
   3   4   8   79.18   13.03
   3   4   9    4.93    4.43
   3   4  10  196.06   23.01
   3   4  11   30.08   10.82
  -3  -5   9   75.99   14.80
  -3  -5   8  337.37   28.75
  -3  -5   7   84.44   14.05
  -3  -5   6  333.49   26.32
  -3  -5   5   63.18   11.13
  -3  -5   4    4.58    5.01
   3   5  -3   41.37    7.49
  -3  -5   3   33.76    7.78
   3   5  -2   22.33    5.77
   3   5  -2   13.61    4.11
   3   5  -2   13.68    5.33
  -3  -5   2   15.45    5.24
   3   5  -1  939.43   33.97
   3   5  -1  962.18   35.23
   3   5   0  783.39   30.47
   3   5   0  724.99   20.92
   3   5   0  777.83   30.70
   3   5   1  324.82   19.44
   3   5   1  298.35   10.09
   3   5   1  342.01   20.05
   3   5   2   15.03    5.06
  -3  -5  -2   15.22    4.74
   3   5   3    2.84    4.05
  -3  -5  -3   -3.16    2.52
  -3  -5  -4  213.77   16.80
   3   5   4  199.63   16.42
   3   5   5  284.20   20.58
  -3  -5  -6  150.40    8.20
   3   5   6  131.53   14.80
  -3  -5  -7  650.45   20.71
   3   5   7  682.69   35.49
   3   5   8   94.31   14.55
   3   5   9    4.11    5.43
   3   5  10  177.60   22.07
   3   5  11   17.52    7.94
   3   5  11   -0.30    4.48
  -3  -6   8   38.10   10.87
  -3  -6   7   52.89   12.37
  -3  -6   6   26.53    9.18
  -3  -6   5    8.79    5.30
  -3  -6   4  265.28   22.56
   3   6  -3  653.19   31.42
  -3  -6   3  716.05   34.48
   3   6  -2  401.90   25.09
   3   6  -2  378.47   21.93
  -3  -6   2  414.15   25.35
   3   6  -1  222.28   18.16
   3   6  -1  203.76   14.57
   3   6   0  848.49   34.17
   3   6   0  771.34   24.62
   3   6   1  329.05   21.01
   3   6   1  340.15   13.56
   3   6   1  355.18   22.31
   3   6   2  379.11   22.71
   3   6   2  388.16   10.05
   3   6   2  371.38   22.83
   3   6   2  392.87    9.38
  -3  -6  -2  423.59   23.95
   3   6   3   39.07    7.96
   3   6   4  315.04   21.80
   3   6   5   26.25    7.29
   3   6   6   44.57    9.33
   3   6   7  391.75   27.54
   3   6   8   -1.96    4.55
   3   6   9   18.06    6.27
   3   6  10   12.06    6.84
  -3  -7   7  158.61   21.16
  -3  -7   6  138.44   18.99
  -3  -7   5  242.97   23.90
  -3  -7   4   98.62   14.29
  -3  -7   3   12.70    6.08
   3   7  -2  608.55   32.84
   3   7  -2  585.87   29.22
  -3  -7   2  590.81   32.61
   3   7  -1   14.22    5.59
   3   7  -1   28.10    6.03
   3   7   0  108.68   13.63
   3   7   1    9.69    4.09
   3   7   2   13.97    5.99
   3   7   2   12.02    2.36
   3   7   3    3.82    5.58
   3   7   3    2.02    0.98
   3   7   4 1335.25   46.76
   3   7   5   33.80    8.00
   3   7   6  133.96   16.34
   3   7   7    0.80    3.62
   3   7   8   13.86    5.51
   3   7   9   51.61   12.06
   3   7  10   77.50   14.75
  -3  -8   6    1.08    6.17
  -3  -8   5  159.75   20.45
  -3  -8   4   12.81    7.02
   3   8  -3   77.08   13.56
  -3  -8   3  105.31   15.59
   3   8  -2    5.67    3.51
   3   8  -1   55.15   11.07
   3   8   0   25.45    7.80
   3   8   1  350.02   24.90
   3   8   2  208.58   19.26
   3   8   2  227.14   11.32
   3   8   3    1.90    1.27
   3   8   3   -0.15    4.48
   3   8   4  210.05    7.15
   3   8   4  217.04   20.25
   3   8   5  267.78   22.94
   3   8   6  186.34   19.62
   3   8   7   69.49   13.20
   3   8   8  -13.36    7.05
   3   8   9   -4.33    4.66
   3   9  -4   66.14   13.79
  -3  -9   4   57.15   13.38
   3   9  -3   11.63    5.63
  -3  -9   3    8.00    5.47
   3   9  -2  460.22   32.57
   3   9  -1    1.64    3.45
   3   9   0   -0.57    3.94
   3   9   1   63.48   11.97
   3   9   2   71.02   12.60
   3   9   2   74.61    7.37
   3   9   3   48.54   10.67
   3   9   4  136.50   17.43
   3   9   5   -0.90    4.47
   3   9   6    9.52    6.07
   3   9   7  176.48   20.67
   3   9   8  210.59   23.36
   3   9   9  111.90   17.82
   3  10  -3    3.21    5.26
   3  10  -2  393.97   32.05
   3  10  -1  147.51   19.13
   3  10   0   98.64   15.75
   3  10   1   15.40    7.45
   3  10   2   48.91   10.35
   3  10   3   30.87    9.04
   3  10   4   64.32   12.90
   3  10   5  215.81   23.19
   3  10   6  107.68   16.42
   3  10   7  -25.90    8.61
   3  11   0  -16.97    7.67
   3  11   1   31.71    9.65
   3  11   2   75.60   14.34
   3  11   3   16.47    7.96
   3  11   4   18.81    7.36
   3  11   5  254.35   25.71
   3  11   6  105.87   17.22
  -4   9   4   57.01   13.19
  -4   9   3   -3.93    4.85
  -4   9   2   29.93    9.19
  -4   9   1   73.45   13.60
  -4   9   0    1.66    5.96
  -4   9  -1   28.48    8.56
   4  -9   4    1.37    5.20
  -4   8   6   -6.63    5.39
  -4   8   5  101.64   16.55
  -4   8   4   10.96    6.25
  -4   8   3    2.84    3.68
  -4   8   2    0.92    2.78
  -4   8   1  129.03   17.45
  -4   8   0   35.94   10.09
   4  -8   1    0.66    2.86
   4  -8   2  184.92   17.51
   4  -8   3   19.74    7.95
   4  -8   4    9.24    5.00
   4  -8   5   -1.57    3.47
  -4   7   7  236.63   25.70
  -4   7   6   17.45    7.89
  -4   7   5    4.23    5.73
  -4   7   4   12.59    6.17
  -4   7   3   10.85    6.10
  -4   7   2    7.10    5.73
  -4   7   1  513.10   16.51
  -4   7   1  646.44   36.45
  -4   7   0   62.46    7.27
  -4   7   0   65.76   11.92
   4  -7   0   67.94    8.52
   4  -7   1   33.93    6.49
   4  -7   2    7.59    4.37
   4  -7   3   89.74   12.60
   4  -7   4   -4.59    5.35
   4  -7   5   30.67    8.86
   4  -7   6   36.57   10.90
  -4   6   8   22.52    8.43
  -4   6   7   25.65    9.09
  -4   6   6    6.30    5.67
  -4   6   5    8.10    6.10
  -4   6   4  260.49   23.14
  -4   6   3  231.48   21.27
  -4   6   2  140.76   16.79
  -4   6   1  170.68    8.11
  -4   6   1  172.02    8.31
   4  -6  -1  171.67   10.05
  -4   6   1  173.46   18.13
  -4   6   0  366.58   25.87
   4  -6   0  346.32   17.28
  -4   6   0  308.56   14.88
   4  -6   1  136.74   12.59
  -4   6  -1  119.11   10.84
   4  -6   2   40.31    7.82
  -4   6  -2   39.34    7.11
   4  -6   3    2.76    4.13
   4  -6   4  196.96   19.47
   4  -6   5   14.12    6.26
   4  -6   6   95.60   15.43
   4  -6   7   30.83    9.28
  -4   5   9    3.14    3.22
  -4   5   8    5.91    4.02
  -4   5   7  111.79   17.62
  -4   5   6   87.54   14.27
  -4   5   5   -6.00    5.33
  -4   5   4  156.77   17.29
  -4   5   3  494.50   29.68
  -4   5   2  172.55   17.42
  -4   5   1  134.69    5.51
   4  -5  -1  142.57    8.13
  -4   5   1  142.99   15.63
  -4   5   1  127.23    5.35
   4  -5   0   25.93    4.58
  -4   5   0   17.27    3.28
   4  -5   1   49.40    7.36
  -4   5  -1   53.29    6.79
  -4   5  -2  391.30   20.66
   4  -5   2  375.25   21.90
   4  -5   3  222.97   18.55
  -4   5  -3  216.78   17.05
   4  -5   4  170.11   17.52
   4  -5   5  254.13   23.04
   4  -5   6   37.86   10.79
   4  -5   7   34.84   10.09
   4  -5   8   58.41   13.50
  -4   4   9   43.30   11.82
  -4   4   8   60.17   12.92
  -4   4   7   93.43   15.31
  -4   4   6  158.72   18.63
  -4   4   5   20.43    7.69
  -4   4   4   19.82    6.75
  -4   4   3    5.35    4.46
  -4   4   2   94.06   12.36
   4  -4  -1   27.50    3.29
  -4   4   1   33.49    7.65
  -4   4   0 1032.06   37.86
   4  -4   0 1066.66   26.27
  -4   4   0 1007.57   21.45
   4  -4   1  323.41   17.37
  -4   4  -1  298.61   14.65
   4  -4   2  340.57   19.91
  -4   4  -2  304.82   17.06
  -4   4  -3   55.74    8.44
   4  -4   3   68.17   10.17
  -4   4  -4   98.33   11.86
   4  -4   4   88.03   12.49
   4  -4   5   28.78    8.11
   4  -4   6   61.23   11.55
   4  -4   7  227.23   23.93
   4  -4   8  270.06   27.33
  -4   3   9  265.58   27.62
  -4   3   8   58.59   13.06
  -4   3   7   76.91   14.02
   4  -3  -6   16.50    2.43
  -4   3   6   22.30    7.69
  -4   3   5   -7.48    5.32
  -4   3   4  123.01   14.32
  -4   3   3 1273.86   42.87
  -4   3   2  596.69   28.50
   4  -3  -1  288.53    9.36
  -4   3   1  303.19   20.04
  -4   3   0  396.77   22.13
   4  -3   0  397.39   15.35
  -4   3   0  384.42   12.09
  -4   3  -1   19.28    3.69
   4  -3   1   18.51    4.44
  -4   3  -2    1.34    1.82
   4  -3   2    7.48    4.18
  -4   3  -3   29.40    5.63
   4  -3   3   26.77    6.70
   4  -3   4  285.85   21.20
  -4   3  -4  258.01   18.56
   4  -3   5  358.64   25.44
   4  -3   6    0.10    4.51
   4  -3   7   70.60   13.49
   4  -3   8  360.86   30.77
   4  -3   9   48.21   13.24
  -4   2   9   55.78   12.82
  -4   2   8    1.08    3.67
   4  -2  -7   -1.61    1.64
  -4   2   7   -0.90    1.54
  -4   2   6  484.85   30.97
   4  -2  -6  410.37   15.81
  -4   2   5  200.09   18.83
   4  -2  -5  213.00    9.13
  -4   2   4   49.73    9.46
   4  -2  -3  427.71   23.30
  -4   2   3  440.92   24.48
  -4   2   2  298.13   19.49
  -4   2   1  678.17   27.94
   4  -2  -1  626.62   14.74
  -4   2   0   40.70    4.05
   4  -2   0   34.65    4.74
  -4   2   0   40.53    7.26
  -4   2  -1   26.76    4.15
   4  -2   1   28.40    5.13
  -4   2  -2  263.63   14.68
   4  -2   2  253.72   16.22
  -4   2  -3  427.05   20.89
   4  -2   3  406.62   22.34
  -4   2  -4    8.90    4.32
   4  -2   4   14.02    5.71
   4  -2   5 1770.48   54.97
   4  -2   6   30.22    8.60
   4  -2   7   36.57    9.29
   4  -2   8   90.42   15.89
   4  -2   9  169.60   22.07
  -4   1   9  165.10   22.31
  -4   1   8   25.44    5.43
  -4   1   8   28.84    9.79
  -4   1   7  281.24   25.17
  -4   1   7  261.12   15.11
   4  -1  -7  254.31   16.54
  -4   1   6  262.00   22.76
  -4   1   6  241.30   13.01
   4  -1  -6  229.12   14.13
   4  -1  -5   21.53    3.87
  -4   1   5   19.39    6.73
  -4   1   5   19.08    3.23
  -4   1   4  486.14   26.86
   4  -1  -4  496.98   14.75
   4  -1  -4  502.19   26.32
   4  -1  -3  187.67    7.71
   4  -1  -3  208.20   16.02
   4  -1  -3  185.19    7.87
  -4   1   3  193.27   16.06
   4  -1  -2  599.71   13.89
   4  -1  -2  597.24   25.27
  -4   1   2  599.54   25.83
   4  -1  -2  602.33   12.44
   4  -1  -1   40.35    3.76
  -4   1   1   42.77    7.19
  -4   1   0   84.57    6.09
  -4   1   0  101.55   10.11
   4  -1   0   84.44    6.44
   4  -1   1   -3.40    2.31
  -4   1  -1    0.67    2.02
  -4   1  -1    1.07    2.57
   4  -1   2  117.02   10.06
  -4   1  -2  118.90    9.72
   4  -1   3  955.09   31.52
  -4   1  -3  883.84   29.51
  -4   1  -4  186.47   14.90
   4  -1   4  201.60   17.06
   4  -1   5  146.07   15.99
  -4   1  -5  136.87   13.86
   4  -1   6  401.28   27.50
   4  -1   7  169.15   19.44
   4  -1   8  395.27   31.38
   4  -1   9  107.76   17.92
   4  -1  10    7.77    7.46
  -4   0   9  253.34   19.51
  -4   0   8   94.53   16.46
  -4   0   8  104.27   11.72
   4   0  -7  382.48   22.26
  -4   0   7  407.26   30.77
  -4   0   7  355.11   19.73
  -4   0   6   48.30   10.15
   4   0  -6   68.51    8.51
  -4   0   6   57.52    7.53
  -4   0   5  324.98   23.35
  -4   0   5  313.71   15.71
   4   0  -5  325.32   16.67
  -4   0   4   14.76    6.04
   4   0  -4   15.88    3.47
   4   0  -4   11.38    4.40
  -4   0   3  412.56   22.66
   4   0  -3  384.08   14.56
   4   0  -3  393.80   15.17
   4   0  -3  406.85   21.76
   4   0  -2    3.92    1.83
   4   0  -2    4.91    1.77
  -4   0   2    4.60    3.86
   4   0  -2    7.95    3.36
   4   0  -1 1875.80   31.32
   4   0  -1 1936.00   40.87
  -4   0   1 2019.59   42.95
   4   0  -1 1930.25   30.39
  -4   0   0  210.98   10.71
  -4   0   0  219.26   13.61
   4   0   0  187.95   10.21
  -4   0  -1  146.64    9.89
  -4   0  -1  137.58   10.31
   4   0   1  130.49    9.57
   4   0   2  165.15   11.87
  -4   0  -2  160.89   11.42
   4   0   3  529.26   23.25
  -4   0  -3  537.54   22.84
   4   0   4   71.25    9.48
  -4   0  -4   81.07    9.80
   4   0   5  895.65   36.00
  -4   0  -5  830.70   33.44
   4   0   6   12.90    5.75
   4   0   6    5.57    4.81
   4   0   7   54.71   11.28
   4   0   8  122.02   17.76
   4   0   9  495.29   36.48
   4   0  10    4.38    5.54
  -4  -1  10   -1.66    3.52
  -4  -1   9    4.43    3.85
  -4  -1   8   94.71   12.43
  -4  -1   7   46.05    8.16
   4   1  -7   50.24    8.84
  -4  -1   7   62.78   13.65
  -4  -1   6    5.84    3.69
  -4  -1   6   11.78    6.68
   4   1  -6    7.37    3.74
  -4  -1   5  916.23   39.37
  -4  -1   5  883.51   29.31
   4   1  -5  845.26   29.97
  -4  -1   4  705.89   31.60
  -4  -1   4  641.06   23.21
   4   1  -4  680.90   25.00
   4   1  -4  719.11   30.67
   4   1  -3  696.58   22.86
  -4  -1   3  717.85   29.37
   4   1  -3  685.35   23.03
   4   1  -3  734.06   28.71
  -4  -1   2  866.61   29.53
   4   1  -2  830.95   23.63
   4   1  -2  819.54   23.91
   4   1  -2  866.10   28.75
   4   1  -1  548.77   18.54
   4   1  -1  539.01   19.04
   4   1  -1  540.74   20.72
  -4  -1   1  565.68   21.94
  -4  -1   0  345.34   15.23
  -4  -1   0  351.04   15.85
   4   1   0  331.43   14.94
   4   1   1   11.14    3.51
  -4  -1  -1   13.82    3.56
  -4  -1  -1   19.76    4.17
  -4  -1  -2  427.85   19.11
  -4  -1  -2  386.97   15.18
   4   1   2  412.72   19.24
   4   1   3  165.26   13.15
  -4  -1  -3  190.38   13.83
   4   1   4    0.16    2.89
  -4  -1  -4   -3.97    2.62
   4   1   5  253.87   19.25
  -4  -1  -5  248.61   18.30
   4   1   6 1565.91   50.50
   4   1   7  122.40   15.74
   4   1   8    3.48    4.89
   4   1   9   12.72    6.54
   4   1  10   31.52   10.02
  -4  -2  10  138.91   17.64
  -4  -2   9    3.55    4.66
  -4  -2   8   18.78    6.64
  -4  -2   7  213.87   18.22
   4   2  -6   10.92    4.17
  -4  -2   6   18.28    5.64
  -4  -2   5  772.65   37.40
  -4  -2   5  719.88   29.13
   4   2  -5  763.69   31.27
   4   2  -4  385.60   22.92
  -4  -2   4  397.78   24.77
  -4  -2   4  360.13   19.37
   4   2  -4  390.89   20.89
   4   2  -3  209.16   14.27
  -4  -2   3  223.83   16.86
   4   2  -3  221.78   14.77
   4   2  -3  238.16   16.51
   4   2  -2   74.91    8.46
  -4  -2   2   82.18    9.37
   4   2  -2   81.38    8.61
   4   2  -2   77.91    8.73
  -4  -2   1   50.01    6.78
   4   2  -1   52.86    6.96
   4   2  -1   45.25    6.06
   4   2  -1   50.62    6.82
   4   2   0  340.16   16.50
  -4  -2   0  349.02   16.97
  -4  -2   0  348.47   14.91
   4   2   0  308.01   13.33
  -4  -2  -1  664.66   24.08
  -4  -2  -1  629.64   17.79
   4   2   1  652.60   23.69
  -4  -2  -2  415.66   19.78
  -4  -2  -2  374.39   12.73
   4   2   2  395.10   19.43
  -4  -2  -3 2818.97   54.24
   4   2   3 2815.53   54.94
   4   2   4    7.91    4.94
  -4  -2  -4    6.82    3.56
   4   2   5   11.82    5.35
  -4  -2  -5    4.90    3.89
   4   2   6  865.15   37.82
   4   2   7    6.11    4.85
  -4  -2  -7   -0.79    2.63
   4   2   8   48.56   10.73
  -4  -2  -8   37.40    7.45
   4   2   9  267.95   26.72
   4   2  10   73.05   14.76
  -4  -3  10   68.91   13.88
  -4  -3   9    3.94    3.52
  -4  -3   8  116.53   15.41
  -4  -3   7  103.70   14.36
  -4  -3   6  555.94   29.33
   4   3  -5   37.48    7.60
  -4  -3   5    9.39    4.43
   4   3  -4   17.69    4.99
   4   3  -4   18.68    5.17
  -4  -3   4   17.73    5.44
   4   3  -3  238.00   16.77
  -4  -3   3  282.14   19.51
  -4  -3   3  226.40   16.06
   4   3  -3  257.55   17.80
   4   3  -3  240.99   16.83
   4   3  -2  551.28   24.22
  -4  -3   2  530.70   23.86
   4   3  -2  546.48   24.39
   4   3  -2  543.06   22.67
   4   3  -1   10.15    2.85
   4   3  -1    8.15    3.99
  -4  -3   1   10.96    4.01
   4   3  -1    8.38    3.73
   4   3   0 1826.21   41.61
  -4  -3   0 1819.10   33.08
   4   3   0 1856.08   42.82
   4   3   0 1791.97   30.86
   4   3   1   12.22    4.43
  -4  -3  -1   13.20    3.59
  -4  -3  -1   14.50    2.57
   4   3   2   21.82    6.05
  -4  -3  -2   10.66    3.86
  -4  -3  -2   13.32    1.97
   4   3   3   53.74    8.67
  -4  -3  -3   57.25    8.29
  -4  -3  -3   54.36    3.36
  -4  -3  -4   90.99   10.93
   4   3   4   81.25   10.63
   4   3   5   13.03    5.63
  -4  -3  -5   12.58    2.68
  -4  -3  -6  448.38   18.35
   4   3   6  450.51   27.70
   4   3   7   81.30   12.74
  -4  -3  -7   61.94    7.84
   4   3   8   -0.44    4.22
  -4  -3  -8    2.82    3.09
   4   3   9  466.79   34.33
   4   3  10  183.24   22.62
   4   3  10  173.88   22.35
  -4  -4   9  115.37   16.89
  -4  -4   8   39.51    9.82
  -4  -4   7   59.81   11.58
  -4  -4   6   32.15    8.13
  -4  -4   5  258.08   20.42
  -4  -4   4  565.70   28.54
   4   4  -3  375.10   21.63
   4   4  -3  407.53   23.48
  -4  -4   3  372.78   22.16
   4   4  -3  431.29   24.46
   4   4  -2   16.18    4.94
   4   4  -2   16.06    5.65
   4   4  -2   15.99    4.48
   4   4  -1   39.83    7.18
   4   4  -1   33.62    6.67
   4   4  -1   39.62    5.72
   4   4   0  925.21   32.18
   4   4   0  950.96   33.24
   4   4   0  847.57   21.20
  -4  -4  -1   66.52    9.26
   4   4   1   67.63    9.05
   4   4   1   57.95    4.05
  -4  -4  -2  312.40   19.65
   4   4   2  323.03   19.66
  -4  -4  -3  280.02   18.84
   4   4   3  290.50   19.52
   4   4   4   29.25    6.93
   4   4   5    9.72    5.27
  -4  -4  -5    8.36    1.26
   4   4   6  692.10   34.58
  -4  -4  -6  651.22   17.22
   4   4   7   10.06    5.63
  -4  -4  -7   10.31    2.99
   4   4   8    2.70    5.03
   4   4   9   18.42    5.97
   4   4  10  170.82   22.10
  -4  -5   9  136.91   20.05
  -4  -5   8   94.41   15.74
  -4  -5   7    9.27    4.49
  -4  -5   6  294.73   24.67
  -4  -5   5   30.29    8.12
  -4  -5   4   47.56    9.16
   4   5  -3 1130.19   41.74
  -4  -5   3 1058.85   40.22
   4   5  -2   25.02    5.49
   4   5  -2   33.65    8.01
   4   5  -1   58.86    9.39
   4   5  -1   63.05    7.59
   4   5  -1   69.93   10.09
   4   5   0  385.01   22.69
   4   5   0  372.22   14.59
   4   5   0  387.93   22.96
   4   5   1   77.81   10.47
   4   5   1   76.65   10.29
   4   5   1   70.76    4.53
   4   5   2   64.36    9.84
  -4  -5  -2   62.97    9.31
   4   5   3  820.92   34.04
   4   5   4   37.56    8.36
   4   5   5  216.32   19.12
   4   5   6    4.05    3.79
   4   5   7  289.91   24.34
   4   5   8   23.12    8.30
   4   5   9  -12.72    6.92
   4   5  10   71.17   13.98
  -4  -6   8   -0.33    4.27
  -4  -6   7    6.97    5.93
  -4  -6   6  376.99   29.44
  -4  -6   5   27.11    8.82
  -4  -6   4   41.68    9.71
   4   6  -3   -6.40    3.68
   4   6  -3    5.82    5.21
  -4  -6   3    0.99    3.20
   4   6  -2   44.81    8.46
   4   6  -2   47.91    9.82
   4   6  -1  169.65   16.92
   4   6  -1  152.80   11.99
   4   6   0  145.20   15.21
   4   6   0  136.17    9.61
   4   6   1 1392.31   45.38
   4   6   1 1310.55   21.44
   4   6   2   28.04    7.72
   4   6   3  542.34   29.21
   4   6   4  539.15   29.99
   4   6   5  282.06   22.59
   4   6   6   82.78   13.34
   4   6   7   -7.54    4.84
   4   6   8  153.49   19.59
   4   6   9   72.48   14.32
   4   6  10   16.88    7.99
  -4  -7   7    3.98    5.58
  -4  -7   6   44.22   11.17
  -4  -7   5   65.26   12.77
   4   7  -4  209.26   21.68
  -4  -7   4  185.27   20.19
   4   7  -3  235.69   22.29
   4   7  -2   46.98   10.53
   4   7  -2   37.64    7.12
   4   7  -1   78.89    9.16
   4   7  -1   81.31   12.46
   4   7   0   38.16    5.67
   4   7   0   50.05   10.14
   4   7   1  661.77   33.54
   4   7   1  616.87   17.07
   4   7   2    6.73    4.80
   4   7   3    0.57    4.06
   4   7   4   18.63    7.09
   4   7   5  -11.29    5.50
   4   7   6   50.14   10.65
   4   7   7  744.12   41.00
   4   7   8   47.42   11.98
   4   7   9  339.02   30.41
   4   8  -5   28.75   10.83
  -4  -8   5   11.51    6.48
   4   8  -4    4.23    5.45
  -4  -8   4    1.86    2.69
   4   8  -3  186.36   20.91
   4   8  -2  317.78   26.70
   4   8  -2   -3.82    2.56
   4   8  -1  129.64   16.96
   4   8  -1  107.12   11.57
   4   8   0   97.57    9.46
   4   8   0   94.00   14.00
   4   8   1   44.37    5.24
   4   8   1   65.23   11.74
   4   8   2   10.65    5.26
   4   8   3    8.03    5.21
   4   8   4  376.29   27.95
   4   8   5   -1.40    4.24
   4   8   6   53.96   11.72
   4   8   7   21.36    8.61
   4   8   8    6.68    6.23
   4   9  -4   62.11   14.01
   4   9  -3   66.40   13.31
   4   9  -2   -6.21    5.24
   4   9  -1   -0.04    4.62
   4   9   0    7.93    5.44
   4   9   1  568.92   35.28
   4   9   2   65.33   11.94
   4   9   3  124.77   17.34
   4   9   4   67.03   12.41
   4   9   5   -7.39    5.39
   4   9   6  105.07   16.68
   4   9   7   16.49    6.56
   4   9   8    7.84    6.10
   4  10  -2  123.11   19.23
   4  10  -1    0.76    3.43
   4  10   0   61.87   13.18
   4  10   1   34.81    9.94
   4  10   2   73.65   13.61
   4  10   3  168.03   20.46
   4  10   4  -11.89    6.71
   4  10   5   -0.04    4.75
   4  10   6    9.12    5.71
  -5   8   3  125.13   18.62
  -5   8   2   21.54    8.18
  -5   8   1   37.89   10.47
  -5   8   0   -3.70    4.68
  -5   8  -1   34.32    9.66
  -5   7   5   -6.67    6.15
  -5   7   4  320.10   28.67
  -5   7   3  138.18   18.83
  -5   7   2   57.33   11.77
  -5   7   1   37.96   10.45
  -5   7   0   10.88    5.11
  -5   7  -1  126.57   17.49
   5  -7   2   24.61    6.14
   5  -7   3   53.18   10.45
   5  -7   4  111.88   15.58
   5  -7   5   -4.76    5.10
   5  -7   6   27.74    9.36
  -5   6   6   11.50    7.72
  -5   6   5   84.59   15.10
  -5   6   4    0.28    3.75
  -5   6   3   44.78   11.16
  -5   6   2   39.70    9.39
  -5   6   1   70.38   12.82
   5  -6   0    6.89    2.82
  -5   6   0    7.03    5.12
  -5   6  -1  392.82   29.24
   5  -6   1  406.15   21.46
   5  -6   2   17.61    5.28
   5  -6   3   -5.30    4.01
   5  -6   4   20.82    7.03
   5  -6   5    8.45    6.09
   5  -6   6   16.71    8.19
  -5   5   7   27.34    9.80
  -5   5   6   32.52    9.47
  -5   5   5   81.45   14.35
  -5   5   4  109.93   16.13
  -5   5   3   71.45   12.32
  -5   5   2  104.06   14.74
  -5   5   1   31.70    8.97
   5  -5  -1   32.63    3.37
   5  -5   0    0.11    1.34
  -5   5   0    2.82    1.10
  -5   5   0    5.57    4.65
  -5   5  -1   88.89   13.53
   5  -5   1   84.38    9.54
  -5   5  -1   90.13    8.42
  -5   5  -2   16.56    4.18
   5  -5   2   24.74    6.14
  -5   5  -3   -1.64    1.80
   5  -5   3    0.38    3.22
   5  -5   4  113.47   14.88
   5  -5   5   -5.51    4.97
   5  -5   6    2.76    5.30
   5  -5   7   79.53   15.64
  -5   4   8  312.21   30.67
  -5   4   7  145.11   20.01
  -5   4   6   30.58    9.28
  -5   4   5  311.59   26.75
  -5   4   4    3.47    5.02
  -5   4   3   -2.08    4.19
  -5   4   2  393.73   26.96
   5  -4  -1   -0.39    0.91
  -5   4   1   -3.98    5.00
   5  -4   0   36.04    5.21
  -5   4   0   29.59    3.50
  -5   4   0   26.51    7.17
  -5   4  -1  214.07   19.19
   5  -4   1  235.87   15.34
  -5   4  -1  231.04   12.73
  -5   4  -2   29.21    5.23
   5  -4   2   37.44    7.21
  -5   4  -3   10.66    3.76
   5  -4   3   10.13    4.87
   5  -4   4  202.58   19.18
   5  -4   5   64.58   11.62
   5  -4   6   -5.05    5.36
   5  -4   7   10.88    7.62
   5  -4   8   73.25   15.39
  -5   3   8   36.02   11.33
  -5   3   7    1.36    4.64
  -5   3   6   64.93   12.92
  -5   3   5  776.56   40.32
  -5   3   4   12.60    6.10
  -5   3   3   53.57   10.27
  -5   3   2   83.13   12.12
   5  -3  -1   57.92    4.70
  -5   3   1   59.41   10.07
  -5   3   0   89.74    6.01
  -5   3   0   93.51   12.34
   5  -3   0   95.17    8.19
  -5   3  -1  180.79   16.49
   5  -3   1  170.42   12.84
  -5   3  -1  170.99   10.74
   5  -3   2  483.67   24.20
  -5   3  -2  510.98   21.50
   5  -3   3  110.96   12.96
  -5   3  -3  117.88   11.66
  -5   3  -4   27.62    6.31
   5  -3   4   53.89    9.77
   5  -3   5   72.65   11.97
   5  -3   6    2.08    4.87
   5  -3   7  116.35   17.24
   5  -3   8    6.57    7.21
  -5   2   8  399.72   33.06
  -5   2   7   -5.74    5.19
  -5   2   6   40.93   10.71
   5  -2  -6   34.80    3.70
  -5   2   5    5.52    5.25
  -5   2   4   39.18    9.25
  -5   2   3   15.03    6.54
   5  -2  -2  653.87   10.33
   5  -2  -2  649.38   10.63
   5  -2  -1   41.91    4.71
  -5   2   1   50.81    9.10
  -5   2   0   74.14    5.86
  -5   2   0   88.40   11.58
   5  -2   0   66.91    7.08
  -5   2  -1   31.26    4.72
   5  -2   1   28.14    5.50
  -5   2  -1   26.98    6.63
   5  -2   2 1631.51   43.70
  -5   2  -2 1692.96   38.72
  -5   2  -3   46.85    7.28
   5  -2   3   58.52    9.54
  -5   2  -4   51.77    8.40
   5  -2   4   68.17   10.97
   5  -2   5   17.26    6.42
   5  -2   6   12.90    6.57
   5  -2   7   60.45   12.74
   5  -2   8  470.74   36.13
   5  -2   9   14.37    7.86
  -5   1   9   24.09    9.47
  -5   1   8   49.95   12.67
  -5   1   7  152.26   19.74
   5  -1  -6  204.99   12.18
  -5   1   6  227.37   22.81
   5  -1  -6  193.58   12.25
   5  -1  -5  177.93   10.00
  -5   1   5  192.29   19.68
   5  -1  -5  177.64   10.29
   5  -1  -4   35.20    3.87
  -5   1   4   27.00    7.57
   5  -1  -4   37.86    3.99
   5  -1  -3  124.00    7.00
  -5   1   3  132.35   14.49
   5  -1  -3  110.63    6.03
   5  -1  -2  190.60    9.20
  -5   1   2  177.74   15.88
   5  -1  -2  197.83    8.18
  -5   1   1 1028.62   36.00
   5  -1  -1 1029.47   21.48
  -5   1   0   47.74    5.36
  -5   1   0   45.12    8.00
   5  -1   0   48.75    5.63
   5  -1   1    1.99    2.02
  -5   1  -1    7.26    2.48
  -5   1  -1   -0.02    2.74
   5  -1   2  108.11   10.41
  -5   1  -2  100.18    9.67
   5  -1   3  300.94   19.07
  -5   1  -3  281.15   17.42
  -5   1  -4   23.28    5.59
   5  -1   4   14.37    5.41
   5  -1   5  357.13   25.89
   5  -1   6    5.43    5.28
   5  -1   7   94.48   15.68
   5  -1   8   54.29   12.66
   5  -1   9   42.74   12.59
  -5   0   9   15.32    9.24
  -5   0   8  144.88   20.80
  -5   0   7   33.63    9.89
  -5   0   7   32.77    5.88
   5   0  -6   92.09    9.64
  -5   0   6   88.03   14.19
   5   0  -5  343.38   16.76
  -5   0   5  336.12   25.43
   5   0  -5  355.82   17.47
   5   0  -4  876.17   24.97
  -5   0   4  887.93   38.41
   5   0  -4  899.51   25.83
   5   0  -3  480.86   17.04
  -5   0   3  490.99   26.85
   5   0  -3  499.52   18.10
   5   0  -2   13.97    3.24
   5   0  -2   12.13    3.12
  -5   0   2   11.95    5.06
   5   0  -2   16.67    4.76
  -5   0   1   12.03    4.42
   5   0  -1   14.71    3.55
   5   0  -1   15.51    3.51
  -5   0   0   91.45    8.00
  -5   0   0   84.66    9.78
   5   0   0  107.90    8.81
  -5   0  -1  111.42    9.35
  -5   0  -1   86.65    9.65
   5   0   1   86.32    8.71
  -5   0  -2 1649.23   39.47
   5   0   2 1631.93   40.22
  -5   0  -2 1670.73   39.17
   5   0   3   60.60    8.95
  -5   0  -3   67.99    8.87
   5   0   4   42.48    8.02
  -5   0  -4   52.61    8.37
   5   0   5  322.28   23.04
   5   0   6   55.81   10.57
   5   0   7   39.01   10.46
   5   0   8   56.87   12.78
   5   0   9   51.26   13.17
  -5  -1   8  114.84   19.31
  -5  -1   8   84.63   11.46
  -5  -1   7  621.08   40.01
  -5  -1   7  611.23   28.10
   5   1  -6    4.08    2.82
  -5  -1   6   -0.08    5.14
  -5  -1   6   -5.59    3.28
   5   1  -5   17.72    4.56
   5   1  -5   23.58    5.43
  -5  -1   5   18.71    7.22
   5   1  -4  954.22   29.79
  -5  -1   4  922.51   39.23
   5   1  -4  888.86   29.47
   5   1  -3    0.77    1.55
  -5  -1   3    0.73    3.48
   5   1  -3    0.25    2.41
   5   1  -3    6.36    3.51
   5   1  -2  190.32   12.16
  -5  -1   2  214.60   16.34
   5   1  -2  190.98   12.65
   5   1  -2  188.82   14.64
   5   1  -1 1016.18   28.89
   5   1  -1 1047.11   31.95
  -5  -1   1 1073.63   33.59
   5   1  -1 1077.95   28.61
  -5  -1   0   67.55    7.53
  -5  -1   0   66.92    8.26
   5   1   0   55.49    6.98
  -5  -1  -1  760.70   26.00
  -5  -1  -1  748.76   25.09
   5   1   1  721.48   25.77
   5   1   2    3.42    3.28
  -5  -1  -2    6.90    3.19
  -5  -1  -2    2.39    2.54
  -5  -1  -3   66.53    8.77
   5   1   3   86.83   10.60
   5   1   4  116.80   12.98
  -5  -1  -4  132.16   13.23
   5   1   5   97.71   13.02
   5   1   6    8.86    5.33
   5   1   7  114.55   16.36
   5   1   8   25.11    9.30
   5   1   9  110.79   18.71
  -5  -2   9    9.87    4.76
  -5  -2   8   50.35    9.58
  -5  -2   7  313.53   21.99
   5   2  -6    5.39    3.52
  -5  -2   6   -5.02    5.67
  -5  -2   6   -0.19    2.84
   5   2  -5   68.66    9.85
  -5  -2   5   66.12   12.30
   5   2  -4  315.77   19.24
  -5  -2   4  358.74   24.79
   5   2  -4  306.65   19.58
   5   2  -3   98.41   10.31
  -5  -2   3  109.94   12.68
   5   2  -3   91.75   10.07
   5   2  -3  109.70   12.15
   5   2  -2   73.79    8.76
  -5  -2   2   68.12    9.38
   5   2  -2   71.81    8.55
   5   2  -2   81.88    9.72
   5   2  -1  976.06   30.18
  -5  -2   1  983.76   31.39
   5   2  -1  960.11   30.97
   5   2  -1  946.14   29.45
  -5  -2   0  617.36   24.67
   5   2   0  642.87   25.03
  -5  -2   0  617.40   22.96
  -5  -2  -1 1783.67   42.40
  -5  -2  -1 1800.91   35.71
   5   2   1 1740.24   41.83
   5   2   2    8.79    4.78
  -5  -2  -2   11.46    3.74
  -5  -2  -2   13.44    3.49
  -5  -2  -3  309.18   19.35
  -5  -2  -3  272.65   12.94
   5   2   3  288.30   19.26
   5   2   4   33.74    7.74
  -5  -2  -4   48.85    8.34
   5   2   5   14.41    5.79
   5   2   6   91.38   13.49
   5   2   7   82.92   13.47
   5   2   8   82.13   14.57
   5   2   9   12.96    6.84
   5   2   9   16.05    7.00
   5   2  10   17.58    9.34
  -5  -3   9   -0.45    2.58
  -5  -3   8   -5.55    4.70
  -5  -3   7  199.94   19.06
  -5  -3   6   60.73    9.90
  -5  -3   5    8.37    4.36
   5   3  -4  278.16   19.63
  -5  -3   4  299.95   23.15
   5   3  -4  323.95   21.54
   5   3  -3  263.85   18.32
  -5  -3   3  274.91   20.41
   5   3  -3  299.55   19.97
   5   3  -3  282.15   19.17
   5   3  -2  253.15   17.54
  -5  -3   2  227.98   16.90
   5   3  -2  255.59   17.62
   5   3  -2  229.69   15.79
   5   3  -1    7.92    3.87
   5   3  -1    5.80    2.65
  -5  -3   1   10.25    3.78
   5   3  -1    7.23    3.43
   5   3   0  746.58   28.75
  -5  -3   0  753.98   24.10
   5   3   0  779.12   29.97
   5   3   0  708.70   22.06
  -5  -3  -1   12.19    3.39
   5   3   1   14.50    4.86
  -5  -3  -1   18.17    4.98
   5   3   2    0.50    3.19
  -5  -3  -2   -4.14    2.52
  -5  -3  -2    0.36    1.23
  -5  -3  -3  300.35   19.63
  -5  -3  -3  322.64   11.36
   5   3   3  321.58   20.91
  -5  -3  -4  799.60   18.17
   5   3   4  848.94   35.69
   5   3   5  147.20   15.95
  -5  -3  -6   44.01    6.19
   5   3   6   33.76    8.45
  -5  -3  -7    5.08    2.50
   5   3   7    2.88    4.81
   5   3   8  419.94   31.89
   5   3   9   21.67    8.31
   5   3  10    5.01    5.20
   5   3  10   15.03    8.01
  -5  -4   9   28.51    9.33
  -5  -4   8   76.52   13.05
  -5  -4   7  555.11   33.58
  -5  -4   6   40.93    8.47
  -5  -4   5  127.20   14.91
   5   4  -4  122.64   14.20
   5   4  -3  156.41   15.37
   5   4  -3  145.41   14.09
   5   4  -2  107.07   12.48
   5   4  -2  101.10   10.73
   5   4  -1   29.77    6.44
   5   4  -1   15.35    4.04
   5   4  -1   18.35    5.95
   5   4   0  480.70   24.87
  -5  -4   0  466.10   19.22
   5   4   0  456.71   24.69
   5   4   0  456.57   17.11
   5   4   1  703.71   30.20
  -5  -4  -1  745.93   31.67
   5   4   2   36.83    7.88
  -5  -4  -2   41.30    7.81
   5   4   3  646.06   30.91
   5   4   4   48.81    9.43
   5   4   5  189.08   18.53
   5   4   6    8.32    5.03
  -5  -4  -6    3.17    1.21
   5   4   7   56.68   12.28
   5   4   8   30.84    9.33
   5   4   9    0.82    4.49
  -5  -5   8   10.04    5.42
  -5  -5   7   65.59   13.21
  -5  -5   6  348.49   27.25
   5   5  -5   20.84    7.04
  -5  -5   5    7.36    4.47
   5   5  -4   55.68   10.76
   5   5  -3   27.58    8.06
   5   5  -3   22.56    5.91
   5   5  -2  181.64   17.21
   5   5  -2  159.52   13.64
   5   5  -1   -0.51    1.67
   5   5  -1    3.20    3.88
   5   5   0 1232.06   42.83
   5   5   0 1240.98   27.71
   5   5   1  130.58   14.31
   5   5   2 1311.48   44.54
   5   5   3  223.43   19.07
   5   5   4   -2.87    4.16
   5   5   5   57.72   10.57
   5   5   6  104.26   15.27
   5   5   7    0.42    4.68
   5   5   8  567.87   37.62
   5   5   9    6.00    6.52
  -5  -6   7   -8.60    5.48
  -5  -6   6    3.63    3.88
   5   6  -5    0.93    3.41
  -5  -6   5    6.67    5.36
   5   6  -4  215.97   21.36
   5   6  -3  414.44   28.47
   5   6  -2  200.70   19.42
   5   6  -2  175.26   14.66
   5   6  -1  374.45   25.49
   5   6  -1  342.17   17.82
   5   6   0    5.89    2.58
   5   6   0    9.94    6.04
   5   6   1  284.25   22.07
   5   6   1  265.88    8.47
   5   6   2  485.97   28.82
   5   6   3   32.44    8.42
   5   6   4   40.56    9.51
   5   6   5  268.78   23.40
   5   6   6   81.44   13.68
   5   6   7   23.27    8.61
   5   6   8   84.07   15.58
   5   6   9    0.63    4.07
   5   7  -6  234.84   25.01
  -5  -7   6  245.39   25.44
   5   7  -5    8.25    6.41
   5   7  -4  343.04   28.29
   5   7  -3   52.01   11.15
   5   7  -2   45.81   10.28
   5   7  -2   47.11    8.02
   5   7  -1  356.73   26.86
   5   7  -1  309.16   17.52
   5   7   0  269.87   22.78
   5   7   0  263.63   13.52
   5   7   1   65.59   11.44
   5   7   1   55.09    3.90
   5   7   2  602.68   34.03
   5   7   3    4.49    4.14
   5   7   4    4.93    5.07
   5   7   5  251.15   23.47
   5   7   6   84.48   14.34
   5   7   7   63.77   12.86
   5   7   8   50.19   12.43
   5   8  -5    0.61    4.35
   5   8  -4  115.56   17.71
   5   8  -3   48.74   11.67
   5   8  -2    1.38    4.21
   5   8  -1  267.60   24.60
   5   8   0   17.20    6.87
   5   8   1   26.72    8.26
   5   8   2  340.08   27.32
   5   8   3   94.31   15.01
   5   8   4    0.42    3.31
   5   8   5   -6.94    5.54
   5   8   6   34.59   10.10
   5   8   7    4.52    4.88
   5   9  -3   39.98   11.48
   5   9  -2  226.01   24.57
   5   9  -1  708.09   42.16
   5   9   0   67.38   13.14
   5   9   1    7.08    5.80
   5   9   2   20.80   10.00
   5   9   3   54.40   11.74
   5   9   4   36.76   10.50
   5   9   5   77.02   14.36
   5   9   6  126.72   18.91
   5  10   0  117.91   18.20
   5  10   1   67.79   13.20
   5  10   2   40.73   11.38
   5  10   3   79.85   15.22
   5  10   4    2.67    6.45
  -6   7   2   -0.43    2.51
  -6   7   1   28.36    9.10
  -6   7   0  186.20   22.77
  -6   6   4    3.28    4.89
  -6   6   3   73.60   13.80
  -6   6   2   91.93   15.33
  -6   6   1   35.66   10.20
  -6   6   0   44.14   11.18
  -6   6  -1  152.19   19.92
  -6   6  -2   14.81    6.59
   6  -6   3    0.33    2.90
   6  -6   4  106.78   15.38
   6  -6   5   10.86    5.58
   6  -6   6   54.70   12.06
  -6   5   6  417.49   34.97
  -6   5   5   32.43   10.21
  -6   5   4    5.32    4.86
  -6   5   3    9.94    6.48
  -6   5   2  200.38   21.89
  -6   5   1   -9.58    5.25
  -6   5   0   27.83    9.06
  -6   5  -1  138.33   18.05
   6  -5   1  145.95   12.59
  -6   5  -2  150.92   18.72
   6  -5   2  168.32   15.55
   6  -5   3   44.11    8.71
   6  -5   4  136.70   16.55
   6  -5   5  -11.33    5.70
   6  -5   6   -2.97    4.63
  -6   4   6    3.26    5.27
  -6   4   5   98.38   15.96
  -6   4   4    9.79    7.61
  -6   4   3   54.74   11.84
  -6   4   2  312.75   25.99
  -6   4   1  135.34   17.13
   6  -4   0    9.42    2.98
  -6   4   0    8.71    6.29
  -6   4  -1  835.75   40.26
   6  -4   1  920.82   31.18
   6  -4   2    3.56    3.41
  -6   4  -2    1.86    4.35
   6  -4   3  199.14   18.13
   6  -4   4   -2.34    3.26
   6  -4   5   97.04   15.14
   6  -4   6   39.34   10.23
   6  -4   7    5.44    5.40
  -6   3   7   82.17   15.52
  -6   3   6   11.06    6.27
  -6   3   5   24.54    8.26
  -6   3   4   13.28    7.43
  -6   3   3   24.22    8.01
  -6   3   2  410.49   28.65
   6  -3  -1   12.15    2.61
  -6   3   1   15.48    6.96
  -6   3   0   40.04    4.02
   6  -3   0   40.21    5.69
  -6   3   0   34.47    8.80
  -6   3  -1   16.25    3.32
   6  -3   1   23.81    5.28
  -6   3  -1   25.08    7.82
  -6   3  -2  286.28   22.43
   6  -3   2  270.15   19.17
  -6   3  -2  254.70   15.68
  -6   3  -3    3.55    2.12
   6  -3   3   14.38    5.96
   6  -3   4  205.02   19.63
   6  -3   5    1.12    4.24
   6  -3   6  505.40   34.90
   6  -3   7   81.75   15.44
   6  -3   8    7.08    5.83
  -6   2   7   11.72    7.64
  -6   2   6    2.36    6.25
  -6   2   5  417.08   31.20
  -6   2   4   -1.81    4.30
  -6   2   3  310.97   24.77
   6  -2  -2   -0.77    0.97
   6  -2  -2    1.02    0.78
  -6   2   1  137.62   15.52
   6  -2  -1  120.76    8.64
  -6   2   0  139.74    8.59
  -6   2   0  142.77   15.53
   6  -2   0  131.62   10.78
  -6   2  -1  549.66   20.31
  -6   2  -1  604.00   30.72
   6  -2   1  564.47   25.10
  -6   2  -2   33.96    5.87
   6  -2   2   26.20    6.46
  -6   2  -2   30.38    8.13
   6  -2   3  245.83   19.85
  -6   2  -3  209.82   15.79
   6  -2   4   24.52    7.00
   6  -2   5  294.77   25.14
   6  -2   6   50.19   11.30
   6  -2   7  157.53   20.92
   6  -2   8    4.02    6.15
  -6   1   8  400.80   35.25
  -6   1   7   23.78    9.54
  -6   1   6  102.30   16.37
  -6   1   5  159.13   19.35
   6  -1  -4   44.53    4.10
  -6   1   4   39.37    9.18
   6  -1  -4   46.40    3.97
   6  -1  -3   16.27    2.98
   6  -1  -3   13.76    2.19
  -6   1   3   14.90    6.12
  -6   1   2  101.45   13.28
   6  -1  -2  119.07    8.14
   6  -1  -2  125.22    7.11
  -6   1   1   77.45   11.47
   6  -1  -1   63.86    6.59
   6  -1  -1   73.69    6.52
  -6   1   0  259.80   13.17
  -6   1   0  282.01   20.24
   6  -1   0  277.84   14.19
   6  -1   1    4.86    3.04
  -6   1  -1    7.92    2.87
  -6   1  -1   13.12    4.71
  -6   1  -2  205.86   14.33
  -6   1  -2  212.56   17.19
   6  -1   2  204.49   15.33
  -6   1  -3  232.42   17.88
   6  -1   3  210.88   16.92
  -6   1  -3  195.81   15.48
   6  -1   4   51.73   10.38
   6  -1   5    9.37    5.57
   6  -1   6  140.95   18.51
   6  -1   7    2.41    4.50
   6  -1   8    7.70    7.05
  -6   0   8   31.75   11.95
  -6   0   7  126.10   19.49
   6   0  -6   55.87    7.36
  -6   0   6   57.83   12.44
  -6   0   5   17.03    7.46
   6   0  -5   28.90    5.10
  -6   0   4   71.02   12.08
   6   0  -4   55.53    6.55
   6   0  -4   51.29    6.11
   6   0  -3   95.78    8.59
  -6   0   3   89.43   12.93
   6   0  -3  115.23    8.83
   6   0  -2  402.84   17.70
   6   0  -2  438.65   17.26
  -6   0   2  452.91   26.50
   6   0  -1  731.20   24.54
  -6   0   1  717.47   31.55
   6   0  -1  744.70   23.40
  -6   0   0 1593.85   35.72
  -6   0   0 1653.07   46.19
   6   0   0 1567.53   36.50
   6   0   1    0.85    2.15
  -6   0  -1   -0.72    1.73
  -6   0  -1   -2.52    2.89
  -6   0  -2  110.38   10.98
  -6   0  -2  122.96   12.31
   6   0   2  122.68   12.24
  -6   0  -3  162.57   14.00
   6   0   3  159.52   14.96
  -6   0  -3  141.75   13.39
   6   0   4  116.27   13.62
   6   0   5   -2.07    3.80
   6   0   6   89.02   13.91
   6   0   7  140.73   19.51
   6   0   8   18.52    8.65
   6   0   9   30.11   11.23
  -6  -1   8   54.26   15.50
  -6  -1   7    0.05    6.74
   6   1  -7    0.66    2.89
  -6  -1   6   33.05   10.06
   6   1  -6   31.51    6.63
   6   1  -5    4.34    3.33
   6   1  -5    3.48    2.66
  -6  -1   5    0.55    4.27
   6   1  -4  283.61   16.79
  -6  -1   4  293.03   23.68
   6   1  -4  285.36   17.34
   6   1  -3    1.73    2.25
  -6  -1   3    0.29    4.45
   6   1  -3    1.63    2.41
   6   1  -2   80.46    8.96
  -6  -1   2   75.91   11.11
   6   1  -2   81.70    8.75
   6   1  -1  426.68   20.60
   6   1  -1  445.43   20.25
  -6  -1   1  421.07   23.67
   6   1   0    5.38    2.54
  -6  -1   0    5.13    3.66
  -6  -1   0    9.23    3.01
  -6  -1  -1  162.02   13.14
  -6  -1  -1  177.44   14.03
   6   1   1  183.79   14.34
  -6  -1  -2  336.08   19.66
  -6  -1  -2  364.48   19.38
   6   1   2  315.09   19.75
  -6  -1  -3  263.82   18.56
  -6  -1  -3  279.32   16.82
   6   1   3  267.41   19.37
  -6  -1  -4  865.84   29.77
   6   1   4  876.42   37.45
   6   1   5    5.02    4.19
   6   1   6    3.59    4.87
   6   1   7  679.87   39.81
   6   1   8  -23.71    9.17
   6   1   9  -15.23    7.93
  -6  -2   7   55.84   13.80
   6   2  -7   75.75   11.13
   6   2  -6  159.94   15.48
  -6  -2   6  137.36   18.95
   6   2  -5   25.63    6.66
   6   2  -5   33.53    7.07
  -6  -2   5   45.13   10.77
  -6  -2   4   55.18   10.64
   6   2  -4   40.36    7.37
   6   2  -4   47.78    8.17
   6   2  -3    0.15    1.52
   6   2  -3    1.25    3.12
  -6  -2   3   -3.12    4.30
   6   2  -2  201.16   14.82
  -6  -2   2  229.46   18.22
   6   2  -2  191.36   15.02
   6   2  -2  193.15   15.89
  -6  -2   1  290.25   18.94
   6   2  -1  305.93   19.08
   6   2  -1  289.50   17.92
   6   2  -1  288.34   17.78
   6   2   0  292.82   18.63
   6   2   0  309.03   18.65
  -6  -2   0  279.32   17.43
   6   2   1    1.79    3.36
  -6  -2  -1    4.97    2.95
  -6  -2  -1   -3.20    2.65
  -6  -2  -2  450.51   24.13
  -6  -2  -2  484.55   20.29
   6   2   2  479.25   25.08
   6   2   3   17.59    5.84
  -6  -2  -3   11.61    3.63
  -6  -2  -4  623.47   22.62
   6   2   4  641.18   32.17
   6   2   5   95.28   13.72
   6   2   6   65.80   12.42
   6   2   7    9.98    5.49
   6   2   8   86.48   14.93
   6   2   9    9.41    5.36
   6   2   9   -8.93    6.15
   6   3  -7   93.28   13.65
   6   3  -6    3.65    3.99
   6   3  -5  258.60   20.20
  -6  -3   5  299.89   26.53
   6   3  -4  129.23   13.92
  -6  -3   4  108.34   15.01
   6   3  -3   78.87   10.63
  -6  -3   3   68.22   11.29
   6   3  -2   23.56    5.94
  -6  -3   2   26.97    6.95
   6   3  -2   21.66    5.42
   6   3  -2   27.52    6.02
   6   3  -1  186.85   15.62
  -6  -3   1  175.21   14.36
   6   3  -1  178.91   15.69
   6   3  -1  163.87   13.25
  -6  -3   0    1.73    2.58
   6   3   0   -0.15    3.42
   6   3   0   -2.66    2.60
  -6  -3  -1  968.41   28.33
  -6  -3  -1  986.00   35.89
   6   3   1  987.81   36.31
   6   3   2    0.92    3.27
  -6  -3  -2    2.14    1.55
   6   3   3   13.64    5.75
  -6  -3  -3    9.77    2.94
   6   3   4   40.75    9.18
  -6  -3  -4   27.51    4.26
   6   3   5    8.71    5.98
  -6  -3  -5   11.88    3.01
   6   3   6   26.99    9.03
   6   3   7  769.15   42.72
   6   3   8    2.72    4.94
   6   3   9   -8.40    5.72
   6   4  -8  106.72   16.13
   6   4  -7   -1.43    3.79
   6   4  -6   -0.84    4.80
   6   4  -5    7.04    4.13
   6   4  -4  164.21   16.75
   6   4  -3   23.87    6.43
   6   4  -2  840.42   35.42
  -6  -4   2  863.17   35.58
   6   4  -2  762.23   30.71
   6   4  -1   16.86    5.37
  -6  -4   1   25.45    6.01
   6   4  -1   26.08    5.54
   6   4   0   39.13    7.98
   6   4   0   39.80    5.86
  -6  -4   0   31.60    6.05
  -6  -4  -1  388.63   16.72
   6   4   1  394.21   24.32
   6   4   2    6.23    5.08
  -6  -4  -2    7.39    2.12
   6   4   3   24.48    6.43
  -6  -4  -3   21.43    2.50
   6   4   4  515.82   30.51
   6   4   5   17.69    7.81
   6   4   6   25.66    8.33
   6   4   7   57.43   12.21
   6   4   8  119.70   18.23
   6   4   9   11.10    5.84
   6   5  -8   27.20    9.56
   6   5  -7   36.60    9.71
   6   5  -6   53.28   11.75
   6   5  -5  618.25   35.49
   6   5  -4    9.84    6.21
   6   5  -3   13.45    5.80
   6   5  -2  108.26   13.99
   6   5  -2   95.27   10.73
   6   5  -1    2.79    3.96
   6   5  -1    5.42    2.98
   6   5   0   10.29    5.48
   6   5   0    4.55    2.28
   6   5   1  165.10   17.08
   6   5   2    9.53    5.54
   6   5   3   35.76    8.93
   6   5   4  166.89   18.47
   6   5   5  792.55   41.10
   6   5   6  263.43   24.92
   6   5   7   39.72   10.65
   6   5   8   31.92    9.83
   6   6  -6   33.81    9.90
   6   6  -5  155.60   19.46
   6   6  -4   40.80   10.11
   6   6  -3   81.18   13.93
   6   6  -2   65.14    9.01
   6   6  -2   57.77   10.90
   6   6  -1   11.71    5.84
   6   6  -1   13.11    3.73
   6   6   0   18.05    7.20
   6   6   0   19.31    3.69
   6   6   1  256.39   22.17
   6   6   2  144.97   16.93
   6   6   3   -5.10    5.16
   6   6   4    1.06    5.64
   6   6   5  149.55   18.57
   6   6   6    4.64    3.98
   6   6   7   -3.99    4.87
   6   6   8  167.98   21.74
   6   7  -5   48.70   11.80
   6   7  -4    0.92    4.21
   6   7  -3  102.88   15.76
   6   7  -2  138.46   17.62
   6   7  -1  153.21   18.47
   6   7   0   -3.21    4.78
   6   7   1   -4.17    4.83
   6   7   2  205.59   21.20
   6   7   3   12.83    5.82
   6   7   4   23.41    8.34
   6   7   5  287.17   26.63
   6   7   6   29.43    9.89
   6   7   7    1.21    4.01
   6   8  -4  190.94   23.07
   6   8  -3   11.21    6.18
   6   8  -2   88.61   15.55
   6   8  -1  183.25   21.50
   6   8   0  153.15   18.97
   6   8   1    2.16    5.20
   6   8   2  276.17   25.58
   6   8   3    4.75    4.74
   6   8   4   21.59    8.22
   6   8   5  146.21   19.39
   6   8   6   11.88    7.58
   6   9  -1    1.08    4.32
   6   9   0   27.21    9.34
   6   9   1   29.61   10.08
   6   9   2  304.94   28.62
   6   9   3   55.96   13.72
   6   9   4  168.55   21.51
  -7   5   3   21.62    8.24
  -7   5   2   -0.18    4.63
  -7   5   1   65.61   13.67
  -7   5   0   -5.86    5.16
  -7   5  -1   64.89   14.03
  -7   5  -2   20.91    8.71
  -7   5  -3    3.71    4.90
   7  -5   6    9.24    6.55
  -7   4   4  517.31   38.17
  -7   4   3    5.86    4.89
  -7   4   2   -0.25    4.08
  -7   4   1  181.53   20.85
  -7   4   0   -5.82    5.77
  -7   4  -1    6.52    5.52
  -7   4  -2   70.81   13.03
   7  -4   3   13.29    5.95
  -7   4  -3    0.94    3.17
   7  -4   4    9.26    4.36
   7  -4   5   11.39    6.18
   7  -4   6   82.31   16.01
  -7   3   5   61.87   13.52
  -7   3   4   81.84   15.21
  -7   3   3   88.74   14.83
  -7   3   2    5.01    6.08
  -7   3   1  134.69   17.82
  -7   3   0   -0.96    4.09
   7  -3   1    1.48    1.62
  -7   3  -1    4.47    4.11
   7  -3   2   42.18    8.23
  -7   3  -2   44.42   10.18
   7  -3   3  112.82   14.46
  -7   3  -3  100.91   14.79
   7  -3   4    8.81    5.31
   7  -3   5    8.17    5.72
   7  -3   6   20.08    8.03
   7  -3   7   -0.30    4.00
  -7   2   6    8.93    6.33
  -7   2   5   28.05   10.05
  -7   2   4  288.26   26.40
  -7   2   3   25.62    8.94
  -7   2   2   90.28   14.64
  -7   2   1  241.05   21.99
   7  -2  -1  209.01   12.08
  -7   2   0  182.91   19.11
   7  -2   0  186.98   13.67
   7  -2   1    8.84    3.40
  -7   2  -1   -5.09    4.32
   7  -2   2   -3.05    3.41
  -7   2  -2   14.43    6.08
  -7   2  -3  194.66   19.33
   7  -2   3  164.15   17.36
   7  -2   4   58.42   10.63
  -7   2  -4   68.83   12.10
   7  -2   5    5.32    4.61
   7  -2   6   63.40   13.36
   7  -2   7   33.65    9.85
  -7   1   6  168.31   22.14
  -7   1   5  125.64   18.56
  -7   1   4   28.03    8.37
  -7   1   3  426.06   30.11
  -7   1   2   -4.11    5.26
   7  -1  -1   28.20    4.41
  -7   1   1   27.38    7.76
   7  -1  -1   27.68    4.85
  -7   1   0   45.01    9.54
   7  -1   0   59.81    7.20
   7  -1   1    2.26    2.73
  -7   1  -1    3.34    2.03
  -7   1  -1   -2.64    4.53
   7  -1   2   23.08    5.76
  -7   1  -2   24.62    5.28
  -7   1  -2   24.79    6.82
  -7   1  -3  194.21   18.02
  -7   1  -4   30.71    7.90
   7  -1   4   34.99    8.95
   7  -1   5    5.95    4.94
   7  -1   6  223.47   24.22
   7  -1   7   61.75   13.70
  -7   0   7  190.21   24.73
  -7   0   6   65.58   14.38
  -7   0   5   15.08    7.20
  -7   0   4  131.17   17.70
  -7   0   3 1074.74   46.53
   7   0  -3 1015.53   26.68
   7   0  -2    4.07    2.22
   7   0  -2    2.44    2.07
  -7   0   2    1.69    4.57
  -7   0   1   64.46   11.29
   7   0  -1   75.95    8.66
   7   0  -1   69.96    7.88
  -7   0   0   -1.84    3.89
   7   0   0   -1.79    2.30
  -7   0  -1   43.43    8.71
   7   0   1   52.30    8.01
  -7   0  -1   59.09    8.44
   7   0   2    4.00    3.72
  -7   0  -2    3.89    2.87
  -7   0  -2   -4.47    3.42
  -7   0  -3  653.73   30.71
   7   0   3  642.64   31.33
   7   0   4   17.97    6.27
  -7   0  -4   18.19    5.60
   7   0   5   91.41   13.85
   7   0   6   10.32    5.99
   7   0   7   91.67   16.31
   7   0   8   10.59    5.88
  -7  -1   7    3.80    5.32
  -7  -1   6  608.71   40.86
  -7  -1   5    5.87    5.46
   7   1  -4   -1.45    1.40
  -7  -1   4    1.45    4.66
  -7  -1   3   37.84    8.85
   7   1  -3   34.73    6.40
   7   1  -2   91.58   10.20
  -7  -1   2   95.93   13.25
   7   1  -2   99.67    9.98
   7   1  -1    5.88    3.01
  -7  -1   1    2.50    4.22
   7   1  -1    3.47    2.14
  -7  -1   0  241.36   18.69
   7   1   0  233.96   16.51
  -7  -1  -1   93.13   10.67
  -7  -1  -1   98.07   11.83
   7   1   1  106.47   11.82
  -7  -1  -2  213.15   17.06
  -7  -1  -2  234.20   17.42
   7   1   2  245.58   18.69
   7   1   3   10.72    4.49
  -7  -1  -3    8.82    4.20
  -7  -1  -4  201.90   15.83
   7   1   4  197.96   19.28
   7   1   5   87.78   13.35
  -7  -1  -5   71.56    9.97
   7   1   6    1.63    4.05
   7   1   7   40.41   10.70
   7   1   8   15.84    7.34
  -7  -2   7   12.48    6.29
  -7  -2   6    9.10    7.24
   7   2  -5   43.03    8.05
  -7  -2   5   69.78   14.33
   7   2  -4   43.31    7.67
  -7  -2   4   41.96   10.27
   7   2  -3  696.10   29.30
  -7  -2   3  718.16   36.61
   7   2  -2    9.46    4.35
  -7  -2   2    5.58    4.34
   7   2  -2   19.28    4.89
   7   2  -1   52.83    8.67
   7   2  -1   43.49    8.00
  -7  -2   1   43.37    8.62
  -7  -2   0  210.51   16.96
   7   2   0  228.64   17.42
   7   2   1  231.81   18.19
  -7  -2  -1  261.22   17.76
   7   2   2   92.41   12.22
  -7  -2  -2   83.86    9.80
  -7  -2  -3   45.37    7.18
   7   2   3   42.82    9.06
   7   2   4    9.15    4.63
  -7  -2  -4   -0.21    2.21
  -7  -2  -5  255.40   16.26
   7   2   5  239.92   22.44
   7   2   6    8.36    5.08
  -7  -2  -6    8.95    3.84
   7   2   7   12.07    7.42
   7   2   8   16.01    8.08
   7   3  -6  496.89   29.80
  -7  -3   5    9.56    6.82
   7   3  -5   31.70    7.74
  -7  -3   4   57.29   12.10
   7   3  -4   55.70    9.70
   7   3  -3  117.60   13.23
  -7  -3   3  139.75   16.48
   7   3  -2  291.83   20.68
  -7  -3   2  269.21   21.15
   7   3  -1   44.89    8.24
  -7  -3   1   52.27    8.98
  -7  -3   0   -1.85    2.96
   7   3   0   -0.02    2.69
   7   3   1    8.98    4.14
  -7  -3  -1   13.05    4.25
  -7  -3  -2  265.98   15.56
   7   3   2  262.09   20.63
   7   3   3    0.84    3.11
  -7  -3  -3    6.37    2.56
  -7  -3  -4  477.89   18.95
   7   3   4  509.66   31.60
  -7  -3  -5  110.66    9.28
   7   3   5  143.35   17.60
   7   3   6  121.82   16.82
   7   3   7   23.92    8.80
   7   3   8   21.54    8.00
   7   4  -6   91.40   14.24
   7   4  -5  414.03   28.13
   7   4  -4   91.87   13.06
   7   4  -3    1.65    3.73
  -7  -4   3   16.98    6.98
   7   4  -2   37.24    8.57
  -7  -4   2   50.96    9.63
   7   4  -1   31.16    8.14
   7   4  -1   33.65    6.82
  -7  -4   1   34.61    8.05
   7   4   0    4.59    4.33
  -7  -4   0    6.12    3.23
  -7  -4  -1  333.36   17.46
   7   4   1  334.79   24.10
   7   4   2   50.39   10.26
  -7  -4  -2   42.45    5.85
  -7  -4  -3  168.10    9.25
   7   4   3  185.65   19.16
   7   4   4   82.07   13.44
   7   4   5    5.46    5.45
   7   4   6   37.88   10.12
   7   4   7   20.50    8.96
   7   4   8   56.48   14.32
   7   5  -7   42.53   11.15
   7   5  -6   15.46    6.53
   7   5  -5  162.16   19.20
   7   5  -4   -4.51    4.28
   7   5  -3   -7.30    5.16
   7   5  -2  406.13   27.68
   7   5  -1   40.17    9.42
   7   5   0  121.89   15.51
   7   5   1   64.38   11.47
   7   5   2  288.93   23.98
   7   5   3  465.03   30.90
   7   5   4   21.60    8.21
   7   5   5    7.72    5.75
   7   5   6   12.39    6.83
   7   5   7  112.26   17.81
   7   6  -6   10.82    8.24
   7   6  -5   83.56   15.08
   7   6  -4   58.64   12.06
   7   6  -3   30.12    9.07
   7   6  -2  192.34   20.23
   7   6  -1   20.29    7.17
   7   6   0  242.35   22.91
   7   6   1   32.44    9.27
   7   6   2   42.36   10.27
   7   6   3   33.16    9.89
   7   6   4   18.85    8.70
   7   6   5   33.65   10.01
   7   6   6  141.62   19.47
   7   6   7   79.41   15.89
   7   7  -4   24.95    8.69
   7   7  -3  503.26   35.32
   7   7  -2   -7.38    5.91
   7   7  -1  -17.59    7.26
   7   7   0    5.00    5.17
   7   7   1   46.43   11.19
   7   7   2   55.05   12.00
   7   7   3  589.19   37.96
   7   7   4   -6.66    5.31
   7   7   5   18.53    8.31
   7   7   6   10.65    7.14
   7   8  -2  -10.80    6.14
   7   8  -1  165.49   21.06
   7   8   0  279.97   27.08
   7   8   1  223.97   24.17
   7   8   2   28.27    9.01
   7   8   3  211.96   23.79
   7   8   4  100.10   16.81
  -8   4   1  247.63   25.50
  -8   4   0   36.61   10.61
  -8   4  -1   -3.60    5.01
  -8   4  -2   93.71   16.18
  -8   4  -3  226.55   24.88
  -8   3   3    9.59    7.25
  -8   3   2   -8.22    6.40
  -8   3   1   44.07   11.29
  -8   3   0   55.34   12.13
  -8   3  -1    3.40    4.53
  -8   3  -2   74.40   14.14
  -8   3  -3   58.21   12.48
  -8   3  -4   48.19   11.19
   8  -3   5   28.70   10.05
  -8   3  -5   37.71   10.47
   8  -3   6   82.29   16.06
  -8   2   4  366.68   31.92
  -8   2   3    9.67    6.81
  -8   2   2  151.86   19.84
  -8   2   1   33.69    9.74
  -8   2   0   11.96    6.24
  -8   2  -1    2.94    4.87
   8  -2   2   73.37   11.48
  -8   2  -2   53.87   12.00
   8  -2   3  106.55   14.77
  -8   2  -3  109.72   16.17
  -8   2  -4  202.46   21.21
   8  -2   4  208.67   21.55
   8  -2   5  -10.54    5.54
  -8   2  -5   -2.42    2.88
   8  -2   6   85.90   16.07
  -8   1   5   -2.01    3.91
  -8   1   4    0.55    4.28
  -8   1   3   82.61   15.11
  -8   1   2   21.63    8.76
  -8   1   1   52.82   10.92
  -8   1   0  315.25   25.80
  -8   1  -1  395.25   28.15
  -8   1  -2   47.49   10.30
   8  -1   3   56.13   11.42
  -8   1  -3   28.90    8.24
   8  -1   4    1.15    2.82
  -8   1  -4    6.82    5.05
   8  -1   5    6.14    5.45
  -8   1  -5    9.01    5.16
   8  -1   6   -2.45    5.29
  -8   1  -6    7.33    5.06
  -8   0   5   50.32   12.27
  -8   0   4  190.80   22.30
  -8   0   3    6.71    6.02
  -8   0   2  100.68   15.35
  -8   0   1    0.21    4.89
   8   0   0  408.54   21.52
  -8   0   0  427.40   28.44
  -8   0  -1    5.54    4.33
   8   0   1    3.75    3.37
   8   0   2  113.68   13.02
  -8   0  -2  104.91   13.83
   8   0   3    7.97    4.11
  -8   0  -3    8.48    5.04
  -8   0  -4  201.13   18.88
   8   0   4  181.09   18.97
   8   0   5    6.70    5.06
  -8   0  -5    5.39    3.48
   8   0   6   34.28   10.57
  -8   0  -6   29.25    7.87
   8   0   7   25.62    9.77
  -8  -1   5    9.42    7.00
  -8  -1   4    9.25    6.69
  -8  -1   3  183.66   20.67
  -8  -1   2   -2.44    4.88
  -8  -1   1   95.40   13.72
   8   1  -1   92.57   10.73
   8   1   0   31.52    6.62
  -8  -1   0   28.32    8.10
   8   1   1  265.57   19.47
  -8  -1  -1  250.16   20.29
  -8  -1  -2   15.60    5.80
   8   1   2    2.17    3.11
   8   1   3  114.76   14.67
  -8  -1  -3  118.17   13.72
   8   1   4    9.09    4.83
  -8  -1  -4   14.21    5.28
  -8  -1  -5  265.42   19.99
   8   1   5  257.43   23.96
   8   1   6   12.30    6.66
   8   1   7   43.53   11.59
  -8  -2   6  224.30   26.61
  -8  -2   5  151.61   21.06
  -8  -2   4   -9.87    6.29
  -8  -2   3   13.86    6.45
  -8  -2   2  122.00   15.74
   8   2  -2  158.87   14.56
  -8  -2   1   27.34    7.47
   8   2  -1   18.10    5.85
  -8  -2   0   99.16   12.91
   8   2   0  120.99   13.37
   8   2   1   17.40    5.86
  -8  -2  -1   10.85    4.83
   8   2   2  120.89   14.93
  -8  -2  -2  117.66   12.77
  -8  -2  -3   38.19    7.76
   8   2   3   60.56   11.07
  -8  -2  -4  135.09   13.23
   8   2   4  140.20   17.49
   8   2   5  129.47   17.52
   8   2   6    6.03    5.81
   8   2   7   -1.70    4.66
  -8  -3   6   53.06   14.09
  -8  -3   5    7.86    6.09
  -8  -3   4  208.40   23.34
   8   3  -3  158.11   16.15
  -8  -3   3  147.65   18.29
   8   3  -2   30.60    7.53
  -8  -3   2   18.24    6.41
  -8  -3   1  282.30   21.88
   8   3  -1  284.72   21.63
   8   3   0    4.41    3.98
  -8  -3   0    3.73    3.35
  -8  -3  -1  216.25   17.05
   8   3   1  193.00   18.36
  -8  -3  -2  397.13   21.34
   8   3   2  373.79   26.65
   8   3   3   -5.42    5.18
   8   3   4   -2.42    3.69
   8   3   5  169.81   20.37
   8   3   6  -10.09    5.46
   8   3   7    2.27    3.18
   8   4  -4   -5.02    4.35
   8   4  -3   24.58    7.13
  -8  -4   3   25.07    8.41
   8   4  -2   88.79   13.37
  -8  -4   2   82.23   12.84
  -8  -4   1  328.39   23.47
   8   4  -1  317.95   24.41
  -8  -4   0    1.74    2.42
   8   4   0  -11.98    5.17
   8   4   1    4.47    4.85
   8   4   2    4.75    4.04
   8   4   3   11.01    5.95
   8   4   4  189.85   21.35
   8   4   5  169.72   21.03
   8   4   6  344.04   30.41
   8   5  -5   51.27   11.22
   8   5  -4  250.08   23.22
   8   5  -3   28.91    8.67
   8   5  -2    2.99    4.81
   8   5  -1   21.72    7.41
   8   5   0   33.91    8.98
   8   5   1  127.76   16.86
   8   5   2  385.62   29.09
   8   5   3   -3.98    4.94
   8   5   4  -10.63    7.19
   8   5   5   33.92   10.46
   8   5   6  283.67   28.19
   8   6  -4   38.26    9.23
   8   6  -3   -5.06    4.44
   8   6  -2  154.27   19.60
   8   6  -1  224.62   22.84
   8   6   0   53.60   12.10
   8   6   1   15.28    7.22
   8   6   2   57.29   12.18
   8   6   3  147.61   19.18
   8   6   4   21.06    8.30
   8   6   5    9.28    6.94
   8   7  -2   86.31   15.19
   8   7  -1   -3.42    5.47
   8   7   0  445.30   33.87
   8   7   1   46.79   11.68
   8   7   2    8.48    6.71
   8   7   3  -10.29    6.33
  -9   2   1   38.85   11.11
  -9   2   0    5.65    4.90
  -9   2  -1  180.43   21.74
  -9   2  -2   24.79    7.56
  -9   2  -3   65.24   13.34
  -9   2  -4  -14.08    7.43
  -9   1   2  196.43   23.41
  -9   1   1    7.02    5.51
  -9   1   0   22.74    7.50
  -9   1  -1   60.16   12.10
  -9   1  -2    8.57    5.49
  -9   1  -3    5.29    4.94
  -9   1  -4  169.89   19.63
   9  -1   5   -2.60    4.44
  -9   0   3   32.57   10.88
  -9   0   2   57.69   12.81
  -9   0   1    7.35    5.84
  -9   0   0   -6.26    5.17
  -9   0  -1   61.29   11.68
  -9   0  -2    8.43    4.51
  -9   0  -3   26.06    7.64
   9   0   5   99.83   17.62
  -9  -1   4   19.26    8.67
  -9  -1   3   10.74    6.50
  -9  -1   2  166.82   20.12
  -9  -1   1    7.69    4.82
  -9  -1   0    8.74    4.99
  -9  -1  -1   95.49   13.75
  -9  -1  -2  109.46   14.09
   9   1   3    5.54    4.03
   9   1   4    5.12    4.14
   9   1   5   20.98    7.14
   9   1   6   14.32    6.14
  -9  -2   4   15.86    7.83
  -9  -2   3   35.97   10.42
  -9  -2   2  407.94   30.55
  -9  -2   1   97.44   14.62
  -9  -2   0   73.26   11.99
   9   2   1    1.93    2.61
  -9  -2  -1    6.14    4.50
   9   2   2   34.84    7.84
   9   2   3    3.26    3.27
   9   2   4   31.97    8.66
   9   2   5   66.80   13.21
   9   2   6   63.63   13.78
  -9  -3   4  176.78   22.70
  -9  -3   3   -6.51    5.97
  -9  -3   2   16.49    6.90
   9   3   0    0.78    3.26
   9   3   1    7.97    4.12
   9   3   2   32.21    9.05
   9   3   3   20.04    7.45
   9   3   4   37.74   10.43
   9   3   5  165.40   20.68
   9   4  -1   73.43   12.51
   9   4   0   21.53    7.18
   9   4   1   45.19    9.85
   9   4   2   97.20   15.15
   9   4   3   21.55    7.40
   9   4   4    5.19    4.35
   9   4   5   31.58    9.29
   9   5  -2   19.07    8.58
   9   5  -1  287.79   25.53
   9   5   0    2.02    4.10
   9   5   1   56.60   12.08
   9   5   2   -7.75    5.57
   9   5   3   54.29   11.85
   9   5   4   -6.11    5.79
   9   6  -2   37.24   10.19
   9   6  -1   71.92   13.34
   9   6   0    9.57    4.85
   9   6   1   43.51   11.19
   9   6   2   14.08    6.75
 -10   0   1    8.34    5.55
 -10   0   0  -12.23    7.10
 -10  -1   2   -1.56    4.28


TITL JM-PSF-09_scale in P-1
REM P-1 (#2 in standard setting)
CELL 0.71073   7.303096   8.916971   9.141288  81.5071  85.4524  80.3540
ZERR    2.00   0.000619   0.000652   0.000790   0.0067   0.0070   0.0066
LATT  1
SFAC C H O Cl
UNIT 20.00 26.00 2.00 6.00
TREF
HKLF 4
END
_computing_structure_solution     'SHELXT 2014/4 (Sheldrick, 2014)'
;
_shelx_hkl_checksum              49464
_ins_header
;
TITL JM-PSF-09_scale in P-1 
REM P-1 (#2 in standard setting)
CELL 0.71073   7.303096   8.916971   9.141288  81.5071  85.4524  80.3540
ZERR    2.00   0.000619   0.000652   0.000790   0.0067   0.0070   0.0066
LATT  1
SFAC C H O Cl
UNIT 20.00 26.00 2.00 6.00
TREF
HKLF 4
END
;
_olex2_submission_special_instructions 'No special instructions were received'
_oxdiff_exptl_absorpt_empirical_details
;
Empirical correction (ABSPACK) includes:
- Absorption correction using spherical harmonics
- Frame scaling
;
_oxdiff_exptl_absorpt_empirical_full_max 1.169
_oxdiff_exptl_absorpt_empirical_full_min 0.910
loop_
_space_group_symop_operation_xyz
'x, y, z'
'-x, -y, -z'
loop_
_atom_site_label
_atom_site_type_symbol
_atom_site_fract_x
_atom_site_fract_y
_atom_site_fract_z
_atom_site_U_iso_or_equiv
_atom_site_adp_type
_atom_site_occupancy
_atom_site_site_symmetry_order
_atom_site_calc_flag
_atom_site_refinement_flags_posn
C1 C 0.6121(3) 0.2714(2) 0.3521(2) 0.0179(5) Uani 1 1 d .
C2 C 0.7407(3) 0.3704(2) 0.2646(2) 0.0182(5) Uani 1 1 d .
C3 C 0.8532(3) 0.3129(3) 0.1330(3) 0.0224(5) Uani 1 1 d .
H3A H 0.9685 0.3551 0.1195 0.027 Uiso 1 1 calc R
H3B H 0.7844 0.3489 0.0447 0.027 Uiso 1 1 calc R
C4 C 0.8979(3) 0.1384(3) 0.1515(3) 0.0262(5) Uani 1 1 d .
H4A H 0.9713 0.1066 0.0650 0.031 Uiso 1 1 calc R
H4B H 0.9715 0.1025 0.2372 0.031 Uiso 1 1 calc R
C5 C 0.7221(3) 0.0653(3) 0.1711(3) 0.0264(5) Uani 1 1 d .
H5A H 0.6541 0.0933 0.0816 0.032 Uiso 1 1 calc R
H5B H 0.7556 -0.0456 0.1870 0.032 Uiso 1 1 calc R
C6 C 0.5989(3) 0.1174(3) 0.3016(3) 0.0207(5) Uani 1 1 d .
H6 H 0.5793 0.0351 0.3822 0.025 Uiso 1 1 calc R
C7 C 0.4396(3) 0.2473(3) 0.2832(2) 0.0208(5) Uani 1 1 d .
O8 O 0.58478(19) 0.28115(17) 0.50281(16) 0.0215(4) Uani 1 1 d .
C9 C 0.7429(3) 0.2119(3) 0.5862(3) 0.0256(5) Uani 1 1 d .
H9A H 0.8450 0.2693 0.5589 0.031 Uiso 1 1 calc R
H9B H 0.7836 0.1073 0.5659 0.031 Uiso 1 1 calc R
C10 C 0.6862(4) 0.2128(3) 0.7472(3) 0.0338(6) Uani 1 1 d .
H10A H 0.6508 0.3168 0.7668 0.051 Uiso 1 1 calc GR
H10B H 0.7887 0.1637 0.8056 0.051 Uiso 1 1 calc GR
H10C H 0.5827 0.1584 0.7723 0.051 Uiso 1 1 calc GR
C11 C 0.7520(3) 0.5005(3) 0.3131(3) 0.0220(5) Uani 1 1 d .
H11 H 0.6783 0.5263 0.3962 0.026 Uiso 1 1 calc R
Cl12 Cl 0.89845(9) 0.62508(7) 0.22832(7) 0.03228(17) Uani 1 1 d .
Cl13 Cl 0.23695(8) 0.23736(7) 0.39961(7) 0.02913(16) Uani 1 1 d .
Cl14 Cl 0.38594(8) 0.34076(7) 0.10643(7) 0.02935(16) Uani 1 1 d .
loop_
_atom_site_aniso_label
_atom_site_aniso_U_11
_atom_site_aniso_U_22
_atom_site_aniso_U_33
_atom_site_aniso_U_23
_atom_site_aniso_U_13
_atom_site_aniso_U_12
C1 0.0196(10) 0.0174(10) 0.0171(11) -0.0041(9) -0.0008(9) -0.0030(9)
C2 0.0181(10) 0.0183(11) 0.0179(12) -0.0018(9) -0.0022(9) -0.0024(9)
C3 0.0229(11) 0.0247(12) 0.0202(12) -0.0050(10) 0.0037(10) -0.0060(10)
C4 0.0278(12) 0.0243(12) 0.0264(13) -0.0103(11) 0.0012(10) 0.0011(10)
C5 0.0369(13) 0.0189(11) 0.0248(13) -0.0078(10) -0.0019(11) -0.0036(10)
C6 0.0265(11) 0.0179(11) 0.0185(12) -0.0014(9) -0.0015(9) -0.0062(9)
C7 0.0233(11) 0.0229(11) 0.0164(12) -0.0006(10) -0.0011(9) -0.0059(9)
O8 0.0226(8) 0.0274(9) 0.0152(8) -0.0051(7) -0.0004(6) -0.0041(7)
C9 0.0256(12) 0.0299(13) 0.0216(13) -0.0038(11) -0.0049(10) -0.0030(10)
C10 0.0365(14) 0.0459(16) 0.0196(13) -0.0002(12) -0.0037(11) -0.0112(12)
C11 0.0231(11) 0.0212(11) 0.0219(12) -0.0029(10) 0.0025(10) -0.0061(9)
Cl12 0.0389(3) 0.0242(3) 0.0364(4) -0.0057(3) 0.0067(3) -0.0156(3)
Cl13 0.0227(3) 0.0380(3) 0.0280(3) -0.0040(3) 0.0022(2) -0.0111(2)
Cl14 0.0279(3) 0.0366(3) 0.0220(3) 0.0030(3) -0.0068(2) -0.0040(3)
loop_
_atom_type_symbol
_atom_type_description
_atom_type_scat_dispersion_real
_atom_type_scat_dispersion_imag
_atom_type_scat_source
C C 0.0033 0.0016 'International Tables Vol C Tables 4.2.6.8 and 6.1.1.4'
H H 0.0000 0.0000 'International Tables Vol C Tables 4.2.6.8 and 6.1.1.4'
Cl Cl 0.1484 0.1585 'International Tables Vol C Tables 4.2.6.8 and 6.1.1.4'
O O 0.0106 0.0060 'International Tables Vol C Tables 4.2.6.8 and 6.1.1.4'
loop_
_exptl_crystal_face_index_h
_exptl_crystal_face_index_k
_exptl_crystal_face_index_l
_exptl_crystal_face_perp_dist
0 1 -12 0.0387
-10 0 -4 0.1639
0 -12 -3 0.1976
10 3 4 0.1567
3 12 4 0.1771
-8 -9 -5 0.1660
7 -8 0 0.2348
-3 -12 -5 0.1819
-5 10 1 0.2422
0 -2 12 0.0150
0 -1 13 0.0123
loop_
_geom_angle_atom_site_label_1
_geom_angle_atom_site_label_2
_geom_angle_atom_site_label_3
_geom_angle
C2 C1 C6 118.32(17)
C2 C1 C7 119.41(19)
C7 C1 C6 58.97(14)
O8 C1 C2 116.93(17)
O8 C1 C6 117.37(18)
O8 C1 C7 113.11(17)
C1 C2 C3 118.68(17)
C11 C2 C1 116.74(19)
C11 C2 C3 124.5(2)
C2 C3 H3A 109.2
C2 C3 H3B 109.2
C2 C3 C4 112.11(18)
H3A C3 H3B 107.9
C4 C3 H3A 109.2
C4 C3 H3B 109.2
C3 C4 H4A 109.3
C3 C4 H4B 109.3
H4A C4 H4B 107.9
C5 C4 C3 111.67(18)
C5 C4 H4A 109.3
C5 C4 H4B 109.3
C4 C5 H5A 109.4
C4 C5 H5B 109.4
H5A C5 H5B 108.0
C6 C5 C4 111.03(17)
C6 C5 H5A 109.4
C6 C5 H5B 109.4
C1 C6 H6 114.7
C5 C6 C1 119.70(18)
C5 C6 H6 114.7
C7 C6 C1 59.87(14)
C7 C6 C5 122.2(2)
C7 C6 H6 114.7
C1 C7 Cl13 117.48(15)
C1 C7 Cl14 120.08(16)
C6 C7 C1 61.16(14)
C6 C7 Cl13 118.94(17)
C6 C7 Cl14 120.07(16)
Cl14 C7 Cl13 111.09(12)
C1 O8 C9 113.71(16)
O8 C9 H9A 110.1
O8 C9 H9B 110.1
O8 C9 C10 107.85(18)
H9A C9 H9B 108.4
C10 C9 H9A 110.1
C10 C9 H9B 110.1
C9 C10 H10A 109.5
C9 C10 H10B 109.5
C9 C10 H10C 109.5
H10A C10 H10B 109.5
H10A C10 H10C 109.5
H10B C10 H10C 109.5
C2 C11 H11 118.7
C2 C11 Cl12 122.61(17)
Cl12 C11 H11 118.7
loop_
_geom_bond_atom_site_label_1
_geom_bond_atom_site_label_2
_geom_bond_distance
C1 C2 1.500(3)
C1 C6 1.532(3)
C1 C7 1.513(3)
C1 O8 1.390(2)
C2 C3 1.507(3)
C2 C11 1.319(3)
C3 H3A 0.9700
C3 H3B 0.9700
C3 C4 1.522(3)
C4 H4A 0.9700
C4 H4B 0.9700
C4 C5 1.521(3)
C5 H5A 0.9700
C5 H5B 0.9700
C5 C6 1.518(3)
C6 H6 0.9800
C6 C7 1.498(3)
C7 Cl13 1.760(2)
C7 Cl14 1.747(2)
O8 C9 1.435(3)
C9 H9A 0.9700
C9 H9B 0.9700
C9 C10 1.498(3)
C10 H10A 0.9600
C10 H10B 0.9600
C10 H10C 0.9600
C11 H11 0.9300
C11 Cl12 1.729(2)
loop_
_exptl_oxdiff_crystal_face_indexfrac_h
_exptl_oxdiff_crystal_face_indexfrac_k
_exptl_oxdiff_crystal_face_indexfrac_l
_exptl_oxdiff_crystal_face_x
_exptl_oxdiff_crystal_face_y
_exptl_oxdiff_crystal_face_z
-0.0000 1.0000 -12.0000 0.9236 -0.2520 0.0111
-10.0000 -0.0000 -4.0000 0.0183 -0.9794 -0.2795
-0.0000 -12.0000 -3.0000 -0.0288 -0.1392 0.9632
10.0000 3.0000 4.0000 0.0453 0.9981 0.0443
3.0000 12.0000 4.0000 0.0383 0.4287 -0.8778
-8.0000 -9.0000 -5.0000 -0.0408 -0.8783 0.4954
7.0000 -8.0000 -0.0000 0.0282 0.5756 0.8437
-3.0000 -12.0000 -5.0000 0.0369 -0.4503 0.8853
-5.0000 10.0000 1.0000 -0.0045 -0.3629 -0.9461
0.0000 -2.0000 12.0000 -0.9448 0.2457 0.0673
0.0000 -1.0000 13.0000 -0.9989 0.2735 -0.0186
loop_
_hkl_oxdiff_h
_hkl_oxdiff_k
_hkl_oxdiff_l
_hkl_oxdiff_f2
_hkl_oxdiff_sig
_hkl_oxdiff_ba
0 0 2 100030. 1248.94 2
0 0 -2 94949.1 1214.95 3
0 0 -2 94308.7 1280.73 1
0 0 -3 16935.0 635.926 3
0 0 3 16440.2 646.333 2
0 0 -3 16002.3 650.917 1
0 0 -4 5825.68 456.282 1
0 0 -4 5615.08 429.795 3
0 0 4 6421.57 467.434 2
0 0 -5 2106.58 309.995 1
0 0 -5 2149.80 302.686 3
0 0 5 1919.17 296.197 2
0 0 -6 21622.2 1023.62 3
0 0 -6 22720.1 1084.14 1
0 0 6 23583.1 1078.87 2
0 0 -7 456.777 181.017 3
0 0 7 481.129 206.916 2
0 0 8 16547.4 1070.89 2
0 0 9 27.1000 158.782 2
0 0 10 8246.17 872.111 2
0 0 11 3600.54 623.901 2
0 0 12 1193.00 393.000 2
0 -1 11 6761.92 860.905 2
0 -1 10 2322.92 507.109 2
0 -1 9 15570.2 1158.29 2
0 -1 8 31.3400 121.533 2
0 -1 7 622.133 238.685 2
0 1 -6 776.852 233.960 1
0 -1 6 1121.72 267.484 2
0 1 -6 982.667 240.956 3
0 1 -5 9396.58 695.040 1
0 1 -5 9036.23 639.276 3
0 -1 5 10210.0 681.015 2
0 1 -5 9490.32 674.983 2
0 1 -4 6581.05 506.029 2
0 1 -4 6904.87 540.258 1
0 -1 4 6482.18 490.336 2
0 -1 3 111719. 1770.05 2
0 1 -3 114886. 1817.23 2
0 -1 2 9591.66 450.741 2
0 1 -2 9420.38 450.271 2
0 1 -1 60749.7 889.697 2
0 1 2 3142.72 234.038 1
0 1 2 3452.81 226.573 3
0 -1 -2 3318.81 228.253 1
0 -1 -2 2982.15 204.747 3
0 -1 -3 121762. 1636.23 1
0 -1 -3 121267. 1583.10 3
0 1 3 125603. 1702.88 1
0 1 3 125425. 1614.77 3
0 -1 -4 39687.9 1094.13 1
0 -1 -4 39749.2 1059.90 3
0 1 4 39227.0 1071.08 3
0 1 4 44247.1 1207.57 1
0 1 4 39674.2 1099.98 2
0 -1 -5 69271.3 1662.31 1
0 1 5 74447.8 1659.14 2
0 -1 -5 72462.7 1635.46 3
0 -1 -6 37109.5 1340.92 1
0 -1 -6 35692.9 1267.53 3
0 1 6 37878.3 1324.63 2
0 1 7 20029.8 1054.47 2
0 -1 -7 20672.1 1096.94 1
0 -1 -7 19286.7 1026.85 3
0 1 8 22622.1 1216.01 2
0 1 9 2045.72 404.788 2
0 1 10 69.5899 146.899 2
0 1 11 2799.75 552.677 2
0 1 12 830.815 306.956 2
0 -2 11 -269.176 189.441 2
0 -2 10 2769.39 537.617 2
0 -2 9 1556.32 391.215 2
0 -2 8 7545.87 797.446 2
0 -2 7 4861.79 592.657 2
0 -2 6 52964.1 1758.68 2
0 2 -6 56027.7 1927.19 1
0 2 -6 55717.5 1861.43 2
0 -2 5 571.596 207.340 2
0 2 -5 925.115 229.796 2
0 -2 4 794.821 199.401 2
0 2 -4 1050.73 232.219 2
0 -2 3 37550.7 1117.69 2
0 2 -3 37389.2 1147.83 2
0 2 -2 33546.8 943.063 2
0 -2 2 34561.7 952.211 2
0 -2 1 97342.9 1370.84 2
0 2 -1 94832.9 1359.32 2
0 2 0 277206. 1953.30 2
0 -2 0 278048. 1936.13 2
0 2 1 15540.4 424.842 1
0 -2 -1 14645.2 426.967 3
0 2 1 15108.4 423.100 3
0 2 2 506.446 111.279 3
0 -2 -2 463.747 102.224 1
0 -2 -2 472.690 102.611 3
0 2 2 382.789 96.4702 1
0 2 3 68436.1 1229.48 1
0 -2 -3 68629.8 1184.59 3
0 2 3 68518.4 1197.75 3
0 -2 -3 69559.0 1193.17 1
0 2 4 47414.9 1154.01 3
0 2 4 48700.5 1217.82 1
0 -2 -4 49006.0 1140.97 3
0 -2 -4 47654.5 1165.89 1
0 -2 -5 2609.25 315.613 1
0 -2 -5 2298.26 293.342 3
0 2 5 2558.72 319.213 3
0 2 5 2867.11 350.945 1
0 2 6 283.665 162.713 1
0 -2 -6 266.435 127.329 3
0 -2 -6 492.217 153.582 1
0 2 6 393.035 177.930 2
0 -2 -7 9255.10 695.976 3
0 -2 -7 8431.00 677.636 1
0 2 7 9330.55 707.557 2
0 2 8 17277.3 1048.54 2
0 2 9 1885.49 393.582 2
0 2 10 3369.05 529.246 2
0 2 11 3265.52 573.183 2
0 2 12 3521.13 621.478 2
0 -3 10 -184.165 219.874 2
0 -3 9 7560.22 867.647 2
0 -3 8 9863.06 936.890 2
0 -3 7 225.679 194.432 2
0 -3 6 23920.3 1252.62 2
0 3 -5 10669.1 801.283 2
0 -3 5 10212.7 757.901 2
0 -3 4 2056.62 332.058 2
0 3 -4 2996.77 393.857 2
0 3 -3 39478.1 1279.73 2
0 -3 3 41038.0 1269.20 2
0 3 -2 26305.7 944.175 2
0 -3 2 25720.6 920.539 2
0 -3 1 9319.60 501.024 2
0 3 -1 9481.50 505.319 2
0 3 0 46591.4 998.141 2
0 -3 0 46894.5 985.139 2
0 3 1 76818.6 1178.09 2
0 3 1 76586.1 1171.19 3
0 3 2 34307.8 804.062 3
0 -3 -2 35272.1 820.411 3
0 3 2 34116.8 800.962 1
0 -3 -3 20942.9 686.400 1
0 3 3 21800.8 700.143 3
0 3 3 21910.0 718.052 1
0 -3 -3 22209.2 699.391 3
0 -3 -4 2613.33 279.228 1
0 3 4 2867.76 307.076 1
0 -3 -4 2545.35 278.758 3
0 3 4 2704.79 290.155 3
0 -3 -5 7092.34 503.647 1
0 3 5 6335.96 494.285 1
0 -3 -5 6832.48 484.038 3
0 3 5 6450.03 488.339 3
0 3 6 2786.59 381.035 1
0 3 6 3033.42 378.487 3
0 -3 -6 3111.31 361.384 3
0 -3 -6 3412.79 393.718 1
0 -3 -7 29672.7 1243.08 1
0 3 7 30790.1 1362.06 1
0 3 7 27925.1 1244.89 3
0 -3 -7 30641.4 1231.18 3
0 3 7 31687.2 1286.49 2
0 3 8 9582.21 764.104 2
0 3 9 6913.85 713.394 2
0 3 10 2089.99 410.420 2
0 3 11 3165.81 545.545 2
0 3 12 2268.38 467.592 2
0 -4 10 1829.30 533.941 2
0 -4 9 9331.29 1006.69 2
0 -4 8 2804.35 518.659 2
0 -4 7 597.254 240.647 2
0 -4 6 92.9656 150.707 2
0 -4 5 1170.56 301.974 2
0 -4 4 2307.59 368.789 2
0 4 -4 1755.63 315.910 2
0 4 -3 42104.5 1422.75 2
0 -4 3 39551.1 1345.72 2
0 -4 2 87926.9 1852.62 2
0 4 -2 87685.8 1899.48 2
0 -4 1 18015.8 774.574 2
0 4 -1 19448.8 824.366 2
0 -4 0 1560.60 225.854 2
0 4 0 1596.09 226.717 2
0 4 1 235499. 2413.12 3
0 4 1 241472. 2450.21 2
0 4 2 2351.31 243.463 1
0 -4 -2 2230.46 242.587 3
0 4 2 2040.56 224.900 2
0 4 2 2199.10 239.168 3
0 4 3 7591.50 451.327 1
0 -4 -3 6859.55 430.485 3
0 4 3 6920.07 434.440 3
0 -4 -4 13979.2 648.872 1
0 4 4 15866.4 721.155 1
0 -4 -4 13738.0 644.265 3
0 4 4 15207.5 691.889 3
0 4 5 9258.75 614.649 1
0 -4 -5 9300.21 578.640 3
0 -4 -5 8824.12 567.069 1
0 4 5 8857.03 580.551 3
0 4 6 12646.6 778.783 1
0 4 6 12214.9 748.671 3
0 -4 -6 12473.9 728.242 3
0 -4 -6 12941.9 754.313 1
0 -4 -7 6100.28 562.416 1
0 -4 -7 5648.16 537.815 3
0 4 7 7447.90 661.039 1
0 4 7 6628.50 602.843 3
0 4 8 270.262 162.744 2
0 4 8 -103.012 166.335 1
0 4 8 195.948 152.332 3
0 4 9 14410.7 1002.45 2
0 4 10 640.057 257.141 2
0 4 11 809.504 297.044 2
0 -5 9 46.0453 202.044 2
0 -5 8 4496.99 682.208 2
0 -5 7 -234.319 199.613 2
0 -5 6 185.960 217.925 2
0 -5 5 28337.8 1413.80 2
0 -5 4 565.532 211.831 2
0 5 -3 3002.97 419.546 2
0 -5 3 2850.64 399.409 2
0 5 -2 64443.1 1775.09 2
0 -5 2 62912.9 1696.01 2
0 5 -1 473.444 164.661 2
0 -5 1 367.417 158.745 2
0 5 0 868.791 196.972 2
0 -5 0 767.687 188.139 2
0 5 1 7101.74 491.214 2
0 5 1 7829.93 503.418 3
0 5 2 12546.1 608.827 1
0 5 2 11304.6 585.214 3
0 5 2 11326.8 593.096 2
0 -5 -3 8889.79 533.710 3
0 5 3 8516.89 510.211 2
0 5 3 8993.97 541.671 3
0 5 3 9356.29 549.266 1
0 5 4 34722.2 1114.79 1
0 5 4 33121.8 1075.63 3
0 -5 -4 32874.8 1069.86 3
0 -5 -5 15979.9 784.587 3
0 -5 -5 15690.0 772.753 1
0 5 5 16737.2 838.112 1
0 5 5 16884.2 830.051 3
0 5 6 99020.2 2145.55 3
0 5 6 98068.0 2208.80 1
0 -5 -6 94725.3 2032.55 3
0 -5 -6 97359.2 2073.51 1
0 5 7 320.956 177.324 3
0 -5 -7 -73.2550 78.0435 3
0 -5 -7 91.7637 109.607 1
0 5 7 70.6602 101.018 1
0 5 8 153.360 142.074 3
0 5 8 284.080 183.245 1
0 5 9 202.490 124.080 1
0 5 9 549.095 213.296 2
0 5 10 591.767 242.551 2
0 5 11 126.954 139.896 2
0 -6 8 1499.68 448.464 2
0 -6 7 133.403 205.837 2
0 -6 6 1067.05 385.130 2
0 -6 5 19907.5 1259.54 2
0 -6 4 526.337 240.744 2
0 -6 3 1376.91 329.566 2
0 -6 2 489.607 206.329 2
0 6 -2 296.984 147.764 2
0 6 -1 2836.12 390.902 2
0 -6 1 2248.52 351.163 2
0 6 0 401.087 147.467 2
0 -6 0 498.583 171.785 2
0 6 0 553.730 199.580 3
0 6 1 72946.3 1693.73 3
0 6 1 75773.7 1772.68 2
0 6 2 104.061 120.521 3
0 6 2 472.718 151.137 1
0 6 2 315.801 109.318 2
0 6 3 26452.9 997.350 2
0 6 3 26730.1 1011.43 3
0 6 3 27260.3 1008.74 1
0 6 4 2948.10 347.052 1
0 -6 -4 3112.16 360.319 3
0 6 4 3024.39 356.813 3
0 6 4 3168.22 349.324 2
0 6 5 8702.91 636.141 1
0 -6 -5 9543.00 650.930 3
0 6 5 9027.79 635.826 3
0 6 6 1313.28 277.447 1
0 6 6 1112.28 254.344 3
0 -6 -6 660.498 183.309 3
0 6 7 126.106 124.745 3
0 6 7 -370.434 185.911 1
0 -6 -7 -198.372 111.817 3
0 -6 -7 397.962 163.925 1
0 6 8 1358.66 341.161 3
0 6 8 1125.87 286.692 1
0 6 9 16780.4 1184.22 1
0 6 9 15242.4 1065.70 3
0 6 10 3084.85 480.587 2
0 6 10 3703.88 617.423 1
0 -7 7 579.411 302.582 2
0 -7 6 9017.08 949.084 2
0 -7 5 954.113 335.284 2
0 -7 4 83.7215 172.190 2
0 -7 3 515.582 219.431 2
0 -7 2 53606.7 1829.46 2
0 -7 1 1302.70 309.962 2
0 7 0 24314.3 1111.84 3
0 7 0 25486.8 1183.57 2
0 -7 0 26198.8 1153.07 2
0 7 1 946.968 249.001 3
0 7 1 1181.62 248.188 2
0 7 2 4356.07 439.124 1
0 7 2 5324.76 499.770 2
0 7 2 4166.72 445.519 3
0 7 3 384.714 180.778 3
0 7 3 400.077 139.440 2
0 7 3 575.371 201.806 1
0 7 4 539.697 174.077 1
0 7 4 567.295 162.856 2
0 7 4 731.617 230.635 3
0 7 5 3040.05 367.338 2
0 7 5 3703.77 437.220 3
0 -7 -5 3620.61 420.791 3
0 7 5 3310.59 414.482 1
0 -7 -6 20052.3 1027.07 3
0 7 6 19844.0 973.957 2
0 7 6 20335.2 1062.67 3
0 7 6 19959.2 1064.39 1
0 7 7 259.187 159.440 3
0 7 7 213.426 162.404 1
0 7 8 7312.82 722.051 1
0 7 8 7617.71 723.622 3
0 7 9 4977.49 649.245 1
0 7 9 4943.13 626.091 3
0 7 10 6973.23 818.388 1
0 -8 6 -334.145 232.795 2
0 -8 5 532.309 271.026 2
0 -8 4 945.724 325.648 2
0 -8 3 503.495 270.287 2
0 -8 2 19006.3 1177.34 2
0 8 -1 8517.70 749.568 3
0 -8 1 8336.54 749.998 2
0 -8 0 22364.0 1154.67 2
0 8 0 22174.9 1154.20 3
0 8 1 706.316 235.533 3
0 8 2 2967.02 396.585 1
0 8 2 3414.57 443.171 2
0 8 2 3313.85 415.978 3
0 8 3 11330.9 759.856 1
0 8 3 11801.8 794.981 3
0 8 3 11635.4 787.507 2
0 8 4 6147.90 563.295 2
0 8 4 5780.14 560.421 3
0 8 4 5652.22 560.716 1
0 8 5 1005.75 254.764 3
0 8 5 1354.00 291.376 1
0 8 5 1243.28 257.249 2
0 8 6 7744.57 684.236 3
0 8 6 7123.08 665.354 1
0 8 7 3161.92 466.047 1
0 8 7 2779.57 436.357 3
0 8 8 -40.2740 138.370 3
0 8 8 33.0368 137.258 1
0 8 9 1060.22 306.829 1
0 8 9 1135.29 317.628 3
0 -9 5 580.850 306.793 2
0 -9 4 3059.78 579.738 2
0 -9 3 4067.10 611.915 2
0 -9 2 -244.918 166.070 2
0 9 -2 -19.1325 165.106 3
0 9 -1 2394.24 443.120 3
0 -9 1 2783.02 471.568 2
0 9 0 -1.18054 138.660 3
0 9 1 185.212 167.765 3
0 9 2 10931.4 824.753 3
0 9 2 10901.7 799.192 1
0 9 3 1797.99 353.021 3
0 9 3 1630.91 326.809 1
0 9 4 12731.3 878.930 3
0 9 4 13451.1 896.686 1
0 9 5 -34.9242 104.278 1
0 9 5 -78.6412 135.492 3
0 9 6 1273.95 296.257 1
0 9 6 656.001 218.676 3
0 9 7 9441.97 831.907 1
0 9 7 9457.51 805.887 3
0 -10 4 1010.87 323.434 2
0 10 -3 30.1895 186.840 3
0 -10 3 460.904 242.273 2
0 10 -2 553.912 254.798 3
0 -10 2 384.097 273.928 2
0 10 -1 1807.97 409.673 3
0 10 0 2340.18 444.361 3
0 10 1 6811.14 716.152 3
0 10 2 817.514 270.083 3
0 10 2 1312.27 306.346 1
0 10 3 444.553 222.991 3
0 10 3 228.452 153.419 1
0 10 4 4238.57 549.678 3
0 10 4 4547.64 565.826 1
0 10 5 1664.83 347.402 1
0 10 5 1014.81 292.698 3
0 10 6 554.091 215.658 1
0 10 6 496.216 220.160 3
0 -11 2 2078.87 471.176 2
0 11 -2 1897.17 459.496 3
0 11 -1 3604.33 591.691 3
0 11 0 -26.0082 97.4242 3
0 11 1 4079.14 578.287 1
0 11 1 4230.06 599.853 3
0 11 2 -120.125 152.890 3
0 11 2 -333.756 158.613 1
0 11 3 172.351 142.269 1
0 11 3 707.557 254.019 3
0 11 4 1550.56 337.432 3
0 12 0 469.342 243.348 3
0 12 1 -165.361 169.531 3
-1 12 2 644.820 258.126 1
-1 12 1 3631.30 601.595 1
-1 11 4 3987.22 600.025 1
-1 11 3 1134.42 314.062 1
-1 11 2 712.303 242.708 1
-1 11 1 -67.0350 89.0691 3
-1 11 1 16.8996 80.7470 1
-1 11 0 1412.53 340.932 3
-1 11 -1 2082.27 445.671 3
1 -11 2 2596.07 512.986 2
-1 11 -2 2105.43 488.865 3
-1 10 7 1069.33 331.422 1
-1 10 6 740.470 274.875 1
-1 10 5 209.121 183.559 1
-1 10 4 1438.82 346.167 1
-1 10 3 -385.679 176.921 3
-1 10 3 443.748 213.358 1
-1 10 2 1209.74 282.996 3
-1 10 2 1240.91 315.501 1
-1 10 1 4210.62 589.510 1
-1 10 1 3377.83 482.394 3
-1 10 0 1293.86 347.989 3
-1 10 -1 3164.07 515.723 3
1 -10 1 3663.16 569.967 2
1 -10 2 192.528 162.593 2
-1 10 -2 -34.1846 145.721 3
1 -10 3 -332.488 209.403 2
1 -10 4 2916.22 590.781 2
-1 9 8 -106.211 137.671 1
-1 9 7 5554.15 703.930 1
-1 9 6 942.440 287.173 1
-1 9 5 5651.17 559.103 3
-1 9 5 4639.92 587.242 1
-1 9 4 1597.64 335.718 1
-1 9 4 1551.41 293.142 3
-1 9 3 327.668 173.655 1
-1 9 3 755.664 221.206 3
-1 9 2 867.449 268.098 1
-1 9 2 867.036 224.170 3
-1 9 1 8760.64 728.614 3
-1 9 0 975.962 246.762 3
1 -9 1 32578.0 1532.33 2
-1 9 -1 34369.9 1562.90 3
1 -9 2 2069.26 423.671 2
1 -9 3 139.386 166.614 2
1 -9 4 513.946 298.801 2
1 -9 5 -137.390 230.776 2
-1 8 10 2820.21 566.858 1
-1 8 9 1175.67 352.250 1
-1 8 8 1905.47 408.544 1
-1 8 7 -163.761 153.022 3
-1 8 7 210.926 194.214 1
-1 8 6 341.435 227.456 1
-1 8 6 361.366 146.775 3
-1 8 5 396.360 193.753 1
-1 8 5 886.840 214.173 3
-1 8 4 870.494 218.807 2
-1 8 4 742.401 199.251 3
-1 8 4 506.719 202.980 1
-1 8 3 257.708 111.541 2
-1 8 3 307.587 151.794 1
-1 8 2 14962.4 942.089 1
-1 8 2 14756.7 867.925 2
-1 8 2 14894.4 840.568 3
-1 8 1 1168.50 283.967 3
-1 8 1 1138.68 251.618 2
-1 8 0 275.831 147.746 3
1 -8 0 369.219 177.943 2
1 -8 1 7352.58 695.480 2
1 -8 2 225.301 192.726 2
1 -8 3 6142.41 709.007 2
1 -8 4 13803.1 1105.48 2
1 -8 5 7194.12 840.411 2
1 -8 6 5460.99 785.986 2
-1 7 11 1050.21 355.702 1
-1 7 10 1704.88 434.152 1
-1 7 9 -357.319 216.181 1
-1 7 8 1783.77 416.213 1
-1 7 8 1292.43 287.170 3
-1 7 7 10692.3 749.266 3
-1 7 7 10043.2 882.443 1
-1 7 6 862.704 270.600 1
-1 7 6 625.654 188.410 3
1 -7 -6 835.240 197.616 3
-1 7 6 213.699 100.709 2
-1 7 5 12685.7 733.335 3
-1 7 5 13714.6 908.932 1
-1 7 5 13608.1 704.334 2
-1 7 4 4343.23 402.074 2
-1 7 4 4235.71 413.225 3
-1 7 4 4800.35 513.229 1
-1 7 3 1321.43 237.189 3
-1 7 3 1205.11 253.194 1
-1 7 3 1621.45 260.036 2
-1 7 2 8309.11 571.873 3
-1 7 2 7330.78 623.945 1
-1 7 2 8578.43 599.611 2
-1 7 1 2503.77 327.098 3
-1 7 1 2136.60 324.971 2
1 -7 0 3887.12 442.861 2
-1 7 0 4455.05 487.372 2
-1 7 0 3890.77 436.012 3
-1 7 -1 26894.3 1256.05 2
1 -7 1 26445.1 1202.33 2
1 -7 2 268.775 192.181 2
1 -7 3 485.972 203.125 2
1 -7 4 3842.62 569.554 2
1 -7 5 12766.7 1078.15 2
1 -7 6 -292.436 234.863 2
1 -7 7 261.514 200.295 2
-1 6 11 4817.26 740.318 1
-1 6 10 457.551 241.691 1
-1 6 9 628.444 266.779 1
-1 6 8 6471.77 732.842 1
-1 6 8 6427.83 606.858 3
-1 6 8 6832.48 587.175 2
1 -6 -7 1671.58 278.832 3
-1 6 7 1956.74 322.168 3
-1 6 7 1827.30 393.237 1
1 -6 -6 2670.10 333.425 3
-1 6 6 3245.23 382.887 3
-1 6 6 2929.15 435.593 1
-1 6 5 573.444 161.058 3
-1 6 5 839.550 164.109 2
-1 6 5 646.246 211.281 1
1 -6 -5 774.260 174.872 3
-1 6 4 61.9803 109.912 1
-1 6 4 170.409 86.9623 2
-1 6 4 -28.1372 109.178 3
-1 6 3 3634.31 417.444 1
-1 6 3 3523.13 336.379 2
-1 6 3 3652.38 351.575 3
-1 6 2 26858.5 950.850 2
-1 6 2 27361.2 932.814 3
-1 6 2 28648.7 1121.61 1
-1 6 1 250.126 96.5624 2
-1 6 1 285.193 133.991 3
-1 6 0 8685.37 617.980 2
1 -6 0 10274.7 646.066 2
-1 6 -1 9509.85 692.748 2
1 -6 1 9410.73 665.541 2
-1 6 -2 51211.4 1713.87 2
1 -6 2 50523.6 1645.97 2
1 -6 3 775.134 273.700 2
1 -6 4 1376.63 352.030 2
1 -6 5 150.090 187.350 2
1 -6 6 4515.17 653.893 2
1 -6 7 -110.984 235.428 2
1 -6 8 7392.44 932.356 2
-1 5 10 -354.077 247.309 1
-1 5 9 4674.25 528.527 2
-1 5 9 4690.27 658.957 1
1 -5 -8 17103.1 936.806 3
-1 5 8 19302.6 986.774 2
-1 5 8 19655.0 1232.07 1
1 -5 -7 8288.64 607.173 3
-1 5 7 8524.37 763.684 1
-1 5 7 7975.18 629.084 3
1 -5 -6 2809.39 325.944 3
-1 5 6 2568.88 407.052 1
1 -5 -6 2519.88 373.446 1
-1 5 6 2132.98 299.546 3
-1 5 5 3870.01 368.671 3
1 -5 -5 4207.43 445.297 1
1 -5 -5 4318.54 376.819 3
-1 5 5 3955.23 462.596 1
-1 5 4 651.300 131.435 2
1 -5 -4 656.484 149.868 3
-1 5 4 485.106 131.727 3
-1 5 4 215.400 139.302 1
-1 5 3 16112.3 811.090 1
-1 5 3 16601.3 650.885 3
-1 5 3 15947.7 620.959 2
-1 5 2 21371.6 751.835 2
-1 5 2 20394.7 710.810 3
-1 5 2 21061.6 896.797 1
-1 5 1 12329.5 605.314 2
-1 5 1 11844.0 574.404 3
1 -5 -1 11446.0 569.237 2
1 -5 0 10308.7 586.027 2
-1 5 0 10111.7 598.109 2
1 -5 1 17426.8 828.187 2
-1 5 -1 17491.1 853.125 2
1 -5 2 16443.3 873.258 2
-1 5 -2 15719.1 882.766 2
1 -5 3 -69.4127 146.850 2
-1 5 -3 400.212 164.122 2
1 -5 4 645.237 249.313 2
1 -5 5 16355.1 1089.12 2
1 -5 6 6.92360 182.875 2
1 -5 7 4196.97 640.027 2
1 -5 8 11231.9 1093.72 2
1 -5 9 2619.12 580.076 2
-1 4 10 1338.73 401.201 1
-1 4 10 2294.76 404.059 2
-1 4 9 1850.90 352.477 2
-1 4 9 1741.31 422.115 1
-1 4 8 1395.95 287.883 2
-1 4 8 553.285 235.966 1
1 -4 -8 1047.98 272.036 3
-1 4 7 3828.50 507.092 1
1 -4 -7 4062.57 434.424 3
-1 4 7 4017.32 424.267 2
1 -4 -6 532.999 156.402 3
1 -4 -6 457.107 169.168 1
-1 4 6 373.720 193.077 1
-1 4 6 465.306 163.110 3
-1 4 5 98.8261 140.209 1
1 -4 -5 73.1548 63.3179 3
1 -4 -5 87.8004 91.1171 1
-1 4 5 97.0355 106.034 3
1 -4 -4 40324.1 1237.44 1
1 -4 -4 39081.7 965.659 3
-1 4 4 39535.6 1260.79 1
-1 4 4 41317.5 1016.57 3
-1 4 3 5046.44 310.019 2
1 -4 -3 4889.80 323.352 3
-1 4 3 5474.17 446.548 1
-1 4 3 5588.90 342.808 3
-1 4 2 394.693 152.122 1
-1 4 2 389.050 100.776 2
-1 4 2 321.916 89.2433 3
1 -4 -1 108352. 1490.06 2
-1 4 1 110110. 1556.87 2
-1 4 1 107624. 1484.61 3
1 -4 0 29843.4 872.047 2
-1 4 0 28603.6 884.643 2
1 -4 1 13727.9 667.457 2
-1 4 -1 14323.9 699.986 2
1 -4 2 21766.2 923.440 2
-1 4 -2 22523.5 963.282 2
-1 4 -3 1383.74 276.359 2
1 -4 3 1258.65 276.015 2
-1 4 -4 961.399 252.808 2
1 -4 4 996.750 250.848 2
1 -4 5 27812.7 1342.25 2
1 -4 6 12967.0 996.248 2
1 -4 7 22609.0 1394.73 2
1 -4 8 3955.95 647.224 2
1 -4 9 5267.86 782.371 2
-1 3 11 -164.614 128.918 2
-1 3 10 1243.53 317.691 2
-1 3 9 2665.14 426.966 2
-1 3 9 3240.19 565.255 1
-1 3 8 3860.95 563.931 1
-1 3 8 3953.48 469.991 2
1 -3 -8 3580.51 443.566 3
-1 3 7 6787.98 552.837 2
1 -3 -7 6488.14 545.618 3
-1 3 7 7006.21 678.361 1
-1 3 6 4868.67 519.667 1
-1 3 6 4487.83 408.372 2
1 -3 -6 4975.36 510.015 1
1 -3 -6 4273.93 397.181 3
-1 3 5 71.4378 100.139 3
1 -3 -5 36.0998 55.1199 3
1 -3 -5 78.3961 96.7023 1
-1 3 5 46.4042 160.728 1
-1 3 4 85450.7 1782.27 1
1 -3 -4 84912.6 1750.42 1
1 -3 -4 83172.1 1354.06 3
-1 3 4 84705.1 1409.62 3
1 -3 -3 404.614 129.911 1
-1 3 3 457.437 103.609 3
1 -3 -3 384.747 92.1376 3
-1 3 3 425.861 155.190 1
-1 3 2 1527.92 146.303 3
-1 3 2 1553.89 143.526 2
-1 3 2 1743.86 236.550 1
1 -3 -2 1531.48 151.142 3
1 -3 -1 -2.06716 64.2528 2
-1 3 1 85.6723 63.4190 2
-1 3 1 14.1517 56.5548 3
1 -3 0 11792.4 477.375 2
-1 3 0 11781.5 486.853 2
-1 3 -1 141.108 96.1227 2
1 -3 1 99.0007 107.945 2
1 -3 2 63571.6 1447.18 2
-1 3 -2 64267.2 1500.57 2
-1 3 -3 2634.88 355.427 2
1 -3 3 2664.75 349.700 2
1 -3 4 17201.9 923.588 2
-1 3 -4 18211.3 972.591 2
1 -3 5 2440.57 402.666 2
-1 3 -5 3794.27 482.521 2
1 -3 6 5253.28 617.722 2
1 -3 7 3853.83 579.745 2
1 -3 8 3921.68 612.647 2
1 -3 9 11990.1 1099.30 2
1 -3 10 13166.3 1236.42 2
-1 2 12 1004.09 311.323 2
-1 2 11 -65.3375 140.500 2
-1 2 10 1814.14 377.254 2
-1 2 9 356.335 185.975 2
-1 2 8 903.325 297.988 1
1 -2 -8 1278.94 269.296 3
-1 2 8 1378.21 286.240 2
1 -2 -7 24814.4 1087.05 3
-1 2 7 27029.5 1345.65 1
-1 2 7 26439.9 1113.54 2
1 -2 -6 117.194 136.613 1
-1 2 6 55.1907 164.026 1
1 -2 -6 -131.149 86.5523 3
-1 2 6 66.3785 106.908 2
1 -2 -5 34532.8 1199.34 1
-1 2 5 35369.0 1278.87 1
1 -2 -5 33979.3 1014.51 3
-1 2 5 36028.2 1032.62 2
-1 2 4 44492.0 977.811 2
-1 2 4 43786.8 1263.09 1
1 -2 -4 43422.4 989.548 3
1 -2 -4 44079.3 1235.89 1
-1 2 3 79.6654 75.7625 3
1 -2 -3 21.8843 61.5956 3
-1 2 3 93.3799 125.431 1
1 -2 -3 114.322 100.470 1
-1 2 2 10683.0 316.985 3
-1 2 2 10661.1 507.740 1
1 -2 -2 10002.4 480.222 1
1 -2 -2 10489.5 310.226 3
-1 2 1 393080. 1655.49 3
-1 2 1 394757. 1698.11 2
-1 2 1 404718. 2759.86 1
1 -2 0 3254.39 211.778 2
-1 2 0 3476.03 215.695 2
1 -2 1 82285.7 1273.86 2
-1 2 -1 78615.9 1267.78 2
-1 2 -2 7521.88 469.620 2
1 -2 2 6648.45 442.432 2
-1 2 -3 35533.2 1166.99 2
1 -2 3 36074.1 1151.75 2
1 -2 4 466.502 194.782 2
-1 2 -4 266.140 133.369 2
-1 2 -5 -132.680 106.154 3
1 -2 5 141.132 151.439 2
1 -2 6 5941.55 616.234 2
1 -2 7 36737.9 1627.85 2
1 -2 8 431.192 230.724 2
1 -2 9 12560.0 1108.70 2
1 -2 10 1425.52 441.165 2
1 -2 11 3302.49 645.210 2
-1 1 12 309.034 234.623 2
-1 1 11 1095.27 342.722 2
-1 1 10 22432.2 1349.00 2
-1 1 9 -38.0913 111.010 2
-1 1 8 2031.93 359.480 2
1 -1 -7 5336.46 528.563 3
-1 1 7 5522.98 541.433 2
-1 1 6 9016.30 734.215 1
1 -1 -6 8519.36 606.068 3
-1 1 6 7759.73 568.657 2
1 -1 -6 9256.67 689.055 1
1 -1 -5 17977.7 781.459 3
-1 1 5 20619.8 980.381 1
1 -1 -5 20539.1 943.220 1
-1 1 5 19963.6 806.707 2
1 -1 -4 14921.0 616.525 3
-1 1 4 16815.0 643.182 2
-1 1 4 17458.2 792.699 1
1 -1 -4 16741.3 767.466 1
-1 1 3 18692.7 731.979 1
1 -1 -3 19133.2 580.665 3
-1 1 3 20043.5 572.334 2
1 -1 -3 19296.3 726.621 1
1 -1 -2 1291.31 181.665 1
-1 1 2 1117.12 106.776 2
1 -1 -2 1078.34 109.949 3
-1 1 2 1153.44 191.340 1
1 -1 -1 110913. 1291.91 1
-1 1 1 117551. 1330.82 1
1 -1 0 5467.19 201.257 2
-1 1 0 5223.34 197.789 2
-1 1 -1 54668.2 913.493 2
1 -1 1 53977.9 908.681 2
1 -1 2 122552. 1695.19 2
-1 1 -2 120543. 1605.90 3
-1 1 -3 24029.1 842.821 3
1 -1 3 24994.6 899.069 2
-1 1 -4 99661.8 1951.03 3
1 -1 4 101415. 2017.14 2
-1 1 -5 9654.61 670.785 3
1 -1 5 9304.26 684.787 2
1 -1 6 15119.3 950.180 2
-1 1 -6 16034.7 985.546 1
-1 1 -6 15930.3 940.054 3
1 -1 7 4189.87 554.102 2
1 -1 8 9629.95 877.265 2
1 -1 9 1224.98 375.259 2
1 -1 10 3281.73 600.541 2
1 -1 11 382.601 267.809 2
-1 0 12 -101.644 189.796 2
-1 0 11 -21.7388 225.114 2
-1 0 10 5358.83 686.036 2
-1 0 9 1648.91 357.099 2
-1 0 8 490.244 210.546 2
-1 0 7 25174.5 1177.88 2
1 0 -7 25700.1 1196.04 3
1 0 -6 528.496 196.334 1
-1 0 6 877.908 222.555 2
1 0 -6 446.667 164.216 3
1 0 -5 70960.6 1650.17 3
-1 0 5 76858.0 1958.23 1
-1 0 5 73741.0 1634.02 2
1 0 -5 73918.8 1838.38 1
-1 0 4 712.541 215.782 1
1 0 -4 784.344 194.922 1
-1 0 4 726.419 169.615 2
1 0 -4 644.453 152.047 2
-1 0 3 60770.6 1365.73 1
1 0 -3 61246.0 1131.89 2
-1 0 3 61904.2 1124.61 2
1 0 -3 63246.9 1343.33 1
1 0 -2 85881.4 1071.95 2
1 0 -2 81778.2 1281.89 1
-1 0 2 85940.5 1053.78 2
-1 0 2 86142.4 1341.29 1
1 0 -1 557.224 103.769 1
-1 0 1 474.978 69.0348 2
1 0 -1 393.541 63.3588 2
-1 0 1 473.509 106.924 1
-1 0 -1 53019.2 768.048 3
1 0 1 56404.9 801.556 3
-1 0 -2 3510.92 265.826 3
1 0 2 3794.55 292.183 3
-1 0 -3 175067. 2135.88 3
1 0 3 180446. 2188.93 3
1 0 4 15088.8 745.517 2
-1 0 -4 13627.4 693.343 3
1 0 5 26387.2 1090.95 2
-1 0 -5 26943.0 1104.55 1
-1 0 -5 25927.5 1062.25 3
-1 0 -6 987.313 231.922 3
-1 0 -6 1202.52 271.052 1
1 0 6 647.141 228.724 2
-1 0 -7 28774.5 1330.91 1
1 0 7 27521.5 1333.94 2
1 0 8 3503.68 532.867 2
1 0 9 5404.80 703.127 2
1 0 10 4965.35 709.471 2
1 0 11 12085.5 1146.71 2
-1 -1 11 -430.732 244.970 2
-1 -1 10 4765.04 675.072 2
-1 -1 9 355.212 190.565 2
-1 -1 8 3803.91 527.202 2
-1 -1 7 5071.33 566.771 2
1 1 -6 36926.0 1474.30 1
-1 -1 6 35944.8 1346.72 2
1 1 -6 37761.6 1421.54 2
1 1 -5 10920.0 740.671 1
-1 -1 5 10160.1 658.558 2
1 1 -5 10445.0 685.417 2
-1 -1 4 2980.65 333.226 2
1 1 -4 2879.38 330.548 2
1 1 -4 3517.81 387.838 1
-1 -1 3 21727.1 756.637 2
1 1 -3 19774.4 738.146 2
1 1 -3 20357.7 806.839 1
-1 -1 2 3875.12 331.386 1
1 1 -2 4321.33 301.352 2
-1 -1 2 4026.61 294.681 2
1 1 -2 4344.28 321.045 1
1 1 -1 6067.82 300.723 1
-1 -1 1 6218.39 298.567 2
-1 -1 1 6656.74 323.044 1
1 1 -1 6100.32 298.042 2
-1 -1 0 365.815 85.9359 3
-1 -1 -1 25472.3 571.368 3
1 1 1 25708.0 572.945 3
1 1 2 63451.8 1072.22 3
-1 -1 -2 64465.1 1068.69 3
1 1 3 69.4279 117.812 3
-1 -1 -3 135.470 94.9397 1
-1 -1 -3 217.543 115.913 3
-1 -1 -4 13957.8 671.253 3
1 1 4 13970.7 685.392 3
-1 -1 -4 13229.3 618.851 1
1 1 5 43575.1 1349.45 3
-1 -1 -5 41568.5 1294.58 3
-1 -1 -5 40854.6 1234.03 1
-1 -1 -6 8289.14 619.772 1
1 1 6 7582.67 642.207 2
-1 -1 -6 9150.34 666.566 3
1 1 7 -34.2496 147.900 2
-1 -1 -7 145.506 136.551 1
1 1 8 5399.96 633.763 2
1 1 9 5896.48 706.399 2
1 1 10 7518.46 853.220 2
1 1 11 7144.52 882.616 2
1 1 12 8957.81 1013.95 2
-1 -2 11 173.382 167.497 2
-1 -2 10 5245.81 723.793 2
-1 -2 9 21565.0 1368.35 2
-1 -2 8 13230.5 1010.90 2
-1 -2 7 3986.13 524.665 2
-1 -2 6 936.968 271.027 2
1 2 -6 765.597 236.990 2
1 2 -5 8729.90 698.666 1
1 2 -5 8207.76 652.377 2
-1 -2 5 8302.28 638.894 2
1 2 -4 2975.69 361.977 2
1 2 -4 3468.80 408.885 1
-1 -2 4 2876.44 353.716 2
1 2 -3 49047.9 1357.28 1
-1 -2 3 52295.7 1298.84 2
1 2 -3 52130.6 1326.11 2
-1 -2 2 51677.0 1157.04 2
1 2 -2 49652.1 1149.53 2
1 2 -1 298.400 111.158 2
-1 -2 1 128.257 112.202 2
1 2 0 188946. 1795.95 3
-1 -2 0 190395. 1805.39 2
1 2 0 184122. 1798.68 2
1 2 1 19126.1 576.757 3
-1 -2 -1 17894.1 559.595 3
-1 -2 -2 208327. 2047.08 3
1 2 2 210650. 1320.18 1
-1 -2 -2 207247. 1261.17 1
1 2 2 206908. 2063.79 3
1 2 3 936.479 188.915 3
1 2 3 1208.79 161.315 1
-1 -2 -3 1241.13 150.303 1
-1 -2 -3 897.590 168.627 3
-1 -2 -4 40.2165 80.5792 3
1 2 4 94.1012 125.820 3
-1 -2 -4 -29.0876 78.0303 1
1 2 5 11017.1 675.943 3
-1 -2 -5 10013.7 628.937 3
-1 -2 -5 10814.7 597.832 1
1 2 6 2068.30 329.747 3
-1 -2 -6 1606.80 283.779 3
-1 -2 -6 1170.37 231.650 1
-1 -2 -7 2279.46 339.386 1
1 2 7 2510.39 401.693 2
1 2 7 2328.08 395.564 3
-1 -2 -7 2299.72 363.215 3
1 2 8 37279.3 1615.39 2
1 2 9 909.152 304.379 2
1 2 10 -224.750 192.005 2
1 2 11 811.333 319.419 2
1 2 12 1194.93 389.123 2
-1 -3 10 30.6152 117.610 2
-1 -3 9 12676.4 1095.14 2
-1 -3 8 3380.32 547.455 2
-1 -3 7 14814.0 1035.88 2
-1 -3 6 20391.8 1131.82 2
1 3 -5 790.180 236.197 1
-1 -3 5 1181.37 281.310 2
1 3 -5 1089.78 267.821 2
1 3 -4 29335.5 1245.94 1
-1 -3 4 28681.0 1152.14 2
1 3 -4 29517.8 1203.75 2
1 3 -3 58607.1 1554.39 2
-1 -3 3 57001.3 1492.76 2
-1 -3 2 11248.4 615.017 2
1 3 -2 11582.9 636.271 2
-1 -3 1 56380.7 1252.93 2
1 3 -1 57108.2 1272.37 2
1 3 0 396.046 135.597 2
1 3 0 329.049 148.933 3
-1 -3 0 252.381 114.268 2
-1 -3 -1 6336.22 386.028 3
1 3 1 7318.30 420.708 3
1 3 1 6421.50 384.995 2
-1 -3 -2 27647.0 818.868 3
1 3 2 27630.0 539.821 1
1 3 2 28633.2 831.991 3
1 3 3 527.870 153.348 3
-1 -3 -3 339.719 127.511 3
1 3 3 416.169 89.9068 1
-1 -3 -3 383.814 89.3760 1
1 3 4 30614.9 863.758 1
-1 -3 -4 28615.7 985.038 3
1 3 4 30077.3 1014.32 3
-1 -3 -4 27026.2 768.887 1
1 3 5 97183.3 1814.04 1
-1 -3 -5 92380.8 1907.82 3
1 3 5 94277.8 1952.72 3
-1 -3 -5 91464.7 1637.61 1
-1 -3 -6 4303.03 411.060 1
1 3 6 4418.97 477.797 3
-1 -3 -6 5335.65 503.586 3
-1 -3 -7 28.0953 59.4593 1
-1 -3 -7 -30.2393 61.4071 3
1 3 7 49.5052 159.251 3
1 3 8 2113.69 410.751 3
1 3 8 1785.74 374.943 2
-1 -3 -8 1395.34 295.584 1
1 3 9 2819.34 479.649 2
1 3 10 1787.03 415.199 2
1 3 11 2741.91 520.878 2
1 3 12 4009.19 689.253 2
-1 -4 10 -75.7490 162.154 2
-1 -4 9 682.045 326.291 2
-1 -4 8 6248.57 771.335 2
-1 -4 7 -256.491 208.818 2
-1 -4 6 16948.2 1088.73 2
-1 -4 5 6640.53 657.838 2
-1 -4 4 67443.0 1898.69 2
1 4 -4 69370.6 1973.74 2
1 4 -3 3056.24 409.088 2
-1 -4 3 2638.65 365.769 2
-1 -4 2 705.986 225.737 2
1 4 -2 619.047 173.835 2
-1 -4 1 11878.8 650.858 2
1 4 -1 12432.2 672.701 2
1 4 0 14067.0 664.176 3
-1 -4 0 13938.1 661.387 2
1 4 0 13343.9 659.350 2
1 4 1 15106.1 671.478 3
1 4 1 14908.5 665.774 2
1 4 2 64840.5 1004.26 1
1 4 2 62571.5 1360.09 3
-1 -4 -2 64688.8 1402.77 3
-1 -4 -3 18142.5 769.878 3
1 4 3 17524.8 756.220 3
1 4 3 19143.2 596.516 1
1 4 4 400.336 154.526 3
-1 -4 -4 221.779 93.4171 1
1 4 4 346.327 107.856 1
-1 -4 -4 212.960 105.715 3
-1 -4 -5 20199.5 758.441 1
1 4 5 22006.0 973.171 3
1 4 5 20743.3 813.046 1
-1 -4 -5 19935.3 910.331 3
-1 -4 -6 845.637 182.418 1
-1 -4 -6 848.226 221.152 3
1 4 6 917.838 205.871 1
1 4 6 1010.35 255.513 3
1 4 7 11606.8 847.026 3
-1 -4 -7 11399.4 712.409 1
1 4 7 11822.5 797.922 1
-1 -4 -8 24504.2 1141.03 1
1 4 8 23679.6 1277.04 3
1 4 9 2607.15 472.008 2
1 4 9 2502.11 484.294 3
1 4 10 1606.40 399.078 2
1 4 11 1089.27 347.353 2
1 4 12 2420.67 551.312 2
-1 -5 9 2877.97 587.622 2
-1 -5 8 225.943 236.639 2
-1 -5 7 26872.9 1552.13 2
-1 -5 6 -147.710 169.211 2
-1 -5 5 6925.90 705.873 2
-1 -5 4 5618.40 597.795 2
1 5 -3 726.786 202.285 2
-1 -5 3 283.817 161.334 2
1 5 -2 3865.62 451.405 2
-1 -5 2 3192.00 407.336 2
1 5 -1 34279.5 1235.66 2
-1 -5 1 33954.9 1205.54 2
1 5 0 18040.0 856.421 2
-1 -5 0 15666.3 784.635 2
1 5 0 16099.4 789.518 3
1 5 1 4486.00 415.816 3
1 5 1 4165.56 397.046 2
-1 -5 -2 629.462 167.750 3
1 5 2 627.254 129.411 1
1 5 2 563.348 157.562 2
1 5 2 324.795 144.686 3
1 5 3 35994.9 902.713 1
1 5 3 35446.5 1154.51 3
-1 -5 -3 35823.2 1168.34 3
-1 -5 -4 8306.64 587.484 3
1 5 4 8595.19 482.679 1
1 5 4 9343.37 627.035 3
1 5 5 6841.31 572.473 3
-1 -5 -5 6916.91 557.057 3
-1 -5 -5 6182.09 428.570 1
1 5 5 6908.12 484.804 1
1 5 6 893.942 242.644 3
-1 -5 -6 1617.56 306.174 3
-1 -5 -6 1769.38 258.678 1
1 5 6 1334.82 247.988 1
1 5 7 6361.40 585.978 1
1 5 7 7497.79 684.152 3
-1 -5 -7 6104.95 521.505 1
-1 -5 -8 370.836 145.784 1
1 5 8 675.331 241.771 3
1 5 9 22904.2 1359.17 3
1 5 10 1081.11 321.090 2
1 5 11 510.142 267.751 2
1 5 12 1945.85 485.482 2
-1 -6 8 4886.58 731.125 2
-1 -6 7 6928.64 854.203 2
-1 -6 6 -77.7384 187.561 2
-1 -6 5 1564.97 387.932 2
-1 -6 4 21054.1 1213.75 2
-1 -6 3 3844.69 489.321 2
1 6 -2 341.582 165.749 2
-1 -6 2 252.175 187.206 2
1 6 -1 25232.5 1156.74 2
-1 -6 1 23148.6 1078.71 2
1 6 0 10043.4 704.542 2
-1 -6 0 9565.35 668.782 2
1 6 0 9442.88 664.410 3
1 6 1 5702.46 508.634 3
1 6 1 5504.27 502.612 2
1 6 2 5204.64 476.619 3
1 6 2 5596.02 397.675 1
1 6 2 5046.92 473.100 2
1 6 3 955.663 218.303 2
1 6 3 1022.75 182.927 1
-1 -6 -3 956.037 211.413 3
1 6 3 1322.82 271.515 3
-1 -6 -4 604.873 185.047 3
1 6 4 831.200 237.934 3
1 6 4 957.575 181.211 1
1 6 5 2855.12 323.522 1
1 6 5 3188.41 423.883 3
-1 -6 -5 2951.93 386.567 3
1 6 6 8430.88 602.602 1
-1 -6 -6 8857.11 692.698 3
1 6 6 8533.50 706.252 3
1 6 7 -154.654 129.115 1
1 6 7 26.0042 98.6759 3
-1 -6 -7 41.4127 69.2333 1
1 6 8 -128.539 163.931 3
1 6 8 -159.934 136.366 1
-1 -6 -8 73.6840 116.486 1
1 6 9 4381.37 610.277 3
1 6 10 392.386 247.060 3
1 6 11 1809.55 447.172 2
-1 -7 7 12501.9 1165.63 2
-1 -7 6 18.1308 221.848 2
-1 -7 5 9971.80 943.673 2
-1 -7 4 6689.77 741.531 2
-1 -7 3 42337.6 1752.21 2
-1 -7 2 133.519 128.856 2
1 7 -1 7232.76 661.303 3
-1 -7 1 7035.63 659.156 2
1 7 0 896.967 209.024 2
1 7 0 863.977 251.164 3
1 7 1 1645.95 310.850 3
1 7 1 1739.18 317.248 2
1 7 2 78.2631 134.534 3
1 7 2 161.602 89.5737 2
1 7 2 107.664 96.3361 1
1 7 3 39517.0 1420.40 3
1 7 3 39334.4 1417.15 2
1 7 3 41155.7 1185.41 1
-1 -7 -4 9860.15 722.002 3
1 7 4 9957.85 599.969 1
1 7 4 10257.3 727.392 2
1 7 4 9006.22 701.252 3
1 7 5 -101.494 148.308 3
1 7 5 83.3827 80.1950 2
1 7 5 107.187 98.0950 1
1 7 6 7282.76 675.459 3
1 7 6 7033.18 569.593 1
1 7 7 -135.829 164.437 3
1 7 7 261.016 147.180 1
1 7 8 547.307 201.538 1
1 7 8 1.28683 124.497 3
1 7 9 2048.64 457.271 3
1 7 9 2732.24 427.798 1
1 7 10 316.980 222.306 3
-1 -8 6 2955.19 591.328 2
-1 -8 5 395.703 270.527 2
-1 -8 4 3348.36 582.620 2
-1 -8 3 4136.73 591.474 2
-1 -8 2 1839.42 391.836 2
-1 -8 1 85.2742 145.789 2
1 8 -1 31.2005 175.993 3
1 8 0 9871.45 805.092 3
1 8 1 1194.36 312.400 3
1 8 2 1286.78 245.339 1
1 8 2 1067.42 279.720 3
1 8 3 35840.5 1448.41 3
1 8 3 37177.3 1241.08 1
1 8 4 114.622 96.1961 1
1 8 4 -561.243 224.615 3
1 8 5 8863.54 744.471 3
1 8 5 10082.7 676.068 1
1 8 6 -95.7677 132.164 3
1 8 6 69.0683 117.343 1
1 8 7 1353.42 329.378 3
1 8 7 1701.90 311.147 1
1 8 8 3.24360 75.4984 1
1 8 8 179.351 177.637 3
1 8 9 3242.96 550.025 3
1 8 10 1295.95 362.146 3
-1 -9 5 1112.94 388.566 2
-1 -9 4 -599.093 282.115 2
-1 -9 3 5842.76 760.545 2
-1 -9 2 1011.60 316.246 2
1 9 -2 415.696 233.508 3
-1 -9 1 -309.232 174.055 2
1 9 -1 -159.670 170.127 3
1 9 0 16581.0 1113.90 3
1 9 1 3950.47 541.839 3
1 9 2 6138.67 552.838 1
1 9 2 6205.95 661.909 3
1 9 3 1471.27 328.647 3
1 9 3 1102.95 238.760 1
1 9 4 2022.37 313.495 1
1 9 4 2147.72 408.921 3
1 9 5 118.447 132.947 3
1 9 5 -79.7951 81.8367 1
1 9 6 5627.86 548.515 1
1 9 6 4376.26 582.520 3
1 9 7 -72.6582 149.997 3
1 9 8 1754.75 392.418 3
1 9 9 537.681 249.973 3
-1 -10 4 1513.27 460.629 2
-1 -10 3 6066.55 794.066 2
1 10 -3 5543.70 769.340 3
-1 -10 2 445.500 280.034 2
1 10 -2 736.422 278.939 3
1 10 -1 3744.68 578.807 3
1 10 0 -2.86697 150.153 3
1 10 1 366.341 212.455 3
1 10 2 3696.84 529.524 3
1 10 2 3810.01 465.985 1
1 10 3 3963.28 562.418 3
1 10 3 3531.58 451.711 1
1 10 4 6921.87 618.006 1
1 10 4 7396.31 766.651 3
1 10 5 1734.29 392.054 3
1 10 6 7391.28 767.980 3
1 10 7 -477.934 248.866 3
1 10 8 -44.9837 151.985 3
1 11 -2 835.509 324.946 3
1 11 -1 1593.92 431.378 3
1 11 0 1377.00 390.941 3
1 11 1 175.751 110.873 1
1 11 1 594.625 237.440 3
1 11 2 3271.55 468.735 1
1 11 2 3670.17 572.777 3
1 11 3 537.905 258.840 3
1 11 4 994.749 322.175 3
1 11 5 2665.15 504.074 3
1 11 6 297.241 177.051 3
1 12 1 5688.31 758.257 3
1 12 2 1164.36 380.188 3
1 12 3 7031.60 818.997 3
1 12 4 96.6263 129.992 3
-2 11 5 1258.23 364.601 1
-2 11 4 997.834 329.996 1
-2 11 3 149.355 172.118 1
-2 11 2 301.351 189.413 1
-2 11 1 67.1793 107.167 1
-2 11 0 6908.60 846.166 1
-2 10 7 -71.8879 96.8064 1
-2 10 6 -516.661 260.590 1
-2 10 5 92.2497 142.680 1
-2 10 4 212.245 183.874 1
-2 10 3 7231.94 808.806 1
-2 10 2 777.226 282.734 1
-2 10 1 1352.02 346.187 1
-2 10 0 5662.65 617.267 3
-2 10 -1 393.370 148.868 3
2 -10 1 624.965 246.738 2
2 -10 2 609.219 249.351 2
-2 10 -2 540.100 244.678 3
2 -10 3 235.020 159.991 2
2 -10 4 232.692 195.199 2
-2 9 8 410.190 237.267 1
-2 9 7 908.598 326.505 1
-2 9 6 4875.27 683.083 1
-2 9 5 4631.30 628.816 1
-2 9 4 56.9248 130.440 1
-2 9 3 1474.03 255.333 3
-2 9 3 1339.47 347.202 1
-2 9 2 16309.9 1147.03 1
-2 9 2 17543.3 917.999 3
-2 9 1 1768.31 320.700 3
-2 9 1 1100.03 319.436 1
2 -9 0 -81.5544 129.325 2
-2 9 0 101.939 127.877 3
2 -9 1 -113.610 134.426 2
-2 9 -1 208.254 147.715 3
2 -9 2 277.880 213.689 2
2 -9 3 3696.11 591.350 2
2 -9 4 4800.47 703.782 2
2 -9 5 2844.66 589.661 2
-2 8 9 732.463 295.299 1
-2 8 8 669.150 311.477 1
-2 8 7 1419.09 388.279 1
-2 8 6 776.559 282.245 1
-2 8 5 7232.18 765.006 1
-2 8 5 6901.25 498.656 3
-2 8 4 2416.27 302.158 3
-2 8 4 2417.47 439.123 1
-2 8 3 161.992 105.574 3
-2 8 3 178.143 156.671 1
-2 8 2 -129.751 83.1229 2
-2 8 2 -0.68041 52.8605 3
-2 8 2 -32.3925 120.673 1
-2 8 1 175.018 114.517 3
-2 8 1 146.810 87.1501 2
-2 8 1 101.426 153.210 1
-2 8 0 2461.73 360.467 3
2 -8 0 2406.60 360.444 2
-2 8 0 2167.47 373.994 2
2 -8 1 8048.61 717.041 2
2 -8 2 438.936 213.631 2
2 -8 3 8191.52 816.032 2
2 -8 4 2708.71 516.488 2
2 -8 5 887.546 320.147 2
2 -8 6 2091.57 496.884 2
-2 7 10 -3.99622 163.073 1
-2 7 9 6327.42 823.983 1
-2 7 8 14368.4 1169.71 1
-2 7 7 3693.81 568.829 1
-2 7 6 -128.378 105.985 3
-2 7 6 235.630 149.764 1
-2 7 5 1645.56 364.843 1
-2 7 5 2541.47 297.517 3
-2 7 4 4436.07 351.625 2
-2 7 4 4104.43 539.875 1
-2 7 4 4620.84 372.508 3
-2 7 3 156.410 85.0402 3
-2 7 3 109.147 71.1912 2
-2 7 2 5497.21 437.057 3
-2 7 2 4535.36 535.281 1
-2 7 2 5233.75 442.808 2
-2 7 1 1443.14 246.420 2
-2 7 1 1715.79 262.086 3
-2 7 1 1648.83 338.803 1
-2 7 0 373.314 159.131 2
-2 7 0 146.429 123.905 3
2 -7 0 391.751 165.199 2
2 -7 1 13680.9 858.086 2
-2 7 -1 14505.2 924.463 2
2 -7 2 1381.36 327.504 2
2 -7 3 5534.25 641.182 2
2 -7 4 1592.15 382.464 2
2 -7 5 469.546 262.106 2
2 -7 6 2685.39 554.547 2
2 -7 7 2411.66 536.172 2
-2 6 10 3144.31 629.657 1
-2 6 9 317.959 211.216 1
-2 6 8 6344.88 772.635 1
-2 6 7 1180.58 339.463 1
-2 6 7 1369.36 203.310 2
-2 6 6 2657.01 301.348 3
2 -6 -6 2194.33 271.458 3
-2 6 6 2794.99 468.403 1
-2 6 6 2299.58 227.191 2
-2 6 5 56283.8 1254.08 3
-2 6 5 53479.4 1039.49 2
-2 6 5 54139.0 1870.16 1
-2 6 4 3872.42 287.684 2
-2 6 4 4131.17 515.740 1
-2 6 4 4271.23 330.545 3
-2 6 3 35663.9 928.133 2
-2 6 3 36912.0 940.354 3
-2 6 3 35707.7 1442.98 1
-2 6 2 20168.4 729.609 3
-2 6 2 17633.7 985.193 1
-2 6 2 18004.4 723.843 2
-2 6 1 34.1429 75.0434 2
2 -6 -1 77.7582 103.163 2
-2 6 1 154.948 87.9744 3
-2 6 1 -148.727 139.315 1
-2 6 0 7467.47 563.131 2
2 -6 0 7421.51 541.469 2
-2 6 -1 1259.80 255.548 2
2 -6 1 1149.01 238.832 2
2 -6 2 834.125 245.296 2
-2 6 -2 1399.94 292.718 2
2 -6 3 1807.11 370.725 2
2 -6 4 264.848 183.312 2
2 -6 5 9702.53 898.404 2
2 -6 6 15694.9 1213.08 2
2 -6 7 1223.25 373.942 2
2 -6 8 628.630 314.309 2
-2 5 10 -1.96642 176.549 1
-2 5 9 -70.3637 114.754 1
-2 5 8 4795.58 667.102 1
-2 5 8 5379.30 455.740 2
-2 5 7 346.040 227.788 1
2 -5 -7 159.424 94.6826 3
-2 5 7 164.073 96.8615 2
2 -5 -6 2424.76 270.599 3
-2 5 6 2425.05 432.113 1
-2 5 6 2698.12 259.607 2
-2 5 5 39989.5 1556.85 1
2 -5 -5 37874.4 954.683 3
-2 5 5 38331.5 803.507 2
-2 5 5 40329.9 1007.96 3
-2 5 4 38519.0 1446.32 1
-2 5 4 38139.1 762.964 2
-2 5 4 38868.5 889.897 3
-2 5 3 22970.4 639.247 3
-2 5 3 22510.1 618.903 2
-2 5 3 23224.4 1078.13 1
-2 5 2 8884.59 417.269 3
-2 5 2 8900.76 436.022 2
-2 5 2 8467.95 638.230 1
-2 5 1 2394.78 243.776 3
2 -5 -1 2131.48 239.037 2
-2 5 1 2132.89 329.677 1
-2 5 1 2621.92 268.706 2
2 -5 0 1721.52 246.342 2
-2 5 0 1264.66 215.402 2
2 -5 1 25879.2 1002.05 2
-2 5 -1 25610.3 1039.75 2
2 -5 2 876.982 228.871 2
-2 5 -2 545.943 173.037 2
-2 5 -3 63332.4 1921.16 2
2 -5 3 61430.1 1833.21 2
2 -5 4 7302.59 701.718 2
2 -5 5 2.54611 141.882 2
2 -5 6 4315.82 609.252 2
2 -5 7 446.917 305.344 2
2 -5 8 494.296 326.566 2
2 -5 9 5402.55 826.787 2
-2 4 10 133.636 172.769 1
-2 4 9 265.204 127.770 2
-2 4 9 112.760 188.402 1
-2 4 8 6893.11 779.713 1
-2 4 8 7899.23 567.993 2
2 -4 -8 6403.27 539.340 3
-2 4 7 9935.90 870.294 1
2 -4 -7 8952.98 580.135 3
-2 4 7 9821.18 566.341 2
2 -4 -6 30941.8 947.093 3
-2 4 6 33108.6 907.193 2
-2 4 6 31730.8 1431.89 1
2 -4 -5 3258.75 268.578 3
-2 4 5 3094.59 430.283 1
2 -4 -5 3328.09 428.035 1
-2 4 5 3178.43 239.988 2
-2 4 4 6736.77 276.441 2
2 -4 -4 6501.92 331.153 3
2 -4 -4 6551.52 560.210 1
-2 4 4 6661.53 582.349 1
-2 4 4 6516.74 341.078 3
-2 4 3 29.2608 35.7448 2
-2 4 3 -80.7940 124.155 1
-2 4 3 -57.2939 44.5559 3
-2 4 2 17876.4 873.210 1
-2 4 2 18918.8 482.431 3
-2 4 2 17363.7 484.939 2
-2 4 1 13230.3 719.543 1
2 -4 -1 14065.9 493.831 2
-2 4 1 13944.5 477.162 3
-2 4 1 13094.0 506.535 2
2 -4 0 38240.7 969.552 2
-2 4 0 33758.9 953.898 2
2 -4 1 40474.9 1139.16 2
-2 4 -1 38099.6 1155.82 2
2 -4 2 14645.3 773.290 2
-2 4 -2 13408.3 769.038 2
2 -4 3 679.800 224.117 2
-2 4 -3 512.974 175.858 2
2 -4 4 49433.3 1688.15 2
-2 4 -4 51850.3 1780.07 2
2 -4 5 682.646 276.106 2
2 -4 6 9125.73 856.152 2
2 -4 7 -101.375 199.984 2
2 -4 8 959.652 359.235 2
2 -4 9 6895.39 902.348 2
-2 3 10 1217.21 301.383 2
-2 3 10 1154.76 377.510 1
-2 3 9 8847.85 944.205 1
-2 3 9 8125.68 664.962 2
2 -3 -8 306.425 139.931 3
-2 3 8 443.645 234.800 1
-2 3 8 557.468 172.899 2
-2 3 7 16679.7 1092.62 1
-2 3 7 16757.1 776.912 2
2 -3 -7 16612.9 809.362 3
-2 3 6 5182.41 575.247 1
-2 3 6 6235.96 418.455 2
2 -3 -6 5393.17 413.825 3
-2 3 5 2254.59 368.169 1
2 -3 -5 1470.62 186.208 3
-2 3 5 1732.70 189.089 2
2 -3 -5 1892.25 309.386 1
-2 3 4 3672.54 429.820 1
2 -3 -4 4159.59 436.550 1
2 -3 -4 3877.07 248.679 3
-2 3 4 3873.19 212.059 2
2 -3 -3 26844.6 502.571 3
-2 3 3 27434.9 1052.29 1
2 -3 -3 27280.9 1018.70 1
-2 3 2 27854.9 394.908 3
-2 3 2 27523.5 993.088 1
2 -3 -1 13548.0 385.620 2
-2 3 1 13071.5 654.868 1
-2 3 1 13120.9 342.912 3
-2 3 1 13031.2 397.047 2
-2 3 0 11704.2 490.297 2
2 -3 0 13210.8 499.552 2
2 -3 1 9656.72 514.558 2
-2 3 -1 8625.22 500.495 2
-2 3 -2 4037.14 393.004 2
2 -3 2 3669.80 372.236 2
2 -3 3 46440.6 1426.09 2
-2 3 -3 46786.7 1468.22 2
-2 3 -4 1703.20 300.619 3
2 -3 4 1634.04 321.357 2
2 -3 5 356.215 242.668 2
-2 3 -5 357.887 167.653 3
2 -3 6 4497.45 578.660 2
2 -3 7 14571.4 1103.81 2
2 -3 8 7564.29 856.626 2
2 -3 9 -14.5127 170.554 2
2 -3 10 8838.53 1017.55 2
-2 2 10 5341.88 607.107 2
-2 2 9 1063.55 282.320 2
-2 2 9 391.232 224.121 1
2 -2 -8 693.854 211.053 3
-2 2 8 904.795 229.082 2
-2 2 8 998.794 321.798 1
-2 2 7 7661.40 754.119 1
-2 2 7 7510.91 551.720 2
2 -2 -7 6607.33 535.422 3
-2 2 6 50624.9 1748.14 1
2 -2 -6 52567.2 1716.27 1
2 -2 -6 47593.8 1283.63 3
-2 2 6 47762.1 1236.34 2
2 -2 -5 1600.19 286.828 1
-2 2 5 1407.57 301.071 1
2 -2 -5 1013.65 169.009 3
-2 2 5 1399.49 190.942 2
-2 2 4 79514.6 1852.44 1
-2 2 4 72648.8 1028.13 2
2 -2 -4 77444.3 1804.77 1
2 -2 -4 72619.1 1145.81 3
-2 2 3 29359.4 406.301 2
2 -2 -3 28926.8 539.208 3
2 -2 -3 29018.8 1016.23 1
-2 2 3 28162.4 1014.08 1
2 -2 -2 113302. 1840.22 1
-2 2 2 115485. 1895.03 1
-2 2 1 -14.4421 121.895 1
2 -2 0 7945.67 337.588 2
-2 2 0 7341.45 286.304 3
2 -2 1 -8.77848 88.6631 2
-2 2 -1 44.0695 75.0799 3
-2 2 -2 180.216 90.4652 3
2 -2 2 206.687 145.708 2
2 -2 3 26.8378 136.589 2
-2 2 -3 -172.221 98.2830 3
2 -2 4 76266.8 1938.68 2
-2 2 -4 75866.2 1824.13 3
-2 2 -5 1968.66 328.423 3
2 -2 5 1758.63 337.540 2
2 -2 6 6519.42 678.122 2
2 -2 7 12694.4 997.182 2
2 -2 8 1825.18 416.992 2
2 -2 9 138.285 207.910 2
2 -2 10 8156.66 978.209 2
-2 1 11 72.6926 110.443 2
-2 1 10 -45.9049 130.558 2
-2 1 9 2258.63 397.085 2
-2 1 8 690.801 321.678 1
-2 1 8 801.225 236.401 2
2 -1 -7 35398.3 1313.21 3
-2 1 7 34985.6 1255.37 2
-2 1 6 10490.4 816.235 1
-2 1 6 8801.26 574.535 2
2 -1 -6 8967.90 602.394 3
2 -1 -6 8984.10 719.918 1
2 -1 -5 5660.77 422.546 3
-2 1 5 5501.61 541.993 1
2 -1 -5 5675.90 523.827 1
-2 1 5 5832.32 408.143 2
-2 1 4 26405.2 1088.84 1
2 -1 -4 24554.8 749.967 3
-2 1 4 24732.7 704.411 2
-2 1 3 50667.0 1342.41 1
-2 1 3 51283.8 781.914 2
2 -1 -3 50092.6 1296.34 1
2 -1 -3 47448.1 851.151 3
2 -1 -2 12845.2 600.983 1
2 -1 -2 12657.8 274.090 2
-2 1 2 12989.7 616.537 1
2 -1 -1 3567.11 297.048 1
-2 1 1 3628.72 314.242 1
-2 1 0 4432.89 321.517 1
2 -1 0 4829.21 210.558 3
-2 1 0 4711.37 200.080 3
2 -1 1 238626. 1977.43 3
-2 1 -1 235675. 1933.79 3
-2 1 -2 22818.4 739.756 3
2 -1 2 22213.3 783.271 2
2 -1 3 10139.3 614.260 2
-2 1 -3 9848.03 567.833 3
2 -1 4 90416.3 1995.00 2
-2 1 -4 85914.8 1877.11 3
2 -1 5 663.011 234.207 2
-2 1 -5 428.104 176.471 3
-2 1 -6 388.672 162.594 3
2 -1 6 439.653 212.523 2
2 -1 7 835.504 300.359 2
2 -1 8 243.597 233.160 2
2 -1 9 -9.80169 189.516 2
2 -1 10 3447.96 632.271 2
2 -1 11 8767.27 1039.41 2
-2 0 12 999.169 357.439 2
-2 0 11 -197.562 168.990 2
-2 0 10 6604.03 733.086 2
-2 0 9 530.448 215.624 2
-2 0 8 6981.51 654.532 2
-2 0 7 3206.03 417.693 2
2 0 -7 2278.72 371.108 3
2 0 -6 19992.4 1088.13 1
-2 0 6 21444.6 1190.92 1
-2 0 6 20513.8 935.286 2
2 0 -6 20779.3 978.076 3
2 0 -5 51731.9 1592.67 1
-2 0 5 52567.2 1680.73 1
-2 0 5 46920.5 1249.08 2
2 0 -5 47554.1 1304.53 2
-2 0 4 28341.1 1104.17 1
2 0 -4 26840.1 1049.37 1
-2 0 4 27635.1 839.922 2
2 0 -4 28417.3 886.866 2
2 0 -3 971.443 152.353 2
-2 0 3 901.518 220.295 1
2 0 -3 966.428 195.626 1
-2 0 3 1153.14 163.308 2
-2 0 2 125601. 1818.65 1
2 0 -2 120587. 1742.19 1
-2 0 2 121489. 1247.22 2
2 0 -2 120811. 1296.70 2
2 0 -1 17715.6 415.986 3
2 0 -1 16576.3 416.655 2
-2 0 1 17129.7 590.783 1
2 0 -1 16173.7 576.671 1
-2 0 0 67474.4 853.364 3
-2 0 0 69424.3 1064.36 1
2 0 0 69853.6 869.687 3
2 0 1 213562. 1838.08 3
-2 0 -1 206451. 1803.13 3
-2 0 -2 143958. 1787.76 3
2 0 2 148900. 1856.63 3
-2 0 -3 11577.4 589.401 3
2 0 3 12211.0 619.600 3
2 0 4 8592.88 590.748 3
-2 0 -4 8175.98 557.075 3
-2 0 -5 7967.69 609.261 3
2 0 5 8098.44 651.095 2
-2 0 -6 348.052 154.538 3
2 0 6 171.384 165.714 2
2 0 7 48710.4 1846.81 2
-2 0 -7 50870.0 1802.61 1
2 0 8 6108.66 713.704 2
2 0 9 8413.88 905.937 2
2 0 10 1307.97 402.583 2
2 0 11 4100.21 693.525 2
-2 -1 11 3459.92 582.813 2
-2 -1 10 4856.69 655.982 2
-2 -1 9 302.877 164.026 2
-2 -1 8 13081.2 929.357 2
-2 -1 7 16019.4 956.990 2
2 1 -7 16101.2 993.845 2
-2 -1 6 7509.53 602.124 2
2 1 -6 8279.26 661.744 2
-2 -1 5 18146.9 1034.19 1
2 1 -5 18219.8 974.432 1
-2 -1 5 17757.8 837.180 2
2 1 -5 18772.1 899.076 2
2 1 -4 10919.5 690.411 1
-2 -1 4 11388.1 743.562 1
-2 -1 4 10939.4 594.898 2
2 1 -4 10511.3 608.340 2
-2 -1 3 2502.96 344.030 1
2 1 -3 2645.54 313.861 1
-2 -1 3 2368.91 260.363 2
2 1 -3 2420.92 263.072 2
2 1 -2 57746.1 1230.44 1
-2 -1 2 61740.6 1115.88 2
-2 -1 2 63769.9 1303.51 1
2 1 -2 62874.3 1144.85 2
2 1 -1 150922. 1604.34 2
-2 -1 1 153593. 1713.65 1
2 1 -1 149979. 1584.73 3
2 1 -1 153039. 1687.55 1
-2 -1 0 9719.48 398.009 3
2 1 0 8878.62 329.272 1
-2 -1 0 9807.33 350.414 1
2 1 0 9179.61 386.392 3
-2 -1 -1 8273.08 390.715 3
-2 -1 -1 7817.04 264.469 1
2 1 1 8874.16 414.945 3
2 1 2 13080.6 559.473 3
-2 -1 -2 13757.2 567.596 3
2 1 3 18958.3 764.643 3
-2 -1 -3 17909.0 725.745 3
-2 -1 -4 94932.1 1865.79 3
2 1 4 95923.7 1917.00 3
-2 -1 -5 54119.8 1551.07 3
2 1 5 55649.2 1597.19 3
-2 -1 -5 52677.9 1421.71 1
-2 -1 -6 5862.36 537.428 1
-2 -1 -6 6105.75 569.494 3
2 1 6 6002.24 594.402 3
2 1 7 19721.3 1168.42 2
-2 -1 -7 20500.9 1065.39 1
2 1 8 8249.50 804.839 2
2 1 9 2340.70 492.432 2
2 1 10 -240.732 210.239 2
2 1 11 955.981 349.805 2
-2 -2 11 4342.72 691.226 2
-2 -2 10 298.117 221.828 2
-2 -2 9 45.4464 190.177 2
-2 -2 8 1824.48 385.246 2
-2 -2 7 8893.48 755.999 2
-2 -2 6 36288.0 1396.14 2
2 2 -6 39237.0 1520.69 2
-2 -2 5 158295. 2725.31 2
2 2 -5 158283. 2804.16 2
2 2 -4 9921.78 681.077 1
-2 -2 4 10664.4 655.603 2
2 2 -4 11190.4 682.776 2
2 2 -3 11175.4 646.038 1
-2 -2 3 10132.5 580.238 2
2 2 -3 11166.9 631.066 2
2 2 -2 5895.50 419.313 1
-2 -2 2 6353.33 422.976 2
2 2 -2 6403.72 436.165 2
2 2 -1 -30.0722 74.9461 2
2 2 -1 107.996 89.7082 1
-2 -2 1 50.7375 114.507 1
-2 -2 1 19.5030 95.7515 2
2 2 0 3015.32 192.496 1
-2 -2 0 3128.38 270.865 3
-2 -2 0 2822.67 196.705 1
2 2 0 2604.70 261.907 3
2 2 0 3117.97 269.715 2
-2 -2 -1 207706. 2172.84 3
2 2 1 204797. 2133.19 3
-2 -2 -2 27285.8 835.468 3
2 2 2 28844.5 867.567 3
-2 -2 -3 9828.97 366.703 1
2 2 3 12153.1 621.674 3
-2 -2 -3 10437.5 572.007 3
-2 -2 -4 3626.68 372.795 3
2 2 4 3704.82 390.001 3
-2 -2 -4 3308.15 273.718 1
-2 -2 -5 50879.9 1237.29 1
2 2 5 53487.9 1563.53 3
-2 -2 -5 54758.9 1546.56 3
2 2 6 558.715 217.429 3
-2 -2 -6 720.641 218.732 3
-2 -2 -6 568.803 163.247 1
2 2 7 134.411 159.637 3
-2 -2 -7 232.210 126.745 1
-2 -2 -8 798.409 238.318 1
2 2 8 893.887 287.046 2
2 2 9 5154.54 684.023 2
2 2 10 3493.11 599.138 2
2 2 11 9589.57 1038.58 2
-2 -3 10 -93.8079 207.517 2
-2 -3 9 164.985 210.592 2
-2 -3 8 17489.2 1205.61 2
-2 -3 7 -26.8090 155.203 2
-2 -3 6 8278.20 723.735 2
-2 -3 5 5943.90 580.800 2
2 3 -5 5905.22 602.937 1
2 3 -5 6990.21 635.227 2
2 3 -4 21789.0 1052.49 1
-2 -3 4 21961.8 1009.77 2
2 3 -4 22199.8 1049.99 2
2 3 -3 16204.6 833.455 1
-2 -3 3 17274.2 830.631 2
2 3 -3 17859.5 875.787 2
2 3 -2 4535.85 394.990 1
-2 -3 2 5923.80 463.991 2
2 3 -2 5436.04 451.275 2
2 3 -1 135308. 1821.25 1
-2 -3 1 140929. 2073.51 2
2 3 -1 141620. 2102.14 2
2 3 0 8213.92 502.927 3
2 3 0 7787.81 351.121 1
2 3 0 8375.60 503.844 2
-2 -3 -1 1860.58 242.066 3
2 3 1 1769.35 253.244 3
2 3 1 1920.21 105.773 1
-2 -3 -2 212917. 2526.76 3
2 3 2 205803. 2529.89 3
-2 -3 -3 13530.1 677.624 3
2 3 3 13423.5 690.008 3
-2 -3 -3 11845.5 296.223 1
2 3 4 1636.45 283.995 3
-2 -3 -4 1921.03 283.436 3
-2 -3 -4 1684.31 170.415 1
-2 -3 -5 3251.45 387.427 3
-2 -3 -5 3194.71 286.251 1
2 3 5 3328.57 408.123 3
2 3 6 4540.32 509.884 3
-2 -3 -6 4780.21 402.177 1
-2 -3 -6 4843.55 503.554 3
-2 -3 -7 9166.75 628.338 1
2 3 7 9115.06 775.779 3
2 3 8 5383.21 658.073 3
-2 -3 -8 4650.45 499.989 1
2 3 9 47.8486 198.838 3
2 3 9 305.877 187.397 2
2 3 10 5763.53 757.266 2
2 3 11 -56.4086 163.479 2
-2 -4 10 126.612 276.463 2
-2 -4 9 2794.97 533.251 2
-2 -4 8 3017.77 532.984 2
-2 -4 7 6026.59 713.591 2
-2 -4 6 2388.34 443.428 2
-2 -4 5 21326.9 1145.85 2
-2 -4 4 429.723 213.480 2
2 4 -4 568.692 209.095 1
2 4 -4 513.102 193.760 2
-2 -4 3 183.736 144.305 2
2 4 -3 152.528 115.527 2
2 4 -3 345.618 139.895 1
2 4 -2 4477.51 429.210 1
-2 -4 2 4417.81 450.490 2
2 4 -2 4205.48 443.659 2
-2 -4 1 100076. 1946.00 2
2 4 -1 100879. 1989.49 2
2 4 0 14070.5 715.470 3
2 4 0 13441.5 701.538 2
2 4 1 4893.88 418.767 3
2 4 1 4581.25 409.966 2
-2 -4 -1 5120.87 427.618 3
2 4 2 6224.60 477.967 3
-2 -4 -2 6553.76 491.953 3
2 4 2 6563.52 202.851 1
2 4 3 20160.0 426.135 1
-2 -4 -3 19608.9 861.124 3
2 4 3 21515.6 909.323 3
-2 -4 -4 5147.97 265.946 1
2 4 4 4961.33 471.234 3
-2 -4 -4 4920.72 456.433 3
-2 -4 -5 23210.4 1044.68 3
-2 -4 -5 21562.0 678.672 1
2 4 5 21374.4 1032.58 3
-2 -4 -6 7721.82 479.481 1
2 4 6 9010.34 723.273 3
-2 -4 -6 8895.27 696.681 3
-2 -4 -7 15183.2 761.082 1
2 4 7 17770.9 1079.37 3
2 4 8 21519.3 1272.33 3
-2 -4 -8 19914.1 973.464 1
2 4 9 626.546 256.274 3
2 4 10 9025.51 953.581 2
2 4 11 2331.66 508.934 2
2 4 12 220.658 197.111 2
-2 -5 9 1974.38 484.762 2
-2 -5 8 6685.80 826.227 2
-2 -5 7 124.450 189.198 2
-2 -5 6 2575.82 464.070 2
-2 -5 5 2833.43 460.372 2
2 5 -4 52034.5 1846.25 1
-2 -5 4 47720.3 1719.33 2
-2 -5 3 1065.94 268.916 2
2 5 -3 1644.12 326.556 2
2 5 -3 1124.57 255.458 1
-2 -5 2 5455.73 542.906 2
2 5 -2 5026.48 513.390 2
-2 -5 1 5787.66 526.189 2
2 5 -1 6064.47 541.175 2
2 5 -1 6043.34 543.859 3
2 5 0 23455.9 1010.24 2
2 5 0 23487.3 1005.57 3
2 5 1 12340.4 718.664 3
2 5 1 13256.9 751.778 2
2 5 2 71050.0 1710.68 3
-2 -5 -2 69732.6 1731.34 3
2 5 2 72970.8 1746.47 2
2 5 2 68919.5 938.234 1
2 5 3 4702.71 468.422 3
2 5 3 5544.52 265.359 1
-2 -5 -3 4968.36 471.783 3
2 5 4 13132.3 471.124 1
-2 -5 -4 13323.7 784.583 3
2 5 4 13111.9 799.833 3
-2 -5 -5 4055.48 452.747 3
2 5 5 4456.93 341.290 1
2 5 5 3874.24 467.546 3
-2 -5 -5 4047.51 289.157 1
2 5 6 15512.8 962.136 3
-2 -5 -6 14011.7 620.748 1
2 5 7 2125.03 399.926 3
-2 -5 -7 1412.61 227.488 1
2 5 8 4278.73 592.860 3
-2 -5 -8 5485.03 495.927 1
2 5 9 35.1680 145.296 3
2 5 10 1005.17 350.497 3
2 5 11 437.606 237.751 2
-2 -6 8 76.9573 205.228 2
-2 -6 7 5755.04 771.891 2
-2 -6 6 251.454 177.069 2
-2 -6 5 1344.51 348.246 2
-2 -6 4 14445.8 1015.94 2
-2 -6 3 2354.93 404.345 2
-2 -6 2 7718.59 682.137 2
2 6 -1 52152.9 1730.51 2
-2 -6 1 49151.9 1631.95 2
2 6 -1 50508.6 1643.26 3
2 6 0 624.015 206.361 2
2 6 0 601.124 200.406 3
2 6 1 5483.60 521.830 2
2 6 1 5007.77 501.642 3
2 6 2 55079.7 1624.44 3
2 6 2 53672.7 1021.26 1
-2 -6 -3 13117.8 824.182 3
2 6 3 14985.7 853.324 2
2 6 3 13771.2 497.440 1
2 6 3 12807.0 802.970 3
2 6 4 17143.6 589.617 1
2 6 4 17730.3 964.933 3
-2 -6 -4 18588.0 990.894 3
2 6 5 3852.02 313.985 1
2 6 5 2708.13 408.556 3
2 6 6 52.9871 77.8119 1
2 6 6 59.3190 163.516 3
2 6 7 2533.43 456.062 3
-2 -6 -7 2950.87 311.169 1
2 6 8 122.686 176.017 3
2 6 9 3043.18 533.023 3
2 6 10 6148.44 786.968 3
2 6 11 2195.46 564.480 3
2 6 11 2365.41 503.707 2
-2 -7 7 8152.01 940.358 2
-2 -7 6 -693.734 321.919 2
-2 -7 5 2642.80 528.485 2
-2 -7 4 2841.23 502.127 2
-2 -7 3 18.9845 140.016 2
-2 -7 2 4567.30 569.618 2
-2 -7 1 8131.16 726.408 2
2 7 -1 9604.31 789.390 3
2 7 0 66678.9 1986.40 3
2 7 1 28793.7 1292.75 3
2 7 2 285.721 202.107 3
2 7 2 255.067 99.0950 1
2 7 3 1293.47 190.108 1
2 7 3 1077.03 281.783 3
2 7 4 628.289 236.329 3
2 7 4 489.132 132.453 1
2 7 5 3375.83 488.459 3
2 7 5 4099.00 340.877 1
2 7 6 10058.8 582.260 1
2 7 6 9129.62 799.958 3
2 7 7 15933.0 826.164 1
2 7 7 14847.8 1063.51 3
2 7 8 9591.72 894.641 3
2 7 9 236.038 271.959 3
2 7 10 367.598 195.266 3
2 7 11 4733.47 743.361 3
-2 -8 6 -235.813 250.402 2
-2 -8 5 303.265 244.739 2
-2 -8 4 7732.35 866.231 2
-2 -8 3 4894.05 659.760 2
2 8 -2 12730.2 995.737 3
-2 -8 2 14137.3 1061.64 2
2 8 -1 131.818 149.428 3
2 8 0 5025.16 605.173 3
2 8 1 7122.94 693.835 3
2 8 2 346.398 170.070 3
2 8 2 378.816 125.649 1
2 8 3 16363.5 1040.66 3
2 8 3 17116.2 723.298 1
2 8 4 1018.43 180.606 1
2 8 4 1004.03 275.864 3
2 8 5 13143.7 972.335 3
2 8 5 13456.0 652.503 1
2 8 6 2554.09 443.960 3
2 8 6 3260.23 338.728 1
2 8 7 539.245 223.111 3
2 8 8 7385.75 816.227 3
2 8 9 -345.556 251.797 3
2 8 10 890.119 345.715 3
-2 -9 5 5310.70 789.428 2
-2 -9 4 778.110 310.008 2
2 9 -3 7186.19 830.615 3
-2 -9 3 6499.16 794.884 2
-2 -9 2 -163.465 173.897 2
2 9 -2 -139.008 181.736 3
2 9 -1 1254.99 361.736 3
2 9 0 2119.62 424.895 3
2 9 1 5057.20 636.234 3
2 9 2 -108.248 218.856 3
2 9 2 157.945 101.202 1
2 9 3 8565.33 803.243 3
2 9 3 9665.56 601.033 1
2 9 4 362.130 129.133 1
2 9 4 761.540 262.115 3
2 9 5 11869.6 971.188 3
2 9 6 4630.83 628.681 3
2 9 7 102.865 183.405 3
2 9 8 1406.96 401.650 3
2 9 9 -140.710 174.787 3
2 10 -3 7562.82 906.602 3
-2 -10 3 8143.84 939.819 2
2 10 -2 1363.10 408.063 3
2 10 -1 2396.98 498.183 3
2 10 0 10503.9 987.215 3
2 10 1 939.875 327.695 3
2 10 2 7254.11 588.590 1
2 10 2 7088.20 766.386 3
2 10 3 709.195 313.143 3
2 10 4 739.834 291.593 3
2 10 5 821.936 310.264 3
2 10 6 893.458 309.478 3
2 10 7 2872.97 535.191 3
2 10 8 3680.89 601.666 3
2 10 9 172.729 153.589 3
2 11 -1 2070.37 499.481 3
2 11 0 1067.50 338.614 3
2 11 1 1475.65 394.536 3
2 11 2 3022.75 550.978 3
2 11 3 2959.73 550.630 3
2 11 4 1682.90 444.075 3
2 11 5 12987.0 1103.42 3
2 11 6 1276.03 388.609 3
2 11 7 -451.187 234.413 3
2 12 3 1068.54 337.040 3
2 12 4 5003.73 742.064 3
-3 10 5 1532.05 425.073 1
-3 10 4 1189.56 349.521 1
-3 10 3 31.9637 85.9061 1
-3 10 2 264.625 206.667 1
-3 10 1 -363.246 193.869 1
-3 10 0 1734.85 442.911 1
3 -10 3 316.083 220.498 2
-3 9 7 1189.90 381.076 1
-3 9 6 362.076 233.651 1
-3 9 5 1890.72 472.418 1
-3 9 4 6764.95 803.017 1
-3 9 3 389.097 212.456 1
-3 9 2 184.452 183.012 1
-3 9 1 243.779 164.738 1
3 -9 0 539.359 212.217 2
-3 9 0 395.360 198.659 1
-3 9 -1 3064.47 427.904 3
3 -9 1 3451.78 497.275 2
3 -9 2 5662.60 667.403 2
3 -9 3 331.889 217.091 2
3 -9 4 2083.45 461.151 2
3 -9 5 1763.53 446.150 2
-3 8 8 468.031 237.809 1
-3 8 7 900.799 360.623 1
-3 8 6 5083.60 718.808 1
-3 8 5 196.919 194.864 1
-3 8 4 4662.12 670.919 1
-3 8 3 2548.07 479.599 1
-3 8 2 945.573 193.391 3
-3 8 2 1288.71 348.055 1
-3 8 1 5175.63 447.724 3
-3 8 1 5038.35 662.787 1
3 -8 0 7072.87 599.289 2
-3 8 0 7028.19 569.694 3
3 -8 1 703.163 230.250 2
3 -8 2 1174.22 329.763 2
3 -8 3 1360.12 355.619 2
3 -8 4 2598.59 501.083 2
3 -8 5 882.156 353.420 2
3 -8 6 5908.65 836.647 2
-3 7 9 160.817 196.735 1
-3 7 8 275.367 152.998 1
-3 7 7 1494.71 398.939 1
-3 7 6 6891.87 796.670 1
-3 7 5 8173.53 832.890 1
-3 7 4 21023.2 1286.61 1
-3 7 3 214.717 70.9297 3
-3 7 3 -94.5487 154.510 1
-3 7 2 153.723 78.8275 3
-3 7 2 48.0007 55.6453 2
-3 7 2 11.1810 162.363 1
-3 7 1 5453.74 418.161 3
-3 7 1 6804.67 707.544 1
-3 7 1 5191.10 455.226 2
-3 7 0 71.9959 59.7360 2
-3 7 0 276.195 121.503 3
3 -7 0 129.430 108.964 2
3 -7 1 873.400 235.402 2
-3 7 -1 1206.57 271.647 2
3 -7 2 14074.2 934.888 2
3 -7 3 5211.96 622.133 2
3 -7 4 -68.5972 139.029 2
3 -7 5 972.804 318.947 2
3 -7 6 3427.09 595.111 2
3 -7 7 655.436 353.036 2
-3 6 9 935.056 299.556 1
-3 6 8 334.010 225.228 1
-3 6 7 7058.35 813.812 1
-3 6 6 529.163 222.293 1
-3 6 5 2081.54 425.500 1
-3 6 4 9349.49 819.197 1
-3 6 3 2045.03 377.916 1
-3 6 3 2112.41 151.687 3
-3 6 2 26707.0 768.040 2
-3 6 2 27272.5 1341.22 1
-3 6 2 26794.3 683.550 3
-3 6 1 3090.07 286.317 3
3 -6 -1 2980.87 298.487 2
-3 6 1 3034.48 460.805 1
-3 6 1 2649.47 295.682 2
3 -6 0 34551.9 1122.64 2
-3 6 0 31573.0 1133.71 2
-3 6 -1 800.022 226.136 2
3 -6 1 876.385 209.146 2
3 -6 2 757.316 239.225 2
-3 6 -2 518.712 189.738 2
3 -6 3 16823.9 1050.34 2
3 -6 4 245.372 182.683 2
3 -6 5 2800.01 506.223 2
3 -6 6 2149.36 473.682 2
3 -6 7 2177.60 503.679 2
-3 5 10 8242.87 993.110 1
-3 5 9 1641.85 421.114 1
-3 5 8 3070.19 601.753 1
-3 5 7 6205.86 754.381 1
3 -5 -6 2632.93 208.502 3
-3 5 6 2832.77 491.412 1
-3 5 5 1334.55 349.916 1
-3 5 4 8474.42 747.824 1
-3 5 3 153.677 151.059 1
-3 5 2 10.1189 24.6902 3
-3 5 2 -174.931 161.380 1
-3 5 1 380.432 99.9642 3
-3 5 1 394.054 106.240 2
-3 5 1 130.753 135.113 1
3 -5 -1 503.425 123.109 2
-3 5 0 28177.2 972.683 2
3 -5 0 32539.2 997.304 2
-3 5 -1 2583.35 333.690 2
3 -5 1 3071.38 356.591 2
3 -5 2 1138.57 251.989 2
-3 5 -2 1278.85 266.703 2
-3 5 -3 -6.50329 53.6100 3
3 -5 3 368.374 208.999 2
3 -5 4 486.684 227.572 2
3 -5 5 294.202 212.956 2
3 -5 6 18252.9 1296.26 2
3 -5 7 7886.39 898.621 2
3 -5 8 3130.75 600.388 2
-3 4 10 369.059 287.870 1
-3 4 9 2532.65 534.611 1
-3 4 8 1145.69 332.393 1
-3 4 7 9985.39 945.708 1
3 -4 -7 10450.0 541.635 3
-3 4 7 9899.95 389.052 2
3 -4 -6 981.062 144.450 3
-3 4 6 984.882 337.560 1
3 -4 -5 4108.77 211.854 3
-3 4 5 4657.76 565.268 1
-3 4 4 237.205 183.977 1
-3 4 3 61646.5 1826.89 1
-3 4 2 122.704 152.478 1
-3 4 1 3651.57 203.025 3
-3 4 1 3645.93 206.120 3
3 -4 -1 3620.51 243.273 2
-3 4 1 4111.50 464.495 1
-3 4 0 55.0030 57.3392 3
3 -4 0 238.638 90.0970 2
-3 4 -1 6879.67 459.605 3
3 -4 1 7395.45 505.346 2
3 -4 2 7227.96 563.507 2
-3 4 -2 6718.92 514.068 3
3 -4 3 29870.1 1248.69 2
-3 4 -3 27644.3 1142.91 3
-3 4 -4 852.470 238.177 3
3 -4 4 932.831 284.066 2
3 -4 5 50.0926 163.494 2
3 -4 6 273.732 262.020 2
3 -4 7 18672.4 1338.13 2
3 -4 8 -113.474 203.728 2
3 -4 9 -192.135 239.190 2
-3 3 10 -261.236 207.721 1
-3 3 9 473.962 233.702 1
-3 3 8 7952.58 870.396 1
-3 3 8 7185.47 491.107 2
-3 3 7 7159.74 792.446 1
-3 3 7 6729.34 411.837 2
3 -3 -7 5984.90 446.689 3
3 -3 -6 10332.7 503.116 3
-3 3 6 10547.7 409.075 2
-3 3 6 10453.2 869.156 1
3 -3 -5 43.8604 37.2992 3
-3 3 5 56.0848 151.795 1
-3 3 4 1953.82 348.071 1
3 -3 -4 2131.75 339.551 1
3 -3 -3 8948.49 646.298 1
-3 3 3 8022.79 637.940 1
-3 3 2 9371.96 659.629 1
3 -3 -1 10953.0 336.511 2
-3 3 1 10966.7 683.454 1
-3 3 0 39355.0 785.595 3
3 -3 0 40912.3 918.738 2
-3 3 -1 173.901 77.2363 3
3 -3 1 1.00630 89.3087 2
-3 3 -2 67.9080 75.9912 3
3 -3 2 49.8025 119.702 2
-3 3 -3 40951.8 1312.38 3
3 -3 3 40594.8 1388.87 2
-3 3 -4 9975.12 718.469 3
3 -3 4 10420.3 781.165 2
3 -3 5 6968.64 693.921 2
3 -3 6 827.755 293.539 2
3 -3 7 893.867 306.607 2
3 -3 8 3914.30 642.051 2
3 -3 9 244.721 225.921 2
-3 2 10 933.664 405.048 1
-3 2 9 12938.8 1197.22 1
-3 2 9 10884.8 739.589 2
3 -2 -8 465.222 157.807 3
-3 2 8 698.942 185.513 2
-3 2 8 824.775 296.900 1
-3 2 7 1299.88 221.384 2
3 -2 -7 698.150 168.758 3
-3 2 7 1704.70 373.018 1
-3 2 6 31350.3 1493.02 1
-3 2 6 32282.1 887.692 2
3 -2 -6 31445.2 975.328 3
-3 2 5 1210.83 140.101 2
3 -2 -5 1359.96 176.825 3
-3 2 5 1033.11 322.285 1
-3 2 4 14469.5 873.916 1
3 -2 -4 13849.9 835.131 1
3 -2 -4 14119.8 430.045 3
3 -2 -3 10556.5 684.122 1
-3 2 3 10684.3 699.785 1
-3 2 2 911.950 228.650 1
3 -2 -2 727.475 189.123 1
-3 2 1 3154.52 360.888 1
3 -2 -1 3059.83 165.732 2
-3 2 0 48819.8 775.822 3
-3 2 0 52147.3 1326.70 1
3 -2 0 47751.9 932.675 2
3 -2 1 72702.5 1393.38 2
-3 2 -1 75494.9 1261.51 3
3 -2 2 71592.9 1593.98 2
-3 2 -2 71153.1 1439.79 3
-3 2 -3 9099.83 593.016 3
3 -2 3 8837.52 636.885 2
-3 2 -4 2448.58 351.713 3
3 -2 4 2453.48 373.295 2
3 -2 5 8724.71 750.028 2
-3 2 -5 7525.92 650.517 3
3 -2 6 1475.02 354.228 2
3 -2 7 12410.8 1023.80 2
3 -2 8 7402.49 850.141 2
3 -2 9 6544.07 847.567 2
3 -2 10 2494.23 577.385 2
-3 1 10 1155.46 280.850 2
-3 1 9 17935.5 1416.28 1
-3 1 9 17042.3 992.414 2
3 -1 -8 570.497 201.941 3
-3 1 8 670.278 199.363 2
-3 1 8 285.789 212.418 1
-3 1 7 -23.8685 83.7665 2
3 -1 -7 -182.686 110.580 3
-3 1 7 -199.379 195.602 1
-3 1 6 -37.5291 83.2561 2
3 -1 -6 16.0074 71.3144 3
-3 1 6 -71.0894 135.040 1
3 -1 -5 200.814 146.199 1
-3 1 5 56.7808 76.1949 2
3 -1 -5 105.622 75.1627 3
-3 1 5 237.952 185.350 1
3 -1 -4 100.777 66.6990 3
3 -1 -4 162.914 70.3444 2
-3 1 4 113.292 154.496 1
3 -1 -4 112.047 98.4533 1
-3 1 4 43.1888 41.3518 2
-3 1 3 21023.6 953.571 1
3 -1 -3 22155.8 958.124 1
3 -1 -3 22996.2 530.969 2
3 -1 -2 45968.7 584.138 3
-3 1 2 48803.5 1326.58 1
3 -1 -2 44586.4 611.641 2
3 -1 -2 48761.2 1323.38 1
3 -1 -1 25501.0 450.284 3
3 -1 -1 25481.2 883.090 1
-3 1 1 25249.6 899.352 1
3 -1 0 862.631 121.493 3
-3 1 0 631.235 100.192 3
-3 1 0 619.130 168.357 1
3 -1 1 67590.4 1185.71 3
-3 1 -1 66370.8 1135.76 3
3 -1 2 38338.9 1053.00 3
-3 1 -2 37544.7 1014.83 3
-3 1 -3 5179.08 425.320 3
3 -1 3 5811.50 503.186 2
3 -1 4 67711.2 1839.56 2
-3 1 -4 65322.2 1680.20 3
3 -1 5 5078.90 565.851 2
-3 1 -5 4578.27 486.544 3
3 -1 6 38343.3 1631.25 2
3 -1 7 132.059 169.101 2
3 -1 8 3930.76 627.794 2
3 -1 9 1300.96 425.074 2
3 -1 10 -236.355 222.076 2
-3 0 10 2269.87 444.168 2
-3 0 9 392.227 194.697 2
-3 0 8 1339.21 306.019 2
-3 0 8 1256.93 396.014 1
3 0 -7 1843.20 313.546 3
-3 0 7 1736.74 400.522 1
-3 0 7 1682.52 290.071 2
-3 0 6 32421.6 1522.92 1
-3 0 6 29628.7 1075.29 2
3 0 -6 29390.8 1123.06 2
-3 0 5 10909.9 824.971 1
-3 0 5 9824.25 559.975 2
3 0 -5 9855.21 739.727 1
3 0 -5 10031.6 591.583 2
-3 0 4 22508.9 1064.86 1
3 0 -4 22821.7 1029.87 1
-3 0 4 20862.1 724.115 2
3 0 -4 22097.4 774.505 2
3 0 -3 63.3060 98.7087 1
-3 0 3 118.933 73.6947 2
3 0 -3 110.517 73.4919 2
-3 0 3 93.2939 146.527 1
3 0 -2 45097.1 841.737 3
-3 0 2 46965.9 1260.51 1
3 0 -2 43200.1 850.947 2
3 0 -2 46889.7 1240.81 1
3 0 -1 6390.12 307.033 3
3 0 -1 6253.50 314.508 2
3 0 -1 6881.33 436.576 1
-3 0 1 5839.60 417.283 1
-3 0 0 2101.08 190.679 3
3 0 0 2051.42 192.913 3
-3 0 0 1795.92 226.771 1
3 0 1 29765.2 806.727 3
-3 0 -1 30481.2 800.060 3
3 0 2 48281.0 1156.93 3
-3 0 -2 50920.7 1161.99 3
3 0 3 2358.27 314.324 3
-3 0 -3 2760.17 307.574 3
3 0 4 41440.2 1345.43 3
-3 0 -4 39994.6 1305.02 3
3 0 5 2859.49 416.412 3
-3 0 -5 2551.56 353.923 3
3 0 6 20573.1 1175.85 2
3 0 7 2996.32 503.965 2
3 0 8 4702.25 671.998 2
3 0 9 989.413 348.658 2
3 0 10 2440.05 556.437 2
-3 -1 11 4740.91 682.911 2
-3 -1 10 175.888 183.907 2
-3 -1 9 6309.93 683.991 2
-3 -1 8 8474.81 742.822 2
-3 -1 7 71.1607 129.934 2
3 1 -7 -173.905 147.506 2
-3 -1 6 42108.0 1402.17 2
3 1 -6 41183.4 1443.40 2
-3 -1 5 15486.0 1005.79 1
-3 -1 5 14003.2 741.770 2
3 1 -5 14785.6 789.737 2
3 1 -5 14647.6 913.652 1
-3 -1 4 15429.8 905.777 1
-3 -1 4 15855.2 720.813 2
3 1 -4 14972.4 726.289 2
3 1 -4 15655.1 870.836 1
3 1 -3 1710.77 226.062 2
3 1 -3 1554.51 260.827 1
-3 -1 3 1903.23 303.529 1
-3 -1 3 1639.44 218.815 2
-3 -1 2 48478.1 1292.46 1
3 1 -2 48254.7 1226.43 1
3 1 -2 48351.8 1074.48 2
-3 -1 1 69966.0 1340.19 1
3 1 -1 68968.6 1219.08 2
3 1 -1 64749.6 1264.92 1
3 1 -1 70487.1 1207.13 3
-3 -1 0 160.718 94.6054 1
3 1 0 299.138 112.435 3
-3 -1 0 266.188 93.4127 3
3 1 0 331.407 97.5320 1
-3 -1 -1 35153.9 905.888 3
-3 -1 -1 33378.0 742.097 1
3 1 1 35939.5 931.480 3
3 1 2 820.552 191.552 3
-3 -1 -2 568.747 146.132 3
3 1 3 11642.8 648.694 3
-3 -1 -3 11960.4 646.188 3
3 1 4 1923.89 315.811 3
-3 -1 -4 1491.35 263.339 3
3 1 5 5685.01 555.659 3
-3 -1 -5 6186.99 553.558 3
3 1 6 615.874 228.286 3
3 1 7 452.082 224.579 3
3 1 7 1134.06 333.591 2
-3 -1 -7 1133.22 270.072 1
3 1 8 8349.88 872.175 2
3 1 9 14961.2 1220.42 2
3 1 10 41.2488 158.091 2
3 1 11 3288.93 643.301 2
-3 -2 11 1246.73 368.898 2
-3 -2 10 833.063 305.602 2
-3 -2 9 -207.944 197.396 2
-3 -2 8 16619.7 1107.50 2
-3 -2 7 1983.95 386.784 2
-3 -2 6 491.203 207.278 2
3 2 -6 230.100 173.800 2
3 2 -5 5067.98 558.966 1
-3 -2 5 3967.69 434.972 2
3 2 -5 4468.68 484.131 2
-3 -2 4 7565.42 658.256 1
-3 -2 4 7211.04 553.699 2
3 2 -4 8267.89 601.681 2
3 2 -4 7502.19 616.532 1
3 2 -3 4344.61 428.246 1
-3 -2 3 4998.86 490.800 1
-3 -2 3 3542.32 368.124 2
3 2 -3 4309.96 405.205 2
-3 -2 2 134780. 2152.97 1
-3 -2 2 127027. 1948.48 2
3 2 -2 128242. 2012.04 2
3 2 -2 128435. 2029.73 1
3 2 -1 25523.7 844.783 3
-3 -2 1 25000.3 796.638 1
3 2 -1 24771.3 841.230 2
3 2 -1 25280.4 778.897 1
-3 -2 0 85225.7 1535.04 3
-3 -2 0 87139.7 1259.24 1
3 2 0 84532.3 1194.57 1
-3 -2 -1 1700.41 235.339 3
-3 -2 -1 1903.88 159.433 1
3 2 1 2049.11 257.834 3
-3 -2 -2 5141.61 408.438 3
-3 -2 -2 5028.72 221.960 1
3 2 2 4942.81 425.205 3
3 2 3 24523.1 959.098 3
-3 -2 -3 23324.7 926.144 3
3 2 4 9159.07 643.342 3
-3 -2 -4 8839.58 615.491 3
-3 -2 -5 4722.04 484.497 3
-3 -2 -5 4316.15 377.152 1
3 2 5 4558.12 497.304 3
-3 -2 -6 38556.5 1243.64 1
3 2 6 40622.9 1565.04 3
-3 -2 -7 422.171 157.694 1
3 2 7 372.843 228.178 3
-3 -2 -8 5425.16 561.267 1
3 2 8 6000.69 716.486 3
3 2 9 5349.96 729.649 2
3 2 10 2288.17 545.310 2
3 2 11 96.9690 161.947 2
-3 -3 10 1.71963 166.940 2
-3 -3 9 -35.2856 165.610 2
-3 -3 8 235.620 213.401 2
-3 -3 7 382.962 197.010 2
-3 -3 6 1137.59 280.261 2
-3 -3 5 15140.6 910.224 2
3 3 -5 18084.6 1030.38 2
3 3 -4 2454.47 359.066 2
3 3 -4 2249.40 361.586 1
-3 -3 4 2399.55 357.408 2
3 3 -3 27036.5 1092.51 1
-3 -3 3 27990.7 1088.96 2
3 3 -3 27941.0 1136.54 2
3 3 -2 14157.3 700.397 1
-3 -3 2 12363.2 687.674 2
3 3 -2 12616.2 712.671 2
3 3 -1 73492.5 1368.52 1
3 3 -1 74354.6 1607.72 3
3 3 -1 73789.6 1638.81 2
3 3 0 48681.3 1277.24 3
3 3 0 45421.1 879.282 1
3 3 0 50036.6 1305.20 2
3 3 1 612.411 174.085 3
-3 -3 -1 757.472 176.029 3
3 3 1 705.214 78.0801 1
-3 -3 -2 5165.19 437.407 3
3 3 2 5131.39 445.769 3
-3 -3 -3 5730.08 482.413 3
3 3 3 5726.29 490.075 3
-3 -3 -4 2269.98 173.584 1
3 3 4 2634.50 371.521 3
-3 -3 -4 2421.24 340.802 3
-3 -3 -5 24043.2 734.521 1
3 3 5 26857.7 1198.80 3
-3 -3 -5 26989.7 1169.50 3
-3 -3 -6 14762.5 679.087 1
3 3 6 15610.6 993.890 3
-3 -3 -7 31709.5 1127.06 1
3 3 7 35757.4 1583.45 3
-3 -3 -8 16472.9 903.153 1
3 3 8 18298.4 1221.26 3
3 3 9 3064.22 550.644 3
3 3 10 645.006 312.596 2
3 3 11 915.884 360.455 2
-3 -4 10 1513.34 453.318 2
-3 -4 9 -45.4911 194.887 2
-3 -4 8 2556.67 499.636 2
-3 -4 7 205.375 214.691 2
-3 -4 6 1738.84 359.744 2
-3 -4 5 7541.31 691.606 2
-3 -4 4 26266.5 1212.71 2
3 4 -4 27337.3 1272.06 2
3 4 -3 37024.2 1315.22 1
-3 -4 3 39692.8 1407.54 2
3 4 -3 41278.6 1475.24 2
-3 -4 2 2685.17 371.414 2
3 4 -2 2131.33 292.242 1
3 4 -2 2927.07 376.370 2
3 4 -1 151.130 105.766 2
3 4 -1 38.7124 144.682 3
3 4 -1 160.553 104.322 1
3 4 0 2647.33 350.232 3
3 4 0 2713.68 235.381 1
3 4 0 3142.13 378.296 2
3 4 1 50476.0 1407.94 3
-3 -4 -1 50268.2 1429.64 3
3 4 1 50431.5 1429.89 2
3 4 1 49340.3 663.748 1
3 4 2 15572.5 812.287 3
-3 -4 -2 15550.3 810.118 3
-3 -4 -3 56865.5 1579.19 3
3 4 3 54533.7 1570.28 3
3 4 4 12526.0 785.090 3
-3 -4 -4 12238.4 766.432 3
-3 -4 -5 97.7272 56.6127 1
3 4 5 154.373 181.119 3
-3 -4 -5 166.743 112.078 3
-3 -4 -6 8205.76 442.711 1
3 4 6 8543.32 739.696 3
3 4 7 17950.1 1146.03 3
-3 -4 -7 18102.6 775.307 1
-3 -4 -8 3367.56 376.566 1
3 4 8 3204.84 527.331 3
3 4 9 199.473 179.121 3
3 4 10 7935.66 931.506 3
3 4 11 1217.65 437.892 2
-3 -5 9 3075.61 598.936 2
-3 -5 8 13655.2 1163.80 2
-3 -5 7 3417.71 568.875 2
-3 -5 6 13498.4 1065.39 2
-3 -5 5 2557.17 450.557 2
-3 -5 4 185.325 202.655 2
3 5 -3 1674.55 303.337 1
-3 -5 3 1366.31 314.843 2
3 5 -2 903.994 233.568 2
3 5 -2 550.786 166.458 1
3 5 -2 553.797 215.651 3
-3 -5 2 625.295 212.220 2
3 5 -1 38024.4 1375.06 3
3 5 -1 38945.1 1426.13 2
3 5 0 31708.3 1233.29 3
3 5 0 29344.5 846.925 1
3 5 0 31483.5 1242.53 2
3 5 1 13147.4 786.714 3
3 5 1 12076.0 408.501 1
3 5 1 13843.1 811.729 2
3 5 2 608.536 204.880 3
-3 -5 -2 615.951 192.050 3
3 5 3 115.026 163.832 3
-3 -5 -3 -127.873 101.943 3
-3 -5 -4 8652.52 679.844 3
3 5 4 8080.32 664.794 3
3 5 5 11503.2 833.037 3
-3 -5 -6 6087.42 331.817 1
3 5 6 5323.91 599.149 3
-3 -5 -7 26327.6 838.071 1
3 5 7 27632.6 1436.44 3
3 5 8 3817.14 588.808 3
3 5 9 166.230 219.983 3
3 5 10 7188.62 893.184 3
3 5 11 709.146 321.563 3
3 5 11 -12.2698 181.351 2
-3 -6 8 1542.33 440.071 2
-3 -6 7 2140.81 500.717 2
-3 -6 6 1073.73 371.676 2
-3 -6 5 355.672 214.625 2
-3 -6 4 10737.5 913.280 2
3 6 -3 26438.4 1271.66 1
-3 -6 3 28982.9 1395.52 2
3 6 -2 16267.4 1015.51 3
3 6 -2 15318.9 887.459 1
-3 -6 2 16763.1 1026.20 2
3 6 -1 8996.97 735.141 3
3 6 -1 8247.23 589.634 1
3 6 0 34343.5 1382.89 3
3 6 0 31220.8 996.407 1
3 6 1 13318.5 850.343 3
3 6 1 13767.7 548.954 1
3 6 1 14376.4 902.849 2
3 6 2 15344.9 919.074 3
3 6 2 15711.3 406.708 1
3 6 2 15032.0 924.101 2
3 6 2 15901.9 379.851 1
-3 -6 -2 17145.2 969.258 3
3 6 3 1581.54 322.172 3
3 6 4 12751.5 882.374 3
3 6 5 1062.41 295.144 3
3 6 6 1803.98 377.832 3
3 6 7 15856.5 1114.80 3
3 6 8 -79.3728 184.349 3
3 6 9 731.159 253.669 3
3 6 10 487.945 276.764 3
-3 -7 7 6419.76 856.507 2
-3 -7 6 5603.60 768.695 2
-3 -7 5 9834.60 967.573 2
-3 -7 4 3991.60 578.321 2
-3 -7 3 514.208 246.186 2
3 7 -2 24631.5 1329.03 3
3 7 -2 23713.6 1182.58 1
-3 -7 2 23913.5 1320.02 2
3 7 -1 575.756 226.259 3
3 7 -1 1137.33 244.260 1
3 7 0 4399.01 551.776 3
3 7 1 392.070 165.502 3
3 7 2 565.510 242.458 3
3 7 2 486.474 95.5888 1
3 7 3 154.789 225.910 3
3 7 3 81.5611 39.7435 1
3 7 4 54045.4 1892.57 3
3 7 5 1368.18 323.809 3
3 7 6 5422.16 661.318 3
3 7 7 32.4354 146.563 3
3 7 8 561.143 223.159 3
3 7 9 2088.77 488.080 3
3 7 10 3136.81 597.167 3
-3 -8 6 43.7722 249.773 2
-3 -8 5 6466.01 827.582 2
-3 -8 4 518.299 284.022 2
3 8 -3 3119.77 548.907 3
-3 -8 3 4262.53 630.917 2
3 8 -2 229.600 142.021 3
3 8 -1 2232.16 448.104 3
3 8 0 1030.11 315.670 3
3 8 1 14167.3 1007.90 3
3 8 2 8442.38 779.515 3
3 8 2 9193.55 457.986 1
3 8 3 77.0040 51.2489 1
3 8 3 -6.10054 181.412 3
3 8 4 8501.77 289.322 1
3 8 4 8784.93 819.734 3
3 8 5 10838.8 928.577 3
3 8 6 7542.18 794.039 3
3 8 7 2812.63 534.148 3
3 8 8 -540.776 285.354 3
3 8 9 -175.219 188.791 3
3 9 -4 2677.10 558.306 3
-3 -9 4 2313.03 541.619 2
3 9 -3 470.778 227.840 3
-3 -9 3 323.701 221.257 2
3 9 -2 18627.6 1318.36 3
3 9 -1 66.4149 139.621 3
3 9 0 -23.0749 159.610 3
3 9 1 2569.58 484.668 3
3 9 2 2874.78 509.848 3
3 9 2 3019.89 298.147 1
3 9 3 1964.67 431.764 3
3 9 4 5524.83 705.505 3
3 9 5 -36.4552 180.743 3
3 9 6 385.277 245.517 3
3 9 7 7143.24 836.675 3
3 9 8 8523.65 945.647 3
3 9 9 4529.12 721.218 3
3 10 -3 130.083 212.945 3
3 10 -2 15946.3 1297.24 3
3 10 -1 5970.78 774.205 3
3 10 0 3992.59 637.536 3
3 10 1 623.314 301.585 3
3 10 2 1979.58 418.956 3
3 10 3 1249.39 365.979 3
3 10 4 2603.26 522.000 3
3 10 5 8735.12 938.661 3
3 10 6 4358.52 664.555 3
3 10 7 -1048.46 348.324 3
3 11 0 -687.075 310.522 3
3 11 1 1283.31 390.577 3
3 11 2 3059.94 580.430 3
3 11 3 666.506 322.060 3
3 11 4 761.223 297.856 3
3 11 5 10294.9 1040.55 3
3 11 6 4285.03 696.806 3
-4 9 4 2307.39 533.751 1
-4 9 3 -159.178 196.289 1
-4 9 2 1211.34 372.143 1
-4 9 1 2972.87 550.625 1
-4 9 0 67.3716 241.075 1
-4 9 -1 1152.65 346.648 1
4 -9 4 55.5298 210.359 2
-4 8 6 -268.502 218.155 1
-4 8 5 4114.02 669.954 1
-4 8 4 443.648 253.007 1
-4 8 3 115.016 149.001 1
-4 8 2 37.1226 112.504 1
-4 8 1 5222.59 706.129 1
-4 8 0 1454.78 408.270 1
4 -8 1 26.6640 115.713 2
4 -8 2 7484.73 708.857 2
4 -8 3 798.986 321.973 2
4 -8 4 374.194 202.470 2
4 -8 5 -63.6030 140.364 2
-4 7 7 9577.69 1040.15 1
-4 7 6 706.194 319.536 1
-4 7 5 171.123 232.099 1
-4 7 4 509.522 249.574 1
-4 7 3 439.225 246.789 1
-4 7 2 287.359 231.839 1
-4 7 1 20768.3 668.060 3
-4 7 1 26165.2 1475.42 1
-4 7 0 2528.10 294.059 3
-4 7 0 2661.51 482.437 1
4 -7 0 2749.98 345.040 2
4 -7 1 1373.24 262.699 2
4 -7 2 307.083 176.728 2
4 -7 3 3632.36 509.936 2
4 -7 4 -185.726 216.631 2
4 -7 5 1241.46 358.787 2
4 -7 6 1480.16 441.150 2
-4 6 8 911.354 341.156 1
-4 6 7 1038.19 367.976 1
-4 6 6 254.839 229.415 1
-4 6 5 327.728 246.741 1
-4 6 4 10543.7 936.566 1
-4 6 3 9369.37 860.989 1
-4 6 2 5697.19 679.505 1
-4 6 1 6908.50 328.385 3
-4 6 1 6962.69 336.327 3
4 -6 -1 6948.58 406.671 2
-4 6 1 7020.85 733.825 1
-4 6 0 14837.5 1047.09 1
4 -6 0 14017.4 699.346 2
-4 6 0 12489.2 602.232 3
4 -6 1 5534.81 509.658 2
-4 6 -1 4821.06 438.603 3
4 -6 2 1631.75 316.639 2
-4 6 -2 1592.21 287.850 3
4 -6 3 111.806 167.030 2
4 -6 4 7971.96 787.977 2
4 -6 5 571.686 253.226 2
4 -6 6 3869.37 624.517 2
4 -6 7 1247.78 375.561 2
-4 5 9 127.238 130.149 1
-4 5 8 239.227 162.515 1
-4 5 7 4524.60 713.165 1
-4 5 6 3543.06 577.736 1
-4 5 5 -242.935 215.583 1
-4 5 4 6345.28 699.796 1
-4 5 3 20015.5 1201.37 1
-4 5 2 6984.10 705.190 1
-4 5 1 5451.81 223.017 3
4 -5 -1 5770.74 329.255 2
-4 5 1 5787.54 632.507 1
-4 5 1 5149.74 216.738 3
4 -5 0 1049.47 185.507 2
-4 5 0 698.831 132.629 3
4 -5 1 1999.37 297.747 2
-4 5 -1 2156.98 274.749 3
-4 5 -2 15838.1 836.247 3
4 -5 2 15188.5 886.319 2
4 -5 3 9024.71 750.726 2
-4 5 -3 8774.52 690.018 3
4 -5 4 6885.36 709.038 2
4 -5 5 10286.2 932.740 2
4 -5 6 1532.36 436.913 2
4 -5 7 1410.21 408.384 2
4 -5 8 2364.00 546.326 2
-4 4 9 1752.60 478.621 1
-4 4 8 2435.41 522.938 1
-4 4 7 3781.69 619.717 1
-4 4 6 6424.18 754.148 1
-4 4 5 826.733 311.190 1
-4 4 4 802.070 273.171 1
-4 4 3 216.379 180.657 1
-4 4 2 3807.12 500.175 1
4 -4 -1 1113.09 133.178 2
-4 4 1 1355.37 309.564 1
-4 4 0 41773.6 1532.51 1
4 -4 0 43173.8 1063.13 2
-4 4 0 40782.4 868.271 3
4 -4 1 13090.2 702.876 2
-4 4 -1 12086.3 593.142 3
4 -4 2 13784.8 805.918 2
-4 4 -2 12337.9 690.451 3
-4 4 -3 2256.29 341.467 3
4 -4 3 2759.32 411.446 2
-4 4 -4 3980.18 480.147 3
4 -4 4 3563.22 505.568 2
4 -4 5 1165.06 328.158 2
4 -4 6 2478.43 467.538 2
4 -4 7 9197.14 968.619 2
4 -4 8 10930.8 1106.28 2
-4 3 9 10749.6 1117.94 1
-4 3 8 2371.28 528.745 1
-4 3 7 3113.03 567.657 1
4 -3 -6 667.927 98.5457 3
-4 3 6 902.502 311.363 1
-4 3 5 -302.941 215.453 1
-4 3 4 4979.00 579.598 1
-4 3 3 51560.4 1735.24 1
-4 3 2 24151.7 1153.50 1
4 -3 -1 11678.4 378.854 2
-4 3 1 12272.0 811.243 1
-4 3 0 16059.7 895.807 1
4 -3 0 16084.5 621.189 2
-4 3 0 15559.6 489.331 3
-4 3 -1 780.313 149.154 3
4 -3 1 749.410 179.905 2
-4 3 -2 54.3753 73.6852 3
4 -3 2 302.939 169.360 2
-4 3 -3 1189.96 228.025 3
4 -3 3 1083.66 271.286 2
4 -3 4 11570.2 857.979 2
-4 3 -4 10443.3 751.202 3
4 -3 5 14516.2 1029.64 2
4 -3 6 4.24260 182.351 2
4 -3 7 2857.65 546.036 2
4 -3 8 14606.1 1245.37 2
4 -3 9 1951.26 535.868 2
-4 2 9 2257.59 518.816 1
-4 2 8 43.7720 148.411 1
4 -2 -7 -65.2481 66.5642 3
-4 2 7 -36.5354 62.2837 2
-4 2 6 19624.9 1253.66 1
4 -2 -6 16610.0 640.113 3
-4 2 5 8098.76 762.314 1
4 -2 -5 8621.21 369.384 3
-4 2 4 2012.89 383.015 1
4 -2 -3 17311.8 943.081 1
-4 2 3 17846.5 990.747 1
-4 2 2 12066.9 789.021 1
-4 2 1 27449.4 1130.99 1
4 -2 -1 25362.9 596.447 2
-4 2 0 1647.52 163.883 3
4 -2 0 1402.54 191.967 2
-4 2 0 1640.60 294.003 1
-4 2 -1 1083.29 167.948 3
4 -2 1 1149.62 207.822 2
-4 2 -2 10670.8 594.271 3
4 -2 2 10269.6 656.386 2
-4 2 -3 17285.1 845.436 3
4 -2 3 16458.3 904.343 2
-4 2 -4 360.238 174.918 3
4 -2 4 567.278 231.031 2
4 -2 5 71661.7 2224.85 2
4 -2 6 1223.36 347.895 2
4 -2 7 1480.13 375.904 2
4 -2 8 3659.68 643.184 2
4 -2 9 6864.57 893.283 2
-4 1 9 6682.59 903.215 1
-4 1 8 1029.63 219.654 2
-4 1 8 1167.49 396.087 1
-4 1 7 11383.5 1018.66 1
-4 1 7 10569.1 611.665 2
4 -1 -7 10293.5 669.297 3
-4 1 6 10604.5 921.308 1
-4 1 6 9766.95 526.415 2
4 -1 -6 9273.76 571.753 3
4 -1 -5 871.641 156.703 3
-4 1 5 784.749 272.352 1
-4 1 5 772.149 130.558 2
-4 1 4 19677.1 1087.20 1
4 -1 -4 20115.8 596.912 2
4 -1 -4 20326.6 1065.50 1
4 -1 -3 7596.30 312.125 3
4 -1 -3 8426.94 648.316 1
4 -1 -3 7495.84 318.358 2
-4 1 3 7822.89 649.981 1
4 -1 -2 24273.9 562.335 2
4 -1 -2 24173.7 1023.00 1
-4 1 2 24266.8 1045.58 1
4 -1 -2 24379.7 503.633 3
4 -1 -1 1633.32 152.085 3
-4 1 1 1731.07 291.171 1
-4 1 0 3423.01 246.521 3
-4 1 0 4110.15 409.232 1
4 -1 0 3417.63 260.813 3
4 -1 1 -137.545 93.3436 3
-4 1 -1 27.3179 81.9254 3
-4 1 -1 43.2394 103.968 1
4 -1 2 4736.47 407.076 3
-4 1 -2 4812.61 393.439 3
4 -1 3 38658.1 1275.89 3
-4 1 -3 35774.3 1194.53 3
-4 1 -4 7547.44 603.225 3
4 -1 4 8160.02 690.348 2
4 -1 5 5912.31 647.175 2
-4 1 -5 5539.91 560.949 3
4 -1 6 16242.2 1113.06 2
4 -1 7 6846.55 787.028 2
4 -1 8 15999.0 1269.98 2
4 -1 9 4361.76 725.443 2
4 -1 10 314.378 302.059 2
-4 0 9 10254.0 789.707 2
-4 0 8 3826.16 666.208 1
-4 0 8 4220.26 474.484 2
4 0 -7 15481.0 901.135 3
-4 0 7 16484.1 1245.25 1
-4 0 7 14373.5 798.723 2
-4 0 6 1954.91 411.002 1
4 0 -6 2773.08 344.389 2
-4 0 6 2328.32 304.833 2
-4 0 5 13153.7 945.069 1
-4 0 5 12697.8 636.041 2
4 0 -5 13167.7 674.692 2
-4 0 4 597.390 244.593 1
4 0 -4 642.756 140.652 2
4 0 -4 460.526 178.258 1
-4 0 3 16698.6 917.054 1
4 0 -3 15545.8 589.137 3
4 0 -3 15939.5 614.116 2
4 0 -3 16467.5 880.592 1
4 0 -2 158.806 74.0233 2
4 0 -2 198.901 71.6121 3
-4 0 2 186.156 156.209 1
4 0 -2 321.806 136.076 1
4 0 -1 75924.6 1267.73 2
4 0 -1 78361.1 1654.12 1
-4 0 1 81744.7 1738.42 1
4 0 -1 78128.7 1230.23 3
-4 0 0 8539.54 433.646 3
-4 0 0 8874.73 551.031 1
4 0 0 7607.62 413.177 3
-4 0 -1 5935.52 400.286 3
-4 0 -1 5568.83 417.345 1
4 0 1 5281.69 387.365 3
4 0 2 6684.53 480.378 3
-4 0 -2 6512.29 462.360 3
4 0 3 21422.3 940.906 3
-4 0 -3 21757.2 924.411 3
4 0 4 2883.84 383.632 3
-4 0 -4 3281.28 396.689 3
4 0 5 36252.1 1457.12 3
-4 0 -5 33623.3 1353.69 3
4 0 6 522.336 232.755 3
4 0 6 225.609 194.812 2
4 0 7 2214.50 456.612 2
4 0 8 4938.78 718.769 2
4 0 9 20047.3 1476.48 2
4 0 10 177.196 224.069 2
-4 -1 10 -67.2941 142.586 2
-4 -1 9 179.463 155.789 2
-4 -1 8 3833.36 503.262 2
-4 -1 7 1863.95 330.232 2
4 1 -7 2033.56 357.709 2
-4 -1 7 2541.12 552.469 1
-4 -1 6 236.229 149.418 2
-4 -1 6 476.754 270.280 1
4 1 -6 298.167 151.247 2
-4 -1 5 37085.1 1593.38 1
-4 -1 5 35760.7 1186.49 2
4 1 -5 34212.6 1213.10 2
-4 -1 4 28571.4 1279.10 1
-4 -1 4 25947.6 939.245 2
4 1 -4 27560.0 1011.88 2
4 1 -4 29106.5 1241.24 1
4 1 -3 28194.7 925.099 3
-4 -1 3 29055.5 1188.70 1
4 1 -3 27740.1 932.088 2
4 1 -3 29711.5 1161.88 1
-4 -1 2 35076.7 1195.21 1
4 1 -2 33633.4 956.410 3
4 1 -2 33171.5 967.639 2
4 1 -2 35056.3 1163.68 1
4 1 -1 22211.8 750.281 3
4 1 -1 21816.7 770.586 2
4 1 -1 21887.0 838.542 1
-4 -1 1 22896.5 888.167 1
-4 -1 0 13978.0 616.536 3
-4 -1 0 14208.6 641.340 1
4 1 0 13414.9 604.753 3
4 1 1 450.814 142.250 3
-4 -1 -1 559.219 144.137 1
-4 -1 -1 799.996 168.583 3
-4 -1 -2 17317.7 773.611 3
-4 -1 -2 15662.8 614.340 1
4 1 2 16705.0 778.580 3
4 1 3 6689.23 532.402 3
-4 -1 -3 7705.69 559.672 3
4 1 4 6.67235 117.082 3
-4 -1 -4 -160.582 105.897 3
4 1 5 10275.8 779.255 3
-4 -1 -5 10062.7 740.888 3
4 1 6 63381.7 2044.02 3
4 1 7 4954.32 636.977 3
4 1 8 140.853 198.099 2
4 1 9 514.960 264.646 2
4 1 10 1275.98 405.709 2
-4 -2 10 5622.60 713.886 2
-4 -2 9 143.712 188.490 2
-4 -2 8 760.282 268.821 2
-4 -2 7 8656.51 737.360 2
4 2 -6 442.020 168.681 2
-4 -2 6 739.731 228.435 2
-4 -2 5 31273.5 1513.61 1
-4 -2 5 29137.7 1178.97 2
4 2 -5 30911.2 1265.54 2
4 2 -4 15607.3 927.550 1
-4 -2 4 16100.3 1002.52 1
-4 -2 4 14576.4 783.951 2
4 2 -4 15821.7 845.569 2
4 2 -3 8465.88 577.532 3
-4 -2 3 9059.54 682.443 1
4 2 -3 8976.58 597.995 2
4 2 -3 9639.76 668.182 1
4 2 -2 3032.04 342.235 3
-4 -2 2 3326.21 379.426 1
4 2 -2 3293.93 348.521 2
4 2 -2 3153.54 353.298 1
-4 -2 1 2024.08 274.338 1
4 2 -1 2139.62 281.904 3
4 2 -1 1831.33 245.346 1
4 2 -1 2048.81 275.910 2
4 2 0 13768.1 667.806 3
-4 -2 0 14126.8 687.009 3
-4 -2 0 14104.8 603.680 1
4 2 0 12466.9 539.567 1
-4 -2 -1 26902.5 974.650 3
-4 -2 -1 25485.3 720.054 1
4 2 1 26414.5 959.064 3
-4 -2 -2 16824.2 800.674 3
-4 -2 -2 15153.6 515.066 1
4 2 2 15991.9 786.413 3
-4 -2 -3 114100. 2195.48 3
4 2 3 113961. 2223.92 3
4 2 4 320.243 199.970 3
-4 -2 -4 275.923 144.118 3
4 2 5 478.549 216.560 3
-4 -2 -5 198.468 157.431 3
4 2 6 35017.8 1530.84 3
4 2 7 247.177 196.348 3
-4 -2 -7 -31.7792 106.540 1
4 2 8 1965.31 434.164 3
-4 -2 -8 1513.73 301.389 1
4 2 9 10845.6 1081.71 2
4 2 10 2956.89 597.263 2
-4 -3 10 2789.03 561.782 2
-4 -3 9 159.581 142.551 2
-4 -3 8 4716.51 623.882 2
-4 -3 7 4197.49 581.277 2
-4 -3 6 22502.0 1187.00 2
4 3 -5 1516.84 307.545 2
-4 -3 5 380.225 179.298 2
4 3 -4 715.942 202.015 2
4 3 -4 755.945 209.342 1
-4 -3 4 717.639 220.131 2
4 3 -3 9633.26 678.711 3
-4 -3 3 11420.0 789.739 1
-4 -3 3 9163.82 649.945 2
4 3 -3 10424.7 720.638 2
4 3 -3 9754.11 681.401 1
4 3 -2 22313.4 980.494 3
-4 -3 2 21480.4 965.638 1
4 3 -2 22119.3 987.243 2
4 3 -2 21980.8 917.667 1
4 3 -1 410.865 115.375 1
4 3 -1 329.951 161.619 3
-4 -3 1 443.459 162.328 1
4 3 -1 339.044 150.805 2
4 3 0 73917.4 1684.16 3
-4 -3 0 73629.7 1338.77 1
4 3 0 75126.4 1733.33 2
4 3 0 72531.4 1249.06 1
4 3 1 494.590 179.470 3
-4 -3 -1 534.183 145.343 3
-4 -3 -1 586.718 104.117 1
4 3 2 883.289 245.028 3
-4 -3 -2 431.666 156.177 3
-4 -3 -2 538.995 79.9393 1
4 3 3 2175.15 351.088 3
-4 -3 -3 2317.06 335.442 3
-4 -3 -3 2200.24 136.050 1
-4 -3 -4 3683.05 442.289 3
4 3 4 3288.82 430.422 3
4 3 5 527.219 227.730 3
-4 -3 -5 509.258 108.529 1
-4 -3 -6 18148.7 742.592 1
4 3 6 18234.8 1120.98 3
4 3 7 3290.69 515.740 3
-4 -3 -7 2506.99 317.477 1
4 3 8 -17.7890 170.845 3
-4 -3 -8 114.151 124.885 1
4 3 9 18893.8 1389.62 3
4 3 10 7416.90 915.740 3
4 3 10 7038.11 904.464 2
-4 -4 9 4669.71 683.445 2
-4 -4 8 1599.08 397.618 2
-4 -4 7 2420.67 468.870 2
-4 -4 6 1301.48 329.134 2
-4 -4 5 10446.2 826.609 2
-4 -4 4 22897.3 1155.37 2
4 4 -3 15182.6 875.461 1
4 4 -3 16495.2 950.575 3
-4 -4 3 15088.5 896.954 2
4 4 -3 17456.9 990.180 2
4 4 -2 654.906 200.062 2
4 4 -2 649.957 228.581 3
4 4 -2 647.240 181.396 1
4 4 -1 1612.22 290.614 2
4 4 -1 1360.74 269.875 3
4 4 -1 1603.64 231.368 1
4 4 0 37448.6 1302.45 3
4 4 0 38490.8 1345.51 2
4 4 0 34306.1 858.159 1
-4 -4 -1 2692.28 374.982 3
4 4 1 2737.51 366.408 3
4 4 1 2345.44 163.961 1
-4 -4 -2 12644.5 795.337 3
4 4 2 13075.0 795.583 3
-4 -4 -3 11334.0 762.736 3
4 4 3 11758.3 790.079 3
4 4 4 1183.74 280.447 3
4 4 5 393.408 213.214 3
-4 -4 -5 338.182 50.8758 1
4 4 6 28013.2 1399.73 3
-4 -4 -6 26358.5 696.968 1
4 4 7 407.189 228.007 3
-4 -4 -7 417.141 120.853 1
4 4 8 109.472 203.454 3
4 4 9 745.458 241.717 3
4 4 10 6913.95 894.358 3
-4 -5 9 5541.46 811.572 2
-4 -5 8 3821.45 636.962 2
-4 -5 7 375.172 181.609 2
-4 -5 6 11929.3 998.739 2
-4 -5 5 1226.05 328.510 2
-4 -5 4 1925.04 370.677 2
4 5 -3 45745.2 1689.61 3
-4 -5 3 42858.0 1628.06 2
4 5 -2 1012.55 222.386 1
4 5 -2 1362.03 324.105 3
4 5 -1 2382.29 380.086 2
4 5 -1 2551.93 307.253 1
4 5 -1 2830.30 408.357 3
4 5 0 15583.7 918.533 3
4 5 0 15065.9 590.648 1
4 5 0 15701.6 929.148 2
4 5 1 3149.55 423.806 2
4 5 1 3102.35 416.388 3
4 5 1 2863.87 183.414 1
4 5 2 2604.98 398.303 3
-4 -5 -2 2548.59 376.717 3
4 5 3 33227.6 1378.00 3
4 5 4 1520.46 338.211 3
4 5 5 8755.80 773.698 3
4 5 6 164.095 153.603 3
4 5 7 11734.3 985.016 3
4 5 8 935.941 336.082 3
4 5 9 -514.899 280.294 3
4 5 10 2880.72 565.655 3
-4 -6 8 -13.1677 172.985 2
-4 -6 7 282.073 240.021 2
-4 -6 6 15258.9 1191.57 2
-4 -6 5 1097.13 357.164 2
-4 -6 4 1687.02 392.999 2
4 6 -3 -259.165 148.847 1
4 6 -3 235.587 211.037 3
-4 -6 3 40.0969 129.523 2
4 6 -2 1813.80 342.305 1
4 6 -2 1939.36 397.509 3
4 6 -1 6866.90 684.918 3
4 6 -1 6184.72 485.223 1
4 6 0 5876.95 615.802 3
4 6 0 5511.54 388.888 1
4 6 1 56355.0 1836.71 3
4 6 1 53045.8 867.863 1
4 6 2 1134.89 312.495 3
4 6 3 21951.6 1182.20 3
4 6 4 21822.4 1213.98 3
4 6 5 11416.5 914.371 3
4 6 6 3350.73 539.898 3
4 6 7 -305.259 195.809 3
4 6 8 6212.78 793.111 3
4 6 9 2933.56 579.508 3
4 6 10 683.416 323.243 3
-4 -7 7 161.160 225.884 2
-4 -7 6 1789.64 451.994 2
-4 -7 5 2641.60 516.695 2
4 7 -4 8470.09 877.413 3
-4 -7 4 7498.87 817.392 2
4 7 -3 9539.91 902.179 3
4 7 -2 1901.75 426.410 3
4 7 -2 1523.65 288.073 1
4 7 -1 3193.03 370.947 1
4 7 -1 3291.00 504.348 3
4 7 0 1544.69 229.548 1
4 7 0 2025.84 410.476 3
4 7 1 26785.5 1357.68 3
4 7 1 24968.4 691.007 1
4 7 2 272.239 194.158 3
4 7 3 22.9455 164.256 3
4 7 4 754.178 287.149 3
4 7 5 -456.911 222.773 3
4 7 6 2029.27 431.062 3
4 7 7 30119.0 1659.70 3
4 7 8 1919.47 484.771 3
4 7 9 13722.1 1230.80 3
4 8 -5 1163.55 438.456 3
-4 -8 5 465.766 262.437 2
4 8 -4 171.101 220.743 3
-4 -8 4 75.1865 108.683 2
4 8 -3 7543.15 846.409 3
4 8 -2 12862.3 1080.64 3
4 8 -2 -154.629 103.612 1
4 8 -1 5247.47 686.630 3
4 8 -1 4335.61 468.395 1
4 8 0 3949.05 382.723 1
4 8 0 3804.71 566.595 3
4 8 1 1795.81 212.030 1
4 8 1 2640.27 475.317 3
4 8 2 430.942 213.063 3
4 8 3 325.042 210.918 3
4 8 4 15230.7 1131.49 3
4 8 5 -56.8444 171.644 3
4 8 6 2184.22 474.440 3
4 8 7 864.564 348.616 3
4 8 8 270.523 252.339 3
4 9 -4 2513.76 566.986 3
4 9 -3 2687.57 538.679 3
4 9 -2 -251.472 211.907 3
4 9 -1 -1.59995 187.034 3
4 9 0 321.083 220.302 3
4 9 1 23027.6 1427.99 3
4 9 2 2644.36 483.411 3
4 9 3 5049.99 701.814 3
4 9 4 2713.16 502.313 3
4 9 5 -299.050 218.240 3
4 9 6 4252.94 674.958 3
4 9 7 667.413 265.334 3
4 9 8 317.325 246.839 3
4 10 -2 4982.80 778.365 3
4 10 -1 30.7270 138.903 3
4 10 0 2504.15 533.581 3
4 10 1 1408.80 402.293 3
4 10 2 2981.20 550.973 3
4 10 3 6800.99 828.157 3
4 10 4 -481.174 271.525 3
4 10 5 -1.76014 192.450 3
4 10 6 368.982 231.184 3
-5 8 3 5064.91 753.703 1
-5 8 2 871.852 331.101 1
-5 8 1 1533.43 423.707 1
-5 8 0 -149.741 189.261 1
-5 8 -1 1389.22 391.129 1
-5 7 5 -269.972 248.750 1
-5 7 4 12956.3 1160.51 1
-5 7 3 5593.02 762.133 1
-5 7 2 2320.32 476.396 1
-5 7 1 1536.35 422.833 1
-5 7 0 440.242 206.715 1
-5 7 -1 5122.86 708.099 1
5 -7 2 995.941 248.487 2
5 -7 3 2152.58 423.004 2
5 -7 4 4528.29 630.636 2
5 -7 5 -192.548 206.615 2
5 -7 6 1122.78 378.666 2
-5 6 6 465.386 312.340 1
-5 6 5 3423.75 611.194 1
-5 6 4 11.3901 151.680 1
-5 6 3 1812.45 451.517 1
-5 6 2 1606.79 380.095 1
-5 6 1 2848.80 519.025 1
5 -6 0 279.068 114.057 2
-5 6 0 284.611 207.239 1
-5 6 -1 15899.6 1183.49 1
5 -6 1 16439.2 868.812 2
5 -6 2 712.967 213.597 2
5 -6 3 -214.403 162.360 2
5 -6 4 842.523 284.703 2
5 -6 5 341.847 246.539 2
5 -6 6 676.460 331.346 2
-5 5 7 1106.57 396.780 1
-5 5 6 1316.11 383.235 1
-5 5 5 3296.88 580.711 1
-5 5 4 4449.47 652.691 1
-5 5 3 2892.10 498.842 1
-5 5 2 4211.79 596.714 1
-5 5 1 1282.97 363.156 1
5 -5 -1 1320.54 136.350 2
5 -5 0 4.57611 54.1506 2
-5 5 0 114.186 44.6445 3
-5 5 0 225.480 188.146 1
-5 5 -1 3597.73 547.577 1
5 -5 1 3415.41 386.157 2
-5 5 -1 3648.01 340.826 3
-5 5 -2 670.300 169.318 3
5 -5 2 1001.18 248.644 2
-5 5 -3 -66.1985 73.0343 3
5 -5 3 15.4808 130.401 2
5 -5 4 4592.71 602.299 2
5 -5 5 -223.036 200.968 2
5 -5 6 111.566 214.451 2
5 -5 7 3218.87 633.059 2
-5 4 8 12637.1 1241.20 1
-5 4 7 5873.47 809.945 1
-5 4 6 1237.95 375.466 1
-5 4 5 12611.9 1082.80 1
-5 4 4 140.627 203.391 1
-5 4 3 -84.3291 169.541 1
-5 4 2 15936.7 1091.33 1
5 -4 -1 -15.9481 36.7489 2
-5 4 1 -160.926 202.207 1
5 -4 0 1458.76 210.714 2
-5 4 0 1197.78 141.562 3
-5 4 0 1073.03 290.389 1
-5 4 -1 8664.53 776.748 1
5 -4 1 9547.00 620.980 2
-5 4 -1 9351.48 515.073 3
-5 4 -2 1182.21 211.672 3
5 -4 2 1515.36 291.698 2
-5 4 -3 431.361 152.081 3
5 -4 3 410.067 197.004 2
5 -4 4 8199.42 776.496 2
5 -4 5 2613.75 470.510 2
5 -4 6 -204.295 216.944 2
5 -4 7 440.501 308.327 2
5 -4 8 2964.74 622.877 2
-5 3 8 1457.80 458.642 1
-5 3 7 55.2223 187.614 1
-5 3 6 2627.91 523.031 1
-5 3 5 31431.9 1632.02 1
-5 3 4 509.896 247.032 1
-5 3 3 2168.16 415.510 1
-5 3 2 3364.80 490.466 1
5 -3 -1 2344.33 190.386 2
-5 3 1 2404.87 407.777 1
-5 3 0 3632.11 243.209 3
-5 3 0 3784.87 499.490 1
5 -3 0 3852.22 331.574 2
-5 3 -1 7317.49 667.436 1
5 -3 1 6898.03 519.593 2
-5 3 -1 6921.02 434.728 3
5 -3 2 19576.8 979.476 2
-5 3 -2 20682.2 870.317 3
5 -3 3 4491.29 524.597 2
-5 3 -3 4771.37 471.944 3
-5 3 -4 1118.09 255.533 3
5 -3 4 2181.21 395.471 2
5 -3 5 2940.54 484.317 2
5 -3 6 84.0536 196.951 2
5 -3 7 4709.28 697.998 2
5 -3 8 266.117 291.960 2
-5 2 8 16179.2 1338.32 1
-5 2 7 -232.246 210.212 1
-5 2 6 1656.54 433.636 1
5 -2 -6 1408.69 149.731 3
-5 2 5 223.311 212.520 1
-5 2 4 1585.81 374.373 1
-5 2 3 608.487 264.909 1
5 -2 -2 26466.0 418.216 2
5 -2 -2 26284.3 430.104 2
5 -2 -1 1696.54 190.766 2
-5 2 1 2056.67 368.427 1
-5 2 0 3000.94 237.083 3
-5 2 0 3578.16 468.760 1
5 -2 0 2708.26 286.748 2
-5 2 -1 1265.08 190.984 3
5 -2 1 1139.08 222.499 2
-5 2 -1 1092.09 268.344 1
5 -2 2 66036.6 1768.89 2
-5 2 -2 68523.9 1567.33 3
-5 2 -3 1896.39 294.811 3
5 -2 3 2368.71 386.294 2
-5 2 -4 2095.42 340.030 3
5 -2 4 2759.43 444.179 2
5 -2 5 698.629 259.944 2
5 -2 6 521.990 265.861 2
5 -2 7 2446.67 515.513 2
5 -2 8 19053.7 1462.27 2
5 -2 9 581.477 318.136 2
-5 1 9 975.202 383.161 1
-5 1 8 2021.80 512.800 1
-5 1 7 6162.95 799.131 1
5 -1 -6 8296.97 493.022 3
-5 1 6 9203.06 923.184 1
5 -1 -6 7835.23 495.944 3
5 -1 -5 7201.82 404.715 3
-5 1 5 7782.90 796.604 1
5 -1 -5 7190.21 416.549 3
5 -1 -4 1424.84 156.582 3
-5 1 4 1092.95 306.452 1
5 -1 -4 1532.55 161.560 2
5 -1 -3 5019.12 283.407 2
-5 1 3 5357.12 586.528 1
5 -1 -3 4477.83 243.875 3
5 -1 -2 7714.69 372.446 2
-5 1 2 7194.04 642.675 1
5 -1 -2 8007.52 331.025 3
-5 1 1 41634.1 1457.18 1
5 -1 -1 41668.6 869.403 3
-5 1 0 1932.47 217.049 3
-5 1 0 1826.13 323.966 1
5 -1 0 1973.22 228.060 3
5 -1 1 80.7121 81.6869 3
-5 1 -1 293.779 100.387 3
-5 1 -1 -0.76670 110.708 1
5 -1 2 4376.00 421.154 3
-5 1 -2 4054.81 391.388 3
5 -1 3 12180.8 771.844 3
-5 1 -3 11379.9 704.912 3
-5 1 -4 942.447 226.205 3
5 -1 4 581.447 218.827 2
5 -1 5 14455.2 1047.84 2
5 -1 6 219.949 213.612 2
5 -1 7 3824.33 634.586 2
5 -1 8 2197.59 512.222 2
5 -1 9 1730.08 509.493 2
-5 0 9 620.067 374.051 1
-5 0 8 5863.96 841.716 1
-5 0 7 1361.38 400.426 1
-5 0 7 1326.42 237.911 2
5 0 -6 3727.49 390.066 2
-5 0 6 3562.93 574.300 1
5 0 -5 13898.6 678.485 3
-5 0 5 13604.7 1029.14 1
5 0 -5 14402.1 707.132 2
5 0 -4 35463.9 1010.86 3
-5 0 4 35939.8 1554.67 1
5 0 -4 36408.6 1045.58 2
5 0 -3 19463.4 689.762 3
-5 0 3 19873.3 1086.65 1
5 0 -3 20218.5 732.574 2
5 0 -2 565.279 130.988 2
5 0 -2 491.095 126.152 3
-5 0 2 483.506 204.716 1
5 0 -2 674.702 192.761 1
-5 0 1 486.743 178.772 1
5 0 -1 595.474 143.839 3
5 0 -1 627.973 142.147 2
-5 0 0 3701.52 323.720 3
-5 0 0 3426.51 395.703 1
5 0 0 4367.39 356.395 3
-5 0 -1 4509.99 378.344 3
-5 0 -1 3507.38 390.713 1
5 0 1 3494.01 352.689 3
-5 0 -2 66753.8 1597.40 1
5 0 2 66053.6 1627.93 3
-5 0 -2 67624.4 1585.39 3
5 0 3 2452.93 362.109 3
-5 0 -3 2751.96 358.970 3
5 0 4 1719.25 324.786 3
-5 0 -4 2129.56 338.706 3
5 0 5 13044.7 932.432 3
5 0 6 2258.86 427.877 3
5 0 7 1579.12 423.427 2
5 0 8 2301.80 517.274 2
5 0 9 2074.75 533.099 2
-5 -1 8 4648.11 781.508 1
-5 -1 8 3425.37 464.030 2
-5 -1 7 25138.6 1619.56 1
-5 -1 7 24740.0 1137.31 2
5 1 -6 165.085 114.226 2
-5 -1 6 -3.09910 207.851 1
-5 -1 6 -226.234 132.775 2
5 1 -5 717.112 184.526 2
5 1 -5 954.602 219.586 3
-5 -1 5 757.432 292.386 1
5 1 -4 38622.8 1205.63 3
-5 -1 4 37339.3 1587.67 1
5 1 -4 35977.4 1192.85 2
5 1 -3 31.0333 62.7986 2
-5 -1 3 29.6023 140.933 1
5 1 -3 10.2049 97.3523 3
5 1 -3 257.250 142.175 1
5 1 -2 7703.45 492.312 3
-5 -1 2 8686.15 661.312 1
5 1 -2 7729.91 511.922 2
5 1 -2 7642.46 592.469 1
5 1 -1 41130.7 1169.51 2
5 1 -1 42382.6 1293.37 1
-5 -1 1 43455.9 1359.75 1
5 1 -1 43631.1 1157.93 3
-5 -1 0 2734.12 304.732 3
-5 -1 0 2708.53 334.375 1
5 1 0 2245.82 282.563 3
-5 -1 -1 30790.0 1052.45 3
-5 -1 -1 30306.6 1015.35 1
5 1 1 29202.4 1042.96 3
5 1 2 138.597 132.814 3
-5 -1 -2 279.120 129.112 3
-5 -1 -2 96.7092 102.833 1
-5 -1 -3 2692.97 355.004 3
5 1 3 3514.40 429.043 3
5 1 4 4727.68 525.573 3
-5 -1 -4 5349.11 535.329 3
5 1 5 3954.88 526.872 3
5 1 6 358.692 215.805 3
5 1 7 4636.67 662.102 3
5 1 8 1016.48 376.337 2
5 1 9 4484.17 757.207 2
-5 -2 9 399.545 192.578 2
-5 -2 8 2038.00 387.807 2
-5 -2 7 12690.5 890.168 2
5 2 -6 218.257 142.294 2
-5 -2 6 -203.211 229.321 1
-5 -2 6 -7.49565 114.923 2
5 2 -5 2778.97 398.661 2
-5 -2 5 2676.40 497.821 1
5 2 -4 12781.0 778.663 3
-5 -2 4 14520.3 1003.29 1
5 2 -4 12412.1 792.511 2
5 2 -3 3983.28 417.398 3
-5 -2 3 4449.86 513.324 1
5 2 -3 3713.77 407.703 2
5 2 -3 4440.04 491.679 1
5 2 -2 2986.88 354.628 3
-5 -2 2 2757.14 379.533 1
5 2 -2 2906.57 346.160 2
5 2 -2 3314.27 393.491 1
5 2 -1 39506.9 1221.43 3
-5 -2 1 39818.5 1270.47 1
5 2 -1 38861.2 1253.52 2
5 2 -1 38296.0 1192.19 1
-5 -2 0 24988.1 998.724 3
5 2 0 26020.8 1013.14 3
-5 -2 0 24989.7 929.405 1
-5 -2 -1 72195.6 1716.35 3
-5 -2 -1 72893.3 1445.20 1
5 2 1 70437.6 1693.05 3
5 2 2 355.669 193.299 3
-5 -2 -2 463.737 151.267 3
-5 -2 -2 544.103 141.368 1
-5 -2 -3 12514.3 783.099 3
-5 -2 -3 11035.6 523.825 1
5 2 3 11669.3 779.660 3
5 2 4 1365.76 313.248 3
-5 -2 -4 1977.11 337.563 3
5 2 5 583.251 234.246 3
5 2 6 3698.69 546.184 3
5 2 7 3356.14 545.213 3
5 2 8 3324.13 589.771 3
5 2 9 524.716 277.056 3
5 2 9 649.476 283.149 2
5 2 10 711.425 378.231 2
-5 -3 9 -18.0451 104.430 2
-5 -3 8 -224.585 190.244 2
-5 -3 7 8092.57 771.558 2
-5 -3 6 2458.06 400.583 2
-5 -3 5 338.952 176.286 2
5 3 -4 11258.6 794.526 3
-5 -3 4 12140.7 936.862 1
5 3 -4 13112.1 872.025 2
5 3 -3 10679.6 741.536 3
-5 -3 3 11127.4 826.210 1
5 3 -3 12124.5 808.494 2
5 3 -3 11420.3 775.825 1
5 3 -2 10246.3 709.789 3
-5 -3 2 9227.78 683.873 1
5 3 -2 10345.3 713.023 2
5 3 -2 9297.05 639.143 1
5 3 -1 320.683 156.613 3
5 3 -1 234.851 107.326 1
-5 -3 1 414.721 153.147 1
5 3 -1 292.468 138.805 2
5 3 0 30218.6 1163.49 3
-5 -3 0 30517.8 975.631 1
5 3 0 31535.6 1213.13 2
5 3 0 28685.4 892.917 1
-5 -3 -1 493.227 137.405 1
5 3 1 586.978 196.724 3
-5 -3 -1 735.260 201.751 3
5 3 2 20.3034 129.164 3
-5 -3 -2 -167.538 101.858 3
-5 -3 -2 14.5951 49.7724 1
-5 -3 -3 12156.8 794.659 3
-5 -3 -3 13059.2 459.853 1
5 3 3 13016.2 846.470 3
-5 -3 -4 32364.3 735.532 1
5 3 4 34361.6 1444.60 3
5 3 5 5958.00 645.767 3
-5 -3 -6 1781.23 250.532 1
5 3 6 1366.35 342.049 3
-5 -3 -7 205.450 101.058 1
5 3 7 116.670 194.692 3
5 3 8 16997.5 1290.63 3
5 3 9 877.116 336.258 3
5 3 10 202.907 210.356 3
5 3 10 608.328 324.132 2
-5 -4 9 1153.91 377.806 2
-5 -4 8 3097.34 528.230 2
-5 -4 7 22468.6 1359.29 2
-5 -4 6 1656.78 342.806 2
-5 -4 5 5148.43 603.528 2
5 4 -4 4963.80 574.739 3
5 4 -3 6330.81 622.198 3
5 4 -3 5885.62 570.316 1
5 4 -2 4333.93 504.967 3
5 4 -2 4092.15 434.301 1
5 4 -1 1204.96 260.572 2
5 4 -1 621.362 163.719 1
5 4 -1 742.636 240.891 3
5 4 0 19456.6 1006.63 3
-5 -4 0 18865.7 777.750 1
5 4 0 18485.6 999.456 2
5 4 0 18480.0 692.620 1
5 4 1 28483.4 1222.21 3
-5 -4 -1 30192.0 1281.73 3
5 4 2 1490.65 319.027 3
-5 -4 -2 1671.50 315.943 3
5 4 3 26149.7 1251.27 3
5 4 4 1975.43 381.715 3
5 4 5 7653.25 750.108 3
5 4 6 336.745 203.779 3
-5 -4 -6 128.351 48.9662 1
5 4 7 2294.34 496.960 3
5 4 8 1248.32 377.756 3
5 4 9 33.1306 181.855 3
-5 -5 8 406.234 219.360 2
-5 -5 7 2654.98 534.793 2
-5 -5 6 14105.5 1102.89 2
5 5 -5 843.433 284.784 3
-5 -5 5 298.007 181.082 2
5 5 -4 2253.64 435.518 3
5 5 -3 1116.36 326.097 3
5 5 -3 912.968 239.231 1
5 5 -2 7351.84 696.547 3
5 5 -2 6456.89 552.287 1
5 5 -1 -20.5935 67.6951 1
5 5 -1 129.482 157.214 3
5 5 0 49868.8 1733.46 3
5 5 0 50229.7 1121.40 1
5 5 1 5285.37 579.174 3
5 5 2 53083.3 1802.69 3
5 5 3 9043.39 771.906 3
5 5 4 -116.296 168.398 3
5 5 5 2336.35 427.824 3
5 5 6 4219.88 618.229 3
5 5 7 16.8475 189.336 3
5 5 8 22984.9 1522.70 3
5 5 9 242.656 264.100 3
-5 -6 7 -348.069 221.813 2
-5 -6 6 147.025 157.067 2
5 6 -5 37.7715 138.061 3
-5 -6 5 270.040 216.986 2
5 6 -4 8741.52 864.618 3
5 6 -3 16775.0 1152.36 3
5 6 -2 8123.32 786.169 3
5 6 -2 7093.64 593.209 1
5 6 -1 15156.0 1031.67 3
5 6 -1 13849.8 721.289 1
5 6 0 238.331 104.403 1
5 6 0 402.472 244.480 3
5 6 1 11505.3 893.451 3
5 6 1 10761.7 342.767 1
5 6 2 19670.0 1166.53 3
5 6 3 1313.05 340.824 3
5 6 4 1641.85 385.026 3
5 6 5 10879.1 947.105 3
5 6 6 3296.37 553.717 3
5 6 7 941.961 348.350 3
5 6 8 3402.92 630.563 3
5 6 9 25.4063 164.861 3
5 7 -6 9505.31 1012.36 3
-5 -7 6 9932.22 1029.80 2
5 7 -5 333.820 259.498 3
5 7 -4 13884.7 1144.88 3
5 7 -3 2105.15 451.318 3
5 7 -2 1854.25 416.243 3
5 7 -2 1906.93 324.723 1
5 7 -1 14439.0 1087.27 3
5 7 -1 12513.6 709.191 1
5 7 0 10923.4 922.082 3
5 7 0 10670.6 547.285 1
5 7 1 2654.67 463.199 3
5 7 1 2229.99 157.864 1
5 7 2 24393.8 1377.29 3
5 7 3 181.600 167.523 3
5 7 4 199.576 205.239 3
5 7 5 10165.7 949.858 3
5 7 6 3419.52 580.565 3
5 7 7 2581.13 520.611 3
5 7 8 2031.53 503.068 3
5 8 -5 24.6066 176.084 3
5 8 -4 4677.29 716.971 3
5 8 -3 1972.90 472.555 3
5 8 -2 55.7158 170.357 3
5 8 -1 10831.3 995.822 3
5 8 0 696.323 278.251 3
5 8 1 1081.32 334.166 3
5 8 2 13764.9 1105.79 3
5 8 3 3817.36 607.458 3
5 8 4 16.8632 134.138 3
5 8 5 -280.864 224.328 3
5 8 6 1400.01 408.912 3
5 8 7 182.773 197.344 3
5 9 -3 1618.28 464.766 3
5 9 -2 9147.93 994.298 3
5 9 -1 28660.7 1706.32 3
5 9 0 2727.37 531.801 3
5 9 1 286.401 234.599 3
5 9 2 841.896 404.762 3
5 9 3 2202.00 475.350 3
5 9 4 1487.98 425.181 3
5 9 5 3117.46 581.299 3
5 9 6 5129.17 765.349 3
5 10 0 4772.55 736.517 3
5 10 1 2743.72 534.171 3
5 10 2 1648.38 460.794 3
5 10 3 3231.97 615.891 3
5 10 4 108.025 261.168 3
-6 7 2 -17.2705 101.778 1
-6 7 1 1147.88 368.516 1
-6 7 0 7536.80 921.491 1
-6 6 4 132.621 197.821 1
-6 6 3 2978.85 558.445 1
-6 6 2 3720.80 620.511 1
-6 6 1 1443.48 412.906 1
-6 6 0 1786.51 452.618 1
-6 6 -1 6159.97 806.220 1
-6 6 -2 599.426 266.569 1
6 -6 3 13.4374 117.429 2
6 -6 4 4322.21 622.378 2
6 -6 5 439.750 225.716 2
6 -6 6 2213.98 488.293 2
-6 5 6 16898.1 1415.28 1
-6 5 5 1312.64 413.133 1
-6 5 4 215.403 196.515 1
-6 5 3 402.495 262.234 1
-6 5 2 8110.51 885.919 1
-6 5 1 -387.887 212.386 1
-6 5 0 1126.58 366.783 1
-6 5 -1 5599.07 730.535 1
6 -5 1 5907.63 509.431 2
-6 5 -2 6108.55 757.563 1
6 -5 2 6812.80 629.577 2
6 -5 3 1785.55 352.678 2
6 -5 4 5533.07 669.873 2
6 -5 5 -458.563 230.732 2
6 -5 6 -120.253 187.567 2
-6 4 6 131.840 213.242 1
-6 4 5 3981.89 646.039 1
-6 4 4 396.388 308.135 1
-6 4 3 2215.61 479.157 1
-6 4 2 12658.9 1051.87 1
-6 4 1 5477.81 693.342 1
6 -4 0 381.100 120.510 2
-6 4 0 352.505 254.585 1
-6 4 -1 33827.8 1629.38 1
6 -4 1 37270.8 1261.95 2
6 -4 2 143.958 137.824 2
-6 4 -2 75.3906 176.204 1
6 -4 3 8060.56 733.651 2
6 -4 4 -94.6874 132.060 2
6 -4 5 3927.88 612.989 2
6 -4 6 1592.44 414.100 2
6 -4 7 220.028 218.516 2
-6 3 7 3325.82 628.132 1
-6 3 6 447.497 253.660 1
-6 3 5 993.384 334.530 1
-6 3 4 537.635 300.646 1
-6 3 3 980.378 324.149 1
-6 3 2 16614.8 1159.66 1
6 -3 -1 491.806 105.448 2
-6 3 1 626.423 281.510 1
-6 3 0 1620.74 162.696 3
6 -3 0 1627.69 230.400 2
-6 3 0 1395.16 356.299 1
-6 3 -1 657.806 134.229 3
6 -3 1 963.560 213.900 2
-6 3 -1 1015.33 316.659 1
-6 3 -2 11587.6 907.922 1
6 -3 2 10934.6 775.785 2
-6 3 -2 10309.1 634.654 3
-6 3 -3 143.797 85.9130 3
6 -3 3 582.215 241.339 2
6 -3 4 8298.22 794.460 2
6 -3 5 45.4046 171.711 2
6 -3 6 20456.6 1412.47 2
6 -3 7 3309.00 624.853 2
6 -3 8 286.454 235.969 2
-6 2 7 474.527 309.127 1
-6 2 6 95.4042 253.081 1
-6 2 5 16881.5 1262.67 1
-6 2 4 -73.3678 174.176 1
-6 2 3 12586.8 1002.77 1
6 -2 -2 -31.0828 39.3934 2
6 -2 -2 41.4320 31.7640 2
-6 2 1 5570.44 627.993 1
6 -2 -1 4887.71 349.645 2
-6 2 0 5656.14 347.672 3
-6 2 0 5778.62 628.637 1
6 -2 0 5327.41 436.227 2
-6 2 -1 22247.8 821.941 3
-6 2 -1 24447.6 1243.35 1
6 -2 1 22847.6 1015.96 2
-6 2 -2 1374.62 237.680 3
6 -2 2 1060.48 261.307 2
-6 2 -2 1229.52 328.929 1
6 -2 3 9950.16 803.297 2
-6 2 -3 8492.61 639.194 3
6 -2 4 992.442 283.191 2
6 -2 5 11931.1 1017.62 2
6 -2 6 2031.43 457.504 2
6 -2 7 6376.11 846.602 2
6 -2 8 162.627 248.842 2
-6 1 8 16222.6 1426.78 1
-6 1 7 962.484 386.327 1
-6 1 6 4140.74 662.523 1
-6 1 5 6440.93 783.251 1
6 -1 -4 1802.34 166.140 2
-6 1 4 1593.69 371.742 1
6 -1 -4 1878.04 160.527 3
6 -1 -3 658.722 120.577 2
6 -1 -3 556.967 88.6009 3
-6 1 3 603.134 247.543 1
-6 1 2 4106.44 537.613 1
6 -1 -2 4819.43 329.411 2
6 -1 -2 5068.57 287.603 3
-6 1 1 3135.03 464.105 1
6 -1 -1 2584.97 266.724 2
6 -1 -1 2982.67 263.880 3
-6 1 0 10515.5 533.174 3
-6 1 0 11414.6 819.181 1
6 -1 0 11245.9 574.488 3
6 -1 1 196.626 122.919 3
-6 1 -1 320.675 116.249 3
-6 1 -1 531.119 190.700 1
-6 1 -2 8332.54 580.112 3
-6 1 -2 8603.65 695.971 1
6 -1 2 8276.77 620.432 3
-6 1 -3 9407.45 723.743 1
6 -1 3 8535.52 684.890 3
-6 1 -3 7925.52 626.462 3
6 -1 4 2093.73 420.340 2
6 -1 5 379.283 225.463 2
6 -1 6 5704.97 749.074 2
6 -1 7 97.5814 182.256 2
6 -1 8 311.533 285.525 2
-6 0 8 1284.93 483.638 1
-6 0 7 5103.93 788.833 1
6 0 -6 2261.53 298.089 3
-6 0 6 2340.59 503.630 1
-6 0 5 689.388 301.954 1
6 0 -5 1169.89 206.312 3
-6 0 4 2874.70 488.926 1
6 0 -4 2247.47 264.994 2
6 0 -4 2075.81 247.258 3
6 0 -3 3876.92 347.582 2
-6 0 3 3619.84 523.431 1
6 0 -3 4663.86 357.243 3
6 0 -2 16305.4 716.249 2
6 0 -2 17754.8 698.455 3
-6 0 2 18331.8 1072.58 1
6 0 -1 29595.9 993.389 2
-6 0 1 29040.2 1277.02 1
6 0 -1 30142.3 947.109 3
-6 0 0 64512.4 1445.71 3
-6 0 0 66909.4 1869.48 1
6 0 0 63447.3 1477.51 3
6 0 1 34.4149 86.9854 3
-6 0 -1 -28.9918 69.9994 3
-6 0 -1 -101.986 116.792 1
-6 0 -2 4467.67 444.449 3
-6 0 -2 4976.84 498.273 1
6 0 2 4965.57 495.438 3
-6 0 -3 6580.15 566.484 1
6 0 3 6456.67 605.428 3
-6 0 -3 5737.50 541.980 3
6 0 4 4706.12 551.279 3
6 0 5 -83.6034 153.748 3
6 0 6 3603.23 563.010 3
6 0 7 5696.02 789.861 2
6 0 8 749.456 349.960 2
6 0 9 1218.77 454.666 2
-6 -1 8 2196.05 627.549 1
-6 -1 7 1.97490 272.736 1
6 1 -7 26.5383 116.802 3
-6 -1 6 1337.63 407.269 1
6 1 -6 1275.54 268.213 3
6 1 -5 175.764 134.682 2
6 1 -5 140.910 107.491 3
-6 -1 5 22.2355 172.663 1
6 1 -4 11479.3 679.692 3
-6 -1 4 11860.7 958.526 1
6 1 -4 11550.1 701.931 2
6 1 -3 69.9496 91.2347 2
-6 -1 3 11.5861 179.942 1
6 1 -3 65.9705 97.4073 3
6 1 -2 3256.81 362.756 2
-6 -1 2 3072.45 449.786 1
6 1 -2 3306.94 353.969 3
6 1 -1 17270.3 833.666 2
6 1 -1 18029.2 819.758 3
-6 -1 1 17043.3 958.122 1
6 1 0 217.665 102.741 3
-6 -1 0 207.794 147.972 1
-6 -1 0 373.700 121.913 3
-6 -1 -1 6557.91 531.671 3
-6 -1 -1 7182.17 567.877 1
6 1 1 7438.89 580.326 3
-6 -1 -2 13603.3 795.900 3
-6 -1 -2 14752.8 784.576 1
6 1 2 12753.4 799.430 3
-6 -1 -3 10678.4 751.376 3
-6 -1 -3 11305.9 680.613 1
6 1 3 10823.6 784.115 3
-6 -1 -4 35045.7 1204.88 1
6 1 4 35473.9 1515.95 3
6 1 5 203.032 169.692 3
6 1 6 145.391 196.971 3
6 1 7 27518.5 1611.18 3
6 1 8 -959.839 371.055 2
6 1 9 -616.630 320.930 2
-6 -2 7 2260.10 558.743 1
6 2 -7 3066.16 450.415 3
6 2 -6 6473.61 626.668 3
-6 -2 6 5559.82 767.063 1
6 2 -5 1037.31 269.506 2
6 2 -5 1357.10 286.033 3
-6 -2 5 1826.76 435.952 1
-6 -2 4 2233.43 430.605 1
6 2 -4 1633.77 298.268 2
6 2 -4 1934.02 330.544 3
6 2 -3 5.97229 61.6269 2
6 2 -3 50.4014 126.257 3
-6 -2 3 -126.315 173.908 1
6 2 -2 8141.95 599.875 3
-6 -2 2 9287.39 737.282 1
6 2 -2 7745.41 607.788 2
6 2 -2 7818.04 642.983 1
-6 -2 1 11748.0 766.662 1
6 2 -1 12382.6 772.248 2
6 2 -1 11717.6 725.224 1
6 2 -1 11670.9 719.570 3
6 2 0 11852.1 754.000 2
6 2 0 12508.2 754.698 3
-6 -2 0 11305.7 705.425 1
6 2 1 72.6468 136.188 3
-6 -2 -1 201.268 119.506 1
-6 -2 -1 -129.688 107.365 3
-6 -2 -2 18234.7 976.751 3
-6 -2 -2 19612.5 821.378 1
6 2 2 19397.9 1014.96 3
6 2 3 711.839 236.251 3
-6 -2 -3 470.052 146.996 1
-6 -2 -4 25235.4 915.623 1
6 2 4 25952.3 1302.25 3
6 2 5 3856.50 555.248 3
6 2 6 2663.24 502.657 3
6 2 7 403.807 222.053 3
6 2 8 3500.16 604.414 3
6 2 9 380.823 217.127 3
6 2 9 -361.294 248.915 2
6 3 -7 3775.49 552.619 3
6 3 -6 147.857 161.565 3
6 3 -5 10467.1 817.557 3
-6 -3 5 12138.3 1073.88 1
6 3 -4 5230.66 563.493 3
-6 -3 4 4385.18 607.671 1
6 3 -3 3192.43 430.245 3
-6 -3 3 2761.13 456.930 1
6 3 -2 953.468 240.292 2
-6 -3 2 1091.51 281.392 1
6 3 -2 876.858 219.560 3
6 3 -2 1114.01 243.588 1
6 3 -1 7562.87 632.064 3
-6 -3 1 7091.93 581.285 1
6 3 -1 7241.46 635.215 2
6 3 -1 6632.69 536.432 1
-6 -3 0 70.1392 104.503 1
6 3 0 -6.19251 138.384 3
6 3 0 -107.701 105.291 2
-6 -3 -1 39197.4 1146.73 1
-6 -3 -1 39909.2 1452.71 3
6 3 1 39982.5 1469.78 3
6 3 2 37.2074 132.535 3
-6 -3 -2 86.4804 62.7274 1
6 3 3 551.914 232.789 3
-6 -3 -3 395.541 119.179 1
6 3 4 1649.51 371.416 3
-6 -3 -4 1113.38 172.439 1
6 3 5 352.578 241.875 3
-6 -3 -5 480.753 121.632 1
6 3 6 1092.55 365.424 3
6 3 7 31132.1 1728.97 3
6 3 8 110.206 200.059 3
6 3 9 -339.868 231.380 3
6 4 -8 4319.42 653.031 3
6 4 -7 -57.7292 153.440 3
6 4 -6 -33.8585 194.176 3
6 4 -5 284.771 167.101 3
6 4 -4 6646.49 678.099 3
6 4 -3 966.344 260.354 3
6 4 -2 34016.7 1433.57 3
-6 -4 2 34937.4 1440.13 1
6 4 -2 30852.0 1243.16 1
6 4 -1 682.546 217.436 3
-6 -4 1 1030.21 243.297 1
6 4 -1 1055.77 224.231 1
6 4 0 1583.96 322.962 3
6 4 0 1610.85 237.371 1
-6 -4 0 1279.15 244.720 1
-6 -4 -1 15730.3 676.883 1
6 4 1 15956.1 984.512 3
6 4 2 251.984 205.751 3
-6 -4 -2 299.273 85.8664 1
6 4 3 990.832 260.399 3
-6 -4 -3 867.492 101.079 1
6 4 4 20878.4 1235.10 3
6 4 5 716.101 316.138 3
6 4 6 1038.54 337.283 3
6 4 7 2324.33 494.183 3
6 4 8 4844.93 738.056 3
6 4 9 449.106 236.372 3
6 5 -8 1100.77 386.932 3
6 5 -7 1481.33 392.887 3
6 5 -6 2156.56 475.600 3
6 5 -5 25024.0 1436.49 3
6 5 -4 398.355 251.229 3
6 5 -3 544.225 234.763 3
6 5 -2 4381.74 566.212 3
6 5 -2 3856.11 434.446 1
6 5 -1 112.804 160.218 3
6 5 -1 219.454 120.654 1
6 5 0 416.566 221.928 3
6 5 0 184.072 92.4435 1
6 5 1 6682.49 691.465 3
6 5 2 385.583 224.178 3
6 5 3 1447.51 361.256 3
6 5 4 6754.87 747.738 3
6 5 5 32079.2 1663.57 3
6 5 6 10662.5 1008.52 3
6 5 7 1607.73 431.242 3
6 5 8 1291.92 397.739 3
6 6 -6 1368.39 400.555 3
6 6 -5 6298.18 787.518 3
6 6 -4 1651.48 409.319 3
6 6 -3 3285.74 563.646 3
6 6 -2 2636.79 364.633 1
6 6 -2 2338.21 441.254 3
6 6 -1 474.164 236.356 3
6 6 -1 530.565 150.889 1
6 6 0 730.418 291.432 3
6 6 0 781.486 149.352 1
6 6 1 10377.8 897.281 3
6 6 2 5867.68 685.105 3
6 6 3 -206.496 208.701 3
6 6 4 42.9636 228.345 3
6 6 5 6053.05 751.474 3
6 6 6 187.661 160.918 3
6 6 7 -161.490 197.138 3
6 6 8 6798.95 880.029 3
6 7 -5 1971.24 477.572 3
6 7 -4 37.3354 170.291 3
6 7 -3 4164.23 637.972 3
6 7 -2 5604.29 713.374 3
6 7 -1 6201.50 747.644 3
6 7 0 -129.794 193.471 3
6 7 1 -168.841 195.697 3
6 7 2 8321.33 857.978 3
6 7 3 519.295 235.371 3
6 7 4 947.551 337.493 3
6 7 5 11623.3 1077.70 3
6 7 6 1191.23 400.393 3
6 7 7 48.8391 162.396 3
6 8 -4 7728.52 933.696 3
6 8 -3 453.810 250.242 3
6 8 -2 3586.69 629.284 3
6 8 -1 7417.17 870.177 3
6 8 0 6198.90 767.824 3
6 8 1 87.5022 210.567 3
6 8 2 11178.4 1035.20 3
6 8 3 192.448 191.994 3
6 8 4 873.849 332.803 3
6 8 5 5917.84 784.900 3
6 8 6 480.821 306.869 3
6 9 -1 43.7923 175.043 3
6 9 0 1101.18 378.001 3
6 9 1 1198.53 408.003 3
6 9 2 12342.8 1158.32 3
6 9 3 2265.21 555.198 3
6 9 4 6822.17 870.824 3
-7 5 3 875.048 333.373 1
-7 5 2 -7.34286 187.494 1
-7 5 1 2655.74 553.417 1
-7 5 0 -237.017 208.760 1
-7 5 -1 2626.65 567.889 1
-7 5 -2 846.532 352.649 1
-7 5 -3 150.078 198.445 1
7 -5 6 373.995 265.028 2
-7 4 4 20938.4 1545.09 1
-7 4 3 237.193 197.980 1
-7 4 2 -10.1192 165.081 1
-7 4 1 7347.45 844.118 1
-7 4 0 -235.467 233.345 1
-7 4 -1 263.716 223.282 1
-7 4 -2 2865.97 527.421 1
7 -4 3 537.830 240.643 2
-7 4 -3 38.0402 128.240 1
7 -4 4 374.815 176.649 2
7 -4 5 461.155 250.002 2
7 -4 6 3331.70 648.114 2
-7 3 5 2504.41 547.214 1
-7 3 4 3312.58 615.807 1
-7 3 3 3591.84 600.159 1
-7 3 2 202.967 245.936 1
-7 3 1 5451.85 721.114 1
-7 3 0 -39.0102 165.661 1
7 -3 1 59.9122 65.6952 2
-7 3 -1 180.846 166.463 1
7 -3 2 1707.26 333.105 2
-7 3 -2 1797.94 412.190 1
7 -3 3 4566.60 585.303 2
-7 3 -3 4084.40 598.536 1
7 -3 4 356.449 214.957 2
7 -3 5 330.588 231.341 2
7 -3 6 812.751 324.819 2
7 -3 7 -12.1108 162.018 2
-7 2 6 361.363 256.339 1
-7 2 5 1135.22 406.644 1
-7 2 4 11667.6 1068.42 1
-7 2 3 1037.06 361.811 1
-7 2 2 3654.07 592.660 1
-7 2 1 9756.56 889.886 1
7 -2 -1 8459.75 489.117 2
-7 2 0 7403.36 773.656 1
7 -2 0 7568.06 553.385 2
7 -2 1 357.946 137.429 2
-7 2 -1 -205.983 174.954 1
7 -2 2 -123.610 138.121 2
-7 2 -2 584.099 246.131 1
-7 2 -3 7879.15 782.215 1
7 -2 3 6644.04 702.852 2
7 -2 4 2364.54 430.262 2
-7 2 -4 2786.08 489.662 1
7 -2 5 215.278 186.423 2
7 -2 6 2566.33 540.706 2
7 -2 7 1362.13 398.853 2
-7 1 6 6812.33 896.249 1
-7 1 5 5085.27 751.320 1
-7 1 4 1134.49 338.928 1
-7 1 3 17245.0 1218.53 1
-7 1 2 -166.467 212.786 1
7 -1 -1 1141.39 178.350 3
-7 1 1 1108.29 314.177 1
7 -1 -1 1120.26 196.208 2
-7 1 0 1821.72 385.977 1
7 -1 0 2420.75 291.313 3
7 -1 1 91.5630 110.385 3
-7 1 -1 135.246 82.2204 3
-7 1 -1 -106.882 183.367 1
7 -1 2 934.249 232.983 3
-7 1 -2 996.391 213.706 3
-7 1 -2 1003.27 276.192 1
-7 1 -3 7860.69 729.263 1
-7 1 -4 1242.97 319.725 1
7 -1 4 1416.28 362.392 2
7 -1 5 241.005 200.100 2
7 -1 6 9045.25 980.216 2
7 -1 7 2499.31 554.693 2
-7 0 7 7698.87 1001.03 1
-7 0 6 2654.23 581.848 1
-7 0 5 610.225 291.484 1
-7 0 4 5309.28 716.473 1
-7 0 3 43501.1 1883.24 1
7 0 -3 41104.4 1080.01 3
7 0 -2 164.794 89.8587 2
7 0 -2 98.8934 83.7272 3
-7 0 2 68.5183 185.032 1
-7 0 1 2609.04 457.080 1
7 0 -1 3074.22 350.704 2
7 0 -1 2831.68 319.102 3
-7 0 0 -74.4024 157.590 1
7 0 0 -72.4266 93.1205 3
-7 0 -1 1757.95 352.581 1
7 0 1 2116.83 324.306 3
-7 0 -1 2391.59 341.706 3
7 0 2 161.825 150.710 3
-7 0 -2 157.303 116.049 3
-7 0 -2 -181.071 138.601 1
-7 0 -3 26460.3 1243.09 1
7 0 3 26011.6 1267.96 3
7 0 4 727.551 253.907 3
-7 0 -4 736.167 226.530 1
7 0 5 3699.71 560.510 3
7 0 6 417.630 242.299 2
7 0 7 3710.30 660.127 2
7 0 8 428.714 237.921 2
-7 -1 7 154.002 215.278 1
-7 -1 6 24638.1 1653.78 1
-7 -1 5 237.699 221.093 1
7 1 -4 -58.8847 56.5918 3
-7 -1 4 58.6804 188.722 1
-7 -1 3 1531.67 358.175 1
7 1 -3 1405.89 259.105 3
7 1 -2 3706.63 412.749 2
-7 -1 2 3883.02 536.224 1
7 1 -2 4034.27 403.848 3
7 1 -1 238.091 121.910 3
-7 -1 1 101.194 170.682 1
7 1 -1 140.314 86.7671 2
-7 -1 0 9769.43 756.588 1
7 1 0 9469.67 668.162 3
-7 -1 -1 3769.43 432.022 3
-7 -1 -1 3969.31 478.823 1
7 1 1 4309.60 478.366 3
-7 -1 -2 8627.50 690.505 3
-7 -1 -2 9479.43 705.223 1
7 1 2 9940.00 756.298 3
7 1 3 433.990 181.730 3
-7 -1 -3 356.926 170.131 1
-7 -1 -4 8172.05 640.673 1
7 1 4 8012.44 780.262 3
7 1 5 3553.14 540.207 3
-7 -1 -5 2896.35 403.657 1
7 1 6 66.1638 164.044 3
7 1 7 1635.81 433.219 3
7 1 8 641.232 296.987 2
-7 -2 7 505.201 254.720 1
-7 -2 6 368.376 292.928 1
7 2 -5 1741.51 325.657 3
-7 -2 5 2824.56 580.185 1
7 2 -4 1752.84 310.575 3
-7 -2 4 1698.31 415.563 1
7 2 -3 28175.4 1185.91 3
-7 -2 3 29068.0 1481.80 1
7 2 -2 383.055 176.243 2
-7 -2 2 225.668 175.722 1
7 2 -2 780.245 198.102 3
7 2 -1 2138.25 351.048 3
7 2 -1 1760.23 323.728 2
-7 -2 1 1755.61 349.088 1
-7 -2 0 8520.69 686.519 1
7 2 0 9254.58 705.290 3
7 2 1 9382.89 736.147 3
-7 -2 -1 10573.1 718.988 1
7 2 2 3740.22 494.697 3
-7 -2 -2 3394.26 396.693 1
-7 -2 -3 1836.26 290.537 1
7 2 3 1733.25 366.890 3
7 2 4 370.442 187.533 3
-7 -2 -4 -8.44575 89.5573 1
-7 -2 -5 10337.7 658.095 1
7 2 5 9710.91 908.344 3
7 2 6 338.432 205.633 3
-7 -2 -6 362.162 155.526 1
7 2 7 488.346 300.130 3
7 2 8 647.947 327.045 3
7 3 -6 20112.1 1206.07 3
-7 -3 5 387.073 275.965 1
7 3 -5 1283.12 313.203 3
-7 -3 4 2318.96 489.663 1
7 3 -4 2254.56 392.740 3
7 3 -3 4760.08 535.640 3
-7 -3 3 5656.65 666.902 1
7 3 -2 11811.9 836.998 3
-7 -3 2 10896.4 855.885 1
7 3 -1 1816.94 333.333 3
-7 -3 1 2115.87 363.443 1
-7 -3 0 -74.9078 119.754 1
7 3 0 -1.00747 108.750 3
7 3 1 363.314 167.398 3
-7 -3 -1 528.294 172.186 1
-7 -3 -2 10765.6 629.902 1
7 3 2 10608.5 834.978 3
7 3 3 33.9718 125.992 3
-7 -3 -3 257.764 103.772 1
-7 -3 -4 19342.9 766.994 1
7 3 4 20629.0 1279.06 3
-7 -3 -5 4478.98 375.809 1
7 3 5 5802.13 712.200 3
7 3 6 4930.83 680.689 3
7 3 7 968.116 356.108 3
7 3 8 871.839 323.920 3
7 4 -6 3699.34 576.473 3
7 4 -5 16758.3 1138.52 3
7 4 -4 3718.43 528.473 3
7 4 -3 66.6529 150.891 3
-7 -4 3 687.185 282.546 1
7 4 -2 1507.20 346.864 3
-7 -4 2 2062.46 389.592 1
7 4 -1 1261.21 329.358 3
7 4 -1 1361.97 276.121 1
-7 -4 1 1400.99 325.982 1
7 4 0 185.986 175.140 3
-7 -4 0 247.775 130.662 1
-7 -4 -1 13493.1 706.632 1
7 4 1 13550.9 975.569 3
7 4 2 2039.69 415.343 3
-7 -4 -2 1718.40 236.763 1
-7 -4 -3 6804.05 374.251 1
7 4 3 7514.51 775.563 3
7 4 4 3321.99 543.941 3
7 4 5 220.914 220.617 3
7 4 6 1533.08 409.811 3
7 4 7 829.680 362.716 3
7 4 8 2285.97 579.656 3
7 5 -7 1721.46 451.119 3
7 5 -6 625.555 264.178 3
7 5 -5 6563.63 777.141 3
7 5 -4 -182.578 173.080 3
7 5 -3 -295.407 208.816 3
7 5 -2 16438.4 1120.32 3
7 5 -1 1625.98 381.390 3
7 5 0 4933.78 627.604 3
7 5 1 2605.98 464.363 3
7 5 2 11694.7 970.491 3
7 5 3 18822.4 1250.81 3
7 5 4 874.438 332.477 3
7 5 5 312.491 232.912 3
7 5 6 501.608 276.493 3
7 5 7 4543.68 720.968 3
7 6 -6 438.140 333.440 3
7 6 -5 3382.30 610.544 3
7 6 -4 2373.54 488.276 3
7 6 -3 1219.32 367.093 3
7 6 -2 7785.10 818.874 3
7 6 -1 821.407 290.210 3
7 6 0 9809.14 927.175 3
7 6 1 1313.03 375.175 3
7 6 2 1714.68 415.718 3
7 6 3 1342.17 400.118 3
7 6 4 762.958 352.233 3
7 6 5 1362.13 405.064 3
7 6 6 5732.06 788.057 3
7 6 7 3214.06 643.130 3
7 7 -4 1010.00 351.627 3
7 7 -3 20369.8 1429.72 3
7 7 -2 -298.734 239.350 3
7 7 -1 -712.148 293.700 3
7 7 0 202.479 209.187 3
7 7 1 1879.20 452.937 3
7 7 2 2228.22 485.512 3
7 7 3 23848.0 1536.57 3
7 7 4 -269.651 214.916 3
7 7 5 749.906 336.399 3
7 7 6 431.207 288.922 3
7 8 -2 -437.065 248.658 3
7 8 -1 6698.32 852.472 3
7 8 0 11332.2 1096.02 3
7 8 1 9065.55 978.140 3
7 8 2 1144.24 364.701 3
7 8 3 8579.40 962.907 3
7 8 4 4051.47 680.251 3
-8 4 1 10023.1 1032.23 1
-8 4 0 1481.89 429.403 1
-8 4 -1 -145.673 202.751 1
-8 4 -2 3793.16 655.045 1
-8 4 -3 9169.84 1006.85 1
-8 3 3 388.120 293.580 1
-8 3 2 -332.641 259.171 1
-8 3 1 1783.60 456.878 1
-8 3 0 2240.02 491.138 1
-8 3 -1 137.595 183.329 1
-8 3 -2 3011.49 572.239 1
-8 3 -3 2355.96 505.232 1
-8 3 -4 1950.69 452.887 1
8 -3 5 1161.51 406.698 2
-8 3 -5 1526.48 423.827 1
8 -3 6 3330.83 650.195 2
-8 2 4 14841.5 1291.98 1
-8 2 3 391.398 275.691 1
-8 2 2 6146.51 803.195 1
-8 2 1 1363.83 394.345 1
-8 2 0 484.224 252.405 1
-8 2 -1 119.176 196.987 1
8 -2 2 2969.82 464.790 2
-8 2 -2 2180.45 485.556 1
8 -2 3 4312.64 597.709 2
-8 2 -3 4441.07 654.421 1
-8 2 -4 8194.88 858.600 1
8 -2 4 8446.14 872.266 2
8 -2 5 -426.491 224.339 2
-8 2 -5 -98.0945 116.382 1
8 -2 6 3476.71 650.300 2
-8 1 5 -81.3267 158.414 1
-8 1 4 22.3038 173.042 1
-8 1 3 3343.66 611.781 1
-8 1 2 875.439 354.513 1
-8 1 1 2137.87 441.946 1
-8 1 0 12760.2 1044.46 1
-8 1 -1 15998.2 1139.21 1
-8 1 -2 1922.35 416.884 1
8 -1 3 2271.79 462.158 2
-8 1 -3 1169.71 333.625 1
8 -1 4 46.4497 114.184 2
-8 1 -4 276.060 204.339 1
8 -1 5 248.362 220.665 2
-8 1 -5 364.664 208.799 1
8 -1 6 -99.2792 214.065 2
-8 1 -6 296.857 204.909 1
-8 0 5 2036.61 496.583 1
-8 0 4 7722.87 902.428 1
-8 0 3 271.701 243.725 1
-8 0 2 4075.06 621.127 1
-8 0 1 8.35773 197.964 1
8 0 0 16536.1 871.235 3
-8 0 0 17299.5 1151.16 1
-8 0 -1 224.156 175.177 1
8 0 1 151.882 136.271 3
8 0 2 4601.21 527.188 3
-8 0 -2 4246.23 559.735 1
8 0 3 322.718 166.479 3
-8 0 -3 343.179 204.008 1
-8 0 -4 8140.94 764.065 1
8 0 4 7329.77 767.810 3
8 0 5 271.312 204.808 3
-8 0 -5 218.129 141.032 1
8 0 6 1387.62 428.023 2
-8 0 -6 1183.96 318.350 1
8 0 7 1036.92 395.551 2
-8 -1 5 381.112 283.467 1
-8 -1 4 374.470 270.778 1
-8 -1 3 7433.90 836.812 1
-8 -1 2 -98.8378 197.711 1
-8 -1 1 3861.55 555.400 1
8 1 -1 3746.98 434.225 3
8 1 0 1275.67 268.041 3
-8 -1 0 1146.23 327.766 1
8 1 1 10749.3 787.903 3
-8 -1 -1 10125.3 821.289 1
-8 -1 -2 631.286 234.791 1
8 1 2 87.7766 125.678 3
8 1 3 4644.81 593.821 3
-8 -1 -3 4782.83 555.263 1
8 1 4 367.796 195.363 3
-8 -1 -4 575.295 213.730 1
-8 -1 -5 10743.2 809.262 1
8 1 5 10419.8 969.866 3
8 1 6 497.988 269.480 3
8 1 7 1762.06 469.011 3
-8 -2 6 9078.89 1076.94 1
-8 -2 5 6136.71 852.431 1
-8 -2 4 -399.635 254.618 1
-8 -2 3 561.102 260.961 1
-8 -2 2 4937.97 637.137 1
8 2 -2 6430.31 589.405 3
-8 -2 1 1106.54 302.529 1
8 2 -1 732.649 236.652 3
-8 -2 0 4013.66 522.460 1
8 2 0 4897.29 541.049 3
8 2 1 704.386 237.118 3
-8 -2 -1 439.160 195.648 1
8 2 2 4893.31 604.473 3
-8 -2 -2 4762.34 516.858 1
-8 -2 -3 1545.72 313.936 1
8 2 3 2451.24 448.112 3
-8 -2 -4 5467.73 535.573 1
8 2 4 5674.52 707.794 3
8 2 5 5240.55 709.113 3
8 2 6 244.181 235.149 3
8 2 7 -68.7791 188.755 3
-8 -3 6 2147.61 570.411 1
-8 -3 5 318.029 246.553 1
-8 -3 4 8435.06 944.704 1
8 3 -3 6399.83 653.719 3
-8 -3 3 5976.41 740.217 1
8 3 -2 1238.61 304.789 3
-8 -3 2 738.110 259.529 1
-8 -3 1 11426.2 885.562 1
8 3 -1 11524.2 875.602 3
8 3 0 178.622 161.128 3
-8 -3 0 151.046 135.448 1
-8 -3 -1 8752.79 690.084 1
8 3 1 7811.81 743.270 3
-8 -3 -2 16074.1 863.586 1
8 3 2 15129.6 1078.58 3
8 3 3 -219.566 209.594 3
8 3 4 -97.9491 149.276 3
8 3 5 6873.39 824.607 3
8 3 6 -408.597 220.915 3
8 3 7 91.8359 128.779 3
8 4 -4 -202.992 175.994 3
8 4 -3 994.755 288.402 3
-8 -4 3 1014.58 340.559 1
8 4 -2 3593.97 541.018 3
-8 -4 2 3328.29 519.828 1
-8 -4 1 13291.7 949.909 1
8 4 -1 12869.4 987.840 3
-8 -4 0 70.4438 97.7576 1
8 4 0 -484.773 209.187 3
8 4 1 181.012 196.127 3
8 4 2 192.405 163.557 3
8 4 3 445.656 241.019 3
8 4 4 7684.35 864.156 3
8 4 5 6869.64 851.284 3
8 4 6 13925.5 1230.93 3
8 5 -5 2075.19 454.210 3
8 5 -4 10122.0 940.029 3
8 5 -3 1169.98 350.729 3
8 5 -2 120.944 194.891 3
8 5 -1 879.006 299.769 3
8 5 0 1372.44 363.648 3
8 5 1 5171.38 682.582 3
8 5 2 15608.4 1177.50 3
8 5 3 -161.121 200.149 3
8 5 4 -430.069 291.191 3
8 5 5 1372.79 423.447 3
8 5 6 11481.6 1140.97 3
8 6 -4 1548.62 373.785 3
8 6 -3 -204.823 179.632 3
8 6 -2 6244.06 793.128 3
8 6 -1 9091.76 924.373 3
8 6 0 2169.59 489.848 3
8 6 1 618.309 292.239 3
8 6 2 2318.80 493.198 3
8 6 3 5974.47 776.294 3
8 6 4 852.444 336.112 3
8 6 5 375.557 280.912 3
8 7 -2 3493.27 614.740 3
8 7 -1 -138.556 221.204 3
8 7 0 18023.8 1370.83 3
8 7 1 1893.96 472.891 3
8 7 2 343.099 271.777 3
8 7 3 -416.604 256.410 3
-9 2 1 1572.32 449.682 1
-9 2 0 228.661 198.312 1
-9 2 -1 7302.91 879.839 1
-9 2 -2 1003.48 306.126 1
-9 2 -3 2640.79 539.990 1
-9 2 -4 -569.786 300.832 1
-9 1 2 7950.81 947.718 1
-9 1 1 284.105 222.841 1
-9 1 0 920.525 303.460 1
-9 1 -1 2434.92 489.673 1
-9 1 -2 346.969 222.107 1
-9 1 -3 214.017 200.039 1
-9 1 -4 6876.58 794.499 1
9 -1 5 -105.313 179.538 2
-9 0 3 1318.35 440.283 1
-9 0 2 2335.21 518.463 1
-9 0 1 297.586 236.246 1
-9 0 0 -253.282 209.108 1
-9 0 -1 2480.90 472.834 1
-9 0 -2 341.144 182.639 1
-9 0 -3 1054.61 309.146 1
9 0 5 4040.89 713.196 2
-9 -1 4 779.412 350.895 1
-9 -1 3 434.523 263.244 1
-9 -1 2 6752.33 814.554 1
-9 -1 1 311.432 194.928 1
-9 -1 0 353.650 202.134 1
-9 -1 -1 3864.84 556.740 1
-9 -1 -2 4430.65 570.479 1
9 1 3 224.320 163.171 3
9 1 4 207.204 167.693 3
9 1 5 849.198 288.801 3
9 1 6 579.532 248.451 3
-9 -2 4 641.914 316.866 1
-9 -2 3 1455.93 421.672 1
-9 -2 2 16511.7 1236.39 1
-9 -2 1 3943.92 591.927 1
-9 -2 0 2965.40 485.436 1
9 2 1 78.0529 105.712 3
-9 -2 -1 248.518 182.220 1
9 2 2 1410.38 317.309 3
9 2 3 131.898 132.306 3
9 2 4 1293.88 350.444 3
9 2 5 2703.94 534.562 3
9 2 6 2575.55 557.653 3
-9 -3 4 7155.24 918.862 1
-9 -3 3 -263.553 241.575 1
-9 -3 2 667.484 279.447 1
9 3 0 31.7649 131.883 3
9 3 1 322.679 166.884 3
9 3 2 1303.53 366.193 3
9 3 3 811.060 301.398 3
9 3 4 1527.50 422.354 3
9 3 5 6694.51 836.839 3
9 4 -1 2972.15 506.455 3
9 4 0 871.532 290.757 3
9 4 1 1829.27 398.784 3
9 4 2 3934.17 613.266 3
9 4 3 872.381 299.504 3
9 4 4 210.002 176.082 3
9 4 5 1278.22 376.173 3
9 5 -2 771.969 347.332 3
9 5 -1 11648.6 1033.37 3
9 5 0 81.9375 165.862 3
9 5 1 2290.74 489.080 3
9 5 2 -313.511 225.489 3
9 5 3 2197.52 479.575 3
9 5 4 -247.371 234.285 3
9 6 -2 1507.19 412.409 3
9 6 -1 2910.91 539.772 3
9 6 0 387.302 196.450 3
9 6 1 1761.13 452.930 3
9 6 2 570.078 273.043 3
-10 0 1 337.526 224.609 1
-10 0 0 -495.027 287.255 1
-10 -1 2 -63.3185 173.439 1
