#------------------------------------------------------------------------------
#$Date: 2019-11-04 11:49:57 +0200 (Mon, 04 Nov 2019) $
#$Revision: 222650 $
#$URL: file:///home/coder/svn-repositories/cod/cif/4/03/40/4034089.cif $
#------------------------------------------------------------------------------
#
# This file is available in the Crystallography Open Database (COD),
# http://www.crystallography.net/
#
# All data on this site have been placed in the public domain by the
# contributors.
#
data_4034089
loop_
_publ_author_name
'Singh, Diksha'
'Kumar, Gangam Srikanth'
'Kapur, Manmohan'
_publ_section_title
;
 Oxazolinyl-Assisted Ru(II)-Catalyzed C-H Allylation with Allyl Alcohols
 and Synthesis of 4-Methyleneisochroman-1-ones.
;
_journal_issue                   20
_journal_name_full               'The Journal of organic chemistry'
_journal_page_first              12881
_journal_page_last               12892
_journal_paper_doi               10.1021/acs.joc.9b01536
_journal_volume                  84
_journal_year                    2019
_chemical_formula_moiety         'C18 H16 Cl N O'
_chemical_formula_sum            'C18 H16 Cl N O'
_chemical_formula_weight         297.77
_space_group_crystal_system      monoclinic
_space_group_IT_number           4
_space_group_name_Hall           'P 2yb'
_space_group_name_H-M_alt        'P 1 21 1'
_atom_sites_solution_hydrogens   difmap
_audit_creation_method           SHELXL-2018/1
_cell_angle_alpha                90
_cell_angle_beta                 98.392(3)
_cell_angle_gamma                90
_cell_formula_units_Z            2
_cell_length_a                   9.5579(8)
_cell_length_b                   7.3213(6)
_cell_length_c                   10.5955(9)
_cell_measurement_reflns_used    4331
_cell_measurement_temperature    140(2)
_cell_measurement_theta_max      29.82
_cell_measurement_theta_min      3.10
_cell_volume                     733.49(11)
_computing_cell_refinement       'Bruker SAINT'
_computing_data_collection       'Bruker APEX2'
_computing_data_reduction        'Bruker SAINT'
_computing_molecular_graphics    'Bruker SHELXTL'
_computing_publication_material  'Bruker SHELXTL'
_computing_structure_refinement  'SHELXL-2018/1 (Sheldrick, 2018)'
_computing_structure_solution    'SHELXT 2014/5 (Sheldrick, 2014)'
_diffrn_ambient_temperature      140(2)
_diffrn_measured_fraction_theta_full 0.999
_diffrn_measured_fraction_theta_max 0.991
_diffrn_measurement_device_type  'Bruker APEX-II CCD'
_diffrn_measurement_method       '\f and \w scans'
_diffrn_radiation_type           MoK\a
_diffrn_radiation_wavelength     0.71073
_diffrn_reflns_av_R_equivalents  0.0557
_diffrn_reflns_av_unetI/netI     0.0872
_diffrn_reflns_Laue_measured_fraction_full 0.999
_diffrn_reflns_Laue_measured_fraction_max 0.991
_diffrn_reflns_limit_h_max       12
_diffrn_reflns_limit_h_min       -13
_diffrn_reflns_limit_k_max       10
_diffrn_reflns_limit_k_min       -10
_diffrn_reflns_limit_l_max       13
_diffrn_reflns_limit_l_min       -14
_diffrn_reflns_number            11703
_diffrn_reflns_point_group_measured_fraction_full 0.998
_diffrn_reflns_point_group_measured_fraction_max 0.981
_diffrn_reflns_theta_full        25.242
_diffrn_reflns_theta_max         30.089
_diffrn_reflns_theta_min         2.682
_exptl_absorpt_coefficient_mu    0.258
_exptl_absorpt_process_details   Multi-scan
_exptl_crystal_colour            white
_exptl_crystal_density_diffrn    1.348
_exptl_crystal_description       plate
_exptl_crystal_F_000             312
_exptl_crystal_size_max          0.08
_exptl_crystal_size_mid          0.07
_exptl_crystal_size_min          0.05
_refine_diff_density_max         0.368
_refine_diff_density_min         -0.430
_refine_diff_density_rms         0.072
_refine_ls_abs_structure_details
;
 Flack x determined using 1074 quotients [(I+)-(I-)]/[(I+)+(I-)]
 (Parsons, Flack and Wagner, Acta Cryst. B69 (2013) 249-259).
;
_refine_ls_abs_structure_Flack   0.44(4)
_refine_ls_extinction_method     none
_refine_ls_goodness_of_fit_ref   0.810
_refine_ls_hydrogen_treatment    refall
_refine_ls_matrix_type           full
_refine_ls_number_parameters     254
_refine_ls_number_reflns         4231
_refine_ls_number_restraints     1
_refine_ls_restrained_S_all      0.810
_refine_ls_R_factor_all          0.0937
_refine_ls_R_factor_gt           0.0549
_refine_ls_shift/su_max          0.001
_refine_ls_shift/su_mean         0.000
_refine_ls_structure_factor_coef Fsqd
_refine_ls_weighting_details
'w=1/[\s^2^(Fo^2^)+(0.1055P)^2^+0.5545P] where P=(Fo^2^+2Fc^2^)/3'
_refine_ls_weighting_scheme      calc
_refine_ls_wR_factor_gt          0.1254
_refine_ls_wR_factor_ref         0.1516
_reflns_Friedel_coverage         0.845
_reflns_Friedel_fraction_full    0.998
_reflns_Friedel_fraction_max     0.968
_reflns_number_gt                3136
_reflns_number_total             4231
_reflns_threshold_expression     'I > 2\s(I)'
_cod_data_source_file            jo9b01536_si_002.cif
_cod_data_source_block           shelx
_cod_original_sg_symbol_H-M      'P 21'
_cod_database_code               4034089
_shelx_shelxl_version_number     2018/1
_shelx_space_group_comment
;
The symmetry employed for this shelxl refinement is uniquely defined
by the following loop, which should always be used as a source of
symmetry information in preference to the above space-group names.
They are only intended as comments.
;
_shelx_res_file
;
TITL F1_a.res in P2(1)
    shelx.res
    created by SHELXL-2018/1 at 10:16:29 on 07-May-2019
CELL  0.71073   9.5579   7.3213  10.5955   90.000   98.392   90.000
ZERR     2.00   0.0008   0.0006   0.0009    0.000    0.003    0.000
LATT  -1
SYMM  - X, 1/2 + Y, - Z
SFAC  C    H    N    O    CL
UNIT  36 32 2 2 2
MERG   2
FMAP   2
PLAN   20
ACTA
BOND   $H
L.S.  10
TEMP  -133.20
WGHT    0.105500    0.554500
FVAR       0.99617
CL1   5    0.737864    0.477159    0.272547    11.00000    0.02813    0.02942 =
         0.01853    0.00036    0.00777   -0.00064
O1    4    0.863933    0.620037    0.627333    11.00000    0.02024    0.02443 =
         0.03333   -0.00495   -0.00066   -0.00176
N1    3    0.882349    0.333676    0.551595    11.00000    0.01628    0.02160 =
         0.03474   -0.00658    0.00060    0.00267
C7    1    0.805837    0.473725    0.562880    11.00000    0.01970    0.01948 =
         0.01550    0.00529    0.00355   -0.00257
C6    1    0.654703    0.488434    0.508213    11.00000    0.01632    0.01292 =
         0.01684    0.00183    0.00120    0.00092
C1    1    0.612212    0.487638    0.376604    11.00000    0.02284    0.01306 =
         0.01733    0.00011    0.00347   -0.00026
C12   1    0.423093    0.572336    0.883554    11.00000    0.01632    0.02143 =
         0.01655    0.00183   -0.00019    0.00045
C18   1    0.265553    0.355620    0.981286    11.00000    0.02164    0.02283 =
         0.01835   -0.00012   -0.00157    0.00217
C2    1    0.470932    0.497718    0.322690    11.00000    0.02542    0.01589 =
         0.01881   -0.00114   -0.00229   -0.00027
C14   1    0.250107    0.677094    1.020096    11.00000    0.02520    0.02725 =
         0.01865   -0.00406   -0.00195    0.00402
C5    1    0.550202    0.501654    0.588424    11.00000    0.01826    0.01448 =
         0.01856   -0.00090    0.00214    0.00152
C11   1    0.476850    0.457137    0.806216    11.00000    0.01949    0.02383 =
         0.01957    0.00243    0.00273    0.00112
C13   1    0.310815    0.531756    0.961446    11.00000    0.01824    0.02618 =
         0.01266    0.00069   -0.00152    0.00093
C4    1    0.409507    0.512826    0.534239    11.00000    0.01583    0.02403 =
         0.02497    0.00073    0.00155    0.00196
C8    1    1.008775    0.565003    0.677601    11.00000    0.01766    0.03513 =
         0.02520   -0.00170   -0.00258   -0.00229
C3    1    0.370486    0.510558    0.402537    11.00000    0.01581    0.02406 =
         0.02629   -0.00015   -0.00518    0.00026
C10   1    0.592760    0.505426    0.732129    11.00000    0.02062    0.02374 =
         0.01859    0.00224    0.00256    0.00034
C17   1    0.160885    0.323526    1.057333    11.00000    0.02126    0.03986 =
         0.02544    0.00576   -0.00076   -0.00820
C15   1    0.146375    0.644470    1.095655    11.00000    0.01907    0.04452 =
         0.02381   -0.00832    0.00161    0.00573
C9    1    1.026070    0.384772    0.613106    11.00000    0.01358    0.04271 =
         0.04625   -0.00525    0.00133    0.00253
C16   1    0.102275    0.467603    1.115188    11.00000    0.01949    0.05681 =
         0.02325    0.00518    0.00625   -0.00490
H11   2    0.458863    0.688347    0.883654    11.00000    0.01031
H1    2    0.445646    0.505443    0.228913    11.00000    0.03234
H5    2    1.070624    0.668061    0.649056    11.00000    0.03372
H10   2    0.435345    0.329191    0.793051    11.00000    0.02411
H15   2    0.137752    0.197165    1.078401    11.00000    0.04669
H2    2    0.279458    0.505876    0.368735    11.00000    0.03209
H3    2    0.334255    0.514377    0.591352    11.00000    0.04360
H9    2    0.628702    0.620595    0.751953    11.00000    0.01627
H6    2    1.063742    0.300569    0.673264    11.00000    0.07235
H12   2    0.277616    0.800847    1.009770    11.00000    0.02919
H16   2    0.306495    0.261338    0.946989    11.00000    0.02673
H4    2    1.010536    0.566425    0.764305    11.00000    0.03225
H8    2    0.669086    0.416233    0.752358    11.00000    0.03837
H13   2    0.109053    0.742025    1.136084    11.00000    0.03405
H14   2    0.033899    0.457801    1.175322    11.00000    0.04723
H7    2    1.085806    0.401829    0.545180    11.00000    0.05647
HKLF    4




REM  F1_a.res in P2(1)
REM R1 =  0.0549 for    3136 Fo > 4sig(Fo)  and  0.0937 for all    4231 data
REM    254 parameters refined using      1 restraints

END

WGHT      0.0455      0.1093

REM Highest difference peak  0.368,  deepest hole -0.430,  1-sigma level  0.072
Q1    1   0.6018  0.5061  0.5471  11.00000  0.05    0.37
Q2    1   0.7300  0.4735  0.5290  11.00000  0.05    0.29
Q3    1   0.5743  0.4971  0.6550  11.00000  0.05    0.27
Q4    1   0.1822  0.7353  1.2349  11.00000  0.05    0.26
Q5    1   0.2391  0.1726  1.1634  11.00000  0.05    0.24
Q6    1   0.8629  0.2885  0.5199  11.00000  0.05    0.24
Q7    1   0.2009  0.5769  0.3826  11.00000  0.05    0.24
Q8    1   0.5397  0.4868  0.3522  11.00000  0.05    0.24
Q9    1   0.3582  0.6824  0.2480  11.00000  0.05    0.24
Q10   1   0.6948  0.2495  0.3343  11.00000  0.05    0.23
Q11   1   0.4068  0.3034  0.7172  11.00000  0.05    0.22
Q12   1   0.6357  0.7775  0.7453  11.00000  0.05    0.22
Q13   1   0.9554  0.4691  0.9028  11.00000  0.05    0.22
Q14   1   1.2212  0.6494  0.6430  11.00000  0.05    0.22
Q15   1   0.1405  0.4990  0.3182  11.00000  0.05    0.22
Q16   1   0.6819  0.2592  0.5310  11.00000  0.05    0.21
Q17   1   0.4473  0.1219  0.8975  11.00000  0.05    0.21
Q18   1   0.0512  0.2009  1.0686  11.00000  0.05    0.21
Q19   1   0.8951  0.5570  0.3516  11.00000  0.05    0.21
Q20   1   0.5495  0.4980  0.9836  11.00000  0.05    0.21
;
_shelx_res_checksum              61959
_shelx_hkl_file
;
   2   0   0   55.89    3.80
  -2   0   0   50.49    4.70
  -3   0   0   27.20    4.00
   3   0   0   30.90    4.00
  -4   0   0   24.10    4.80
   4   0   0   36.10    5.30
   5   0   0    9.80    4.10
  -5   0   0    1.30    4.00
   6   0   0  156.68   11.50
  -6   0   0  136.39   12.40
   7   0   0  631.64   20.10
   7   0   0  680.43   16.70
  -7   0   0  619.24   27.20
   7   0   0  693.83   16.70
   7   0   0  666.63   26.60
   8   0   0  455.05   22.90
   8   0   0  434.56   15.70
  -8   0   0  436.56   25.00
  -9   0   0   -0.10    9.80
   9   0   0    1.10    9.30
   9   0   0    8.00    4.40
  -9   0   0   11.40    5.40
  10   0   0   35.50    5.70
 -10   0   0   26.60   14.40
  10   0   0   31.50    4.50
  11   0   0   26.40    5.40
 -11   0   0   48.90   17.40
  11   0   0   27.80    4.30
 -12   0   0   26.00   20.30
 -13   0   0   17.30   26.60
   0  -1   0  -15.40    0.70
   0  -1   0  -15.80    0.70
   0   1   0  -14.00    0.70
   0   1   0  -14.80    0.70
  -1  -1   0  319.37    9.40
   1  -1   0  334.17    8.70
  -1  -1   0  313.77    9.40
   1  -1   0  330.97    9.50
  -1  -1   0  323.47    9.90
   1   1   0  315.47    9.20
  -1   1   0  325.97    8.70
   1   1   0  338.17    9.50
   1   1   0  324.07    9.80
  -1   1   0  314.87    9.30
   2  -1   0   43.10    2.70
  -2  -1   0   43.20    2.80
   2  -1   0   46.30    3.10
  -2  -1   0   44.00    2.60
  -2  -1   0   43.90    4.30
  -2   1   0   43.90    3.20
   2   1   0   43.80    2.70
   2   1   0   41.70    3.80
   2   1   0   43.00    2.70
   3  -1   0  821.22   23.20
   3  -1   0  799.62   20.80
  -3  -1   0  822.32   21.70
  -3  -1   0  787.62   24.50
   3   1   0  850.01   24.60
   3   1   0  804.32   20.80
  -3   1   0  771.12   23.40
  -4  -1   0   20.30    3.00
   4  -1   0   22.50    3.90
   4  -1   0   21.10    2.60
  -4  -1   0   26.20    5.20
   4   1   0   21.60    2.50
   4   1   0   20.30    4.20
  -4   1   0   25.40    4.90
   5  -1   0   44.30    1.90
  -5  -1   0   40.30    4.40
  -5  -1   0   35.20    6.50
   5  -1   0   44.10    6.20
   5  -1   0   45.50    2.30
   5   1   0   40.00    3.30
  -5   1   0   36.70    6.20
   5   1   0   44.60    7.20
  -6  -1   0    6.70    5.90
   6  -1   0    4.40    0.90
   6  -1   0    2.20    4.00
  -6  -1   0    6.60    3.00
   6  -1   0    4.60    1.30
   6   1   0    4.60    2.00
   6   1   0    0.30    4.60
  -6   1   0    1.20    5.40
  -7  -1   0  317.97   13.40
   7  -1   0  284.77   16.70
   7  -1   0  296.07    8.00
   7  -1   0  296.17    8.50
  -7  -1   0  283.97   18.90
   7   1   0  285.37   17.80
   7   1   0  298.57    9.40
  -7   1   0  268.87   17.60
   8  -1   0   19.00    2.70
  -8  -1   0   10.60    5.10
   8  -1   0   18.30    1.80
  -8  -1   0   14.90    8.60
   8  -1   0    4.90    6.60
   8  -1   0   15.20    2.20
   8   1   0   24.30    5.80
   8   1   0   15.90    8.80
  -8   1   0   17.40    8.80
  -9  -1   0    6.30    9.90
   9  -1   0    1.70    8.90
  -9  -1   0   -7.20    6.00
   9   1   0   18.90    6.10
  -9   1   0    7.90   10.20
   9   1   0    3.40   10.00
  10  -1   0   27.40   13.80
 -10  -1   0   20.70   13.50
  10   1   0   20.80    8.80
 -10   1   0   10.00   13.90
 -11  -1   0   48.70   21.00
  11   1   0   39.50    9.20
 -11   1   0   51.49   17.80
 -12  -1   0   46.40   24.60
 -12   1   0   27.50   22.00
  12   1   0   49.20    8.00
 -13  -1   0   -7.50   28.20
 -13   1   0   11.20   26.90
   0  -2   0 9999.00  231.08
   0  -2   0 9979.70  231.48
   0   2   0 9856.11  231.08
  -1  -2   0 3163.48   76.79
   1  -2   0 3017.30   76.59
  -1  -2   0 3155.08   75.89
  -1  -2   0 3211.18   76.59
  -1   2   0 3189.18   76.79
   1   2   0 3094.59   76.19
   1   2   0 3210.88   75.89
  -1   2   0 3181.48   73.59
  -1   2   0 3275.87   76.79
   1   2   0 3210.38   76.79
  -2  -2   0  114.99    6.90
  -2  -2   0  116.09    6.10
  -2  -2   0  115.39    6.10
   2  -2   0  117.79    4.80
   2  -2   0  113.79    6.10
   2   2   0  115.29    6.50
   2   2   0  119.09    5.90
  -2   2   0  117.99    5.00
  -2   2   0  117.69    5.80
  -3  -2   0  373.86   12.60
  -3  -2   0  392.56   15.50
   3  -2   0  402.06   13.00
  -3  -2   0  399.46   13.40
   3  -2   0  376.66   13.00
  -3   2   0  399.96   13.50
   3   2   0  408.66   15.30
  -3   2   0  399.66   10.10
   3   2   0  390.46   12.70
   3   2   0  410.16   13.20
   4  -2   0  206.38    8.80
  -4  -2   0  217.58    9.50
  -4  -2   0  213.38   12.40
   4  -2   0  220.78   10.00
   4   2   0  214.38    8.90
   4   2   0  213.48    8.60
   4   2   0  211.18   11.80
  -4   2   0  223.58   10.80
  -5  -2   0  128.19   11.30
  -5  -2   0  129.59    8.00
   5  -2   0  138.29    7.20
   5  -2   0  151.18    9.30
   5   2   0  138.59   10.20
   5   2   0  141.79    7.30
  -5   2   0  151.08   10.10
  -6  -2   0  133.49    8.80
   6  -2   0  130.39   10.30
  -6  -2   0  123.09   13.20
   6  -2   0  126.59    7.40
   6   2   0  114.19    7.10
  -6   2   0  100.39   11.20
   6   2   0  130.49   12.10
  -7  -2   0   44.60   10.20
  -7  -2   0   69.19    8.20
   7  -2   0   41.50    7.30
   7  -2   0   56.59    5.90
   7   2   0   41.10    8.80
  -7   2   0   46.80    8.90
   7   2   0   63.89    5.70
  -8  -2   0    9.80   10.60
  -8  -2   0   19.50    6.50
   8  -2   0   37.70    9.10
   8  -2   0   26.70    4.20
   8   2   0   33.10   10.20
  -8   2   0   31.20    9.60
   8   2   0   26.00    3.80
  -9  -2   0   16.60    7.10
   9  -2   0   25.10   10.60
   9  -2   0   23.40    3.90
   9   2   0   28.10    8.20
  -9   2   0   14.80   10.40
   9   2   0   14.60    3.10
   9   2   0   19.20   11.60
 -10  -2   0   -4.10   14.30
  10  -2   0   26.30   13.50
  10   2   0   11.50    8.90
 -11  -2   0  100.59   23.50
  11   2   0  107.49   14.20
 -11   2   0  109.19   21.10
 -12  -2   0  -28.40   23.10
 -12   2   0   13.80   22.40
 -13  -2   0   88.89   49.80
 -13   2   0   10.90   27.20
   0  -3   0   -1.50    2.20
   0  -3   0   -3.60    2.40
   0   3   0   -0.90    1.30
   0   3   0   -1.50    2.50
   0   3   0   -2.80    2.50
   1  -3   0 1016.00   30.80
  -1  -3   0 1129.99   30.90
  -1  -3   0 1086.49   31.00
   1  -3   0 1148.19   30.70
  -1   3   0 1091.99   26.10
  -1   3   0 1118.39   30.90
   1   3   0 1083.49   30.90
  -1   3   0 1056.09   30.90
   1   3   0 1075.29   28.90
   1   3   0 1040.30   30.20
  -2  -3   0  384.96   14.50
  -2  -3   0  381.26   14.50
   2  -3   0  372.26   14.50
  -2  -3   0  372.46   14.10
   2   3   0  384.76   14.50
  -2   3   0  369.86   14.70
  -2   3   0  374.36   14.00
   2   3   0  392.46   14.10
  -2   3   0  398.06   11.10
   2   3   0  397.56   14.10
  -3  -3   0 1029.80   30.70
   3  -3   0 1107.59   28.50
  -3  -3   0 1066.29   32.60
  -3  -3   0 1107.89   31.60
   3  -3   0 1050.99   31.30
   3   3   0 1092.09   31.30
  -3   3   0 1087.99   29.10
   3   3   0 1131.59   32.60
   3   3   0 1105.89   30.50
  -3   3   0 1114.59   30.80
  -3   3   0 1106.29   28.20
  -4  -3   0   40.50    5.10
   4  -3   0   39.40    4.80
  -4  -3   0   40.00    5.90
  -4  -3   0   38.70    6.60
   4  -3   0   37.20    5.70
  -4   3   0   39.60    5.90
  -4   3   0   42.60    2.60
   4   3   0   44.80    5.70
   4   3   0   37.70    5.90
   4   3   0   44.50    5.90
   5  -3   0  293.57   13.10
   5  -3   0  298.07   13.00
  -5  -3   0  288.87   13.80
  -5  -3   0  311.87   17.20
   5   3   0  287.77   12.00
   5   3   0  287.07   15.50
  -5   3   0  309.97   14.10
   5   3   0  295.57   12.90
  -6  -3   0   81.79    8.90
  -6  -3   0   87.09   13.20
   6  -3   0   77.79    8.00
   6  -3   0   79.39    8.70
   6   3   0   75.79   11.40
   6   3   0   80.49    7.80
  -6   3   0   97.69   10.90
   7  -3   0   25.10    7.20
  -7  -3   0   26.60    7.20
  -7  -3   0   22.50    9.40
   7  -3   0   27.60    5.20
   7   3   0   42.10    9.10
  -7   3   0   30.90    8.20
   7   3   0   33.60    5.60
  -8  -3   0  192.88   15.90
   8  -3   0  188.38   11.30
   8  -3   0  193.38   16.40
  -8  -3   0  186.88   19.90
   8   3   0  189.08   10.90
  -8   3   0  164.08   17.40
   8   3   0  184.28   21.30
   9  -3   0   81.59    9.30
   9  -3   0  102.19   15.80
  -9  -3   0   93.29   17.40
  -9  -3   0   63.79   11.90
   9   3   0   95.09   19.00
  -9   3   0   91.89   14.90
   9   3   0   74.99    8.20
 -10  -3   0   62.79   18.40
  10  -3   0   52.09    6.60
  10  -3   0   40.10   13.70
 -10   3   0   59.39   16.10
  10   3   0   59.49   13.30
 -11  -3   0  197.38   28.40
  11   3   0  144.09   19.10
 -11   3   0  216.28   33.70
 -12  -3   0   65.59   26.90
 -12   3   0   82.59   25.70
   0  -4   0 1310.57   37.30
   0  -4   0 1217.18   37.70
   0   4   0 1302.37   32.90
   0   4   0 1369.16   38.40
   0   4   0 1315.27   37.90
  -1  -4   0 1787.02   48.70
   1  -4   0 1796.62   49.60
  -1  -4   0 1767.32   49.40
   1  -4   0 1875.41   48.80
  -1   4   0 1856.61   49.30
   1   4   0 1794.62   48.70
  -1   4   0 1743.73   42.60
   1   4   0 1808.42   45.80
  -1   4   0 1754.52   49.20
  -1   4   0 1781.42   42.40
   1   4   0 1740.13   49.10
  -2  -4   0  136.99    9.90
  -2  -4   0  131.59    9.70
   2  -4   0  130.89    9.70
  -2   4   0  125.29   10.00
   2   4   0  123.49    9.00
  -2   4   0  126.59    9.10
  -2   4   0  126.59    4.80
   2   4   0  139.29    8.50
   2   4   0  129.39    9.40
  -3  -4   0  138.49    9.50
  -3  -4   0  149.39   10.60
   3  -4   0  141.89   10.10
  -3  -4   0  137.39   10.20
   3   4   0  158.38   10.10
  -3   4   0  149.69   10.90
  -3   4   0  146.39    9.60
   3   4   0  158.58    9.70
   3   4   0  170.68   10.70
  -3   4   0  133.69    8.20
   4  -4   0  225.38    9.10
  -4  -4   0  209.48   11.40
  -4  -4   0  217.48   14.00
   4  -4   0  210.68   12.20
  -4  -4   0  226.38   13.00
  -4   4   0  210.48   10.10
  -4   4   0  230.08   13.70
  -4   4   0  214.28    8.70
   4   4   0  236.28   12.80
   4   4   0  206.78   11.10
   4   4   0  233.78   13.50
  -5  -4   0   47.20    8.60
  -5  -4   0   54.49    8.10
   5  -4   0   40.60    6.10
   5  -4   0   49.40    7.30
  -5   4   0   45.70    2.80
  -5   4   0   50.09    6.80
   5   4   0   40.30    7.80
   5   4   0   48.80    7.30
   5   4   0   46.30    7.00
  -5   4   0   46.50    2.70
  -6  -4   0  148.49   12.40
  -6  -4   0  133.49   15.50
   6  -4   0  135.19   11.10
   6  -4   0  149.49   10.50
   6   4   0  114.29   13.70
  -6   4   0  126.19   11.90
   6   4   0  142.29   11.20
   6   4   0  136.99    9.90
  -7  -4   0  130.29   14.70
   7  -4   0  149.49   11.40
   7  -4   0  110.89   13.90
  -7  -4   0  124.49   17.40
   7   4   0  135.69   11.50
   7   4   0  152.78   17.00
  -7   4   0  127.69   14.40
   8  -4   0   17.20    8.00
  -8  -4   0   29.90   10.40
  -8  -4   0   20.70   13.10
   8  -4   0   28.90    7.40
   8   4   0   31.20    7.00
   8   4   0   32.40   12.80
  -8   4   0   22.90   10.10
  -9  -4   0   39.60   16.80
   9  -4   0   43.90    8.30
   9  -4   0   13.80   10.40
   9   4   0   38.70    7.50
  -9   4   0   32.60   12.90
 -10  -4   0   47.50   20.00
  10  -4   0   31.60   14.30
  10  -4   0   45.90    8.40
 -10   4   0   37.30   15.20
  10   4   0   29.30    7.70
 -11  -4   0   58.09   24.90
 -11   4   0   45.60   20.50
 -12  -4   0  -22.70   28.10
 -12   4   0  -15.00   24.60
   0  -5   0    3.40    4.60
   0  -5   0    7.20    4.70
   0   5   0    8.20    2.50
   0   5   0    4.80    5.00
   0   5   0    2.00    5.50
  -1  -5   0  400.56   18.10
   1  -5   0  416.86   17.70
   1  -5   0  388.76   18.70
  -1  -5   0  410.66   18.70
   1   5   0  441.16   19.20
  -1   5   0  421.96   18.80
  -1   5   0  401.26   18.90
   1   5   0  387.66   17.90
   1   5   0  389.46   14.30
  -2  -5   0  184.48   13.40
  -2  -5   0  190.48   12.60
   2  -5   0  175.18   12.50
   2   5   0  177.38   13.00
  -2   5   0  172.78   13.40
   2   5   0  184.08   12.20
   2   5   0  190.18   10.60
  -2   5   0  173.48   12.10
  -3  -5   0   89.69   11.50
   3  -5   0  112.79   10.90
  -3  -5   0  111.69   10.70
  -3   5   0  108.89    4.80
  -3   5   0  130.49    9.60
  -3   5   0  104.09   12.30
  -3   5   0  109.89   10.10
   3   5   0  119.29   11.30
   3   5   0  123.49   10.20
   3   5   0  125.59   10.40
  -4  -5   0   -3.60    5.80
   4  -5   0    6.80    5.60
  -4  -5   0    4.00    4.80
  -4   5   0    0.90    3.20
  -4   5   0    1.50    3.60
   4   5   0    5.60    5.70
   4   5   0    7.80    5.70
   4   5   0    1.00    5.10
  -4   5   0   10.00    6.90
   5  -5   0   97.69   11.40
  -5  -5   0  135.09   13.40
  -5  -5   0  135.69   10.90
   5   5   0  113.49   11.10
   5   5   0  118.29   12.40
  -5   5   0  119.69    6.90
   5   5   0  138.29   13.50
  -5   5   0  118.39    9.70
  -5   5   0  108.69   14.20
   6  -5   0   18.90    6.80
   6  -5   0   28.90    5.90
  -6  -5   0   25.60    8.70
  -6  -5   0   13.90    9.80
   6   5   0   20.10    7.40
  -6   5   0   42.70   10.40
   6   5   0   34.20    9.50
  -6   5   0   27.30    7.30
   6   5   0   19.10    6.20
   7  -5   0   15.30    7.50
   7  -5   0   13.20    6.10
  -7  -5   0   14.60   11.00
  -7  -5   0   25.10   11.50
   7   5   0   30.90    8.10
  -7   5   0   14.80    8.00
   7   5   0   16.40   10.80
  -7   5   0   16.80   17.00
  -8  -5   0  127.29   19.70
   8  -5   0  124.89   15.50
   8  -5   0  168.18   15.60
   8   5   0  101.59   14.40
   8   5   0  107.19   17.90
  -8   5   0  152.28   17.40
   9  -5   0   -2.90   10.80
  -9  -5   0   -3.80   16.10
   9  -5   0   14.40    9.20
  -9   5   0   12.00   11.80
   9   5   0   -0.40    8.60
 -10  -5   0   27.50   21.10
  10  -5   0   -3.60    9.00
 -10   5   0   12.90   15.60
 -11   5   0   -9.60   21.10
   0  -6   0 1442.56   44.60
   0  -6   0 1437.96   46.00
   0   6   0 1427.66   36.20
   0   6   0 1440.96   45.30
   0   6   0 1445.66   45.50
  -1  -6   0  171.68   14.40
   1  -6   0  135.39   12.90
  -1  -6   0  156.78   14.50
   1  -6   0  171.68   14.30
   1   6   0  155.58   14.20
   1   6   0  158.08   14.60
  -1   6   0  156.88   14.20
  -1   6   0  174.08   14.70
   1   6   0  166.68    9.00
  -2  -6   0  217.48   16.30
   2  -6   0  194.88   15.30
  -2  -6   0  188.78   14.90
  -2   6   0  181.68   16.00
  -2   6   0  173.58   14.90
   2   6   0  167.08   14.20
   2   6   0  201.68   11.50
   2   6   0  204.78   15.70
  -3  -6   0  166.38   14.30
  -3  -6   0  186.58   16.70
   3  -6   0  177.68   15.50
  -3   6   0  170.78   14.40
   3   6   0  172.08   15.80
  -3   6   0  168.38   12.90
   3   6   0  162.48   13.50
   3   6   0  173.98   12.50
  -3   6   0  188.88   16.90
  -4  -6   0   -6.10    9.50
   4  -6   0    7.90    7.90
  -4  -6   0   12.50    6.80
  -4   6   0    7.30    5.50
   4   6   0    1.10    6.30
  -4   6   0   20.70    9.70
   4   6   0    7.00    7.00
   4   6   0    2.80    7.80
  -5  -6   0   43.90    8.60
   5  -6   0   49.30    9.90
  -5  -6   0   42.30   11.10
   5   6   0   56.59   10.10
   5   6   0   43.80   10.40
  -5   6   0   48.50    6.00
   5   6   0   45.80    8.40
  -5   6   0   38.70    6.60
  -5   6   0   34.60   11.30
  -6  -6   0   59.89   13.80
   6  -6   0   50.79   10.60
  -6   6   0   50.79    4.90
  -6   6   0   80.89   14.90
   6   6   0   76.89   12.40
  -6   6   0   51.79    5.00
   6   6   0   50.39   13.80
   6   6   0   53.59   11.10
  -6   6   0   64.79   10.20
   7  -6   0    9.60    9.10
  -7   6   0    7.50    8.20
   7   6   0    1.20    7.10
   7   6   0  -15.10   12.10
   7   6   0    1.50   10.10
  -7   6   0   16.90   11.70
   8  -6   0   69.79   13.50
   8   6   0   99.99   14.20
  -8   6   0   70.29   12.20
  -8   6   0   82.09   18.10
   9  -6   0   22.80   11.90
  -9   6   0   22.20   18.30
  -9   6   0   40.90   13.80
 -10   6   0   81.69   22.00
 -10   6   0   79.59   18.40
   0  -7   0    3.60    8.60
   0  -7   0   -0.30    7.90
   0   7   0    8.70    8.10
   0   7   0    6.80    9.30
  -1  -7   0  420.66   22.60
   1  -7   0  371.76   22.20
  -1  -7   0  360.26   21.80
   1   7   0  432.76   23.60
   1   7   0  347.77   13.70
   1   7   0  354.36   21.10
  -1   7   0  358.86   23.10
  -1   7   0  329.67   22.10
  -2  -7   0   41.80   12.90
  -2  -7   0   19.40    7.90
   2  -7   0   26.10    8.90
  -2   7   0   28.70    9.30
  -2   7   0   15.10   10.00
   2   7   0   24.50   10.60
  -2   7   0    7.60    9.80
   2   7   0    7.90    5.40
   2   7   0   17.30    8.60
  -3  -7   0   44.40   11.70
  -3  -7   0   48.20   10.80
   3  -7   0   57.19   11.90
  -3   7   0   54.89    9.50
   3   7   0   57.89   10.70
   3   7   0   47.50    8.70
  -3   7   0   35.80   11.20
   3   7   0   24.50   11.70
  -4  -7   0   43.00   13.10
  -4  -7   0   28.40   10.40
   4   7   0   28.50   16.00
   4   7   0   20.50    9.80
  -4   7   0   34.30   11.90
  -4   7   0   36.60    8.80
   4   7   0   43.70   12.20
   5  -7   0   26.70   10.60
   5   7   0   15.30    8.70
  -5   7   0   16.00    6.60
   5   7   0  -18.20    9.70
  -5   7   0    3.20   10.50
   5   7   0   -3.90   11.70
   6  -7   0    2.90    9.20
  -6   7   0    9.50    4.70
  -6   7   0    2.80    4.30
   6   7   0   -4.30   12.50
   6   7   0   28.20   12.60
  -6   7   0  -18.20   12.20
   7  -7   0   41.60   13.30
  -7   7   0   12.30   16.70
   7   7   0   45.40   11.20
   7   7   0   15.30   16.00
   8  -7   0   26.00   13.40
  -8   7   0   23.80   18.20
   9  -7   0    0.40   14.20
  -9   7   0   67.19   23.60
   0  -8   0  338.77   24.90
   0   8   0  356.16   25.30
  -1  -8   0   68.39   12.80
   1  -8   0   83.29   14.30
   1   8   0   54.69    6.60
  -1   8   0   72.39   15.20
   1   8   0   40.20   12.60
  -1   8   0   51.09   14.70
   2  -8   0   48.00   13.20
  -2  -8   0   18.10   11.00
  -2   8   0   44.50   15.00
   2   8   0   21.90   11.80
   2   8   0   28.50    6.70
  -2   8   0   36.60   12.80
  -3  -8   0   20.20   10.50
   3  -8   0   33.70   12.90
   3   8   0   20.30   11.70
  -3   8   0   26.10   11.60
  -3   8   0   21.80   14.90
   4  -8   0   37.50   14.10
  -4  -8   0   46.70   12.60
   4   8   0   23.40    9.90
  -4   8   0   10.80   10.00
   4   8   0   49.90   13.10
  -4   8   0    0.00   13.80
   5  -8   0   18.20   12.80
   5   8   0    6.60   11.30
  -5   8   0   -2.20   14.80
   5   8   0   -7.10   11.60
  -5   8   0   24.20    9.90
   6  -8   0   40.30   14.70
  -6   8   0   18.70    6.60
   6   8   0   30.40   12.00
  -6   8   0   31.30   19.20
   6   8   0  -20.40   15.10
   7  -8   0   -4.30   17.10
   7   8   0   -6.70   12.40
  -7   8   0   -0.60   17.00
   8  -8   0   39.40   18.70
  -8   8   0   48.70   24.60
   8   8   0   31.50   12.80
   0  -9   0  -21.70   12.10
   0   9   0   -5.00   14.40
  -1  -9   0  109.99   18.20
   1  -9   0   96.29   17.30
  -1   9   0   88.09   20.20
   1   9   0  124.59   18.70
   2  -9   0   31.30   15.20
  -2  -9   0    5.70   12.90
   2   9   0   38.60   16.20
  -2   9   0    5.30   16.40
  -3  -9   0   30.20   15.00
   3  -9   0   41.50   16.50
  -3   9   0   27.40   16.60
  -3   9   0   32.30   18.90
   3   9   0   27.40   15.10
  -4  -9   0   32.70   15.10
   4  -9   0    2.80   16.30
   4   9   0  -18.00   14.20
  -4   9   0   17.30   20.40
   5  -9   0   30.80   17.60
   5   9   0  -13.10   15.00
  -5   9   0   31.00   21.50
   6  -9   0   23.60   20.70
   6   9   0   15.30   15.40
  -6   9   0   15.60   22.60
   0 -10   0   60.99   20.70
   0  10   0  105.59   22.70
  -1 -10   0   26.60   18.00
   1 -10   0   65.69   21.90
  -1  10   0   36.00   23.20
   1  10   0   34.10   20.70
   2 -10   0   -8.20   17.90
  -2 -10   0   55.09   22.10
   2  10   0   57.29   20.60
  -2  10   0   22.30   22.30
   3 -10   0   20.20   20.80
  -3 -10   0   16.00   17.30
  -3  10   0   23.60   23.90
   3  10   0   25.70   20.70
 -13   0   1   38.10   24.80
 -12   0   1   16.50   20.40
  11   0  -1   -2.30    3.30
 -11   0   1   -6.60   16.40
  11   0  -1    0.30    5.80
  10   0  -1   -6.50   12.50
 -10   0   1   -3.40   13.00
  10   0  -1    7.30    3.30
  10   0  -1   -6.60    4.70
   9   0  -1  112.89    9.80
   9   0  -1   99.49    7.00
   9   0  -1  108.49   16.90
  -9   0   1  116.99   18.80
   9   0  -1  117.89    6.20
  -8   0   1  239.18   19.20
   8   0  -1  230.28   17.80
   8   0  -1  210.58    9.20
  -7   0   1  124.59   13.90
   7   0  -1  117.49   11.90
  -6   0   1   71.59   10.30
   5   0  -1 2762.22   71.49
  -5   0   1 2666.03   71.59
  -4   0   1    4.50    3.40
   4   0  -1    2.10    2.50
   3   0  -1  585.54   18.70
  -3   0   1  596.44   18.80
   2   0  -1   53.39    3.90
  -2   0   1   44.60    4.40
   2   0  -1   53.19    2.40
  -1   0   1   45.80    1.90
   1   0  -1   41.30    1.80
  -1   0  -1  114.29    4.00
  -1   0  -1  105.69    4.60
   1   0   1  114.89    4.80
   1   0   1  113.19    3.90
   2   0   1 3409.36   79.19
  -2   0  -1 3374.96   81.49
   2   0   1 3432.86   81.49
  -2   0  -1 3289.47   79.39
  -3   0  -1 1947.91   51.29
   3   0   1 1987.50   47.90
   3   0   1 1997.10   50.89
   4   0   1 1603.94   38.70
   4   0   1 1504.95   42.30
  -4   0  -1 1512.85   43.10
   5   0   1  168.38   10.20
  -5   0  -1  172.38   11.60
   5   0   1  174.78    7.60
   6   0   1   -3.40    4.30
   6   0   1   -0.30    2.50
  -6   0  -1    7.20    5.60
   7   0   1    4.30    2.80
   7   0   1    5.80    5.40
  -7   0  -1    0.20    6.60
   8   0   1    7.20    3.50
   8   0   1   18.70    8.10
  -8   0  -1    6.40    4.60
  -8   0  -1    5.10   10.30
   9   0   1    6.60    4.00
  -9   0  -1  -14.20    9.90
  -9   0  -1   -3.00    5.40
   9   0   1  -14.10    9.40
 -10   0  -1   37.10   14.40
  10   0   1   54.69    7.20
 -11   0  -1   25.00   18.90
  11   0   1   14.90    4.70
  11   0   1   24.20    4.80
 -12   0  -1  154.28   27.00
 -13   0  -1  129.79   32.80
 -13  -1   1   30.00   28.60
 -13   1   1   17.80   25.80
 -12  -1   1  -15.80   21.20
  12   1  -1    0.40    6.10
 -12   1   1   28.00   20.20
 -11  -1   1  173.28   25.70
  11   1  -1  158.48   11.80
 -11   1   1  170.98   23.90
  10  -1  -1   62.19   13.80
 -10  -1   1   86.59   16.90
  10   1  -1   92.79    5.50
  10   1  -1   94.99   10.90
   9  -1  -1   99.09    3.80
  -9  -1   1  103.19   10.70
   9  -1  -1  103.89    4.90
   9  -1  -1   92.09    6.90
  -9  -1   1  110.79   16.20
   9  -1  -1  105.49   16.00
   9   1  -1   94.29    6.90
   9   1  -1   93.79   13.90
  -9   1   1  143.69   18.70
   8  -1  -1  240.98    9.60
  -8  -1   1  219.38   18.10
   8  -1  -1  206.38    7.10
   8  -1  -1  241.88   16.90
   8  -1  -1  230.98    8.30
  -8  -1   1  239.38   12.30
  -8   1   1  237.58   18.30
   8   1  -1  238.08    9.70
   8   1  -1  237.28   18.50
   7  -1  -1   38.60    7.60
   7  -1  -1   44.80    2.70
  -7  -1   1   37.00    8.70
  -7  -1   1   39.60    6.10
  -7   1   1   38.20    8.90
   7   1  -1   49.00    8.70
   7   1  -1   45.00    4.70
   6  -1  -1    3.10    1.00
   6  -1  -1    3.10    4.30
  -6  -1   1    4.50    5.70
  -6  -1   1   -0.50    3.10
  -6   1   1    6.80    4.70
   6   1  -1   -1.60    4.90
   5  -1  -1  141.79    4.60
   5  -1  -1  148.39    9.50
  -5  -1   1  141.79   11.00
  -5  -1   1  155.98    7.20
   5   1  -1  156.68   10.80
  -5   1   1  148.79   10.50
  -4  -1   1  312.47   10.30
  -4  -1   1  292.97   13.80
   4  -1  -1  302.87   12.50
   4  -1  -1  301.17    8.00
  -4   1   1  291.67   12.80
   4   1  -1  308.97   13.60
  -3  -1   1    8.40    1.70
   3  -1  -1    5.70    2.10
  -3  -1   1    5.20    3.00
   3  -1  -1    8.30    1.10
   3   1  -1   10.90    2.90
  -3   1   1    9.80    1.20
  -3   1   1    7.90    2.70
   2  -1  -1 2962.40   68.99
  -2  -1   1 2810.62   69.59
  -2  -1   1 2892.31   72.19
   2  -1  -1 2984.30   70.79
  -2   1   1 3077.89   70.79
   2   1  -1 3048.09   72.49
  -1  -1   1 3234.48   74.79
  -1   1   1 3140.19   76.19
   1   1  -1 3247.68   74.59
  -1   1   1 3197.68   74.79
   0  -1  -1   35.70    1.90
   0  -1   1   34.90    2.00
   0  -1   1   35.10    2.30
   0  -1  -1   35.00    2.60
   0  -1  -1   33.80    2.60
   0   1   1   37.30    2.70
   0   1   1   34.40    1.80
   0   1  -1   32.00    2.40
   0   1  -1   34.20    2.00
   0   1   1   37.40    2.60
  -1  -1  -1 2723.63   65.49
   1  -1   1 2808.62   64.99
  -1  -1  -1 2699.23   64.69
   1  -1   1 2744.63   64.79
   1   1   1 2787.92   65.89
  -1   1  -1 2645.64   64.79
   1   1   1 2831.02   65.49
  -1   1  -1 2684.13   64.99
   2  -1   1  936.61   22.70
   2  -1   1  960.50   24.00
  -2  -1  -1  964.50   26.60
  -2  -1  -1  981.10   24.00
  -2  -1  -1  960.00   24.90
   2  -1   1  975.10   25.60
  -2   1  -1  962.20   22.70
   2   1   1  965.70   26.30
  -2   1  -1  952.30   25.70
  -2   1  -1  958.90   24.10
   2   1   1  918.11   23.60
   2   1   1  939.31   24.50
   2   1   1  919.51   25.60
  -3  -1  -1    5.00    1.20
   3  -1   1    5.50    2.00
   3  -1   1    3.10    1.20
  -3  -1  -1    2.60    1.50
  -3  -1  -1    2.40    2.60
   3  -1   1    3.90    0.60
   3   1   1    4.40    1.10
   3   1   1    4.70    2.30
  -3   1  -1    3.20    1.20
  -3   1  -1    3.50    0.90
  -3   1  -1    4.60    2.50
   4  -1   1   30.70    1.60
  -4  -1  -1   27.70    3.50
   4  -1   1   26.70    4.50
   4  -1   1   28.20    2.50
  -4  -1  -1   33.80    6.10
   4   1   1   32.70    5.20
  -4   1  -1   26.60    5.00
   4   1   1   28.60    4.50
   4   1   1   30.40    2.20
   5  -1   1  498.05   18.50
  -5  -1  -1  449.66   15.20
   5  -1   1  440.66   12.10
   5  -1   1  457.15   11.60
  -5  -1  -1  434.46   19.50
   5   1   1  430.56   18.40
   5   1   1  464.95   16.20
  -5   1  -1  420.56   18.40
   6  -1   1  965.10   32.00
  -6  -1  -1  912.61   33.40
  -6  -1  -1  956.40   28.00
   6  -1   1  971.80   23.30
   6   1   1  964.60   28.60
  -6   1  -1  908.01   32.70
   6   1   1  967.80   32.80
  -7  -1  -1   31.50    5.60
  -7  -1  -1   23.90    8.60
   7  -1   1   43.10    8.10
   7  -1   1   36.80    2.50
  -7   1  -1   37.90    9.10
   7   1   1   20.40    7.40
   7   1   1   29.40    5.50
   8  -1   1   66.29   11.30
   8  -1   1   72.89    3.10
  -8  -1  -1   71.09    8.40
  -8  -1  -1   67.49   12.80
   8   1   1   49.50   11.10
   8   1   1   75.19    9.30
  -8   1  -1   59.49   12.60
   9  -1   1   86.59   13.70
  -9  -1  -1   77.39   11.90
  -9  -1  -1   86.19   16.10
   9   1   1   93.09   13.70
   9   1   1   99.79   11.40
  -9   1  -1   86.29   15.40
 -10  -1  -1   59.09   15.30
  10   1   1   44.30    8.60
 -10   1  -1   74.89   16.30
 -11  -1  -1   19.10   20.20
 -11   1  -1   51.59   18.10
 -12  -1  -1   66.29   26.00
 -12   1  -1   53.49   23.00
 -13  -1  -1   43.20   30.10
 -13   1  -1  -28.40   26.10
 -13   2   1    9.50   27.60
 -12  -2   1   59.99   23.90
 -12   2   1   11.30   20.30
 -11  -2   1    4.00   17.30
  11   2  -1   14.20   12.30
 -11   2   1   15.90   16.00
 -10  -2   1  116.49   20.10
  10  -2  -1  102.59    8.80
  10  -2  -1  105.09   15.60
  10   2  -1   90.09    8.30
 -10   2   1   94.59   16.10
   9  -2  -1  179.08   16.80
  -9  -2   1  197.78   29.50
   9  -2  -1  181.78   10.50
  -9  -2   1  160.78   14.10
   9   2  -1  173.38   10.10
   9   2  -1  172.88   20.20
  -9   2   1  192.28   20.20
   8  -2  -1  204.78   10.60
  -8  -2   1  217.78   13.00
   8  -2  -1  186.18   15.50
  -8  -2   1  202.88   19.00
   8   2  -1  208.08   10.40
  -8   2   1  210.58   17.50
   8   2  -1  191.38   16.90
  -7  -2   1  135.09   15.40
   7  -2  -1  133.29   11.70
   7  -2  -1  122.89    8.10
  -7  -2   1  117.89    9.30
  -7   2   1  124.19   13.70
   7   2  -1  147.69   13.50
   7   2  -1  121.29    8.10
  -6  -2   1   45.70    8.70
  -6  -2   1   49.70    6.20
   6  -2  -1   39.30    6.70
   6  -2  -1   54.99    5.90
   6   2  -1   56.39    5.80
   6   2  -1   52.19    8.90
  -6   2   1   56.89    9.10
   5  -2  -1  902.21   25.90
  -5  -2   1  866.61   31.00
  -5  -2   1  950.90   26.50
   5  -2  -1  891.71   27.90
   5   2  -1  901.21   30.70
  -5   2   1  886.61   28.50
   5   2  -1  940.91   26.00
  -4  -2   1   76.89    5.50
   4  -2  -1   86.29    6.30
  -4  -2   1   72.89    8.40
   4  -2  -1   87.39    5.80
   4   2  -1   83.69    7.50
  -4   2   1   85.99    2.80
   4   2  -1   81.39    5.70
  -4   2   1   84.09    6.80
   3  -2  -1  559.94   17.10
  -3  -2   1  544.85   16.60
   3  -2  -1  565.84   16.50
  -3  -2   1  513.35   18.80
   3   2  -1  576.84   19.50
  -3   2   1  552.74   14.10
   3   2  -1  555.84   17.10
  -3   2   1  559.54   16.80
   3   2  -1  544.55   15.80
  -2  -2   1  139.49    6.40
   2  -2  -1  144.39    6.90
   2  -2  -1  141.09    5.20
   2   2  -1  140.79    6.10
   2   2  -1  134.79    7.30
  -2   2   1  144.39    7.40
  -2   2   1  140.49    5.20
  -2   2   1  139.69    5.50
   2   2  -1  133.29    6.70
   1  -2  -1  254.37    9.70
   1  -2  -1  247.28    9.40
  -1  -2   1  240.88    9.20
  -1  -2   1  249.38    8.90
  -1   2   1  250.17    8.90
   1   2  -1  243.58    8.70
  -1   2   1  251.37   10.00
   1   2  -1  258.17    9.70
   0  -2   1 2572.64   62.79
   0  -2  -1 2661.13   63.99
   0  -2  -1 2588.64   63.89
   0  -2   1 2615.14   63.79
   0  -2  -1 2579.64   61.09
   0   2   1 2650.43   64.19
   0   2  -1 2660.23   64.09
   0   2   1 2635.34   60.89
   0   2   1 2622.74   63.89
   0   2  -1 2513.15   62.89
   0   2   1 2555.24   63.39
  -1  -2  -1 1815.62   46.90
  -1  -2  -1 1668.13   47.60
   1  -2   1 1842.42   47.00
  -1  -2  -1 1906.91   47.50
  -1   2  -1 1896.81   45.40
  -1   2  -1 1968.60   47.40
  -1   2  -1 1886.81   46.70
   1   2   1 1935.21   46.10
   1   2   1 1892.31   47.10
   1   2   1 1891.21   46.70
  -2  -2  -1   89.39    5.30
  -2  -2  -1   93.59    6.30
   2  -2   1   83.19    4.70
  -2  -2  -1   84.19    5.60
   2  -2   1   92.49    5.50
   2   2   1   93.09    5.90
  -2   2  -1   86.19    5.30
   2   2   1   84.89    5.10
  -2   2  -1   90.19    5.10
  -3  -2  -1  877.81   24.90
   3  -2   1  895.41   24.70
   3  -2   1  837.92   23.80
  -3  -2  -1  843.72   23.70
  -3  -2  -1  846.82   26.70
  -3   2  -1  823.02   23.50
  -3   2  -1  867.31   20.60
   3   2   1  858.81   23.90
   3   2   1  887.91   26.40
  -3   2  -1  855.91   24.80
   3   2   1  857.61   23.50
  -4  -2  -1  100.29    8.80
  -4  -2  -1  110.09    5.70
   4  -2   1   99.49    6.00
  -4  -2  -1  109.09    7.20
   4  -2   1  106.29    7.10
   4   2   1  103.79    8.50
   4   2   1  105.99    6.30
  -4   2  -1  105.99    8.10
   4   2   1  102.79    5.80
  -5  -2  -1   83.79    8.80
   5  -2   1   90.99    8.10
   5  -2   1   92.99    5.90
  -5  -2  -1   95.09   10.40
   5   2   1   96.89    5.50
  -5   2  -1   77.09    8.70
  -6  -2  -1   27.00    8.10
   6  -2   1   30.70    4.50
  -6  -2  -1   26.70    5.10
   6   2   1   28.80    3.80
  -6   2  -1   20.50    6.50
   6   2   1   22.30    6.20
  -7  -2  -1   40.50   10.20
   7  -2   1   58.99    9.00
   7  -2   1   45.80    4.80
  -7  -2  -1   64.59    8.10
   7   2   1   54.69   10.50
  -7   2  -1   44.30    8.60
   7   2   1   41.40    7.40
   8  -2   1   51.79   10.20
  -8  -2  -1   65.99    9.10
  -8  -2  -1   57.09   13.00
  -8   2  -1   52.39   12.40
   8   2   1   33.70   10.20
   8   2   1   65.09    9.30
  -9  -2  -1  189.88   15.90
  -9  -2  -1  184.08   22.00
   9  -2   1  180.08   19.20
   9   2   1  129.29   18.20
   9   2   1  134.09   15.20
  -9   2  -1  212.98   21.50
 -10  -2  -1   18.20   16.40
  10  -2   1   22.30   13.40
 -10   2  -1   10.80   13.70
  10   2   1   10.70    8.70
 -11  -2  -1  103.79   23.30
 -11   2  -1  113.99   21.70
  11   2   1   81.59   13.70
 -12  -2  -1    9.30   25.60
 -12   2  -1   -5.40   21.40
 -12   3   1   51.49   23.50
 -11  -3   1   26.00   21.00
  11  -3  -1   18.40    6.30
  11   3  -1   52.29   16.00
 -11   3   1   28.20   17.20
  10  -3  -1   75.19   11.00
 -10  -3   1   54.69   17.50
  10  -3  -1   71.89   15.40
  10   3  -1   74.29   10.40
 -10   3   1   79.59   16.90
   9  -3  -1   13.80    6.00
  -9  -3   1    3.10   12.30
   9  -3  -1    2.80    8.60
  -9  -3   1    4.90    8.90
  -9   3   1   24.20   10.70
   9   3  -1   15.00    6.30
   9   3  -1   20.10   13.70
   8  -3  -1  590.24   21.70
   8  -3  -1  591.24   25.20
  -8  -3   1  611.04   24.80
  -8  -3   1  595.44   31.00
  -8   3   1  586.34   27.30
   8   3  -1  604.34   21.40
   8   3  -1  609.84   30.60
  -7  -3   1  281.67   20.90
   7  -3  -1  281.17   13.80
  -7  -3   1  294.47   15.70
   7  -3  -1  264.17   15.80
  -7   3   1  304.57   17.30
   7   3  -1  267.77   19.40
   7   3  -1  297.47   13.70
   6  -3  -1  494.25   18.90
   6  -3  -1  448.96   18.00
  -6  -3   1  469.05   22.80
  -6  -3   1  489.35   19.00
   6   3  -1  473.65   18.00
   6   3  -1  522.75   23.40
  -6   3   1  481.25   20.20
   5  -3  -1  313.67   13.00
   5  -3  -1  294.67   13.40
  -5  -3   1  289.47   16.80
   5   3  -1  299.17   11.80
   5   3  -1  312.07   13.60
  -5   3   1  290.37   13.80
   5   3  -1  320.17   17.00
  -4  -3   1    3.80    4.20
   4  -3  -1    1.40    2.20
   4  -3  -1   -1.00    2.80
  -4  -3   1    0.10    3.00
   4   3  -1    0.90    2.40
  -4   3   1   -0.20    1.10
   4   3  -1    4.30    3.20
  -4   3   1    2.90    2.90
   4   3  -1   -1.30    3.80
  -3  -3   1  179.38    9.40
   3  -3  -1  197.98    7.20
   3  -3  -1  187.58    9.90
  -3   3   1  194.38   10.80
  -3   3   1  195.98    7.40
   3   3  -1  198.98    8.80
   3   3  -1  191.58   10.70
  -3   3   1  197.48    7.50
   3   3  -1  192.08   10.00
  -2  -3   1   11.20    2.90
  -2  -3   1    8.00    2.70
   2  -3  -1    6.40    3.10
   2   3  -1    6.10    3.10
  -2   3   1    5.60    2.20
   2   3  -1    8.90    3.30
   2   3  -1    6.60    2.90
  -2   3   1   12.90    4.10
  -1  -3   1  283.97   11.60
   1  -3  -1  266.67   11.60
  -1  -3   1  275.47   10.90
   1  -3  -1  268.07   11.40
   1   3  -1  271.07   11.60
   1   3  -1  261.77   10.70
  -1   3   1  255.57   11.00
  -1   3   1  266.87   12.20
   1   3  -1  268.07   10.40
  -1   3   1  261.47   10.70
   0  -3   1  979.10   27.00
   0  -3  -1  951.10   28.30
   0  -3  -1  965.50   28.10
   0  -3   1  946.11   28.00
   0   3   1  937.81   27.50
   0   3   1  971.70   23.80
   0   3  -1  971.70   28.30
   0   3  -1  955.80   27.40
  -1  -3  -1   58.79    5.80
  -1  -3  -1   67.09    6.50
   1  -3   1   62.59    5.50
  -1  -3  -1   56.79    4.80
  -1   3  -1   57.49    6.00
   1   3   1   65.19    5.50
  -1   3  -1   57.79    6.00
   1   3   1   57.49    6.00
   1   3   1   58.09    4.30
  -1   3  -1   57.89    4.50
  -2  -3  -1 1080.89   31.30
  -2  -3  -1 1074.99   30.70
   2  -3   1 1074.99   30.80
  -2  -3  -1 1024.00   30.50
   2   3   1 1075.09   30.60
   2   3   1 1079.39   30.30
  -2   3  -1 1079.39   28.20
   2   3   1 1098.29   30.20
  -2   3  -1 1063.89   30.80
  -2   3  -1 1064.19   30.70
  -3  -3  -1   38.90    6.10
  -3  -3  -1   33.90    5.20
   3  -3   1   34.60    5.20
   3  -3   1   36.30    4.20
  -3  -3  -1   29.50    5.50
   3   3   1   35.20    4.80
  -3   3  -1   38.80    5.20
   3   3   1   35.90    5.40
   3   3   1   40.80    6.10
  -3   3  -1   44.60    4.90
   4  -3   1  212.98   10.00
  -4  -3  -1  218.58   13.60
  -4  -3  -1  205.38   10.00
   4  -3   1  204.68   10.30
  -4   3  -1  221.28    6.20
   4   3   1  224.38   10.30
   4   3   1  214.98   10.30
   4   3   1  214.78   12.20
  -4   3  -1  220.38   11.10
  -4   3  -1  216.08   10.00
   5  -3   1   75.69    7.00
   5  -3   1   83.99    7.90
  -5  -3  -1   74.29   10.60
  -5  -3  -1   83.09    8.80
  -5  -3  -1   69.19    6.30
   5   3   1   76.79    9.60
  -5   3  -1   64.59    8.20
   5   3   1   63.19    6.70
   5   3   1   73.79    6.70
  -6  -3  -1   13.10    7.30
   6  -3   1   16.20    5.60
  -6  -3  -1   31.00    6.50
   6  -3   1   30.00    5.00
   6   3   1   27.00    4.40
  -6   3  -1   25.70    7.10
   6   3   1   24.50    7.70
   7  -3   1  138.59   13.20
   7  -3   1  150.18    9.50
  -7  -3  -1  164.88   13.30
  -7  -3  -1  149.79   16.90
  -7   3  -1  154.88   14.80
   7   3   1  142.79    8.60
   7   3   1  197.88   15.40
   7   3   1  199.08   16.10
  -8  -3  -1   28.20    9.60
   8  -3   1   24.50    5.10
  -8  -3  -1   24.50   12.10
   8  -3   1   13.10    8.20
   8   3   1    6.10   10.20
  -8   3  -1   13.90    9.70
   8   3   1   18.50    8.00
  -9  -3  -1  132.99   20.60
   9  -3   1  106.39   17.60
   9  -3   1  145.79    8.80
  -9   3  -1  132.49   20.60
   9   3   1  166.28   17.50
  10  -3   1   44.90   15.50
 -10  -3  -1   44.50   18.80
  10   3   1   58.69   13.10
 -10   3  -1   41.10   15.50
 -11  -3  -1   78.69   24.20
  11   3   1   66.59   16.10
 -11   3  -1   78.19   22.10
 -12  -3  -1   27.10   26.90
 -12   3  -1   68.49   24.70
 -12   4   1  -21.10   21.70
  11  -4  -1   27.50    9.70
 -11   4   1  -20.60   15.10
  10  -4  -1   87.59   11.60
  10  -4  -1  101.19   15.80
 -10   4   1  113.99   17.70
  10   4  -1  109.99   15.30
   9  -4  -1   14.20    7.10
   9  -4  -1    1.90    9.20
  -9  -4   1   10.30   14.40
  -9   4   1   12.50   11.30
   9   4  -1   20.10    8.50
  -8  -4   1  141.99   21.50
  -8  -4   1  141.29   16.80
   8  -4  -1  101.79   12.50
   8  -4  -1  132.09   13.80
   8   4  -1  109.69   13.40
   8   4  -1  161.08   21.30
  -8   4   1  112.19   16.80
  -7  -4   1  193.38   20.10
  -7  -4   1  145.69   14.40
   7  -4  -1  159.18   12.70
   7  -4  -1  159.18   12.10
   7   4  -1  189.58   16.90
   7   4  -1  167.08   13.40
  -7   4   1  153.88   14.10
   6  -4  -1  135.09   11.40
   6  -4  -1  126.09    9.40
  -6  -4   1  146.99   12.70
  -6   4   1  131.09   11.40
   6   4  -1  132.19   14.50
   6   4  -1  135.89    9.20
   6   4  -1  120.39   11.60
   5  -4  -1  211.28    9.90
  -5  -4   1  225.48   13.40
   5  -4  -1  206.48   12.70
  -5   4   1  212.28    7.00
  -5   4   1  196.78   10.80
   5   4  -1  209.28   15.10
  -5   4   1  208.48   14.40
   5   4  -1  206.98   10.70
  -4  -4   1   45.00    7.90
   4  -4  -1   40.90    4.10
   4  -4  -1   46.10    7.10
  -4   4   1   49.99    4.70
  -4   4   1   41.30    5.30
   4   4  -1   55.69    8.30
   4   4  -1   44.10    6.20
  -4   4   1   39.60    7.40
   4   4  -1   37.10    7.00
  -3  -4   1  227.98   12.20
  -3  -4   1  216.58   11.70
   3  -4  -1  220.78   12.50
  -3   4   1  228.68   13.00
   3   4  -1  214.18   11.00
   3   4  -1  220.28   12.50
   3   4  -1  220.88   12.50
  -3   4   1  216.78    9.70
  -2  -4   1   55.99    7.00
  -2  -4   1   56.09    7.50
   2  -4  -1   74.29    7.50
  -2   4   1   70.69    8.30
  -2   4   1   61.59    6.40
   2   4  -1   62.49    6.80
   2   4  -1   63.39    6.70
   2   4  -1   64.19    7.60
   1  -4  -1  107.29    8.60
   1  -4  -1  119.29    8.80
  -1  -4   1  116.99    8.60
  -1  -4   1  114.29    8.50
   1   4  -1   99.59    8.10
  -1   4   1  107.69    8.30
   1   4  -1  108.89    7.10
  -1   4   1  102.49    9.10
  -1   4   1  111.39    8.50
   1   4  -1  121.99    9.10
   0  -4  -1  452.25   18.00
   0  -4  -1  447.26   18.20
   0  -4   1  451.85   16.80
   0  -4   1  448.56   17.90
   0   4   1  437.76   17.20
   0   4   1  463.05   12.60
   0   4  -1  456.45   17.40
   0   4  -1  463.45   18.00
   0   4   1  468.15   18.40
  -1  -4  -1 1760.42   48.20
  -1  -4  -1 1707.33   48.20
   1  -4   1 1743.63   48.20
  -1   4  -1 1807.22   48.50
  -1   4  -1 1688.93   47.60
  -1   4  -1 1624.34   42.90
   1   4   1 1722.83   47.80
   1   4   1 1808.82   47.80
   1   4   1 1750.12   44.00
  -2  -4  -1  238.08   12.60
  -2  -4  -1  237.58   13.00
   2  -4   1  225.48   12.30
  -2  -4  -1  223.58   11.30
   2   4   1  237.28   12.20
  -2   4  -1  232.78    8.90
  -2   4  -1  231.48   12.80
   2   4   1  237.48   10.80
  -2   4  -1  239.78   12.50
   2   4   1  241.48   12.40
   3  -4   1  449.16   18.10
  -3  -4  -1  447.16   17.80
  -3  -4  -1  445.66   18.80
  -3  -4  -1  441.26   18.30
  -3   4  -1  457.55   15.10
   3   4   1  440.06   17.50
   3   4   1  452.75   17.50
  -3   4  -1  457.65   17.80
   3   4   1  451.25   17.50
  -3   4  -1  430.96   18.20
  -4  -4  -1   49.00    8.60
  -4  -4  -1   47.60    7.50
  -4  -4  -1   37.40    5.90
   4  -4   1   44.90    7.00
  -4   4  -1   53.59    8.00
  -4   4  -1   52.19    7.20
   4   4   1   49.60    6.90
  -4   4  -1   41.40    6.50
   4   4   1   41.50    6.40
   4   4   1   54.69    8.20
  -4   4  -1   39.90    3.90
   5  -4   1  201.88   12.30
  -5  -4  -1  213.68   13.80
  -5  -4  -1  193.58   16.50
   5  -4   1  185.18   10.60
  -5  -4  -1  178.28   10.80
   5   4   1  196.58   11.80
   5   4   1  197.08   13.70
  -5   4  -1  197.68    5.70
   5   4   1  194.48   11.40
  -5   4  -1  192.18    6.40
  -5   4  -1  180.58   12.00
  -6  -4  -1   52.69    8.80
   6  -4   1   68.59    8.80
   6  -4   1   63.89    8.40
  -6  -4  -1   55.49   11.70
   6   4   1   66.89    8.20
  -6   4  -1   62.19    9.40
   6   4   1   57.29    8.50
   6   4   1   52.89    9.50
  -7  -4  -1   58.29   10.80
   7  -4   1   59.19    9.50
  -7  -4  -1   72.69   13.50
   7  -4   1   75.39    9.80
   7   4   1   67.09    8.50
   7   4   1   66.79   11.80
  -7   4  -1   68.89   10.40
   7   4   1   76.99   12.90
   8  -4   1  123.99   11.50
  -8  -4  -1  127.59   26.20
  -8  -4  -1  117.49   15.70
   8  -4   1  128.99   15.60
   8   4   1  115.89   15.20
  -8   4  -1  121.49   18.50
   8   4   1   99.99    9.90
   8   4   1   89.29   15.70
   9  -4   1  184.18   12.60
   9  -4   1  224.08   21.60
  -9  -4  -1  207.98   27.80
  -9   4  -1  211.98   23.80
 -10  -4  -1   42.30   20.50
  10  -4   1   38.40   15.00
 -10   4  -1   48.40   26.50
 -11  -4  -1   63.69   26.80
 -11   4  -1   79.29   21.60
 -12  -4  -1   20.90   31.70
 -12   4  -1  -14.30   25.40
  10  -5  -1   16.60   10.20
   9  -5  -1   51.99   11.20
  -9   5   1   51.89   12.90
   9   5  -1   63.89   12.40
  -8  -5   1  226.58   21.80
   8  -5  -1  191.48   15.90
   8  -5  -1  197.98   16.70
  -8   5   1  221.28   21.30
   8   5  -1  148.69   19.20
  -8   5   1  201.68   17.70
   8   5  -1  238.48   18.50
  -7  -5   1   73.09   13.20
   7  -5  -1   56.69    9.60
   7  -5  -1   72.89    9.90
   7   5  -1   67.09   10.90
  -7   5   1   65.99   15.70
  -7   5   1   49.30    8.90
   7   5  -1   65.19   12.60
   6  -5  -1  227.48   11.10
  -6  -5   1  227.28   17.40
   6  -5  -1  222.38   15.90
   6   5  -1  213.28   16.40
  -6   5   1  210.08   17.60
   6   5  -1  204.88   18.60
  -6   5   1  198.58   12.20
  -6   5   1  211.88    6.50
   6   5  -1  207.38   12.90
  -5  -5   1   23.10    7.80
   5  -5  -1   34.20    8.50
   5   5  -1   31.70    8.70
  -5   5   1   38.60    4.80
   5   5  -1   20.10    7.90
   5   5  -1   30.90    6.10
  -5   5   1   17.20    8.20
  -4  -5   1  116.89   12.50
  -4  -5   1  120.89   10.30
   4  -5  -1  122.59   12.00
  -4   5   1   89.19   11.90
   4   5  -1  107.89    9.40
   4   5  -1  113.19   12.40
  -4   5   1  119.49    8.20
   4   5  -1  115.79   12.00
   3  -5  -1  113.79   11.40
  -3  -5   1  104.69   10.20
  -3  -5   1  136.49   12.10
  -3   5   1   95.39   11.70
  -3   5   1   99.89    8.70
   3   5  -1  114.29    9.70
   3   5  -1  116.89   11.60
   3   5  -1   95.59   10.00
  -2  -5   1  128.39   11.30
   2  -5  -1  135.09   11.30
  -2  -5   1  105.49   10.10
   2   5  -1   99.89    9.50
   2   5  -1   98.99   10.40
   2   5  -1  118.69    9.60
  -2   5   1  114.19    9.50
  -2   5   1  103.59   11.20
   1  -5  -1   37.00    6.80
  -1  -5   1   35.40    8.10
  -1  -5   1   44.90    7.10
   1  -5  -1   44.40    7.50
  -1   5   1   32.30    6.30
   1   5  -1   36.80    5.10
  -1   5   1   32.40    6.50
   1   5  -1   38.10    6.70
   1   5  -1   46.90    8.10
  -1   5   1   35.90    8.10
   0  -5   1  508.15   21.30
   0  -5   1  483.05   22.40
   0  -5  -1  531.95   22.00
   0  -5  -1  538.15   21.40
   0   5  -1  535.05   17.10
   0   5  -1  522.75   21.50
   0   5  -1  518.95   21.10
   0   5   1  542.65   20.90
   0   5   1  534.55   14.20
   0   5   1  527.25   22.10
  -1  -5  -1  174.58   13.10
  -1  -5  -1  171.88   12.10
   1  -5   1  171.28   12.50
  -1   5  -1  186.88   12.90
  -1   5  -1  193.38   13.20
   1   5   1  168.08   11.70
   1   5   1  159.38    8.00
   1   5   1  152.98   12.40
  -1   5  -1  173.08    7.40
  -2  -5  -1   57.29    9.40
   2  -5   1   56.09    9.00
  -2  -5  -1   41.70    8.40
  -2   5  -1   38.20    7.60
  -2   5  -1   40.70    4.60
  -2   5  -1   59.89    9.10
   2   5   1   55.49    8.20
   2   5   1   59.89    8.60
   2   5   1   41.40    6.50
  -3  -5  -1   84.79   10.50
  -3  -5  -1  111.59   10.90
  -3  -5  -1   74.69   11.50
   3  -5   1   91.19   10.60
  -3   5  -1  109.59   10.60
   3   5   1  100.29   10.40
   3   5   1   92.19    9.20
   3   5   1  107.59   10.60
  -3   5  -1   90.19    6.70
  -3   5  -1   88.39   11.10
   4  -5   1  101.59   11.40
  -4  -5  -1   81.39   12.00
  -4  -5  -1  106.19   10.60
  -4  -5  -1  117.19   12.40
  -4   5  -1  112.29   12.60
  -4   5  -1  109.79    8.30
   4   5   1  128.59   11.50
   4   5   1   85.69   10.60
  -4   5  -1   89.59   10.70
   4   5   1   80.29    9.90
  -5  -5  -1    2.90    4.90
  -5  -5  -1   -0.20    7.30
  -5  -5  -1   16.90    8.40
   5  -5   1    1.90    5.60
   5   5   1    2.90    5.50
   5   5   1    2.40    5.20
  -5   5  -1    0.00    3.10
   5   5   1  -14.00    6.30
  -5   5  -1    1.60    2.20
  -5   5  -1    0.80    5.00
  -5   5  -1    0.50    6.80
  -6  -5  -1   20.50    8.80
   6  -5   1    3.50    6.50
  -6  -5  -1    8.80    9.60
   6   5   1   14.60    6.80
  -6   5  -1   -4.30    7.60
   6   5   1   14.90    6.10
   6   5   1    3.50    7.90
  -6   5  -1   10.30    6.20
  -7  -5  -1  103.49   16.40
  -7  -5  -1  127.19   19.70
   7  -5   1  113.39   13.00
   7   5   1  107.39   15.40
   7   5   1  127.19   18.20
   7   5   1  105.79   12.80
   7   5   1   97.59   15.60
  -7   5  -1  110.39   15.20
  -8  -5  -1   69.49   18.20
   8  -5   1   64.59   10.20
   8  -5   1   67.99   11.40
   8   5   1   70.39    9.80
  -8   5  -1   45.70   12.70
  -9  -5  -1   34.40   19.40
   9  -5   1   12.10    7.90
   9  -5   1   18.50   12.10
  -9   5  -1   29.80   13.20
  10  -5   1   35.70    9.10
 -10  -5  -1   23.30   21.00
 -10   5  -1   33.90   20.30
 -11  -5  -1   62.59   28.50
 -11   5  -1   48.80   24.10
 -10   6   1   60.19   20.70
   9  -6  -1   18.10   12.50
  -9   6   1   24.30   16.00
   9   6  -1    8.40   13.60
   8  -6  -1   -2.90   10.70
   8   6  -1   12.10   12.30
  -8   6   1   32.30   13.70
   7  -6  -1  136.99   17.20
  -7  -6   1   81.29   15.30
   7   6  -1  118.79   15.60
  -7   6   1  128.59   18.80
   7   6  -1   93.19   16.20
   7   6  -1  104.49   12.50
   6  -6  -1   24.20    9.40
  -6  -6   1   -4.80   10.70
   6   6  -1   29.60   10.50
  -6   6   1   11.70   10.60
   6   6  -1   15.50   10.70
   6   6  -1   15.80    6.60
  -6   6   1   16.70    3.30
  -5  -6   1   77.39   12.90
   5  -6  -1   88.99   14.10
  -5   6   1   81.59    8.40
   5   6  -1   66.59   11.30
   5   6  -1  103.79   15.90
  -5   6   1   65.29   12.80
   5   6  -1   64.59   10.30
   4  -6  -1   11.40    7.50
  -4  -6   1   14.90    9.30
  -4  -6   1   12.10    6.80
   4   6  -1   24.20    9.00
  -4   6   1    6.90    5.10
   4   6  -1    8.90    7.60
  -4   6   1   16.50    9.30
   4   6  -1    7.60    6.50
   3  -6  -1  218.38   16.80
  -3  -6   1  186.98   16.30
  -3  -6   1  177.68   14.10
   3   6  -1  182.88   13.80
   3   6  -1  193.58   13.90
  -3   6   1  182.78   17.50
   3   6  -1  176.68   16.40
   2  -6  -1  354.86   19.90
  -2  -6   1  379.56   19.60
  -2  -6   1  374.56   19.70
  -2   6   1  401.96   22.10
   2   6  -1  365.96   16.60
   2   6  -1  366.36   20.90
  -2   6   1  383.36   18.60
   2   6  -1  347.57   18.20
   1  -6  -1  115.79   12.10
   1  -6  -1  118.09   13.00
  -1  -6   1  134.19   12.70
  -1  -6   1  115.59   11.90
  -1   6   1  129.49   14.80
  -1   6   1  112.49   12.90
  -1   6   1  114.69   13.10
   1   6  -1  111.69   12.30
   1   6  -1  123.29   14.00
   1   6  -1  134.99    9.30
   0  -6  -1  176.88   14.00
   0  -6   1  160.58   13.00
   0  -6   1  152.48   13.20
   0  -6  -1  188.28   14.40
   0   6   1  170.98   15.20
   0   6  -1  168.28   14.30
   0   6  -1  158.58    8.90
   0   6   1  168.58   14.10
   1  -6   1  248.48   16.60
  -1  -6  -1  258.97   16.80
  -1  -6  -1  251.17   17.10
   1   6   1  244.68   15.90
   1   6   1  238.98   10.30
  -1   6  -1  261.37   17.10
  -1   6  -1  247.48    9.90
  -1   6  -1  249.88    9.80
   1   6   1  236.28   16.50
  -2  -6  -1   41.30   10.20
  -2  -6  -1   58.69   10.00
   2  -6   1   34.20    7.40
   2   6   1   51.39    9.30
  -2   6  -1   38.50    8.70
  -2   6  -1   28.80    4.30
  -2   6  -1   39.70    9.20
   2   6   1   38.60    5.70
   2   6   1   45.30    9.00
  -3  -6  -1  267.87   19.40
   3  -6   1  300.77   18.30
  -3  -6  -1  267.47   17.40
   3   6   1  293.07   18.00
   3   6   1  274.67   17.00
  -3   6  -1  273.17   19.30
   3   6   1  283.77   14.80
  -3   6  -1  255.17   17.40
   4  -6   1  308.47   18.90
  -4  -6  -1  279.77   20.70
  -4  -6  -1  287.07   17.50
   4   6   1  278.17   18.10
   4   6   1  308.37   18.00
  -4   6  -1  271.47   19.80
  -4   6  -1  294.97   15.20
   4   6   1  270.97   16.70
  -4   6  -1  271.47   12.10
  -4   6  -1  274.87   17.80
  -5  -6  -1  110.19   14.90
  -5  -6  -1  132.79   13.50
   5  -6   1  113.39   14.50
  -5   6  -1  118.39   10.70
   5   6   1  115.09   14.40
  -5   6  -1  115.69   16.40
  -5   6  -1  106.99    9.50
   5   6   1  105.69   14.50
  -5   6  -1  108.59    7.70
   5   6   1  107.09   12.70
   6  -6   1    9.20    7.90
  -6  -6  -1   15.40   13.00
  -6  -6  -1   10.00    7.00
  -6  -6  -1   20.60   11.30
  -6   6  -1    2.90    7.40
  -6   6  -1   10.70    3.30
   6   6   1   11.30    8.50
   6   6   1    3.00    7.30
  -6   6  -1   15.90   11.00
   6   6   1    4.20   10.00
  -6   6  -1    7.40    2.70
  -7  -6  -1   41.00   17.40
   7  -6   1   58.29   11.20
   7   6   1   35.10   10.40
  -7   6  -1   40.10   13.00
   7   6   1   21.10   12.90
  -7   6  -1   45.60   10.50
   7   6   1   44.60   10.00
  -8  -6  -1   17.90   15.80
   8  -6   1   10.10    9.80
  -8   6  -1    7.90   10.90
  -8   6  -1    8.20   13.50
  -9  -6  -1   24.40   20.80
   9  -6   1    8.70    9.70
  -9   6  -1   23.80   15.30
  -9   6  -1   39.80   17.60
 -10   6  -1   80.19   21.30
 -10   6  -1   63.99   20.20
   9  -7  -1   49.10   17.00
  -9   7   1   98.09   24.40
   8  -7  -1   47.70   16.30
  -8   7   1   17.30   17.90
   7  -7  -1   42.60   13.90
   7   7  -1   27.80   10.30
  -7   7   1   41.10   17.30
   6  -7  -1   64.79   14.70
   6   7  -1   55.49   14.70
   6   7  -1   76.49   11.90
  -6   7   1   76.39   16.30
   6   7  -1   82.79   18.10
  -6   7   1   64.19    8.20
  -5  -7   1   27.00   13.70
   5  -7  -1   19.70   11.30
   5   7  -1   21.70   11.40
  -5   7   1   29.10    8.50
  -5   7   1   18.50   12.80
   5   7  -1   16.60   12.70
   5   7  -1   46.10   12.10
  -4  -7   1  109.49   15.90
   4  -7  -1  104.69   18.10
  -4   7   1   94.79   13.40
   4   7  -1  100.49   12.80
  -4   7   1  107.69   17.30
   4   7  -1  142.09   14.90
   4   7  -1  143.29   20.00
  -3  -7   1   14.30    9.60
  -3  -7   1   23.30   11.10
   3  -7  -1   27.10   15.50
  -3   7   1   33.50    8.40
   3   7  -1   24.40    8.10
   3   7  -1   44.60   12.90
   3   7  -1   29.00    8.40
   2  -7  -1  131.89   17.10
  -2  -7   1  190.48   18.60
  -2  -7   1  149.99   15.50
   2   7  -1  171.88   15.90
   2   7  -1  167.08   12.70
   2   7  -1  156.68   18.40
  -2   7   1  140.29   16.40
  -2   7   1  136.49   17.90
   1  -7  -1  105.89   16.20
  -1  -7   1  138.89   16.30
  -1  -7   1  124.49   13.70
   1  -7  -1  135.59   14.90
   1   7  -1  120.79   10.40
   1   7  -1  143.99   15.20
  -1   7   1  167.08   17.60
  -1   7   1  146.69   17.00
   1   7  -1  132.39   18.30
   0  -7   1   90.59   13.00
   0  -7  -1  114.89   14.40
   0  -7   1  106.79   15.30
   0  -7  -1  112.89   15.20
   0   7  -1  119.69   15.40
   0   7  -1   98.49    8.00
   0   7  -1  120.19   15.70
   0   7   1  105.29   16.70
   0   7   1   89.79   13.00
   0   7   1  105.49   15.90
  -1  -7  -1  114.09   17.50
  -1  -7  -1   74.29   11.50
   1  -7   1   63.09   10.80
   1   7   1  121.59   18.50
   1   7   1   79.69   13.00
   1   7   1   88.39   13.30
  -1   7  -1   72.79   12.90
   1   7   1   71.59    6.40
  -1   7  -1   51.49   11.40
   2  -7   1   -3.50    7.00
  -2  -7  -1   -5.40   10.50
  -2  -7  -1   23.20    9.70
   2   7   1  -18.60    8.40
  -2   7  -1    2.60    9.90
  -2   7  -1    2.90    9.40
   2   7   1   10.30    8.60
   2   7   1    5.60    5.20
   2   7   1  -13.40   10.00
  -3  -7  -1  207.18   22.10
  -3  -7  -1  203.98   17.60
   3  -7   1  175.08   17.20
  -3   7  -1  196.28   19.70
   3   7   1  154.18   18.80
  -3   7  -1  205.78   19.20
   3   7   1  182.28   13.70
   3   7   1  206.38   20.30
  -4  -7  -1   49.50   15.00
  -4  -7  -1   81.99   12.80
   4   7   1   65.79   11.40
  -4   7  -1   57.99    9.50
  -4   7  -1   83.59   17.20
   4   7   1   55.59   12.20
   4   7   1   42.40    9.10
  -5  -7  -1   22.90   15.50
   5  -7   1   19.50   11.00
   5   7   1    5.90    9.70
   5   7   1   16.70   11.30
  -5   7  -1   26.10    5.80
  -5   7  -1   28.40    7.60
   5   7   1   21.80   10.00
  -5   7  -1   25.00   12.60
   6  -7   1   28.40   11.30
  -6   7  -1   30.20    7.50
   6   7   1   29.80   12.90
  -6   7  -1   47.00    6.20
  -6   7  -1   42.00    5.10
  -6   7  -1   26.60   14.90
   6   7   1   40.50   11.00
   7  -7   1   24.10   12.50
  -7   7  -1   -1.00    9.20
   7   7   1   10.70   12.70
   7   7   1   14.20    9.80
  -7   7  -1   -4.70   14.20
   8  -7   1   -2.00   13.30
  -8   7  -1   44.10   20.90
  -8   7  -1   10.90   13.00
   9  -7   1   10.60   13.30
  -9   7  -1  -13.60   21.70
   8  -8  -1   39.20   20.20
  -8   8   1  -41.50   21.00
   7  -8  -1   45.40   18.10
   7   8  -1   41.20   12.80
  -7   8   1   92.89   25.30
   6  -8  -1   32.60   15.40
  -6   8   1   11.90   17.40
   6   8  -1  -32.80   16.40
   6   8  -1  -11.50   10.40
   5  -8  -1   38.60   15.10
  -5   8   1   55.39   10.30
  -5   8   1   33.20   18.30
   5   8  -1   25.60   13.50
   5   8  -1   41.00   12.40
   4  -8  -1   26.40   13.70
   4   8  -1   11.10   10.70
  -4   8   1   17.50   15.50
   4   8  -1   11.40   11.60
  -4   8   1   22.70   10.40
   3  -8  -1   94.29   16.60
  -3  -8   1   78.49   13.70
   3   8  -1   81.19   11.20
  -3   8   1   81.99   16.20
   3   8  -1   94.59   14.70
  -3   8   1   51.29   12.20
   2  -8  -1  128.99   17.90
  -2  -8   1  114.09   17.10
  -2  -8   1   87.69   15.60
  -2   8   1   97.29   16.30
   2   8  -1  115.59   15.90
   2   8  -1  108.39   13.10
  -2   8   1  109.29   15.40
  -1  -8   1  120.99   17.00
   1  -8  -1  111.49   16.40
  -1  -8   1   96.89   15.80
  -1   8   1  179.58   22.20
   1   8  -1  112.19   10.30
   1   8  -1  116.69   16.30
  -1   8   1  150.78   22.20
   0  -8   1  185.18   20.30
   0  -8  -1  225.28   21.80
   0  -8   1  197.18   22.30
   0   8   1  203.98   24.40
   0   8  -1  199.38   20.30
   0   8   1  171.58   21.90
  -1  -8  -1   63.29   14.80
   1  -8   1   51.29   12.30
   1   8   1   68.69   13.80
  -1   8  -1   74.69   15.20
  -2  -8  -1    5.50   10.80
   2  -8   1   12.20   11.40
   2   8   1   -3.10    5.30
   2   8   1    8.10   10.80
  -2   8  -1  -13.60   11.60
   3  -8   1   92.69   15.50
  -3  -8  -1   65.69   14.60
   3   8   1   79.19   12.70
  -3   8  -1   66.09   14.40
   3   8   1   84.99   14.90
  -3   8  -1   90.79   17.30
  -4  -8  -1   67.59   14.20
   4  -8   1   81.49   15.50
   4   8   1   71.99   12.00
  -4   8  -1   98.19   18.00
   4   8   1   68.59   14.80
  -4   8  -1   77.69   13.40
   5  -8   1   88.59   16.30
  -5  -8  -1   66.39   15.10
   5   8   1   47.30   14.80
   5   8   1   54.99   12.90
  -5   8  -1   63.49   18.10
  -5   8  -1   58.29   11.40
  -5   8  -1   59.79    9.00
   6  -8   1   54.09   15.50
  -6   8  -1   35.80    6.40
   6   8   1   21.00   12.80
  -6   8  -1   15.40   19.30
   6   8   1   21.70   17.20
   7  -8   1  -17.90   15.00
  -7   8  -1   20.50   19.70
   7   8   1   23.40   13.40
   8   8   1   24.60   13.60
  -8   8  -1   19.50   25.00
   6  -9  -1   86.39   22.20
  -6   9   1   15.70   23.30
   6   9  -1   65.39   17.30
   5  -9  -1   34.20   19.90
   5   9  -1   15.50   15.10
  -5   9   1   74.79   23.50
   4  -9  -1   29.80   17.50
   4   9  -1   34.10   16.50
  -4   9   1   51.89   20.90
   3  -9  -1   30.20   16.10
  -3   9   1   34.50   19.30
   3   9  -1    4.20   13.70
  -3   9   1   -2.90   16.20
  -2  -9   1   19.70   14.40
   2  -9  -1   23.20   15.80
  -2   9   1   33.00   18.70
   2   9  -1   39.50   15.70
  -1  -9   1   28.00   13.80
   1  -9  -1   53.39   15.20
  -1   9   1   18.50   16.80
   1   9  -1   39.60   15.70
   0  -9  -1   17.00   14.30
   0  -9   1   41.70   13.50
   0   9   1   32.10   17.00
   0   9  -1   15.00   14.90
   1  -9   1   34.10   14.90
  -1  -9  -1   45.20   16.50
  -1   9  -1   47.10   17.10
   1   9   1   62.79   15.80
  -2  -9  -1  116.09   19.90
   2  -9   1  100.29   18.90
  -2   9  -1  105.49   21.00
   2   9   1  104.79   19.20
  -3  -9  -1  -11.80   12.70
   3  -9   1    6.00   13.90
   3   9   1   -0.30   14.70
  -3   9  -1  -17.00   18.10
  -3   9  -1   22.30   17.40
  -4  -9  -1   18.30   15.10
   4  -9   1    2.30   15.40
   4   9   1   25.00   15.90
  -4   9  -1   25.00   19.80
   5  -9   1   17.90   16.80
  -5  -9  -1   24.50   17.00
  -5   9  -1    2.30   14.20
  -5   9  -1   40.40   21.40
   6  -9   1   25.70   18.30
  -6   9  -1   30.60   24.60
   6   9   1   30.10   16.60
   3 -10  -1    6.00   21.80
  -3  10   1   51.69   24.20
   3  10  -1   14.60   20.40
   2 -10  -1   14.60   19.80
  -2 -10   1   71.59   20.00
  -2  10   1  -10.10   21.70
   2  10  -1   -1.60   20.00
   1 -10  -1   51.79   20.80
  -1 -10   1   78.19   19.30
   1  10  -1   81.79   22.40
  -1  10   1  112.79   25.40
   0 -10  -1   26.30   19.00
   0 -10   1   29.70   19.30
   0  10  -1   50.69   22.30
  -1 -10  -1   17.80   20.20
   1 -10   1   32.90   18.40
   1  10   1    7.50   21.90
  -1  10  -1   31.80   22.40
   2 -10   1   13.90   19.40
  -2 -10  -1   17.80   18.30
  -2  10  -1    9.60   21.60
   2  10   1    4.30   19.70
   3 -10   1   19.10   19.90
  -3 -10  -1   24.00   21.10
   3  10   1    5.40   21.40
  -3  10  -1   59.99   25.00
  11   0  -2   36.30    5.60
  11   0  -2   29.40    4.40
  11   0  -2   35.00    7.50
  11   0  -2   34.70    5.00
 -11   0   2   36.20   16.90
  10   0  -2   -4.10    3.10
  10   0  -2   10.00   13.00
 -10   0   2   -2.90   12.00
   9   0  -2   84.59    6.50
   9   0  -2   69.19   11.80
  -9   0   2   84.49   13.60
   8   0  -2    7.40    7.70
  -8   0   2   -0.20    8.30
   8   0  -2    7.10    2.70
   7   0  -2  116.69    6.30
  -7   0   2   99.09   13.30
   7   0  -2  122.19   12.50
  -6   0   2  635.64   25.20
   6   0  -2  632.04   18.10
  -5   0   2   -2.70    3.60
   5   0  -2    0.00    1.50
   5   0  -2    7.10    3.90
   4   0  -2  139.69    8.70
   4   0  -2  137.29    5.70
  -4   0   2  125.39    8.60
   3   0  -2  167.88    6.00
   3   0  -2  164.48    8.40
   2   0  -2   -0.40    0.70
  -2   0   2    0.20    0.80
  -1   0   2   46.30    2.20
  -1   0   2   40.80    2.40
   0   0   2  643.34   15.90
   0   0   2  630.84   15.10
   0   0  -2  640.64   15.30
   0   0  -2  545.65   16.50
  -1   0  -2  258.57    7.40
  -1   0  -2  251.87    9.10
   1   0   2  268.27    9.20
   1   0   2  242.08    7.80
   2   0   2 2233.58   53.49
   2   0   2 2095.89   50.79
  -2   0  -2 2026.30   51.29
  -2   0  -2 2080.49   50.49
  -2   0  -2 2119.99   53.59
   3   0   2   26.50    4.30
   3   0   2   27.70    2.80
  -3   0  -2   23.40    3.40
  -3   0  -2   33.30    4.80
   4   0   2 2757.72   70.19
   4   0   2 2697.43   65.39
  -4   0  -2 2657.53   70.59
   5   0   2    3.80    2.10
   5   0   2    2.70    4.30
  -5   0  -2    2.70    4.30
  -6   0  -2   39.60    5.70
   6   0   2   25.90    7.30
  -6   0  -2   21.30    7.10
   6   0   2   29.90    4.60
   7   0   2   21.70    3.90
  -7   0  -2   31.20    5.50
   7   0   2   17.30    7.20
  -7   0  -2   20.60    8.90
  -8   0  -2  343.67   23.30
  -8   0  -2  331.17   15.70
   8   0   2  336.67   12.60
   8   0   2  339.07   21.70
   9   0   2   11.50    4.00
  -9   0  -2   15.50    6.90
   9   0   2   -1.90   11.30
 -10   0  -2   26.70   14.90
 -11   0  -2    1.80   18.90
 -12   0  -2   27.90   22.20
  12   1  -2   13.60    5.70
 -11  -1   2   50.19   18.00
  11  -1  -2   45.10    6.30
  11   1  -2   48.70    6.80
 -11   1   2   53.99   17.70
  11   1  -2   41.20    6.80
 -10  -1   2   65.29   17.00
  10  -1  -2   55.59    5.90
 -10  -1   2   52.39    9.40
  10  -1  -2   39.00   12.90
  10  -1  -2   65.69    8.10
  10   1  -2   60.79    9.00
  10   1  -2   63.59    8.20
  -9  -1   2  139.69   19.00
   9  -1  -2  107.29   15.50
   9  -1  -2  109.39    5.20
  -9  -1   2   87.59   10.40
  -9   1   2  110.79   18.00
   9   1  -2  116.19    8.60
   9   1  -2  121.89   18.20
   9   1  -2  102.59    9.00
  -8  -1   2  627.54   21.00
   8  -1  -2  585.74   26.30
  -8  -1   2  598.04   28.20
   8  -1  -2  571.94   15.90
  -8   1   2  563.74   27.10
   8   1  -2  580.24   27.30
   7  -1  -2 1104.09   36.80
  -7  -1   2 1134.49   31.40
   7  -1  -2 1058.29   27.30
  -7  -1   2 1076.09   38.50
  -7   1   2 1076.69   37.30
   7   1  -2 1099.19   38.50
   6  -1  -2  176.58   11.90
   6  -1  -2  165.68    6.00
  -6  -1   2  157.38   13.00
  -6  -1   2  174.08    8.40
  -6   1   2  148.89   12.10
   6   1  -2  162.48   12.40
  -5  -1   2  193.58    7.90
  -5  -1   2  173.28   12.00
   5  -1  -2  175.68   10.80
   5  -1  -2  171.58    6.10
   5   1  -2  181.28   12.00
  -5   1   2  158.78   10.70
   4  -1  -2  437.06   16.20
  -4  -1   2  474.75   13.50
   4  -1  -2  434.06   14.10
   4   1  -2  453.75   17.80
  -4   1   2  445.16   16.50
  -3  -1   2  247.58    7.80
   3  -1  -2  244.48   10.00
  -3   1   2  248.28    7.40
   3   1  -2  234.98   10.90
  -2  -1   2  905.21   22.00
  -2   1   2  880.81   22.20
   1  -1  -2  372.26   11.20
  -1  -1   2  375.16    9.30
   1  -1  -2  343.17   10.90
   1   1  -2  381.26    9.00
  -1   1   2  361.56   10.50
  -1   1   2  333.27   12.30
   1   1  -2  345.97   10.80
   0  -1   2  199.98    6.80
   0  -1  -2  205.78    7.50
   0  -1  -2  198.48    7.50
   0  -1  -2  207.88    7.00
   0   1   2  202.08    7.20
   0   1  -2  192.78    6.70
   1   1   2 8003.30  185.78
   2  -1   2  117.49    4.20
  -2  -1  -2  116.39    6.90
  -2  -1  -2  110.09    6.20
   2  -1   2  114.99    6.20
  -2  -1  -2  116.59    5.80
  -2   1  -2  114.79    4.40
   2   1   2  117.49    5.30
  -2   1  -2  121.89    6.50
  -2   1  -2  119.89    5.00
   2   1   2  122.29    6.20
   2   1   2  122.79    6.60
  -3  -1  -2 1424.66   36.80
   3  -1   2 1502.05   39.00
  -3  -1  -2 1440.66   34.90
  -3  -1  -2 1388.86   39.70
   3  -1   2 1372.86   34.20
  -3   1  -2 1433.66   39.20
   3   1   2 1335.07   35.90
   3   1   2 1402.76   37.50
  -3   1  -2 1438.96   35.10
   3   1   2 1500.85   39.70
  -3   1  -2 1461.45   35.10
  -4  -1  -2    3.30    2.10
  -4  -1  -2    2.80    3.80
  -4  -1  -2    6.00    1.30
   4  -1   2   -1.90    2.90
   4  -1   2    3.90    1.20
   4   1   2    1.80    2.40
   4   1   2    0.70    3.40
  -4   1  -2    4.60    3.50
  -4   1  -2    1.90    1.90
  -4   1  -2    2.50    1.20
   5  -1   2  243.78   13.10
  -5  -1  -2  221.08   14.30
   5  -1   2  249.28    7.60
   5   1   2  254.07   11.30
  -5   1  -2  254.47   14.40
   6  -1   2    9.80    5.10
  -6  -1  -2   17.10    6.90
   6  -1   2   16.10    2.30
  -6  -1  -2   18.00    4.10
   6   1   2    9.70    5.90
  -6   1  -2   16.90    6.60
   6   1   2   17.10    4.40
  -7  -1  -2  170.68   10.30
   7  -1   2  176.98   14.50
   7  -1   2  153.18    5.80
  -7  -1  -2  158.68   16.70
   7   1   2  156.18   10.50
   7   1   2  177.58   14.60
  -7   1  -2  155.28   16.10
  -8  -1  -2  301.17   15.10
   8  -1   2  297.17   19.80
  -8  -1  -2  296.17   21.90
   8  -1   2  290.17    8.70
   8   1   2  294.47   21.20
  -8   1  -2  294.27   22.60
   8   1   2  299.17   14.60
   9  -1   2   71.89   13.10
  -9  -1  -2   67.09   15.80
   9  -1   2   62.99    3.20
  -9  -1  -2   55.89    9.10
   9   1   2   97.69   15.20
   9   1   2   53.09   14.40
  -9   1  -2   63.39   15.90
 -10  -1  -2    8.90   14.70
  10   1   2   19.30    7.00
 -10   1  -2    2.20   14.30
 -11  -1  -2   53.39   20.50
 -11   1  -2   74.49   21.40
 -12  -1  -2   26.70   27.10
 -12   1  -2    7.80   24.40
  12   2  -2   -2.70    8.10
  11  -2  -2   15.80    6.70
  11   2  -2   14.00    6.90
  11   2  -2   14.90    7.80
 -11   2   2   10.70   15.60
  10  -2  -2  103.49   15.80
 -10  -2   2   96.79   13.50
  10  -2  -2  107.69   11.10
 -10  -2   2  115.69   20.80
 -10   2   2  106.99   16.20
  10   2  -2  118.49   11.40
  -9  -2   2   79.39   17.20
   9  -2  -2   57.69    7.30
  -9  -2   2   66.59    9.80
   9  -2  -2   77.19   12.80
  -9   2   2   79.99   14.50
   9   2  -2   55.99   13.40
   9   2  -2   55.49    9.00
   8  -2  -2  190.88   15.10
   8  -2  -2  179.38   10.40
  -8  -2   2  185.78   12.00
  -8  -2   2  190.08   19.10
  -8   2   2  159.28   16.10
   8   2  -2  167.58   17.00
   8   2  -2  169.28   10.60
  -7  -2   2  732.33   30.90
   7  -2  -2  745.53   27.80
  -7  -2   2  776.42   24.50
   7   2  -2  756.12   23.50
   7   2  -2  738.53   31.00
  -7   2   2  716.73   28.40
   6  -2  -2  336.47    9.60
   6  -2  -2  307.77   15.50
  -6  -2   2  301.17   17.50
   6   2  -2  327.37   18.00
   6   2  -2  324.47   12.90
  -6   2   2  339.57   16.70
  -5  -2   2   72.69    5.60
   5  -2  -2   73.19    7.40
   5  -2  -2   78.29    4.10
  -5   2   2   76.19    7.80
   5   2  -2   76.79    6.20
   5   2  -2   72.19   11.10
   4  -2  -2  225.38   10.30
  -4  -2   2  223.68    9.10
  -4   2   2  223.38    6.80
   4   2  -2  215.98   12.40
   4   2  -2  225.68    9.70
  -3  -2   2  120.99    6.00
   3  -2  -2  137.09    6.60
   3  -2  -2  126.39    5.80
  -3   2   2  129.49    5.00
   3   2  -2  136.19    8.90
   3   2  -2  128.99    5.40
   3   2  -2  120.79    6.70
   2  -2  -2  370.76   12.20
  -2  -2   2  383.26   11.70
   2  -2  -2  373.56   11.20
   2   2  -2  376.66   11.00
  -2   2   2  382.36   13.80
   2   2  -2  359.36   12.80
  -2   2   2  375.36   11.40
   1  -2  -2  780.02   22.10
  -1  -2   2  807.42   20.60
   1  -2  -2  793.62   22.60
   1   2  -2  774.12   22.20
   1   2  -2  696.53   21.10
  -1   2   2  802.22   21.60
  -1   2   2  777.82   22.80
   0  -2  -2  797.22   20.70
   0  -2  -2  788.92   22.90
   0  -2  -2  781.32   23.10
   0  -2  -2  783.52   22.40
   0   2  -2  778.92   22.60
   0   2   2  786.62   23.00
   0   2   2  815.32   22.70
   0   2   2  805.62   20.50
  -1  -2  -2   96.19    5.60
  -1  -2  -2   89.29    5.40
  -1  -2  -2   90.19    6.00
   1  -2   2  100.19    5.40
   1   2   2   95.59    6.20
   1   2   2   98.39    5.20
  -1   2  -2   99.59    5.80
  -1   2  -2   99.29    4.70
   1   2   2   92.39    6.00
  -1   2  -2  101.29    5.40
  -2  -2  -2   28.20    4.60
  -2  -2  -2   29.70    4.10
  -2  -2  -2   26.70    3.60
   2  -2   2   29.30    3.60
   2   2   2   20.60    3.50
   2   2   2   28.20    4.00
  -2   2  -2   22.50    3.70
  -2   2  -2   28.60    3.70
  -2   2  -2   23.40    2.30
   2   2   2   21.70    3.70
  -3  -2  -2  334.47   13.00
  -3  -2  -2  316.87   14.20
  -3  -2  -2  347.17   11.70
   3  -2   2  329.57   11.30
   3  -2   2  340.77   13.00
  -3   2  -2  329.57   13.30
   3   2   2  347.97   14.00
  -3   2  -2  327.77   11.80
   3   2   2  317.57   11.80
  -3   2  -2  332.37    9.50
   3   2   2  343.97   13.80
  -4  -2  -2 1782.32   46.10
   4  -2   2 1781.42   45.80
  -4  -2  -2 1794.62   48.60
   4  -2   2 1877.41   49.40
  -4  -2  -2 1841.52   52.09
  -4   2  -2 1871.31   46.30
  -4   2  -2 1823.02   50.09
   4   2   2 1829.42   50.99
  -4   2  -2 1906.91   44.00
   4   2   2 1777.22   47.00
   4   2   2 1960.10   50.29
  -5  -2  -2   73.49    9.60
  -5  -2  -2   72.99    4.70
  -5  -2  -2   69.89    7.00
   5  -2   2   76.49    8.40
   5   2   2   60.09    8.30
  -5   2  -2   82.59    9.50
   5   2   2   53.49    7.90
  -6  -2  -2  100.19   13.30
  -6  -2  -2  126.69   10.00
   6  -2   2   99.29   10.60
  -6   2  -2  110.19   11.40
   6   2   2   91.69   11.60
   6   2   2  105.79   12.20
   7  -2   2    9.80    6.60
  -7  -2  -2   19.90    6.30
  -7  -2  -2   20.60    9.70
   7   2   2    6.60    8.20
   7   2   2   13.70    6.10
  -7   2  -2   11.50    7.40
   8  -2   2  403.16   23.10
  -8  -2  -2  374.16   27.00
  -8  -2  -2  424.96   20.40
   8   2   2  430.66   19.80
  -8   2  -2  413.76   25.20
   8   2   2  388.66   25.40
  -9  -2  -2   69.09   15.50
   9  -2   2   55.89   13.50
   9   2   2   53.99   10.20
  -9   2  -2   69.69   14.80
 -10  -2  -2   -6.60   15.30
 -10   2  -2   25.90   15.10
  10   2   2    3.00    9.00
 -11  -2  -2   42.80   20.50
 -11   2  -2   38.70   18.90
 -12  -2  -2   49.00   26.50
 -12   2  -2   46.50   24.30
  11  -3  -2    7.00    7.90
  10  -3  -2   48.50   13.30
  10  -3  -2   25.30    7.80
 -10   3   2   10.70   13.10
  10   3  -2   21.40    9.40
   9  -3  -2  175.38   13.20
   9  -3  -2  171.58   16.00
  -9  -3   2  134.79   15.50
   9   3  -2  128.99   19.70
   9   3  -2  137.69   17.50
  -9   3   2  184.38   19.60
  -8  -3   2  637.24   25.50
   8  -3  -2  666.83   26.80
   8  -3  -2  657.03   24.00
   8   3  -2  686.53   32.70
   8   3  -2  701.83   24.60
  -8   3   2  652.63   28.20
   7  -3  -2  223.08   12.60
  -7  -3   2  241.88   13.70
   7  -3  -2  170.58   20.50
   7   3  -2  222.48   19.10
   7   3  -2  213.88   12.70
  -7   3   2  214.78   15.40
   6  -3  -2    8.30    4.10
   6  -3  -2   24.40    5.30
  -6  -3   2    9.40    4.50
  -6   3   2   16.20    5.60
   6   3  -2   15.80    5.20
   6   3  -2   28.70    7.40
  -5  -3   2   46.30    6.20
   5  -3  -2   50.49    7.10
   5  -3  -2   52.69    6.40
   5   3  -2   43.60    6.30
  -5   3   2   37.70    2.70
   5   3  -2   40.20    7.90
   4  -3  -2   34.60    4.80
  -4  -3   2   42.60    5.70
   4  -3  -2   45.90    6.00
  -4   3   2   40.00    3.20
  -4   3   2   33.00    5.90
   4   3  -2   37.00    6.70
   4   3  -2   39.70    4.40
   4   3  -2   35.60    5.80
   3  -3  -2  357.26   14.40
  -3  -3   2  348.97   13.30
   3  -3  -2  365.06   11.20
   3   3  -2  362.26   14.60
   3   3  -2  356.36   12.20
  -3   3   2  363.26   11.70
  -3   3   2  371.76   15.50
   3   3  -2  353.46   15.50
  -2  -3   2  176.78    8.40
   2  -3  -2  166.18    5.10
   2  -3  -2  155.28    9.10
  -2   3   2  175.98   10.40
   2   3  -2  166.18    9.50
   2   3  -2  170.28    7.80
  -2   3   2  170.58    7.90
   2   3  -2  171.48    9.20
   1  -3  -2  114.59    7.60
  -1  -3   2  127.19    6.90
  -1  -3   2  121.29    7.40
   1  -3  -2  115.49    7.60
  -1   3   2  124.09    8.70
   1   3  -2  120.89    6.70
  -1   3   2  118.79    7.10
   1   3  -2  122.09    7.70
   0  -3  -2  951.00   24.20
   0  -3  -2  936.31   28.00
   0  -3   2  901.61   27.20
   0  -3  -2  883.71   27.50
   0  -3   2  967.20   25.90
   0   3   2  936.61   23.70
   0   3  -2  947.21   26.30
   0   3   2  937.81   28.10
   0   3   2  952.90   27.80
   0   3  -2  926.01   27.90
  -1  -3  -2   27.10    4.80
  -1  -3  -2   30.00    4.20
  -1  -3  -2   32.80    5.00
   1  -3   2   26.60    4.20
   1   3   2   30.20    3.60
   1   3   2   34.40    5.20
   1   3   2   30.10    4.90
  -1   3  -2   35.90    4.80
  -1   3  -2   20.50    4.10
  -2  -3  -2   30.20    5.00
  -2  -3  -2   32.90    5.10
   2  -3   2   37.40    5.00
  -2  -3  -2   26.30    4.90
  -2   3  -2   36.60    4.60
   2   3   2   32.40    4.90
   2   3   2   41.20    5.10
  -2   3  -2   36.80    5.20
  -2   3  -2   29.90    3.40
   2   3   2   32.70    5.30
  -2   3  -2   32.80    5.40
   3  -3   2   19.70    3.70
  -3  -3  -2   29.40    4.50
  -3  -3  -2   24.00    5.10
  -3  -3  -2   27.70    5.70
   3   3   2   21.20    4.20
  -3   3  -2   28.20    4.40
   3   3   2   27.90    5.30
  -3   3  -2   33.20    5.00
  -3   3  -2   27.00    2.70
   3   3   2   31.10    5.00
  -4  -3  -2  308.37   14.50
  -4  -3  -2  299.37   15.90
   4  -3   2  292.67   12.40
   4  -3   2  307.17   13.20
  -4  -3  -2  303.17   12.50
  -4   3  -2  296.47   13.70
   4   3   2  293.77   14.50
   4   3   2  293.17   12.80
  -4   3  -2  303.27   12.70
  -5  -3  -2  224.28   15.70
   5  -3   2  238.78   12.90
   5  -3   2  222.48   10.50
  -5  -3  -2  224.08   12.90
  -5  -3  -2  227.88   10.40
   5   3   2  227.68   14.00
  -5   3  -2  231.08   13.50
  -5   3  -2  214.38   10.40
   5   3   2  227.78   11.00
   5   3   2  229.78   14.20
  -6  -3  -2  113.19   11.30
   6  -3   2  113.59    7.60
   6  -3   2  113.69   11.20
  -6  -3  -2  110.49   15.70
   6   3   2  109.19   12.70
  -6   3  -2  125.99   12.70
  -7  -3  -2  470.15   22.00
   7  -3   2  495.85   22.40
  -7  -3  -2  475.05   27.00
   7   3   2  408.56   24.10
   7   3   2  462.05   22.30
  -7   3  -2  474.15   24.30
   8  -3   2   16.20    8.50
  -8  -3  -2   -1.30    8.40
  -8  -3  -2    8.30   10.90
  -8   3  -2   19.80   10.10
   8   3   2    3.20    8.10
   8   3   2   10.20   10.30
   9  -3   2   46.30   13.70
  -9  -3  -2   53.49   16.60
  -9   3  -2   35.60   13.80
   9   3   2   53.39   11.30
 -10  -3  -2   67.49   20.50
 -10   3  -2   76.49   18.40
  10   3   2   39.50   13.10
 -11  -3  -2   66.89   25.40
 -11   3  -2   50.99   22.10
  11   3   2   15.90   16.30
 -12  -3  -2   12.70   29.30
 -12   3  -2   59.09   26.00
  11  -4  -2   31.40   17.10
  11  -4  -2   15.20   10.00
  10  -4  -2   67.39   11.40
  10  -4  -2   77.49   13.70
  10   4  -2   82.69   12.30
   9  -4  -2   50.99   11.10
  -9  -4   2   42.90   11.60
   9  -4  -2   36.60    9.30
   9   4  -2   28.30    9.70
   8  -4  -2   47.90    9.10
  -8  -4   2   62.59   11.50
   8  -4  -2   47.30    8.90
   8   4  -2   43.30   13.80
   8   4  -2   57.59    9.60
  -7  -4   2  801.32   29.40
   7  -4  -2  781.22   28.50
   7  -4  -2  785.72   27.10
   7   4  -2  823.82   35.50
   7   4  -2  759.62   28.20
   6  -4  -2   98.69   10.60
   6  -4  -2   84.49    8.40
  -6  -4   2  102.29   10.90
   6   4  -2   91.29   10.90
   6   4  -2   91.79   14.80
  -6   4   2  101.29   12.70
  -6   4   2   98.79    3.90
   5  -4  -2  130.69    7.70
   5  -4  -2  143.19   11.40
  -5  -4   2  166.68   11.50
  -5   4   2  149.59    6.10
   5   4  -2  134.89   13.40
   5   4  -2  163.18   11.60
   5   4  -2  138.09    8.70
  -5   4   2  149.79   13.30
   4  -4  -2  162.58    6.80
  -4  -4   2  166.08   11.00
   4  -4  -2  159.98   11.50
   4   4  -2  163.38    9.00
   4   4  -2  175.38   11.90
  -4   4   2  166.68    7.70
  -4   4   2  166.98   12.80
  -3  -4   2  132.99    9.70
   3  -4  -2  132.69   10.30
   3   4  -2  126.59   12.20
  -3   4   2  156.18    8.20
  -3   4   2  154.98   11.80
   3   4  -2  138.39    8.50
   3   4  -2  145.99   10.90
  -2  -4   2  283.57   12.70
  -2  -4   2  278.87   12.90
   2  -4  -2  255.67   13.60
   2   4  -2  282.57   13.40
  -2   4   2  278.87   11.90
  -2   4   2  256.07   14.10
   2   4  -2  289.47   12.10
  -1  -4   2  274.57   12.40
  -1  -4   2  272.47   13.10
   1  -4  -2  276.37   13.40
   1  -4  -2  273.47   13.50
  -1   4   2  259.57   12.50
  -1   4   2  288.07   14.60
   1   4  -2  257.67   12.10
   1   4  -2  280.67   13.90
   0  -4  -2  365.96   16.10
   0  -4  -2  351.56   10.80
   0  -4  -2  343.77   15.60
   0  -4   2  372.26   14.20
   0  -4   2  354.96   15.20
   0   4   2  355.16   16.20
   0   4   2  355.86   10.40
   0   4  -2  366.56   14.90
   0   4   2  384.76   15.90
   0   4  -2  355.16   15.70
  -1  -4  -2   48.10    7.30
   1  -4   2   52.19    6.60
  -1  -4  -2   75.59   10.20
  -1  -4  -2   56.39    5.60
   1   4   2   53.19    7.50
  -1   4  -2   66.09    8.00
   1   4   2   63.89    8.50
  -1   4  -2   48.90    7.20
   1   4   2   60.59    4.90
  -2  -4  -2   67.89    7.50
  -2  -4  -2   61.99    8.40
   2  -4   2   63.29    7.60
  -2  -4  -2   72.99    8.00
   2   4   2   71.49    7.30
  -2   4  -2   62.59    7.70
  -2   4  -2   72.49    6.00
   2   4   2   65.99    8.10
  -2   4  -2   59.29    7.60
   2   4   2   66.69    9.30
   2   4   2   60.39    6.40
   3  -4   2   72.89    7.50
  -3  -4  -2   59.49    9.50
  -3  -4  -2   74.19    8.00
  -3  -4  -2   63.49    9.00
   3   4   2   65.39    7.90
  -3   4  -2   64.69    6.70
  -3   4  -2   56.79    8.20
  -3   4  -2   78.69    8.40
   3   4   2   70.39    7.10
  -3   4  -2   59.89    5.10
   3   4   2   61.59    7.90
   3   4   2   78.59   10.20
  -4  -4  -2  440.36   18.00
   4  -4   2  446.86   17.90
  -4  -4  -2  449.06   21.20
  -4  -4  -2  474.05   20.40
  -4   4  -2  454.25   18.00
   4   4   2  458.95   20.90
  -4   4  -2  465.05   13.30
   4   4   2  433.16   17.60
   4   4   2  432.36   21.70
   4   4   2  460.15   17.30
  -4   4  -2  442.06   17.60
   5  -4   2  203.58   12.10
  -5  -4  -2  194.88   16.90
  -5  -4  -2  199.08   11.60
   5  -4   2  217.58   11.80
  -5  -4  -2  219.18   15.30
  -5   4  -2  215.68   13.30
  -5   4  -2  199.18   11.90
   5   4   2  198.88   15.50
  -5   4  -2  188.78    8.10
   5   4   2  198.78   11.90
   5   4   2  207.68   14.30
   6  -4   2  265.77   13.70
  -6  -4  -2  271.67   13.60
  -6  -4  -2  265.27   17.60
   6  -4   2  281.57   15.60
  -6  -4  -2  261.37   20.60
  -6   4  -2  296.37   17.10
   6   4   2  277.57   14.30
   6   4   2  291.57   19.00
   6   4   2  313.57   19.30
  -7  -4  -2   50.19   12.80
   7  -4   2   57.69    7.10
  -7  -4  -2   51.09   11.30
   7  -4   2   60.89   10.10
   7   4   2   47.40   10.20
  -7   4  -2   53.09   10.70
   7   4   2   65.79   12.30
   8  -4   2  279.17   19.80
  -8  -4  -2  246.98   25.40
   8   4   2  176.88   20.00
  -8   4  -2  258.77   22.00
   8   4   2  185.98   23.50
   9  -4   2   98.69   15.70
  -9  -4  -2  112.99   21.80
  -9   4  -2  113.59   19.20
   9   4   2  135.99   21.40
 -10  -4  -2   43.70   20.80
 -10   4  -2   -4.70   15.30
 -11  -4  -2   -5.80   23.20
 -11   4  -2   -5.80   18.80
  11  -5  -2   25.00   13.50
 -11   5   2   63.09   20.10
  10  -5  -2   20.30   11.00
 -10   5   2    4.80   14.60
   9  -5  -2   37.40   11.20
   9  -5  -2   52.69   11.20
  -9   5   2   33.50   13.90
   9   5  -2   34.20   12.70
  -8  -5   2  531.35   28.20
   8  -5  -2  532.75   26.00
  -8   5   2  479.15   27.60
   8   5  -2  546.05   36.00
   8   5  -2  561.54   27.50
  -7  -5   2  255.57   19.60
   7  -5  -2  281.77   18.60
   7  -5  -2  236.98   13.80
   7   5  -2  280.17   23.30
   7   5  -2  258.27   19.20
  -7   5   2  234.88   21.50
   6  -5  -2   30.20    5.20
  -6  -5   2   26.10    8.30
   6  -5  -2   22.90    7.60
  -6   5   2   45.40   10.80
   6   5  -2   21.30    9.80
   6   5  -2   30.80    6.30
   6   5  -2   27.60    8.40
  -6   5   2   30.30    3.50
   5  -5  -2   83.09   11.80
  -5  -5   2   89.09   11.30
   5  -5  -2   78.29    4.80
  -5   5   2   85.89   11.90
   5   5  -2   81.29   11.60
  -5   5   2   72.89    6.10
   5   5  -2   71.69    8.60
   5   5  -2   83.59   12.10
  -4  -5   2  135.19   12.40
   4  -5  -2  141.49   12.60
  -4   5   2  142.89    9.10
   4   5  -2  156.18   14.10
   4   5  -2  136.69    9.50
  -4   5   2  135.09   14.30
   4   5  -2  152.18   13.40
  -3  -5   2    5.90    5.90
   3  -5  -2   16.90    6.00
   3   5  -2    6.90    5.20
   3   5  -2   14.20    5.00
  -3   5   2    8.10    4.00
  -3   5   2    8.60    7.30
   3   5  -2    6.80    6.10
   2  -5  -2  170.38   13.20
  -2  -5   2  160.68   13.40
   2  -5  -2  153.28   11.90
  -2  -5   2  156.58   11.50
   2   5  -2  150.98   10.60
   2   5  -2  147.29   11.00
   2   5  -2  167.88   13.10
  -2   5   2  158.48   10.70
  -2   5   2  153.28   13.60
  -1  -5   2  137.39   10.10
  -1  -5   2  120.89   10.50
   1  -5  -2  122.49   10.90
   1  -5  -2  121.49   11.40
  -1   5   2  143.39   11.90
   1   5  -2  117.89   11.90
   1   5  -2  116.89   10.00
  -1   5   2  115.79   12.10
   1   5  -2  138.99    9.80
   0  -5   2   51.29    7.90
   0  -5   2   59.69    8.50
   0  -5  -2   73.49   10.30
   0  -5  -2   65.29    9.40
   0   5  -2   81.29    9.80
   0   5   2   84.49   10.10
   0   5  -2   59.99    9.40
   0   5   2   62.29    9.20
   1  -5   2   81.39    9.60
  -1  -5  -2   89.49   10.50
  -1  -5  -2  105.19   11.80
   1   5   2   97.59   11.00
  -1   5  -2   89.19    6.70
   1   5   2   72.39    5.80
  -1   5  -2  103.29   11.50
   1   5   2   80.99   10.00
  -1   5  -2   79.19    9.60
   2  -5   2   26.80    6.40
  -2  -5  -2   17.40    7.60
  -2  -5  -2   22.60    5.30
  -2  -5  -2   22.60    6.40
  -2   5  -2   24.30    6.50
  -2   5  -2   24.90    4.30
   2   5   2   31.20    5.10
   2   5   2   29.10    7.40
  -2   5  -2   34.60    7.20
   2   5   2   29.50    8.10
   2   5   2   34.20    6.40
   3  -5   2  304.97   15.90
  -3  -5  -2  308.47   16.10
  -3  -5  -2  298.87   16.40
  -3  -5  -2  326.67   18.40
   3   5   2  317.87   18.90
   3   5   2  295.47   14.90
  -3   5  -2  314.57   16.80
  -3   5  -2  281.87   16.50
   3   5   2  299.77   16.00
  -3   5  -2  307.57   13.30
   3   5   2  325.17   15.80
  -4  -5  -2   25.40    6.30
  -4  -5  -2   20.00    8.20
   4  -5   2   31.80    6.80
  -4  -5  -2   18.30    8.00
  -4   5  -2   28.80    7.70
   4   5   2   21.30    8.50
  -4   5  -2   18.80    3.50
  -4   5  -2   24.90    7.10
   4   5   2    9.90    5.90
   4   5   2   19.50    5.90
   4   5   2   16.70    6.70
  -4   5  -2   21.90    5.90
  -5  -5  -2   91.89   10.60
  -5  -5  -2  115.79   14.60
   5  -5   2  104.39   11.30
  -5  -5  -2  101.19   15.40
  -5   5  -2   93.69    5.20
  -5   5  -2   83.39   11.00
   5   5   2   87.89   13.10
   5   5   2   88.39   11.00
  -5   5  -2  126.89   13.70
  -5   5  -2   87.49   11.10
   5   5   2  103.79   15.80
   6  -5   2   43.30    8.00
  -6  -5  -2   54.89   10.80
  -6  -5  -2   44.30   12.00
  -6  -5  -2   39.00    7.60
  -6   5  -2   33.20    9.50
   6   5   2   41.70    7.80
   6   5   2   31.50   10.80
   6   5   2   57.49   11.40
  -6   5  -2   39.60    9.40
   7  -5   2  178.68   13.50
  -7  -5  -2  163.88   23.50
  -7   5  -2  138.09   17.70
   7   5   2  136.59   21.00
   7   5   2  134.99   13.80
   7   5   2  118.19   19.20
   8  -5   2    4.30    9.50
  -8  -5  -2   21.60   15.50
   8  -5   2   12.80    7.00
  -8   5  -2   14.30   11.00
  -9  -5  -2   40.50   20.60
   9  -5   2   43.90   14.80
  -9   5  -2   22.60   14.80
 -10  -5  -2   -9.50   22.80
 -10   5  -2  -12.80   16.80
 -11  -5  -2  -42.70   27.70
 -11   5  -2   38.30   24.70
  10  -6  -2   -4.20   13.30
 -10   6   2   -3.20   19.60
   9  -6  -2   15.90   12.30
  -9   6   2   35.50   15.90
   9   6  -2   23.10   15.90
   8  -6  -2   89.09   11.60
   8  -6  -2   96.39   19.00
   8   6  -2   70.99   15.70
  -8   6   2   63.89   16.60
   7  -6  -2  150.18   17.80
  -7  -6   2   90.09   16.10
  -7   6   2  140.39   18.80
   7   6  -2  159.48   21.00
   7   6  -2  113.59   18.00
  -6  -6   2  122.69   17.90
   6  -6  -2  102.79   16.70
   6   6  -2  131.99   18.40
  -6   6   2  131.19    7.60
   6   6  -2  123.09   17.10
   6   6  -2  112.29   11.60
  -6   6   2   98.59   15.60
   5  -6  -2   48.40   11.00
  -5  -6   2   70.09   12.10
   5   6  -2   57.19    8.50
   5   6  -2   65.49   12.40
  -5   6   2   48.10   12.30
   5   6  -2   53.29   11.00
  -5   6   2   57.29    7.60
  -4  -6   2  110.49   15.50
   4  -6  -2  149.49   16.40
  -4   6   2  145.09   11.10
   4   6  -2  150.68   17.10
   4   6  -2  118.99   14.70
  -4   6   2  149.49   15.80
   4   6  -2  130.79   11.90
  -3  -6   2   17.50    8.00
   3  -6  -2   26.70    8.20
   3   6  -2   21.70    6.80
  -3   6   2   14.20    6.10
  -3   6   2   31.80   10.30
   3   6  -2   26.40    7.50
   3   6  -2   12.60    8.70
  -2  -6   2    2.80    7.00
   2  -6  -2   -2.00    6.50
  -2  -6   2   -4.30    5.00
  -2   6   2   12.60    6.40
   2   6  -2    6.60    5.70
   2   6  -2    8.70    5.60
  -2   6   2    4.60    7.80
   2   6  -2    0.00    7.80
   1  -6  -2  104.69   13.50
  -1  -6   2  110.49   12.20
  -1  -6   2  109.09   11.60
   1  -6  -2  116.39   13.30
   1   6  -2  112.39   10.00
   1   6  -2  121.09   11.90
   1   6  -2   96.39   13.90
  -1   6   2  109.09   14.30
  -1   6   2  106.89   12.60
   0  -6  -2  182.38   14.40
   0  -6   2  184.18   14.30
   0  -6   2  180.48   13.90
   0  -6  -2  190.58   15.10
   0   6  -2  211.28   16.70
   0   6   2  162.68   15.80
   0   6  -2  188.98   14.30
   0   6   2  198.88   15.70
   0   6  -2  190.28   11.10
  -1  -6  -2   12.90    7.70
   1  -6   2    8.70    6.50
  -1  -6  -2   19.50    8.10
   1   6   2   11.50    3.30
  -1   6  -2   15.00    8.50
   1   6   2   17.30    8.00
  -1   6  -2    8.40    6.80
  -1   6  -2   11.40    4.10
   1   6   2   13.50    8.20
  -2  -6  -2  135.69   14.70
  -2  -6  -2  198.38   17.60
   2  -6   2  156.08   14.30
   2   6   2  197.58   17.80
  -2   6  -2  176.18    9.70
   2   6   2  184.78   15.60
  -2   6  -2  156.38   15.60
  -2   6  -2  148.99   15.00
   2   6   2  153.68    9.90
  -3  -6  -2    2.80    8.80
  -3  -6  -2    9.00    6.70
   3  -6   2   11.60    6.80
  -3  -6  -2    3.70    6.20
   3   6   2   18.50   10.10
   3   6   2    9.80    6.80
  -3   6  -2    9.00    8.20
  -3   6  -2   15.50    4.50
  -3   6  -2   10.80    8.00
   3   6   2   12.40    5.80
  -4  -6  -2  178.98   15.90
  -4  -6  -2  175.18   15.80
  -4  -6  -2  148.69   18.10
   4  -6   2  162.18   15.00
   4   6   2  173.68   15.40
  -4   6  -2  176.78   11.90
   4   6   2  178.28   19.70
  -4   6  -2  171.08   10.20
  -4   6  -2  165.08   16.20
   4   6   2  175.88   15.10
  -4   6  -2  153.88   17.30
  -5  -6  -2   69.59   14.40
  -5  -6  -2   48.00   12.00
   5  -6   2   52.09    9.40
  -5  -6  -2   65.79    9.90
  -5   6  -2   65.49    9.00
   5   6   2   95.99   14.80
   5   6   2   59.09   13.20
  -5   6  -2   49.40    5.90
  -5   6  -2   48.90   10.70
  -5   6  -2   68.59   12.90
  -6  -6  -2   67.09   14.70
   6  -6   2   82.69   12.10
  -6  -6  -2   90.19   14.40
  -6   6  -2   87.39   14.30
   6   6   2   92.09   14.60
  -6   6  -2   77.09   14.60
  -6   6  -2   97.19    6.70
   6   6   2  116.99   18.60
  -6   6  -2   86.39    5.10
   7  -6   2   28.90    9.70
  -7  -6  -2    6.00   23.60
   7   6   2   26.80   15.10
   7   6   2   29.80    8.80
  -7   6  -2   25.60   11.00
  -7   6  -2   45.00   15.50
   8  -6   2   63.49   11.50
  -8  -6  -2   64.49   20.70
  -8   6  -2   80.89   17.30
  -8   6  -2   53.09   15.00
  -9  -6  -2   79.69   24.00
  -9   6  -2   72.89   19.30
  -9   6  -2   67.99   19.40
 -10  -6  -2   27.80   25.70
 -10   6  -2   35.30   21.00
 -10   6  -2   23.10   20.50
   9  -7  -2  -24.10   15.30
  -9   7   2  -26.00   19.10
   8  -7  -2  228.48   26.90
  -8   7   2  240.18   32.10
   7  -7  -2  177.78   22.60
   7   7  -2  157.28   15.60
  -7   7   2  167.08    7.80
  -7   7   2  185.28   26.10
   6  -7  -2   21.00   11.50
  -6  -7   2   12.20   14.50
   6   7  -2   35.00    9.10
  -6   7   2   16.40    5.20
  -6   7   2    6.30   12.30
   6   7  -2   33.90   15.20
  -5  -7   2   97.19   16.50
   5  -7  -2   93.69   15.10
   5   7  -2  115.89   23.20
   5   7  -2   73.09   14.20
  -5   7   2   78.39   11.40
  -5   7   2   89.29   16.00
   5   7  -2  106.09   13.20
  -4  -7   2  129.69   18.70
   4  -7  -2  108.89   15.50
   4   7  -2  133.99   17.30
   4   7  -2  106.89   15.50
  -4   7   2  101.89   16.00
  -4   7   2  121.69   14.20
   4   7  -2  126.29   14.40
  -3  -7   2   29.60   11.50
   3  -7  -2   11.00   10.20
   3   7  -2   15.80    8.40
   3   7  -2   12.60   12.40
  -3   7   2   21.20   11.80
  -3   7   2   14.40    8.40
   3   7  -2    9.10    8.10
  -2  -7   2   46.70   10.10
  -2  -7   2   50.59   14.50
   2   7  -2   49.90    8.60
  -2   7   2   62.79   10.30
  -2   7   2   62.79   17.60
   2   7  -2   39.40   12.10
   2   7  -2   40.80    9.20
  -1  -7   2   48.90   10.50
   1  -7  -2   70.39   13.80
   1  -7  -2   82.39   14.00
  -1  -7   2   51.99   11.60
  -1   7   2   70.79   13.40
  -1   7   2   40.70   10.30
   1   7  -2   57.79    8.30
   1   7  -2   73.99   11.10
   1   7  -2   75.39   14.10
   0  -7   2   15.40    7.50
   0  -7  -2   18.80    9.10
   0  -7  -2    0.50    8.50
   0   7  -2   15.70    5.70
   0   7   2    1.40    8.70
   0   7  -2   18.70    9.10
   0   7   2   16.20   10.40
   0   7  -2    9.50   10.70
  -1  -7  -2   55.29   12.00
   1  -7   2   57.09   11.10
  -1  -7  -2   86.89   14.10
  -1   7  -2   81.89   12.20
  -1   7  -2   69.99   14.00
  -1   7  -2   70.69    8.30
   1   7   2  108.89   15.60
   1   7   2   80.49    6.00
  -1   7  -2   69.69    7.60
   1   7   2   72.79   13.90
  -2  -7  -2   16.70   11.70
  -2  -7  -2    2.70    8.50
   2  -7   2    0.60    7.50
  -2   7  -2    1.70    4.30
  -2   7  -2    3.80    9.40
   2   7   2   26.70   12.20
   2   7   2   -0.60    4.70
  -2   7  -2   -8.00   10.80
  -2   7  -2    2.60    3.70
  -3  -7  -2  220.28   25.00
  -3  -7  -2  252.57   21.00
   3  -7   2  236.08   23.20
  -3   7  -2  264.07   12.10
   3   7   2  314.47   31.70
   3   7   2  243.98   15.30
   3   7   2  284.27   20.20
  -3   7  -2  278.87   21.70
  -3   7  -2  306.47   22.50
  -4  -7  -2   70.59   13.30
  -4   7  -2   41.80   14.20
  -4   7  -2   58.49    7.90
   4   7   2   80.99   13.90
  -4   7  -2   60.79    9.90
   4   7   2   54.29   10.40
   5  -7   2   10.60   11.30
   5   7   2   28.80   10.40
   5   7   2   25.40   11.40
  -5   7  -2   26.40    7.50
  -5   7  -2   20.50    7.90
  -5   7  -2   26.50   13.40
  -5   7  -2   32.10    5.60
   6  -7   2   -4.90    9.20
   6   7   2    0.80   10.40
  -6   7  -2    7.60    5.80
  -6   7  -2   -4.90    8.90
  -6   7  -2   14.30   14.00
  -6   7  -2    6.20    3.70
   6   7   2   11.30   13.70
   7  -7   2   13.60   11.70
  -7   7  -2   24.60   12.00
  -7   7  -2  -17.80   15.30
   7   7   2   22.30   11.30
   8  -7   2   22.70   12.70
  -8   7  -2   12.80   18.90
  -8   7  -2   26.70   14.90
   8   7   2   32.20   11.60
  -9   7  -2   80.19   23.20
   8  -8  -2   -0.70   17.50
  -8   8   2  -12.60   22.30
   7  -8  -2   53.19   18.70
   7   8  -2   62.89   12.80
  -7   8   2   57.49   23.90
   6  -8  -2   40.90   17.70
   6   8  -2   74.79   13.40
  -6   8   2   49.99   21.40
   6   8  -2  100.19   20.10
   5  -8  -2   42.40   16.60
   5   8  -2   15.50   10.90
   5   8  -2  -28.60   12.60
  -5   8   2    5.60   15.50
  -5   8   2   -3.10    8.60
   4  -8  -2   -2.10   12.10
  -4   8   2   23.00   10.60
   4   8  -2   12.10   10.10
   4   8  -2    0.40   11.60
  -4   8   2   21.30   15.90
   3  -8  -2   50.69   15.00
  -3  -8   2   -3.80   13.90
   3   8  -2   28.60   11.00
   3   8  -2   31.40   10.40
  -3   8   2   14.50   11.20
  -3   8   2   31.30   14.20
   2  -8  -2  -18.00   10.30
  -2  -8   2    5.80    9.50
  -2  -8   2   -5.30   11.60
  -2   8   2   -4.40   13.00
  -2   8   2   -0.50   10.80
   1  -8  -2   24.30   12.40
  -1  -8   2   -3.10   11.40
  -1  -8   2   35.50   11.60
  -1   8   2  -11.10   12.20
  -1   8   2   11.00   13.00
   1   8  -2   22.70   12.60
   1   8  -2   11.80    7.20
   0  -8  -2   43.80   12.90
   0  -8   2   20.10   11.00
   0   8  -2   20.90    6.00
   0   8   2   -2.90   15.70
   0   8   2   33.40   13.60
   0   8  -2   21.20    6.30
  -1  -8  -2   19.10   11.90
   1  -8   2    6.40   10.00
  -1   8  -2    9.20    4.90
  -1   8  -2    5.30    4.20
  -1   8  -2    2.00   13.00
   1   8   2   25.40   12.30
   2  -8   2  112.99   18.10
  -2  -8  -2   95.79   16.20
   2   8   2   85.49   16.70
   2   8   2   84.29    9.50
  -2   8  -2   76.29   16.00
  -3  -8  -2   23.60   12.40
   3  -8   2   13.80   10.90
   3   8   2    9.80    7.50
  -3   8  -2   20.30   13.10
   3   8   2   28.90   12.80
  -4  -8  -2  139.39   18.90
   4  -8   2   98.69   15.60
   4   8   2  122.19   17.60
  -4   8  -2  130.29   20.10
   4   8   2  176.88   21.80
  -4   8  -2  111.09   13.90
  -4   8  -2  100.39   14.90
  -5  -8  -2   12.40   12.00
   5  -8   2    9.80   12.10
   5   8   2   12.10   13.40
   5   8   2  -18.30   11.70
  -5   8  -2    8.60   16.60
  -5   8  -2   -1.20    6.10
   6  -8   2  -10.70   13.10
  -6  -8  -2  -12.60   12.10
   6   8   2   12.00   12.30
  -6   8  -2   22.90   18.10
   7  -8   2    3.40   15.00
  -7   8  -2   30.60   22.80
   7   8   2    4.90   14.00
   6  -9  -2   28.10   21.30
   6   9  -2   49.80   15.50
  -6   9   2   69.19   24.30
   5  -9  -2   77.29   21.50
   5   9  -2   59.19   15.10
  -5   9   2   37.90   23.00
   4  -9  -2   -4.70   18.10
   4   9  -2  -10.50   13.80
  -4   9   2    2.80   20.90
   3  -9  -2   96.39   20.80
  -3   9   2  115.69   23.60
   3   9  -2   90.69   17.80
   2  -9  -2   15.10   15.10
   2   9  -2    1.70   14.90
  -2   9   2   11.70   18.00
  -1  -9   2   -3.90   12.10
   1  -9  -2   21.90   15.40
   1   9  -2   10.20    7.00
   1   9  -2  -14.90   13.60
   0  -9  -2   19.10   15.20
   0  -9   2   38.10   14.10
   0   9  -2    3.70   14.40
   0   9   2    2.20   15.40
  -1  -9  -2   17.00   15.20
   1  -9   2   38.20   13.90
   1   9   2   29.80   17.10
  -1   9  -2   34.00   17.40
  -2  -9  -2   39.40   16.00
   2  -9   2  -12.80   14.10
   2   9   2  -14.90   14.10
  -2   9  -2    0.00   16.30
  -3  -9  -2   26.60   15.50
   3  -9   2   44.90   16.60
  -3   9  -2   -2.70   26.30
  -3   9  -2    3.30   17.50
   3   9   2   30.70   16.40
   4  -9   2  -17.70   15.10
  -4  -9  -2   16.90   15.80
   4   9   2   13.80   18.20
  -4   9  -2   -2.30   20.00
  -4   9  -2   -6.50    9.70
   5  -9   2    6.20   16.70
  -5  -9  -2   49.90   19.70
  -5   9  -2   29.20   21.10
   5   9   2   41.10   16.50
   6  -9   2   27.00   18.80
  -6   9  -2  -18.10   23.30
   6   9   2   -3.00   18.30
  -3  10   2   -2.10   24.40
   3  10  -2   36.50   19.90
   2 -10  -2   59.19   21.60
  -2  10   2   18.40   24.50
   2  10  -2   19.90   18.80
   1 -10  -2   -4.20   20.50
  -1  10   2   19.90   22.10
   0 -10  -2   18.50   19.40
   0  10  -2   -5.20   19.80
   0  10   2   50.09   22.10
  -1 -10  -2  -12.70   19.60
   1 -10   2   45.10   18.20
  -1  10  -2   -7.80   21.40
   1  10   2   21.30   22.20
   2 -10   2   13.00   18.30
  -2 -10  -2  -28.80   20.10
  -2  10  -2    3.30   22.70
   2  10   2   23.70   22.30
  12   0  -3    2.30    5.20
  11   0  -3    9.70    4.00
  10   0  -3  252.27   24.40
  10   0  -3  218.08   10.30
   9   0  -3  123.69   17.70
   9   0  -3   90.09    6.60
   8   0  -3   57.69   11.00
   8   0  -3   43.20    5.30
   7   0  -3   14.90    3.00
   7   0  -3   -2.10    5.70
   6   0  -3  547.75   22.90
   6   0  -3  509.15   15.90
   5   0  -3   22.80    3.40
   5   0  -3   20.10    5.50
   4   0  -3  554.94   19.90
   4   0  -3  539.95   15.70
  -3   0   3    3.50    1.60
   3   0  -3    3.20    1.40
  -2   0   3  889.11   22.80
   2   0  -3  845.82   22.50
  -1   0   3 3260.27   76.29
  -1   0   3 3229.18   75.19
   1   0  -3 3171.08   76.29
   0   0  -3 1271.97   30.40
   0   0   3 1241.78   31.10
   0   0   3 1216.98   29.90
   0   0  -3 1256.17   31.50
  -1   0  -3 1096.39   28.90
  -1   0  -3 1170.58   30.80
   1   0   3 1051.29   28.00
  -1   0  -3 1151.78   28.00
   1   0   3 1145.99   28.60
  -2   0  -3 4623.14  112.69
   2   0   3 4554.84  109.49
   2   0   3 4788.82  112.49
  -2   0  -3 4645.94  109.19
  -3   0  -3  730.93   24.40
   3   0   3  735.83   23.70
  -3   0  -3  748.43   20.70
  -3   0  -3  766.72   21.90
   3   0   3  770.32   20.80
   4   0   3  966.40   25.80
   4   0   3  951.60   30.20
  -4   0  -3  983.40   26.40
  -4   0  -3  943.01   27.30
  -4   0  -3  913.11   30.50
  -5   0  -3   16.70    5.80
  -5   0  -3   16.60    3.90
   5   0   3   18.80    3.10
   5   0   3   18.80    5.40
  -6   0  -3  264.47   11.90
   6   0   3  255.77   10.30
   6   0   3  251.77   15.60
  -6   0  -3  242.98   17.00
   7   0   3  349.87   12.80
  -7   0  -3  343.87   15.20
  -7   0  -3  338.67   22.10
   7   0   3  351.06   20.20
  -8   0  -3  196.88   20.10
   8   0   3  170.38   18.30
   8   0   3  201.58    9.70
  -8   0  -3  191.78   13.20
  -9   0  -3  526.65   31.60
  -9   0  -3  539.35   25.80
   9   0   3  428.36   28.90
   9   0   3  509.75   17.00
 -10   0  -3   29.70   18.30
  10   0   3   24.90    4.70
 -11   0  -3   60.49   23.20
 -12   0  -3   71.79   28.40
  12   1  -3   13.80    6.00
  11  -1  -3   20.40    3.70
  11  -1  -3   26.50    5.30
  11  -1  -3   35.30    6.50
  11   1  -3   20.80    5.90
  11   1  -3   43.30    8.20
  10  -1  -3   -3.80   11.90
  10  -1  -3   29.60    4.10
 -10  -1   3   26.90    7.80
  10   1  -3   35.00    6.60
  10   1  -3   26.30    5.60
  -9  -1   3   30.30    6.20
   9  -1  -3   19.00    9.90
   9  -1  -3   30.00    4.50
   9   1  -3   18.10   11.70
   9   1  -3   33.20    5.60
   8  -1  -3  220.28    8.70
   8  -1  -3  239.68   17.60
  -8  -1   3  243.98   11.80
   8   1  -3  232.28   11.30
   8   1  -3  223.08   19.00
   7  -1  -3  831.22   30.60
  -7  -1   3  806.22   24.20
   7  -1  -3  768.72   21.50
   7   1  -3  809.12   31.50
   7   1  -3  780.12   24.30
   6  -1  -3  117.99   10.40
   6  -1  -3  100.09    5.20
   6   1  -3   94.59    7.00
   6   1  -3   88.99   11.00
   5  -1  -3  381.96   16.40
   5  -1  -3  358.46   11.40
   5   1  -3  354.76   13.20
   5   1  -3  381.96   17.80
   4  -1  -3 2075.19   54.09
   4  -1  -3 1980.10   49.60
  -4   1   3 2029.60   49.70
   4   1  -3 2011.50   51.39
   4   1  -3 2100.69   55.99
  -3  -1   3  812.92   20.20
   3  -1  -3  772.02   21.20
  -3   1   3  810.22   20.80
   3   1  -3  769.22   22.10
  -2  -1   3  523.95   12.90
   2  -1  -3  504.65   14.80
  -2   1   3  501.75   14.20
   2   1  -3  514.55   15.10
  -2   1   3  498.05   15.50
   1  -1  -3  436.56   13.70
   1  -1  -3  454.25   13.60
  -1  -1   3  460.45   13.80
   1   1  -3  456.25   13.40
  -1   1   3  454.85   13.30
  -1   1   3  431.46   13.70
   0  -1  -3 1105.09   28.70
   0  -1  -3 1071.09   28.30
   0  -1   3 1118.99   27.80
   0  -1  -3 1042.40   28.60
   0   1   3 1100.49   28.20
   0   1   3 1028.50   27.90
   0   1  -3 1072.59   27.40
  -1  -1  -3    4.00    2.00
  -1  -1  -3    6.30    2.40
  -1  -1  -3    5.10    1.80
   1  -1   3    3.20    1.20
   1   1   3    1.10    2.10
   1   1   3    5.50    1.80
  -1   1  -3    0.30    1.90
  -1   1  -3    4.00    1.40
   1   1   3    4.40    1.70
  -2  -1  -3  618.84   20.00
   2  -1   3  662.63   17.40
  -2  -1  -3  649.04   20.90
  -2  -1  -3  671.43   19.10
   2  -1   3  664.63   20.30
  -2   1  -3  646.04   17.70
   2   1   3  623.04   18.20
   2   1   3  646.64   20.30
   2   1   3  658.63   19.40
  -2   1  -3  650.93   20.90
  -3  -1  -3  116.39    7.90
  -3  -1  -3  126.39    6.90
  -3  -1  -3  126.59    8.90
   3  -1   3  122.59    8.00
   3  -1   3  126.29    5.10
  -3   1  -3  129.09    5.70
   3   1   3  135.79    8.80
  -3   1  -3  127.99    5.90
   3   1   3  122.79    6.20
  -3   1  -3  123.59    8.70
   3   1   3  134.09    7.20
  -4  -1  -3  185.28   12.20
   4  -1   3  177.48   11.00
  -4  -1  -3  193.98    9.20
  -4  -1  -3  198.58    6.90
   4  -1   3  194.28    6.80
   4   1   3  181.78   11.10
  -4   1  -3  190.68    8.00
  -4   1  -3  190.88    7.00
   4   1   3  193.58    9.40
  -4   1  -3  179.58   11.00
  -5  -1  -3   35.10    7.20
   5  -1   3   53.29    8.60
   5  -1   3   39.00    3.20
  -5  -1  -3   41.50    5.70
  -5   1  -3   33.60    2.50
   5   1   3   55.59    8.40
  -5   1  -3   37.50    7.30
   5   1   3   41.90    6.10
  -5   1  -3   38.50    4.90
   6  -1   3  179.78    6.90
  -6  -1  -3  182.48   15.70
  -6  -1  -3  198.78   11.10
   6  -1   3  188.18   13.90
  -6   1  -3  198.98   15.30
   6   1   3  198.88   14.60
   6   1   3  186.38   10.70
  -7  -1  -3    7.20    5.10
  -7  -1  -3   10.80    8.70
   7  -1   3    9.40    8.10
  -7   1  -3    8.10    7.40
   7   1   3   -4.50    7.30
   7   1   3   -1.10    4.00
   8  -1   3   11.40    2.50
   8  -1   3   -7.10    8.90
  -8  -1  -3   19.50    7.10
  -8  -1  -3   14.60   10.00
  -8   1  -3    8.70   10.40
   8   1   3   10.00    9.20
   8   1   3   12.00    6.20
   9  -1   3   -3.40   11.80
  -9  -1  -3   -6.80   12.70
   9  -1   3   -0.10    2.10
  -9   1  -3    6.20   11.50
   9   1   3    7.90    5.90
  -9   1  -3    1.40    7.60
 -10  -1  -3   51.69   19.40
  10   1   3   42.00    8.00
 -10   1  -3   31.10   16.60
 -11  -1  -3  -19.60   18.30
 -11   1  -3    1.30   21.10
 -12  -1  -3   -5.00   26.60
 -12   1  -3    1.50   25.20
  12   2  -3  104.39   15.10
  11  -2  -3    6.00    7.30
  11   2  -3  -12.40    6.60
 -10  -2   3  102.79   14.20
  10  -2  -3  109.29   11.80
  10  -2  -3  172.38   21.90
  10   2  -3  101.69   12.40
   9  -2  -3  205.88   18.80
  -9  -2   3  219.08   14.40
   9   2  -3  213.28   13.60
   9   2  -3  233.88   23.70
  -8  -2   3   81.69    9.10
   8  -2  -3   71.39   11.10
   8  -2  -3   62.19    5.50
   8   2  -3   60.29    8.70
   8   2  -3   82.39   13.50
   7  -2  -3   16.60    2.70
  -7  -2   3   16.80    4.50
   7  -2  -3   21.10    6.70
   7   2  -3   18.10    7.60
   6  -2  -3  112.79   10.60
  -6  -2   3  111.79    7.30
   6  -2  -3   91.09    5.60
   6   2  -3  121.59   12.10
   5  -2  -3  288.57   13.60
  -5  -2   3  289.77   11.20
   5  -2  -3  288.47   10.30
  -5   2   3  303.27    9.70
   5   2  -3  325.97   17.20
   4  -2  -3  198.18    8.30
  -4  -2   3  204.88    8.30
   4  -2  -3  213.98   10.30
  -4   2   3  207.78    7.20
   4   2  -3  207.48   12.80
   3  -2  -3  390.86   13.60
   3  -2  -3  386.26   12.90
  -3  -2   3  388.46   12.10
  -3   2   3  397.26   11.90
  -3   2   3  391.06   15.00
   2  -2  -3  191.98    8.60
  -2  -2   3  213.68    7.20
  -2   2   3  201.38    7.80
  -2   2   3  192.88    9.60
   2   2  -3  189.78    6.80
  -1  -2   3  187.28    6.20
   1  -2  -3  181.88    8.50
   1  -2  -3  183.88    8.40
   1   2  -3  190.08    6.10
  -1   2   3  180.88    7.80
  -1   2   3  184.28    9.00
   1   2  -3  177.68    7.90
   0  -2  -3  125.49    7.30
   0  -2  -3  110.29    7.10
   0  -2  -3  120.79    6.10
   0   2   3  118.29    6.70
   0   2  -3  119.79    6.60
   0   2  -3  122.19    5.90
   0   2  -3  126.79    5.20
   0   2   3  113.09    7.10
  -1  -2  -3  371.56   13.80
  -1  -2  -3  372.26   13.30
  -1  -2  -3  357.56   14.20
  -1   2  -3  372.26   13.00
   1   2   3  375.96   13.70
   1   2   3  388.16   13.60
   1   2   3  391.46   13.00
  -1   2  -3  365.46   11.60
  -2  -2  -3   14.30    3.90
  -2  -2  -3   21.80    3.80
  -2  -2  -3   22.90    4.20
  -2  -2  -3   18.70    3.20
  -2   2  -3   16.40    3.10
  -2   2  -3   17.00    3.50
   2   2   3   22.90    4.10
   2   2   3   12.30    3.40
   2   2   3   19.50    3.70
  -2   2  -3   21.30    2.50
  -3  -2  -3  721.33   24.70
   3  -2   3  723.63   19.70
   3  -2   3  702.73   23.00
  -3  -2  -3  726.83   21.10
  -3  -2  -3  713.13   22.90
  -3   2  -3  736.83   19.40
  -3   2  -3  727.93   21.50
  -3   2  -3  713.23   23.70
   3   2   3  733.93   21.80
   3   2   3  718.43   23.80
   3   2   3  740.63   23.50
   4  -2   3   89.79    8.40
  -4  -2  -3   80.69    8.90
   4  -2   3   85.19    4.50
  -4  -2  -3   82.79    5.70
   4   2   3   88.49    6.80
  -4   2  -3   82.09    6.00
  -4   2  -3   87.69    4.70
   4   2   3   92.09    8.80
  -4   2  -3   85.79    8.80
   4   2   3   85.09    8.10
  -5  -2  -3  252.97    9.50
   5  -2   3  251.17   13.90
  -5  -2  -3  261.27   16.40
   5  -2   3  243.38    8.20
  -5  -2  -3  238.18   12.70
   5   2   3  240.08   13.30
  -5   2  -3  264.37    9.90
   5   2   3  247.98   14.80
  -5   2  -3  248.28    9.10
  -5   2  -3  233.98   14.80
  -6  -2  -3    4.30    5.20
   6  -2   3   11.90    5.90
  -6  -2  -3   18.10    8.20
   6   2   3   17.80    5.60
  -6   2  -3   18.30    7.20
   6   2   3   11.30    7.10
  -7  -2  -3   82.59   11.20
   7  -2   3   93.79   12.20
  -7  -2  -3   80.29   13.10
   7   2   3   65.19   10.60
  -7   2  -3   92.09   14.20
   7   2   3   95.29   14.80
  -8  -2  -3  156.28   15.30
  -8  -2  -3  152.18   21.60
   8  -2   3  134.79   17.20
   8   2   3  119.49   16.30
   8   2   3  141.29   14.20
  -8   2  -3  118.19   18.90
   9  -2   3  133.69   20.80
  -9  -2  -3  142.69   22.70
  -9   2  -3   90.79   20.90
   9   2   3  125.69   14.80
 -10  -2  -3  118.09   22.70
  10   2   3  110.29   13.30
 -10   2  -3   96.29   19.40
 -11  -2  -3   11.40   21.00
 -11   2  -3   -7.60   20.70
 -12  -2  -3  165.08   34.10
 -12   2  -3  281.27   43.50
  12   3  -3   11.80   10.60
  11  -3  -3   18.00    9.00
  11   3  -3   21.50   10.80
  10  -3  -3   50.89    9.60
  10   3  -3   56.19   10.20
  -9  -3   3   50.69   10.50
   9  -3  -3   61.69   11.40
   9  -3  -3   38.40    8.30
   9   3  -3   35.90    8.60
   8  -3  -3  311.27   16.20
   8  -3  -3  321.27   19.40
  -8  -3   3  307.67   17.00
   8   3  -3  321.87   16.70
   8   3  -3  345.17   25.10
  -7  -3   3  649.64   23.40
   7  -3  -3  629.04   23.30
   7   3  -3  663.63   23.90
   7   3  -3  642.24   30.00
   6  -3  -3    5.80    4.40
   6  -3  -3    7.60    4.30
   6  -3  -3    5.90    2.90
  -6  -3   3    2.60    3.80
   6   3  -3    3.30    7.60
  -6   3   3    7.00    2.00
   6   3  -3    5.60    5.20
   5  -3  -3  295.57   11.50
   5  -3  -3  283.97   13.00
  -5  -3   3  298.57   12.70
  -5   3   3  290.97    9.40
  -5   3   3  282.37   15.10
   5   3  -3  295.97   14.20
   5   3  -3  293.57   17.60
   4  -3  -3  721.63   22.20
   4  -3  -3  728.03   22.00
  -4  -3   3  742.83   22.50
  -4   3   3  752.62   20.30
   4   3  -3  747.13   24.50
   4   3  -3  713.53   27.10
   4   3  -3  723.33   20.50
  -4   3   3  748.53   25.60
   3  -3  -3  107.99    5.90
  -3  -3   3  103.19    6.60
   3  -3  -3   98.49    7.30
   3   3  -3  101.29    8.10
   3   3  -3  107.49    9.50
   3   3  -3  102.79    5.60
  -3   3   3   96.79    5.80
  -3   3   3  103.29    9.00
  -2  -3   3  708.93   20.60
   2  -3  -3  687.53   22.40
   2  -3  -3  721.53   23.20
   2   3  -3  694.33   23.00
  -2   3   3  714.93   24.10
  -2   3   3  719.23   21.20
   2   3  -3  697.83   19.70
   1  -3  -3  574.14   19.90
   1  -3  -3  594.84   16.30
   1  -3  -3  594.14   20.40
  -1  -3   3  590.74   17.30
   1  -3  -3  596.04   20.20
   1   3  -3  599.24   20.20
  -1   3   3  591.04   20.90
   1   3  -3  574.44   17.30
  -1   3   3  603.64   19.20
   0  -3  -3  154.28    7.20
   0  -3  -3  155.18    8.90
   0  -3  -3  153.08    9.90
   0   3  -3  156.48    9.10
   0   3   3  153.58    9.70
   0   3  -3  162.48    7.70
   0   3   3  152.78    8.90
  -1  -3  -3   70.29    6.60
  -1  -3  -3   68.89    7.70
  -1  -3  -3   80.09    6.40
   1   3   3   73.09    7.00
  -1   3  -3   84.39    5.60
   1   3   3   65.39    7.00
  -1   3  -3   73.89    6.70
   1   3   3   75.79    5.50
  -1   3  -3   72.89    5.90
  -2  -3  -3  500.85   18.40
  -2  -3  -3  502.95   18.00
  -2  -3  -3  512.95   19.10
   2   3   3  472.55   17.60
   2   3   3  507.65   19.00
   2   3   3  500.55   17.50
  -2   3  -3  493.85   17.50
  -2   3  -3  511.75   18.10
  -2   3  -3  508.45   15.10
  -3  -3  -3   77.59   10.20
  -3  -3  -3   94.49    7.30
  -3  -3  -3   82.19    8.70
  -3   3  -3   88.79    7.70
  -3   3  -3   87.59    4.70
   3   3   3   86.89    7.50
   3   3   3   96.89    8.40
  -3   3  -3   79.39    7.20
   4  -3   3  586.84   20.80
  -4  -3  -3  570.34   19.60
  -4  -3  -3  581.74   22.10
  -4  -3  -3  550.24   23.30
   4   3   3  606.64   22.50
  -4   3  -3  558.64   21.60
  -4   3  -3  595.84   16.10
   4   3   3  578.34   20.00
  -4   3  -3  576.64   19.80
  -5  -3  -3  239.38   14.50
  -5  -3  -3  210.78   16.50
   5  -3   3  245.18   14.30
  -5  -3  -3  226.38   11.10
   5   3   3  237.28   11.60
   5   3   3  250.87   15.00
  -5   3  -3  240.58   11.30
   5   3   3  243.98   15.40
  -5   3  -3  239.88   14.70
  -5   3  -3  227.38    8.20
   6  -3   3   -0.60    5.90
  -6  -3  -3   16.90    9.10
  -6  -3  -3    9.70    6.20
  -6  -3  -3    6.40    3.60
   6   3   3    5.10    5.80
  -6   3  -3   13.30    6.80
   6   3   3    4.80    7.20
  -7  -3  -3   81.19   15.20
  -7  -3  -3  102.49   12.30
   7   3   3   67.69   12.10
   7   3   3   72.79   10.60
  -7   3  -3   61.59   11.40
  -8  -3  -3    3.10   13.60
   8  -3   3    0.40    9.30
  -8  -3  -3   12.60    9.90
  -8   3  -3  -19.00    8.70
   8   3   3    1.20    8.80
   8   3   3   -8.90   10.50
  -9  -3  -3   12.90   16.10
   9  -3   3   13.20   13.30
  -9   3  -3  -11.30   23.90
   9   3   3    5.00   10.70
 -10  -3  -3  133.19   24.90
  10   3   3  124.19   16.90
 -10   3  -3  154.48   22.40
 -11  -3  -3   45.90   24.20
 -11   3  -3   34.10   23.70
 -12  -3  -3   30.10   50.09
 -12   3  -3    5.50   28.80
  12   4  -3   97.79   16.50
  11  -4  -3   42.90   26.00
  11  -4  -3   25.50   11.70
  10  -4  -3   59.39   14.70
  10  -4  -3   51.59   11.30
  10   4  -3   63.79   12.80
   9  -4  -3   17.90    9.30
   9  -4  -3   27.10    9.20
  -9  -4   3   19.90   11.30
   9   4  -3   10.40    9.80
   8  -4  -3   35.00    8.80
  -8  -4   3   37.30   10.10
   8   4  -3   44.10   14.60
   8   4  -3   37.80    8.70
  -7  -4   3    7.30    6.60
   7  -4  -3    2.60    4.90
   7  -4  -3    8.50    5.90
  -7   4   3    7.90    7.80
   7   4  -3   -1.40    9.70
   7   4  -3    4.60    6.70
   6  -4  -3  248.68   15.20
  -6  -4   3  248.98   14.80
   6  -4  -3  251.27   12.50
  -6   4   3  247.48    8.60
   6   4  -3  287.77   16.00
  -6   4   3  241.58   17.40
   6   4  -3  267.27   20.30
   5  -4  -3  365.66   13.80
   5  -4  -3  392.36   18.10
   5   4  -3  355.76   17.90
  -5   4   3  386.56   12.40
   5   4  -3  399.56   21.70
  -5   4   3  404.16   19.90
   5   4  -3  377.66   13.80
   4  -4  -3   93.69   10.10
   4  -4  -3  108.49    5.90
  -4  -4   3  111.89    8.90
   4   4  -3  103.19   11.80
   4   4  -3  106.19    7.10
  -4   4   3  110.19    6.80
  -4   4   3  118.89   11.90
   4   4  -3  118.99   10.80
  -3  -4   3  337.07   14.20
   3  -4  -3  327.27    9.20
   3  -4  -3  311.17   15.60
   3   4  -3  375.86   17.40
  -3   4   3  319.47   16.80
  -3   4   3  312.17   12.80
   3   4  -3  324.87   12.40
   3   4  -3  340.07   16.10
  -2  -4   3  139.59    9.00
   2  -4  -3  177.18   11.10
   2  -4  -3  145.39   10.80
   2   4  -3  137.89   10.60
  -2   4   3  163.28    9.10
  -2   4   3  152.48   12.00
   2   4  -3  142.39    8.40
   1  -4  -3   47.80    3.10
   1  -4  -3   49.20    7.30
  -1  -4   3   51.69    5.80
   1  -4  -3   56.89    7.70
   1   4  -3   51.09    6.30
  -1   4   3   66.79    9.00
   1   4  -3   62.29    8.00
  -1   4   3   67.99    7.30
   0  -4  -3   20.80    4.80
   0  -4  -3   30.30    4.90
   0  -4  -3   33.90    6.70
   0   4  -3   24.40    6.90
   0   4   3   22.00    5.10
   0   4   3   27.20    6.00
   0   4  -3   30.30    5.40
  -1  -4  -3  487.85   19.30
  -1  -4  -3  475.65   16.70
  -1  -4  -3  491.15   20.10
   1   4   3  482.75   15.70
   1   4   3  491.55   19.60
   1   4   3  445.46   18.70
  -1   4  -3  482.55   17.80
  -2  -4  -3   28.70    5.90
   2  -4   3   24.00    5.20
  -2  -4  -3   21.60    5.60
  -2  -4  -3   26.30    6.10
  -2   4  -3   21.60    5.40
  -2   4  -3   27.90    4.70
   2   4   3   23.40    5.80
  -2   4  -3   21.20    3.70
   2   4   3   31.40    6.20
  -2   4  -3   18.70    6.00
   2   4   3   21.20    4.20
  -3  -4  -3  274.57   15.50
  -3  -4  -3  265.37   15.00
  -3  -4  -3  278.27   14.30
   3  -4   3  253.27   12.80
  -3   4  -3  264.47   15.80
   3   4   3  277.77   13.50
   3   4   3  269.47   14.10
  -3   4  -3  267.87   13.70
   3   4   3  264.37   15.80
  -3   4  -3  270.17   13.00
  -3   4  -3  265.27   10.10
  -4  -4  -3    8.80    6.00
  -4  -4  -3    1.00    6.00
  -4  -4  -3    5.80    5.00
   4  -4   3    1.60    4.00
  -4   4  -3   -0.10    4.50
   4   4   3   -7.60    4.80
  -4   4  -3   -1.10    4.70
   4   4   3   -5.00    5.80
  -4   4  -3    1.50    2.00
   4   4   3   -2.90    4.00
  -5  -4  -3  376.06   16.40
  -5  -4  -3  355.06   21.20
  -5  -4  -3  369.66   20.00
  -5   4  -3  370.36   18.20
  -5   4  -3  355.06   16.30
   5   4   3  368.16   16.90
   5   4   3  353.36   20.20
  -5   4  -3  368.46   11.40
   5   4   3  402.66   19.90
   6  -4   3  100.99   11.80
  -6  -4  -3   99.59    9.80
  -6  -4  -3   91.79   14.30
  -6  -4  -3  128.09   15.50
  -6   4  -3   88.59    9.50
   6   4   3   96.29   15.20
   6   4   3  105.09   10.60
   6   4   3  120.69   15.50
  -6   4  -3   87.59   14.00
  -7  -4  -3   32.00   13.40
   7  -4   3   11.50    8.20
   7   4   3    7.40    9.30
   7   4   3   26.80   11.00
  -7   4  -3   18.00    9.00
   8  -4   3   -2.70   10.40
  -8  -4  -3   -1.70   13.30
   8   4   3   14.70   11.50
  -8   4  -3   14.60   11.80
   9  -4   3   48.00   15.80
  -9  -4  -3   72.09   19.60
 -10  -4  -3   25.90   24.00
 -10   4  -3   42.00   19.90
 -11  -4  -3   72.99   29.20
 -11   4  -3  -19.20   22.30
  11  -5  -3   -8.20   15.60
 -11   5   3   13.20   19.00
  10  -5  -3   17.20   12.40
 -10   5   3    1.00   15.50
  10   5  -3  -10.60   26.60
   9  -5  -3  157.08   19.00
   9  -5  -3  171.78   16.80
  -9   5   3  149.79   23.50
   9   5  -3  144.19   17.50
   8  -5  -3   59.49   11.40
   8  -5  -3   72.99   11.70
  -8  -5   3   96.59   14.90
  -8   5   3   91.19   15.90
   8   5  -3   58.39   12.40
  -7  -5   3   95.99   13.60
   7  -5  -3   63.29   10.80
   7  -5  -3   81.69    9.20
   7   5  -3   82.29   12.90
  -7   5   3   92.99    5.00
   7   5  -3   65.69   15.20
  -7   5   3  117.99   16.80
  -6  -5   3  112.49   13.00
   6  -5  -3   84.49    7.40
   6  -5  -3   95.69   13.20
   6   5  -3   87.39   14.10
  -6   5   3   90.99    5.70
   6   5  -3   78.89   11.70
  -6   5   3   99.29   13.80
   5  -5  -3  279.77   17.10
   5  -5  -3  239.78    8.40
  -5  -5   3  236.68   15.30
   5   5  -3  245.18   12.00
   5   5  -3  265.17   17.50
  -5   5   3  258.17   10.80
  -5   5   3  247.88   18.50
   5   5  -3  260.27   19.40
   4  -5  -3  188.98   15.10
  -4  -5   3  172.98   13.40
  -4   5   3  209.68   10.40
   4   5  -3  204.28   16.20
  -4   5   3  194.68   15.40
   4   5  -3  193.48   15.00
   4   5  -3  202.08   10.80
   3  -5  -3    7.50    5.40
  -3  -5   3   12.60    5.50
  -3   5   3    4.20    6.70
   3   5  -3   10.70    4.60
   3   5  -3    9.60    5.70
  -3   5   3    7.30    4.50
   3   5  -3    0.80    6.30
   2  -5  -3  245.28   15.30
  -2  -5   3  256.47   13.80
   2  -5  -3  261.57   14.70
   2   5  -3  230.98   15.90
  -2   5   3  254.57   15.40
   2   5  -3  291.07   15.10
   2   5  -3  252.17   12.80
  -2   5   3  253.17   16.90
  -1  -5   3   42.30    6.30
   1  -5  -3   37.10    8.00
   1  -5  -3   47.60    8.50
   1   5  -3   55.49    8.70
   1   5  -3   49.99    7.60
  -1   5   3   45.70    8.90
  -1   5   3   51.69    7.60
   0  -5  -3   11.50    7.20
   0  -5  -3   13.00    2.70
   0  -5  -3   10.30    5.50
   0  -5   3   12.50    4.70
   0   5   3    7.00    5.70
   0   5  -3   16.40    5.30
   0   5   3   16.50    6.10
   0   5  -3   12.00    6.70
   1  -5   3  142.19   11.00
  -1  -5  -3  131.59    9.00
  -1  -5  -3  153.48   14.00
  -1  -5  -3  143.69   12.70
   1   5   3  122.19   12.00
  -1   5  -3  134.49    9.00
  -1   5  -3  151.28   11.50
  -1   5  -3  137.19   12.60
   1   5   3  154.38   12.80
   1   5   3  139.39    7.70
   2  -5   3  200.48   12.50
  -2  -5  -3  180.18   12.10
  -2  -5  -3  178.98   13.70
  -2  -5  -3  190.98   15.20
   2   5   3  210.18   15.50
  -2   5  -3  179.68   14.70
   2   5   3  185.78   13.90
  -2   5  -3  183.08   10.40
  -2   5  -3  182.88   13.00
   2   5   3  173.98   10.40
   3  -5   3   14.30    5.80
  -3  -5  -3    1.80    7.10
  -3  -5  -3   16.60    6.70
  -3  -5  -3    8.20    7.20
  -3   5  -3    5.60    6.50
   3   5   3   10.60    6.00
  -3   5  -3    5.80    3.40
  -3   5  -3   15.10    4.80
  -3   5  -3    7.90    5.60
   3   5   3   11.80    7.30
   3   5   3   18.10    5.30
   4  -5   3  299.37   15.60
  -4  -5  -3  282.77   16.70
  -4  -5  -3  285.77   18.70
  -4  -5  -3  317.27   20.30
   4   5   3  292.67   19.90
  -4   5  -3  297.67   11.30
   4   5   3  298.87   16.90
  -4   5  -3  301.77   17.50
  -4   5  -3  327.17   18.10
  -4   5  -3  323.57   15.90
   4   5   3  278.67   16.20
   5  -5   3   16.70    6.40
  -5  -5  -3   -1.80    8.90
  -5  -5  -3   29.70    7.20
  -5  -5  -3   10.70    9.40
  -5   5  -3   23.40    7.40
   5   5   3   -5.80    9.20
  -5   5  -3   18.80    3.10
   5   5   3    3.60    7.40
  -5   5  -3   15.80    7.20
  -5   5  -3   20.60    7.90
   5   5   3   10.10    7.10
  -6  -5  -3   54.89    8.70
  -6  -5  -3   47.30   13.60
  -6  -5  -3   56.29   13.20
   6   5   3   83.59   13.20
  -6   5  -3   57.39   10.60
   6   5   3   52.69    9.90
   6   5   3   51.19   13.20
  -6   5  -3   54.89    9.00
  -7  -5  -3   14.70    6.60
  -7  -5  -3   19.70   14.10
   7   5   3   42.30   12.70
  -7   5  -3   14.90   10.40
   7   5   3    2.00   14.90
   7   5   3   11.30    7.50
  -8  -5  -3   34.80   16.80
  -8   5  -3   32.00   13.70
  -9  -5  -3    1.50   19.30
 -10  -5  -3   70.09   26.40
 -10   5  -3   25.30   21.30
  10  -6  -3   53.79   17.00
 -10   6   3   60.79   22.80
   9  -6  -3  -18.00   12.30
  -9   6   3   29.20   16.50
  -8  -6   3   -4.90   22.90
   8  -6  -3   24.80   12.50
   8  -6  -3   33.00    7.20
  -8   6   3   18.80   15.00
   8   6  -3   28.80   15.30
  -7  -6   3   11.20   12.30
  -7   6   3   -1.30   12.30
  -7   6   3    4.50    2.80
   7   6  -3  -11.20   14.80
   7   6  -3   11.90   12.20
   6  -6  -3  273.67   21.00
  -6  -6   3  309.67   21.40
   6   6  -3  238.08   22.70
  -6   6   3  287.57   11.60
  -6   6   3  248.68   23.80
   6   6  -3  272.47   14.80
   6   6  -3  289.07   24.50
   5  -6  -3   61.59   12.10
  -5  -6   3   45.60   10.50
   5   6  -3   36.90    7.10
   5   6  -3   46.50   12.40
   5   6  -3   40.90   11.90
  -5   6   3   40.70    6.20
   4  -6  -3   70.79   11.90
  -4  -6   3   66.99   10.50
   4   6  -3   78.89    9.80
   4   6  -3   63.59   11.60
  -4   6   3   68.99    9.60
  -4   6   3   65.99   13.10
   4   6  -3   59.89   12.70
   3  -6  -3  106.69   13.50
  -3  -6   3   94.39   12.70
  -3   6   3  105.59   15.30
   3   6  -3   73.49   12.00
   3   6  -3  104.59   10.70
  -3   6   3  100.89   11.30
   3   6  -3   85.89   13.50
  -2  -6   3   10.90    6.70
   2  -6  -3   12.90    8.50
   2  -6  -3    9.60    6.70
  -2   6   3    6.20    8.10
   2   6  -3    3.60    5.50
   2   6  -3   -0.20    7.40
  -2   6   3    8.20    6.20
   1  -6  -3  243.98   17.30
   1  -6  -3  233.58   17.50
  -1  -6   3  240.68   14.80
  -1   6   3  234.58   16.10
  -1   6   3  245.18   18.80
   1   6  -3  246.58   14.70
   1   6  -3  268.27   15.10
   1   6  -3  249.97   18.40
   0  -6  -3   62.99   11.40
   0  -6  -3   50.89    9.80
   0  -6   3   67.39    9.70
   0   6  -3   52.79    8.80
   0   6   3   48.70   10.70
   0   6  -3   55.19   11.00
   0   6   3   54.29   10.00
   1  -6   3  610.74   25.40
  -1  -6  -3  627.74   27.60
  -1  -6  -3  639.54   28.40
  -1   6  -3  621.84   25.60
   1   6   3  621.34   27.30
   1   6   3  611.54   18.60
  -1   6  -3  612.04   21.30
   1   6   3  605.44   26.50
  -1   6  -3  579.14   27.10
  -2  -6  -3  129.79   14.10
   2  -6   3  118.19   13.00
  -2  -6  -3  121.59   17.00
  -2  -6  -3  109.29   11.30
   2   6   3  132.49   13.60
  -2   6  -3  120.79   15.80
   2   6   3  103.99   16.10
  -2   6  -3  116.49   13.80
  -2   6  -3  105.69   10.30
   2   6   3  115.39    9.50
  -3  -6  -3    7.50    7.90
   3  -6   3    3.60    6.20
  -3  -6  -3  -22.60    9.60
  -3  -6  -3   -1.70    6.90
  -3   6  -3    6.70    5.00
   3   6   3   -2.50    5.80
  -3   6  -3   -2.00    8.40
  -3   6  -3    7.70    4.20
   3   6   3  -11.80    9.20
  -3   6  -3    9.30    7.40
   3   6   3   17.30    7.80
  -4  -6  -3   65.79   13.30
   4  -6   3   92.39   12.60
  -4  -6  -3   76.49   11.50
  -4  -6  -3   88.59   12.30
   4   6   3   89.79   12.80
  -4   6  -3   85.89   13.20
  -4   6  -3   93.99    7.80
   4   6   3   78.89   13.70
  -4   6  -3   95.19   10.50
  -4   6  -3   79.39   12.30
   4   6   3   76.69   13.80
   5  -6   3   18.30    8.10
  -5  -6  -3   19.70    8.10
  -5  -6  -3   26.40   10.90
   5   6   3   25.00    8.30
  -5   6  -3   25.10    4.20
  -5   6  -3   19.50    7.90
   5   6   3   18.80    9.00
  -5   6  -3   14.10    9.20
  -5   6  -3   17.50    9.90
  -6  -6  -3   -7.70    8.10
  -6  -6  -3    4.50   12.00
  -6   6  -3    2.00    4.70
   6   6   3    2.40    7.40
  -6   6  -3   -2.70    9.80
  -6   6  -3    0.60    2.80
   6   6   3  -23.60   10.80
  -6   6  -3   10.90    8.70
  -6   6  -3    8.30    9.20
  -7  -6  -3   10.40    8.50
  -7  -6  -3   15.70   15.50
   7   6   3   19.60    9.70
  -7   6  -3    8.40   12.30
   7   6   3   10.00   15.60
  -7   6  -3   30.20   12.20
  -8  -6  -3    3.10   18.70
  -8   6  -3   10.00   14.50
  -8   6  -3    8.20   15.30
  -9  -6  -3  142.89   28.20
  -9   6  -3  144.89   22.60
  -9   6  -3  121.39   25.80
 -10  -6  -3   33.30   29.10
 -10   6  -3    9.90   21.80
 -10   6  -3    9.30   22.90
   9  -7  -3   49.90   19.10
  -9   7   3   58.49   23.50
   8  -7  -3   69.49   17.20
  -8   7   3   56.29   21.30
   7  -7  -3   53.09   15.00
  -7   7   3   49.10   17.10
  -7   7   3   54.79    8.30
  -6  -7   3   45.80   15.70
   6  -7  -3    4.40   11.30
  -6   7   3   12.30   13.40
   6   7  -3   27.00   16.40
  -5  -7   3   43.50   14.00
   5  -7  -3   66.49   14.50
  -5   7   3   73.29    9.10
   5   7  -3   60.39   14.80
   5   7  -3   58.99    9.90
  -5   7   3   48.20   15.40
  -4  -7   3  128.29   15.40
   4  -7  -3  164.98   20.00
  -4   7   3  125.19   14.80
  -4   7   3  124.29   18.90
   4   7  -3  127.29   19.00
   4   7  -3  111.09   13.30
   3  -7  -3   23.60   11.10
  -3  -7   3    7.60    9.30
   3   7  -3   14.30    7.80
  -3   7   3   11.30   10.90
   3   7  -3  -12.20   12.70
  -3   7   3    7.40    8.20
   3   7  -3   12.80    9.40
   2  -7  -3  110.99   16.80
  -2  -7   3   99.19   12.30
  -2   7   3  127.09   17.20
   2   7  -3  124.79   15.40
  -2   7   3  101.59   15.30
   2   7  -3   90.49   15.70
   2   7  -3  123.79   14.40
  -1  -7   3    8.80    8.70
   1  -7  -3   37.10   13.30
   1  -7  -3   19.30   11.20
   1   7  -3   19.20    7.80
  -1   7   3    1.50    8.80
   1   7  -3   37.70   12.60
   1   7  -3   26.40    8.80
  -1   7   3   20.00   13.50
   0  -7  -3   75.39   14.10
   0   7  -3   61.19   13.90
   0   7   3   44.20   11.30
   0   7  -3   81.89   12.40
   0   7  -3   68.99   11.20
  -1  -7  -3   59.99   21.20
  -1  -7  -3   54.79   13.00
   1   7   3   46.70   11.70
  -1   7  -3   49.99   11.10
   1   7   3   48.10   12.10
  -1   7  -3   61.59   13.00
  -1   7  -3   48.70    7.60
  -2  -7  -3  113.19   22.40
  -2  -7  -3  105.19   18.60
   2   7   3   62.39   13.90
  -2   7  -3   84.69   13.20
  -2   7  -3  103.39   15.20
   2   7   3  107.59   10.10
   2   7   3   84.19   13.40
  -2   7  -3  103.59   10.40
   3  -7   3   27.70   13.00
  -3   7  -3   26.30    6.80
  -3   7  -3    9.30   10.60
  -3   7  -3   19.50    6.60
   3   7   3   32.00   10.70
  -3   7  -3   52.09   14.20
   3   7   3   36.50    7.80
   4  -7   3  119.89   16.50
  -4  -7  -3  104.89   14.50
  -4   7  -3  141.09   19.90
  -4   7  -3   99.49    9.80
   4   7   3   98.59   14.50
  -4   7  -3   95.29   13.00
  -4   7  -3  113.49   18.60
   4   7   3   83.79   11.80
  -5  -7  -3   65.79   14.20
   5  -7   3   54.79   12.10
  -5   7  -3   33.40   14.30
   5   7   3   57.39   13.10
  -5   7  -3   51.49   10.40
   5   7   3   48.30   12.10
  -5   7  -3   47.80    6.20
  -5   7  -3   55.09   14.70
  -6  -7  -3   57.09   17.40
  -6  -7  -3   35.50   15.10
   6   7   3   64.39   15.70
  -6   7  -3   54.09   17.00
  -6   7  -3   70.29   13.10
   6   7   3   56.89   12.70
  -6   7  -3   73.99    8.80
  -6   7  -3   65.59    7.40
  -7  -7  -3    6.10   11.70
  -7  -7  -3  -28.30   17.00
  -7   7  -3    9.70   13.20
  -7   7  -3  -24.00   15.60
   7   7   3   10.80   11.80
  -8  -7  -3   27.80   23.60
  -8   7  -3   90.29   23.50
  -8   7  -3   64.39   18.60
   8   7   3   61.29   13.50
  -9  -7  -3    8.30   27.80
  -9   7  -3   44.70   23.80
   8  -8  -3   41.80   19.10
  -8   8   3   11.40   23.30
   7  -8  -3   27.40   16.70
  -7   8   3   24.10   20.60
   6  -8  -3   67.69   17.80
  -6   8   3   75.19   20.60
   5  -8  -3   54.09   15.70
   5   8  -3   24.10   10.70
  -5   8   3   40.70   18.30
   5   8  -3   26.20   16.10
  -5   8   3   22.80    9.90
   4  -8  -3   40.40   14.90
  -4  -8   3   28.50   15.40
  -4   8   3   30.50   11.60
   4   8  -3   16.30   11.00
  -4   8   3    0.20   14.20
   4   8  -3    9.30   13.00
   3  -8  -3   59.29   15.80
  -3  -8   3   87.89   16.20
   3   8  -3   69.39   12.60
  -3   8   3   79.89   13.80
  -3   8   3   58.89   17.90
   3   8  -3   58.09   14.70
  -2  -8   3   12.50   12.50
   2  -8  -3    6.90   12.20
  -2   8   3   15.90   12.40
  -2   8   3   16.70   13.70
   2   8  -3  -11.40   10.40
   2   8  -3    1.00    9.90
   1  -8  -3   77.99   18.00
   1   8  -3   58.19   17.00
  -1   8   3   75.59   16.40
  -1   8   3   60.69   14.40
   0  -8  -3   12.60   12.00
   0   8   3   23.30   13.10
   0   8  -3   18.80    8.10
   0   8  -3   22.10    6.90
   0   8  -3   16.90   11.60
  -1  -8  -3   87.19   16.00
   1  -8   3   92.59   14.20
  -1   8  -3   80.09    9.40
   1   8   3   96.59   16.70
  -1   8  -3  110.49   18.30
  -1   8  -3   80.99    9.10
   2  -8   3   49.90   12.30
  -2  -8  -3   32.20   13.00
  -2   8  -3   29.40   13.20
   2   8   3   40.30   14.50
  -2   8  -3   35.00    7.40
  -2   8  -3   26.10    7.80
  -3  -8  -3   55.59   14.30
   3  -8   3   28.50   11.20
   3   8   3   28.40    9.10
  -3   8  -3   32.00    7.40
  -3   8  -3   52.39   15.20
   3   8   3   42.90   14.60
  -3   8  -3   26.30    8.50
   4  -8   3   30.90   11.60
  -4  -8  -3   -2.40   12.40
   4   8   3    1.90   13.30
  -4   8  -3   -1.70    6.70
   4   8   3   15.00   11.00
  -4   8  -3    1.40    7.90
  -4   8  -3   14.70   14.10
  -5  -8  -3    7.80   14.80
  -5   8  -3   -4.80   16.20
  -5   8  -3   -0.70   10.00
  -5   8  -3    8.50    6.80
   5   8   3   11.40   14.20
  -6  -8  -3   -6.10   13.20
  -6   8  -3   13.20   19.40
   6   8   3   15.70   14.90
   7   8   3   25.30   14.30
  -7   8  -3   55.69   23.50
   6  -9  -3  -35.60   19.90
   6   9  -3   20.40   13.80
  -6   9   3   39.20   25.70
   5  -9  -3   18.60   19.50
  -5   9   3  -22.00   21.60
   5   9  -3   -7.70   12.60
   4  -9  -3   35.90   20.00
  -4   9   3   29.60   22.90
   4   9  -3   50.39   13.70
   3  -9  -3  -12.40   16.30
   3   9  -3   23.50   14.80
  -3   9   3   19.90   19.60
   2  -9  -3   16.10   18.70
   2   9  -3   15.70   14.20
  -2   9   3   -6.50   19.00
   1  -9  -3   24.10   16.80
  -1   9   3    4.40   19.80
   1   9  -3  -15.30   13.80
   0  -9  -3   63.59   19.90
   0   9  -3   48.30    8.80
   0   9  -3   40.40   16.10
   0   9   3   47.50   18.30
  -1  -9  -3   26.10   18.20
  -1   9  -3   33.80   16.50
   1   9   3   32.50   19.10
  -2  -9  -3   36.20   18.10
   2   9   3   29.10   19.10
  -2   9  -3   57.09   17.70
  -3  -9  -3   -5.20   15.70
  -3   9  -3   14.50   19.30
  -3   9  -3   11.20    9.80
   3   9   3   48.80   19.00
  -4  -9  -3   -6.20   16.90
   4   9   3   42.50   19.50
  -4   9  -3   51.09   22.40
  -4   9  -3   18.20   10.70
  -5  -9  -3  -31.40   17.30
  -5   9  -3    3.00   21.40
   5   9   3  -12.00   17.20
   2  10  -3   14.20   19.50
   1 -10  -3   19.60   24.00
  -1  10   3   -5.30   22.70
   1  10  -3  -10.30   20.60
   0 -10  -3    5.80   22.90
   0  10  -3   47.00   21.50
   0  10   3   40.20   21.60
  -1 -10  -3   18.50   21.90
   1  10   3    2.00   22.90
  -1  10  -3   28.50   21.90
  12   0  -4   -2.80    5.10
  11   0  -4    9.10    4.90
  10   0  -4   55.39   21.70
  10   0  -4   47.70    7.20
   9   0  -4   36.40    5.00
   9   0  -4   48.80   12.80
   8   0  -4   20.80    4.00
   8   0  -4   27.20    9.60
   7   0  -4   32.90    8.20
   7   0  -4   31.30    4.70
   6   0  -4  268.47   15.80
   6   0  -4  248.88   10.00
   5   0  -4  198.08    8.40
   5   0  -4  210.68   13.10
   4   0  -4  194.88    8.00
  -4   0   4  203.08    8.80
   3   0  -4 1496.95   38.70
  -3   0   4 1559.24   39.20
   2   0  -4 1823.22   46.40
  -2   0   4 1907.41   46.60
  -2   0   4 1875.51   45.40
   1   0  -4 1588.04   37.60
  -1   0   4 1576.44   39.10
  -1   0   4 1548.95   37.50
   1   0  -4 1505.35   39.30
   0   0   4    9.10    1.90
   0   0   4   12.90    1.60
   0   0  -4   10.80    1.90
   0   0  -4   12.80    2.50
  -1   0  -4    0.20    2.20
   1   0   4    0.80    1.10
   1   0   4    1.30    1.20
  -1   0  -4    2.90    1.80
  -1   0  -4   -0.50    1.30
  -2   0  -4 2131.29   55.69
   2   0   4 2061.19   51.69
  -2   0  -4 2056.39   51.19
   2   0   4 2084.29   54.69
  -2   0  -4 2112.39   52.99
   3   0   4    4.90    3.50
   3   0   4    5.20    1.90
  -3   0  -4    7.00    3.10
  -3   0  -4    8.20    3.90
  -3   0  -4    5.50    2.20
   4   0   4 1771.42   44.30
  -4   0  -4 1767.92   46.40
   4   0   4 1552.74   51.99
  -4   0  -4 1792.52   44.90
  -4   0  -4 1752.22   50.49
  -5   0  -4   10.00    3.40
  -5   0  -4    9.60    4.10
  -5   0  -4   13.60    6.70
   5   0   4    6.80    5.50
   5   0   4   19.50    3.40
  -5   0  -4   12.80    2.10
   6   0   4  163.88    8.40
  -6   0  -4  151.08    9.40
  -6   0  -4  143.29   15.50
   6   0   4  161.78   14.30
  -7   0  -4   38.40   10.50
   7   0   4   24.00    9.50
   7   0   4   39.10    6.20
  -8   0  -4  -11.40    9.60
   8   0   4    4.10    3.70
   8   0   4   -0.10    9.10
  -8   0  -4   11.70    6.90
  -9   0  -4   60.39   18.00
   9   0   4   71.19    7.70
 -10   0  -4    1.70   17.40
  10   0   4    6.10    4.70
 -11   0  -4  -29.80   22.40
 -12   0  -4  321.87   39.80
  12  -1  -4   96.19   13.80
  12   1  -4   81.19   11.50
  11  -1  -4   -1.20    4.10
  11   1  -4   12.80    8.30
  11   1  -4    9.50    5.50
 -10  -1   4   73.59   10.60
  10  -1  -4   81.09   14.60
  10  -1  -4   76.49    7.30
  10   1  -4   72.49    9.50
  -9  -1   4   65.69    8.90
   9  -1  -4   55.99    6.20
   9  -1  -4   29.80   10.80
   9   1  -4   51.29    7.50
   9   1  -4   53.69   13.10
  -8  -1   4   15.20    4.40
   8  -1  -4   10.80    3.10
   8  -1  -4    0.50    7.90
   8   1  -4   15.80    8.70
   8   1  -4   15.80    4.00
   7  -1  -4   55.09    5.20
   7  -1  -4   67.89   10.00
   7   1  -4   55.39    6.50
   7   1  -4   38.40    8.80
   6  -1  -4   25.10    3.50
   6  -1  -4   34.40    7.70
   6   1  -4   26.60    8.10
   6   1  -4   23.90    4.10
   5  -1  -4    1.30    2.00
   5  -1  -4   -1.10    4.10
  -5   1   4   -0.80    1.90
   5   1  -4    3.60    5.20
   5   1  -4    0.50    2.30
   4  -1  -4  461.95   18.10
   4  -1  -4  483.95   14.90
  -4   1   4  486.35   14.60
   4   1  -4  455.95   15.40
   3  -1  -4 1239.98   32.80
  -3   1   4 1306.77   32.30
   3   1  -4 1230.28   33.10
  -3   1   4 1223.78   33.60
   2  -1  -4  308.07   11.20
  -2  -1   4  338.27    8.20
  -2  -1   4  332.67   11.80
  -2   1   4  315.17   11.60
  -2   1   4  307.17   10.50
   2   1  -4  309.57   11.00
   1  -1  -4  316.77   11.00
   1  -1  -4  320.97   11.70
  -1  -1   4  335.47   11.30
  -1   1   4  316.77   11.30
  -1   1   4  329.87   11.00
   1   1  -4  320.47   10.90
   0  -1   4 1562.44   38.90
   0  -1  -4 1520.65   40.20
   0  -1  -4 1555.64   39.30
   0  -1  -4 1516.55   40.30
   0   1  -4 1508.65   35.90
   0   1   4 1530.65   38.80
   0   1   4 1546.75   39.20
   0   1  -4 1471.75   38.40
   1  -1   4  937.31   24.60
  -1  -1  -4  892.81   26.50
  -1  -1  -4  932.91   25.70
  -1  -1  -4  930.71   27.30
  -1   1  -4  933.61   22.80
   1   1   4  899.81   25.60
  -1   1  -4  912.31   27.40
  -1   1  -4  914.21   24.70
   1   1   4  932.91   24.90
  -2  -1  -4   11.30    2.80
  -2  -1  -4   12.60    3.40
   2  -1   4   14.20    2.40
  -2  -1  -4   15.20    4.30
   2   1   4   14.90    2.70
   2   1   4   17.60    3.80
  -2   1  -4   15.10    4.00
   2   1   4   16.30    3.10
  -2   1  -4   11.10    2.30
   3  -1   4  669.83   18.80
   3  -1   4  685.73   22.90
  -3  -1  -4  618.84   22.10
  -3  -1  -4  673.93   24.10
  -3  -1  -4  691.13   21.10
  -3   1  -4  673.93   23.70
  -3   1  -4  696.73   20.00
   3   1   4  721.13   23.50
   3   1   4  669.33   20.90
   3   1   4  659.83   19.50
  -4  -1  -4  115.79    7.80
   4  -1   4  106.39    5.50
  -4  -1  -4  105.99    8.90
  -4  -1  -4  115.19   10.90
   4   1   4  100.39    7.40
   4   1   4  117.79   10.40
  -4   1  -4  100.79    6.60
  -4   1  -4  102.79    5.50
  -4   1  -4  103.19   10.20
   5  -1   4  183.78    7.40
  -5  -1  -4  173.68   14.40
  -5  -1  -4  181.68    6.80
   5  -1   4  168.08   12.60
  -5  -1  -4  175.38   10.10
  -5   1  -4  200.98   14.20
   5   1   4  179.58    9.90
   5   1   4  185.28   13.40
  -5   1  -4  188.28    9.60
  -5   1  -4  175.98    7.10
   6  -1   4   72.69    5.10
  -6  -1  -4   75.59    8.60
  -6  -1  -4   66.79   12.00
   6  -1   4   55.39    9.00
  -6   1  -4   72.89   11.50
   6   1   4   86.39   12.80
   6   1   4   70.29    7.80
  -7  -1  -4   51.79   12.60
  -7  -1  -4   54.69    8.30
   7  -1   4   47.90    4.40
   7  -1   4   34.40    9.60
   7   1   4   37.90    9.00
  -7   1  -4   58.29    7.60
   7   1   4   54.79    8.30
  -7   1  -4   59.09   12.80
  -8  -1  -4   -0.20    7.30
   8  -1   4    4.70    9.80
   8  -1   4   -2.70    2.50
  -8   1  -4   -6.90   10.60
  -8   1  -4    5.80    6.20
   8   1   4    6.10    5.10
  -9  -1  -4   67.39   17.30
   9  -1   4   42.30    5.50
   9   1   4   51.09    7.90
  -9   1  -4   92.09   18.60
  10  -1   4   13.50    3.30
 -10  -1  -4   30.60   19.70
  10   1   4   24.80    7.70
 -10   1  -4   11.60   17.00
 -11  -1  -4   -7.30   23.80
 -11   1  -4   23.00   24.00
 -12  -1  -4   63.09   30.00
 -12   1  -4  105.69   30.70
  12  -2  -4    1.80    9.60
  12   2  -4    4.70    8.10
  11  -2  -4    9.70    8.10
  11   2  -4   15.50    7.20
  11   2  -4    5.40    9.70
  10  -2  -4   45.30   13.90
  10  -2  -4   36.20    5.60
 -10  -2   4   37.40    9.60
  10   2  -4   48.50    9.10
  10   2  -4   29.70    7.00
  -9  -2   4   56.39    8.60
   9  -2  -4   44.20    6.10
   9  -2  -4   61.09   12.30
   9   2  -4   48.10    7.30
   9   2  -4   51.89   15.30
   9   2  -4   65.99    9.60
   8  -2  -4    5.20    8.30
   8  -2  -4   28.10    4.40
  -8  -2   4   28.30    6.00
   8   2  -4   23.40   10.30
   8   2  -4   32.10    5.80
   7  -2  -4  401.36   20.00
   7  -2  -4  373.36   13.40
  -7  -2   4  380.66   15.20
   7   2  -4  396.96   16.60
   7   2  -4  393.46   23.70
   6  -2  -4   44.20    5.10
  -6  -2   4   60.49    5.80
   6  -2  -4   45.80    7.50
  -6   2   4   45.50    5.00
   6   2  -4   56.29   10.40
   6   2  -4   43.70    6.80
   5  -2  -4   59.89    5.50
   5  -2  -4   54.79    8.00
  -5  -2   4   65.39    5.10
   5   2  -4   55.29    6.90
  -5   2   4   70.89    4.70
   5   2  -4   72.39   10.50
   4  -2  -4  151.58    9.40
  -4  -2   4  153.18    6.80
   4  -2  -4  156.68    8.00
   4   2  -4  162.28    9.10
  -4   2   4  153.88    9.80
  -4   2   4  153.58    6.60
   4   2  -4  155.68   12.40
   3  -2  -4  907.11   26.50
  -3  -2   4  940.41   24.20
   3   2  -4  935.91   27.10
  -3   2   4  962.30   25.20
  -3   2   4  897.91   27.90
   2  -2  -4  629.84   20.10
   2  -2  -4  646.34   20.40
  -2  -2   4  645.94   16.70
  -2   2   4  651.63   19.00
  -2   2   4  644.24   21.00
   2   2  -4  633.44   19.60
   1  -2  -4  680.93   21.50
   1  -2  -4  652.93   21.60
  -1   2   4  724.43   20.80
   1   2  -4  696.93   20.50
  -1   2   4  706.33   22.00
   1   2  -4  715.13   17.00
   0  -2  -4  391.66   15.40
   0  -2  -4  402.46   15.00
   0  -2  -4  414.46   14.40
   0   2  -4  420.86   11.60
   0   2  -4  418.16   13.50
   0   2   4  426.46   14.60
   0   2   4  406.06   14.80
  -1  -2  -4  332.57   13.30
  -1  -2  -4  347.77   14.20
  -1  -2  -4  340.27   13.50
   1  -2   4  336.47   11.90
   1   2   4  312.97   12.70
   1   2   4  360.36   13.50
  -1   2  -4  314.67   11.00
   1   2   4  322.77   12.60
  -1   2  -4  340.27   13.70
  -2  -2  -4  264.07   13.00
  -2  -2  -4  256.37   12.80
   2  -2   4  268.07   10.00
  -2  -2  -4  269.97   12.30
   2   2   4  269.87   11.20
  -2   2  -4  265.77   10.90
   2   2   4  269.07   12.10
   2   2   4  267.97   12.20
  -2   2  -4  268.97    9.50
  -2   2  -4  265.07   12.50
  -3  -2  -4  366.86   17.10
  -3  -2  -4  382.86   17.00
  -3  -2  -4  386.26   13.70
  -3  -2  -4  400.26   15.90
   3  -2   4  380.76   12.60
   3   2   4  380.86   16.30
  -3   2  -4  377.56   16.80
  -3   2  -4  399.26   15.50
   3   2   4  422.46   16.00
   3   2   4  384.16   14.20
  -3   2  -4  382.76   12.60
  -4  -2  -4  177.28   13.60
  -4  -2  -4  189.28   11.20
   4  -2   4  182.68   13.90
  -4  -2  -4  183.98    9.00
   4  -2   4  190.18    7.80
   4   2   4  200.38    9.90
   4   2   4  205.88   12.90
  -4   2  -4  183.18   12.60
  -4   2  -4  206.08    8.50
  -4   2  -4  216.88    9.60
   5  -2   4   39.30    7.30
  -5  -2  -4   43.20    6.80
   5  -2   4   52.29    4.20
  -5  -2  -4   44.10    8.90
  -5  -2  -4   43.50    5.30
  -5   2  -4   38.30    5.20
   5   2   4   34.80    7.80
   5   2   4   48.30    7.30
  -5   2  -4   60.69    9.60
  -5   2  -4   48.40    5.70
   6  -2   4   41.30    8.40
  -6  -2  -4   20.80    8.80
  -6  -2  -4   19.30    7.00
   6  -2   4   24.80    3.90
  -6  -2  -4   23.20    3.90
   6   2   4   27.50    8.50
  -6   2  -4   23.50    4.40
   6   2   4   24.00    6.20
  -6   2  -4   21.90    3.50
  -6   2  -4   17.70    8.30
  -7  -2  -4   36.60   12.10
   7  -2   4   32.00    9.50
   7  -2   4   25.30    4.10
  -7  -2  -4   43.10    9.80
   7   2   4   44.20    8.10
  -7   2  -4   35.90   10.70
   7   2   4   33.10   10.40
   8  -2   4   52.89   12.30
  -8  -2  -4   24.50   10.30
  -8  -2  -4   27.20   13.40
  -8   2  -4   30.90   12.10
   8   2   4   15.80   12.20
   8   2   4   39.10    7.90
  -9  -2  -4   11.00   14.20
   9   2   4   12.10    8.50
  -9   2  -4   10.00   13.20
 -10  -2  -4   66.09   21.60
 -10   2  -4   58.69   19.20
  10   2   4   57.09   11.30
 -11  -2  -4   88.39   27.50
 -11   2  -4   49.90   22.80
 -12   2  -4  101.69   32.00
  12   3  -4   55.69   12.30
  11  -3  -4   24.30    9.80
  11   3  -4   14.10    9.10
 -10  -3   4   54.89   12.40
  10  -3  -4   72.69   11.20
  10  -3  -4   69.09   14.80
  10   3  -4   78.29   12.30
  10   3  -4   56.99    9.90
   9  -3  -4   97.49   14.20
  -9  -3   4   84.19   11.10
   9  -3  -4  104.99   12.80
   9   3  -4   77.99   11.40
   9   3  -4  105.79   12.80
  -8  -3   4  -10.10    6.00
   8  -3  -4   14.20    8.10
   8   3  -4   -2.00   11.00
   8   3  -4   15.80    7.50
   7  -3  -4  296.07   12.40
  -7  -3   4  306.17   15.00
   7  -3  -4  307.77   17.70
   7   3  -4  305.77   23.10
   7   3  -4  332.07   16.60
  -6  -3   4  164.38   10.20
   6  -3  -4  166.58   11.70
   6  -3  -4  173.18    9.40
  -6   3   4  165.18    7.50
   6   3  -4  161.78   16.50
  -6   3   4  179.08   14.00
   6   3  -4  177.68   12.20
  -5  -3   4   31.40    4.90
   5  -3  -4   36.20    5.80
   5  -3  -4   27.60    5.50
   5   3  -4   36.20    8.60
  -5   3   4   33.10    7.40
  -5   3   4   29.60    3.70
   5   3  -4   41.10    6.70
  -4  -3   4 1099.49   30.50
   4  -3  -4 1100.19   31.90
   4  -3  -4 1138.99   31.90
   4   3  -4 1109.59   33.70
  -4   3   4 1057.19   34.50
  -4   3   4 1139.29   29.70
   4   3  -4 1113.69   37.10
  -3  -3   4  546.55   17.00
   3  -3  -4  544.55   19.10
  -3   3   4  528.05   21.00
   3   3  -4  548.05   15.30
  -3   3   4  586.64   17.50
  -2  -3   4  135.19    6.70
   2  -3  -4  142.09    9.30
   2  -3  -4  130.79    9.10
   2   3  -4  143.89    5.90
  -2   3   4  144.09   10.40
   2   3  -4  132.69    8.20
   2   3  -4  145.59    9.60
  -2   3   4  145.29    7.80
   1  -3  -4  112.19    6.30
   1  -3  -4  105.49    8.60
   1  -3  -4  118.59    8.70
   1   3  -4  108.99    7.40
   1   3  -4  108.89    5.60
  -1   3   4  124.99    7.80
   1   3  -4  113.09    8.40
  -1   3   4  107.29    9.20
   0  -3  -4  311.67   14.80
   0  -3  -4  341.07   12.60
   0  -3  -4  347.67   15.00
   0   3   4  328.47   14.60
   0   3  -4  340.07   11.70
   0   3  -4  314.97   12.40
   0   3  -4  340.47   14.30
   0   3   4  350.66   14.10
  -1  -3  -4 1806.22   47.90
  -1  -3  -4 1752.72   49.99
  -1  -3  -4 1675.43   46.80
  -1  -3  -4 1819.02   49.20
   1   3   4 1787.12   46.20
  -1   3  -4 1790.32   48.00
  -1   3  -4 1711.93   45.20
   1   3   4 1748.82   48.10
   1   3   4 1780.52   48.20
  -1   3  -4 1786.42   45.30
  -2  -3  -4   77.99    8.00
  -2  -3  -4   63.49   13.50
  -2  -3  -4   70.19    6.80
  -2   3  -4   70.29    4.90
   2   3   4   63.09    7.10
   2   3   4   60.39    8.30
  -2   3  -4   68.39    7.40
   2   3   4   68.69    7.00
  -2   3  -4   64.19    7.30
  -3  -3  -4  158.28   11.60
  -3  -3  -4  136.09    9.30
  -3  -3  -4  141.99   11.50
   3   3   4  149.88   10.60
  -3   3  -4  149.09    6.90
  -3   3  -4  143.29    9.70
   3   3   4  148.99    9.40
  -3   3  -4  141.49   10.60
   3   3   4  148.39   11.20
  -4  -3  -4  115.89    9.00
  -4  -3  -4  117.19   12.30
  -4  -3  -4  128.49   11.40
  -4   3  -4  128.19    6.60
  -4   3  -4  126.09    9.30
  -4   3  -4  123.29   10.90
   4   3   4  140.19   11.60
   4   3   4  129.69    9.00
   4   3   4  122.49   11.10
  -5  -3  -4   70.09   10.90
  -5  -3  -4   84.79   13.70
  -5  -3  -4   64.39    7.50
   5  -3   4   68.49    9.90
   5   3   4   64.09    8.00
  -5   3  -4   72.79   11.20
  -5   3  -4   72.59    5.50
   5   3   4   62.59    9.60
   5   3   4   77.49   11.20
  -5   3  -4   77.69    8.10
  -6  -3  -4   34.00    8.20
  -6  -3  -4   35.70   10.80
   6  -3   4   51.59    9.50
  -6  -3  -4   48.50    7.30
   6   3   4   54.99    9.30
  -6   3  -4   53.19    6.80
   6   3   4   63.29   11.10
  -6   3  -4   44.70    9.60
  -6   3  -4   44.50    5.40
  -7  -3  -4   98.49   13.20
  -7  -3  -4   68.49   13.60
   7  -3   4   85.39   13.00
   7   3   4   83.39   11.70
  -7   3  -4   87.49   13.40
   7   3   4   79.69   14.30
  -8  -3  -4   24.90   15.00
   8  -3   4    5.20   12.20
   8   3   4   38.30    9.80
  -9  -3  -4   98.39   21.50
  -9   3  -4   99.69   19.30
   9   3   4   99.29   14.80
 -10  -3  -4  -16.50   19.10
  10   3   4   36.90   15.00
 -10   3  -4   23.20   18.40
 -11  -3  -4  161.68   30.80
 -11   3  -4  149.29   28.80
  11  -4  -4   52.59   13.50
  11   4  -4   51.69   13.60
  10  -4  -4  -11.30   11.60
  10  -4  -4    9.90   10.50
  10   4  -4   10.70   12.80
  -9  -4   4   33.50   11.70
   9  -4  -4   30.10    9.70
   9  -4  -4   38.80   10.30
   9   4  -4    1.80   10.90
  -9   4   4   28.70   12.60
   8  -4  -4   -4.60    6.50
   8  -4  -4    5.00    7.10
   8   4  -4   15.50    8.60
  -8   4   4   -0.70    9.10
  -7  -4   4   56.69    8.90
   7  -4  -4   63.09    8.80
   7  -4  -4   60.49    9.70
  -7   4   4   69.19   11.60
   7   4  -4   68.59   13.80
  -7   4   4   57.69    5.40
   7   4  -4   62.49   10.00
  -6  -4   4  129.59   11.40
   6  -4  -4  117.69   11.80
   6  -4  -4  129.19   10.10
   6   4  -4  122.19   16.20
   6   4  -4  112.89   12.70
  -6   4   4  104.79    6.10
  -6   4   4  113.29   13.00
  -5  -4   4   12.20    4.80
   5  -4  -4    9.50    5.30
   5  -4  -4    4.00    3.40
   5   4  -4   10.60    5.90
  -5   4   4    3.00    5.90
   5   4  -4   -7.70    8.10
  -5   4   4    7.70    2.60
  -4  -4   4  174.28   10.50
   4  -4  -4  182.28    8.60
   4  -4  -4  175.28   11.50
   4  -4  -4  180.18   12.40
  -4   4   4  170.18   14.40
   4   4  -4  174.88   15.50
   4   4  -4  183.38    8.30
   4   4  -4  194.28   13.00
  -4   4   4  171.68    8.80
   3  -4  -4  241.48   13.50
  -3  -4   4  244.18   11.50
   3  -4  -4  262.27    9.50
   3  -4  -4  247.28   14.00
  -3   4   4  247.48   15.40
   3   4  -4  259.97   14.70
  -3   4   4  257.27   11.50
   3   4  -4  247.58    9.90
   2  -4  -4  134.99   10.50
   2  -4  -4  117.99    5.80
  -2  -4   4  132.99    8.10
   2  -4  -4  150.48   10.90
  -2   4   4  135.59   11.60
  -2   4   4  124.69    8.60
   2   4  -4  135.29    7.50
   2   4  -4  140.29   10.80
   1  -4  -4   86.39    8.50
   1  -4  -4   74.19    5.30
  -1  -4   4   76.39    6.10
   1  -4  -4   90.89    8.90
   1   4  -4   67.19    8.70
   1   4  -4   72.89    6.50
  -1   4   4   77.39    9.50
   0  -4  -4  245.88   13.70
   0  -4  -4  269.07   11.00
   0  -4  -4  256.57   15.10
   0   4   4  277.27   13.90
   0   4   4  260.17   14.50
   0   4  -4  246.48   13.40
   0   4  -4  251.77   11.70
   0   4  -4  246.88   12.00
  -1  -4  -4  296.17   14.80
  -1  -4  -4  273.67   13.10
  -1  -4  -4  302.37   16.10
  -1   4  -4  275.47   12.00
   1   4   4  290.77   15.20
   1   4   4  278.17   11.70
  -1   4  -4  282.77   14.90
  -1   4  -4  295.57   13.00
   1   4   4  287.57   14.70
  -2  -4  -4   67.29    8.60
  -2  -4  -4   51.39    8.00
  -2  -4  -4   58.59    8.30
   2   4   4   66.69    8.90
   2   4   4   70.69    7.50
  -2   4  -4   59.79    9.10
   2   4   4   76.49    9.90
  -2   4  -4   59.89    7.50
  -2   4  -4   72.89    8.10
  -2   4  -4   59.19    5.60
  -3  -4  -4   81.39    9.20
  -3  -4  -4   82.69   11.60
  -3  -4  -4   94.69   11.10
   3   4   4  105.69   11.90
   3   4   4  100.99   10.20
  -3   4  -4   83.49    5.90
  -3   4  -4   83.89    9.20
   3   4   4   91.49    9.70
  -3   4  -4   77.09    9.30
  -3   4  -4   76.09    9.80
  -4  -4  -4   38.60    8.70
  -4  -4  -4   36.50    6.90
  -4  -4  -4   44.90    9.40
  -4   4  -4   40.80    4.80
  -4   4  -4   39.70    7.90
   4   4   4   34.60    7.30
  -4   4  -4   35.90    7.40
   4   4   4   34.50    8.30
   4   4   4   42.40    6.80
  -5  -4  -4    1.30    8.40
  -5  -4  -4   14.70    8.80
  -5  -4  -4   12.80    5.10
  -5   4  -4    1.80    6.10
  -5   4  -4    4.60    2.90
   5   4   4    5.30    6.90
   5   4   4    9.80    5.70
   5   4   4   -0.20    6.80
  -6  -4  -4    3.50    9.70
  -6  -4  -4    9.90    9.90
  -6  -4  -4    8.90    5.50
   6   4   4   22.30    9.30
  -6   4  -4   12.20    6.80
   6   4   4    7.50    8.20
  -6   4  -4    3.40    3.10
  -6   4  -4   13.00    7.60
   6   4   4    8.70    5.60
  -7  -4  -4  142.39   22.50
  -7  -4  -4  123.79   10.00
   7   4   4  123.79   19.10
   7   4   4  141.59   19.10
  -7   4  -4  126.09   18.90
  -8  -4  -4   44.70   18.20
   8  -4   4   32.80   12.90
  -8   4  -4   37.90   13.30
   8   4   4   26.10   13.60
  -9  -4  -4   35.10   19.50
  -9   4  -4   43.50   18.10
 -10  -4  -4   41.70   25.10
 -10   4  -4   69.59   21.40
 -11  -4  -4   82.69   31.50
 -11   4  -4   59.49   27.50
  11  -5  -4   -7.80   14.60
 -11   5   4   -2.40   19.00
  11   5  -4   -2.30   14.30
  10  -5  -4   62.49   15.30
  10   5  -4   18.70   16.60
 -10   5   4   75.49   21.30
  -9  -5   4   49.60   14.60
   9  -5  -4   39.00   11.20
  -9   5   4   27.20   15.90
   9   5  -4    6.60   13.60
   8  -5  -4    3.20   10.00
   8  -5  -4   -2.20    6.90
  -8  -5   4   13.60   11.70
   8   5  -4   20.90   11.80
  -8   5   4   14.80   11.80
   7  -5  -4    6.30    5.10
  -7  -5   4   15.50    8.50
   7  -5  -4   23.00    9.60
   7   5  -4   21.10   10.10
  -7   5   4   11.40    2.90
   7   5  -4  -14.80   13.40
  -7   5   4    1.50   10.00
   6  -5  -4   56.89    7.20
   6  -5  -4   78.29   12.60
  -6  -5   4   70.29   10.30
   6   5  -4   70.89   12.10
  -6   5   4   68.69    6.00
   6   5  -4   63.39   14.00
  -6   5   4   62.59   12.50
  -5  -5   4   37.50    8.10
   5  -5  -4   24.70    3.50
   5  -5  -4   28.70    8.40
   5   5  -4   21.80    4.80
   5   5  -4   28.90    9.60
  -5   5   4   24.10    4.50
   5   5  -4   28.80   10.00
  -5   5   4   18.40    9.40
   4  -5  -4  504.15   23.40
  -4  -5   4  543.65   21.40
   4   5  -4  526.85   24.60
  -4   5   4  501.35   24.80
   4   5  -4  501.95   17.70
   4   5  -4  533.45   25.10
  -3  -5   4  317.77   15.10
   3  -5  -4  326.87   18.30
  -3   5   4  324.47   19.90
   3   5  -4  328.77   19.00
   3   5  -4  327.87   13.70
  -3   5   4  346.57   15.00
   3   5  -4  348.77   19.20
  -2  -5   4   29.30    5.70
   2  -5  -4   27.10    7.80
   2  -5  -4   32.50    8.40
  -2   5   4   39.40    6.90
   2   5  -4   32.80    8.80
   2   5  -4   33.00    5.40
  -2   5   4   31.50    8.00
  -1  -5   4   55.79    7.70
   1  -5  -4   58.29    9.50
   1  -5  -4   54.29    3.80
   1  -5  -4   61.39    9.70
   1   5  -4   47.00    8.80
  -1   5   4   77.79   10.20
  -1   5   4   78.29   12.30
   1   5  -4   49.70    7.60
   0  -5  -4  478.35   22.50
   0  -5  -4  445.26   15.50
   0  -5  -4  437.76   21.40
   0   5  -4  493.75   22.00
   0   5   4  477.75   20.70
   0   5   4  477.45   21.60
   0   5  -4  457.45   18.20
  -1  -5  -4  252.57   16.20
  -1  -5  -4  263.57   18.00
  -1  -5  -4  262.37   13.30
  -1   5  -4  274.27   14.30
   1   5   4  287.87   16.70
  -1   5  -4  274.07   13.10
   1   5   4  257.37   16.30
  -1   5  -4  274.97   13.50
  -1   5  -4  277.67   16.60
  -2  -5  -4   29.80    7.00
  -2  -5  -4   32.60    8.80
  -2  -5  -4   26.70    7.10
   2   5   4   37.20    5.90
  -2   5  -4   34.70    5.20
  -2   5  -4   36.90    8.60
   2   5   4   32.40    7.90
  -2   5  -4   30.60    6.00
   2   5   4   24.30    7.60
  -2   5  -4   36.00    7.30
  -3  -5  -4  177.18   14.00
  -3  -5  -4  161.58   14.10
  -3  -5  -4  141.49   15.80
  -3   5  -4  148.59   13.20
   3   5   4  132.79   13.70
  -3   5  -4  161.98   12.80
  -3   5  -4  153.08    8.90
  -3   5  -4  161.38   14.20
   3   5   4  153.68   12.80
  -4  -5  -4   26.20    7.30
  -4  -5  -4   23.50    9.90
  -4  -5  -4   40.30    9.40
   4   5   4   24.70    7.00
  -4   5  -4   15.30    8.00
  -4   5  -4   23.20    7.10
  -4   5  -4   25.60    4.30
  -4   5  -4   20.70    7.80
   4   5   4   25.30   10.00
   4   5   4   40.10    8.30
  -5  -5  -4   30.20    8.00
  -5  -5  -4   11.60    9.50
  -5  -5  -4   18.10    9.90
  -5   5  -4   23.20    8.60
  -5   5  -4   21.60    7.40
   5   5   4   20.10    9.20
  -5   5  -4   25.10    3.90
   5   5   4    5.20    9.50
   5   5   4   17.60    7.70
  -5   5  -4   16.90    8.60
  -6  -5  -4   24.20   11.70
  -6  -5  -4   43.40    8.60
  -6   5  -4   44.10    5.70
  -6   5  -4   21.90   10.20
   6   5   4   20.40   10.80
  -6   5  -4   16.40    8.90
   6   5   4   40.10   13.50
   6   5   4   37.40    8.40
  -7  -5  -4   71.39   11.80
  -7  -5  -4   79.89   17.20
   7   5   4   68.89   10.20
  -7   5  -4   85.19   14.80
   7   5   4   57.59   13.90
  -8  -5  -4    3.40   17.20
  -8   5  -4   24.00   14.60
  -9  -5  -4    6.90   20.60
  -9   5  -4   22.00   18.20
 -10  -5  -4   25.50   28.20
 -10   5  -4   21.40   22.80
  10  -6  -4   11.90   15.70
 -10   6   4   11.00   20.40
   9  -6  -4   35.50   15.20
  -9   6   4    0.10   16.80
   8  -6  -4   33.70   13.50
  -8  -6   4   32.70   15.50
  -8   6   4   39.20   15.70
  -8   6   4   49.30    5.90
   7  -6  -4   55.69   12.80
  -7  -6   4   99.79   15.00
  -7   6   4   62.49    6.60
   7   6  -4   93.39   16.10
  -7   6   4   49.70   14.60
   6  -6  -4   47.10   12.60
  -6  -6   4   62.39   12.20
   6   6  -4   64.19   14.70
   6   6  -4   70.49   16.60
   6   6  -4   53.19    8.00
  -6   6   4   53.69   13.70
  -6   6   4   47.00    6.80
  -5  -6   4    7.60    8.60
   5  -6  -4   -5.70    8.60
  -5   6   4    0.00    5.20
  -5   6   4   17.60   10.80
   5   6  -4  -11.20   10.80
   5   6  -4    1.70    5.20
   5   6  -4   11.50   11.60
  -4  -6   4  105.09   13.50
   4  -6  -4  116.19   15.90
   4   6  -4  109.69   17.20
   4   6  -4  106.79   16.40
   4   6  -4  108.09    9.90
  -4   6   4  105.89   16.20
  -4   6   4  110.99   10.90
   3  -6  -4  154.28   16.20
  -3  -6   4  232.88   15.20
   3   6  -4  171.98   12.20
   3   6  -4  189.48   18.50
  -3   6   4  201.68   14.10
   3   6  -4  229.98   17.90
  -3   6   4  197.08   19.00
  -2  -6   4  106.49   11.30
   2  -6  -4  117.69   13.80
   2  -6  -4   91.89   13.90
  -2   6   4  102.89   15.00
  -2   6   4   98.79   13.00
   2   6  -4   93.79   10.40
   2   6  -4   96.39   15.80
   2   6  -4  115.39   14.00
   1  -6  -4   52.89   11.10
   1  -6  -4   52.89   10.50
  -1   6   4   65.39   12.10
   1   6  -4   58.79   11.80
  -1   6   4   48.30   10.00
   1   6  -4   43.00    7.80
   0  -6  -4  124.59   15.20
   0  -6  -4  152.38   16.20
   0   6  -4  101.89   16.00
   0   6  -4  136.09   13.00
   0   6   4  136.49   15.10
   0   6   4  130.99   14.90
  -1  -6  -4    7.50    9.30
  -1  -6  -4   17.00    5.70
  -1  -6  -4   12.90    8.40
   1   6   4   20.10    8.50
  -1   6  -4    7.50    7.20
  -1   6  -4   16.20    5.60
  -1   6  -4   19.00    9.30
   1   6   4   14.20    8.20
  -1   6  -4   17.00    6.10
  -2  -6  -4   47.60    8.30
  -2  -6  -4   48.50   10.60
   2   6   4   35.60   11.90
  -2   6  -4   42.10    9.80
  -2   6  -4   40.30    6.70
  -2   6  -4   43.50    7.90
   2   6   4   45.70   10.10
  -2   6  -4   71.19   12.60
   2   6   4   52.99    8.60
  -3  -6  -4  -14.30   10.20
  -3  -6  -4   -3.70    7.10
  -3  -6  -4   -2.10    7.50
  -3   6  -4    7.20    9.60
  -3   6  -4   -8.50    7.30
   3   6   4    5.90    9.00
   3   6   4  -11.80    9.20
  -3   6  -4    2.00    5.90
  -3   6  -4    2.60    4.20
   3   6   4  -10.30    6.80
  -4  -6  -4  204.28   19.10
  -4  -6  -4  149.09   22.00
  -4  -6  -4  166.48   16.60
   4   6   4  201.78   16.50
   4   6   4  186.38   21.80
   4   6   4  182.28   17.00
  -4   6  -4  150.18   17.20
  -4   6  -4  180.18    9.90
  -4   6  -4  177.28   14.90
  -4   6  -4  177.68   19.40
  -5  -6  -4   47.00   13.00
  -5  -6  -4   29.90   10.00
   5   6   4   37.00   10.20
  -5   6  -4   21.80   10.80
  -5   6  -4   32.20   11.40
  -5   6  -4   23.80    9.60
   5   6   4   12.30   10.20
  -5   6  -4   29.70    4.90
  -6  -6  -4   80.69   12.20
  -6  -6  -4   59.59   16.50
  -6   6  -4   57.79   12.50
   6   6   4   35.50   14.00
  -6   6  -4   74.59   13.20
  -6   6  -4   63.39    7.10
   6   6   4   73.29   12.00
  -6   6  -4   71.39   14.00
  -7  -6  -4   39.90   10.80
  -7  -6  -4   58.09   19.80
  -7   6  -4   30.60   14.50
  -7   6  -4   45.20   14.00
   7   6   4   49.00   11.10
  -8  -6  -4   10.10   20.80
  -8   6  -4    3.10   15.50
  -8   6  -4  -14.20   15.30
  -9  -6  -4   35.00   25.70
  -9   6  -4   34.70   20.50
  -9   6  -4   33.70   21.80
   9  -7  -4   15.50   19.50
  -9   7   4   31.00   21.00
   8  -7  -4   15.70   15.60
  -8   7   4    9.10   18.10
   7  -7  -4   48.10   14.70
  -7  -7   4   48.60   18.00
  -7   7   4   27.40   16.90
   6  -7  -4   36.20   14.20
  -6  -7   4   21.20   14.30
   6   7  -4    8.50    7.00
   6   7  -4  -22.20   16.30
  -6   7   4  -10.40   14.50
  -6   7   4    4.10    6.10
   5  -7  -4    5.90   11.60
  -5  -7   4  -12.70   11.20
   5   7  -4   11.50    7.50
   5   7  -4   27.70   14.70
  -5   7   4    2.20   12.70
  -5   7   4   15.80    7.10
   4  -7  -4  144.69   20.80
  -4  -7   4  105.09   15.50
  -4   7   4   96.79   14.00
   4   7  -4   97.89   12.90
   4   7  -4  115.19   16.70
  -4   7   4   95.09   17.00
  -3  -7   4  221.48   17.90
   3  -7  -4  228.08   22.00
   3   7  -4  197.88   16.00
   3   7  -4  159.68   20.20
  -3   7   4  196.78   23.10
  -3   7   4  201.08   17.70
   2  -7  -4   59.99   13.40
  -2  -7   4   63.69   10.40
   2   7  -4   50.89   10.10
  -2   7   4   57.69   11.50
  -2   7   4   53.39   13.50
   2   7  -4   62.29   10.10
   1  -7  -4   47.30   11.40
   1  -7  -4   45.80   24.20
   1   7  -4   53.29   10.60
  -1   7   4   35.90   11.50
  -1   7   4   72.79   13.10
   1   7  -4   46.10   10.10
   0  -7  -4  259.07   34.90
   0  -7  -4  218.68   21.80
   0   7   4  247.78   21.60
   0   7   4  230.98   21.00
   0   7  -4  215.88   17.60
   0   7  -4  214.28   23.50
  -1  -7  -4   62.49   13.60
   1   7   4   67.39   12.70
  -1   7  -4  105.69   17.10
  -1   7  -4   43.90   10.50
   1   7   4   58.29   13.60
  -1   7  -4   50.59    8.80
  -2  -7  -4   -0.90    9.60
  -2   7  -4    8.90   14.80
  -2   7  -4   14.10    6.70
  -2   7  -4    4.90    6.40
   2   7   4   -5.90    5.30
   2   7   4    2.60   10.60
  -2   7  -4   21.00   10.30
  -3  -7  -4   40.40   12.20
  -3  -7  -4   19.90    9.70
  -3   7  -4   29.00    6.80
   3   7   4   28.50   10.50
   3   7   4   52.59    9.50
  -3   7  -4   34.30   11.50
  -3   7  -4   16.00    7.50
  -3   7  -4   31.00   15.20
  -4  -7  -4   11.40   11.60
  -4  -7  -4   21.50   11.90
   4   7   4   23.00   10.70
   4   7   4    0.70    9.10
  -4   7  -4    1.10   11.10
  -4   7  -4    9.90   17.10
  -4   7  -4    9.50    8.00
  -4   7  -4   11.20    5.50
  -5  -7  -4   85.19   16.80
  -5  -7  -4   74.49   14.30
  -5   7  -4  112.29   17.50
   5   7   4  105.19   15.50
   5   7   4   73.89   13.70
  -5   7  -4   85.09    9.40
  -5   7  -4   91.39   16.70
  -6  -7  -4   34.20   12.60
  -6   7  -4   40.70    6.00
  -6   7  -4    9.20   15.50
  -6   7  -4   56.49   14.00
   6   7   4   40.30   16.20
   6   7   4   22.60   12.70
  -7  -7  -4   35.30   20.90
  -7  -7  -4   25.10   13.10
   7   7   4   29.30   13.60
  -7   7  -4   28.00   15.80
  -7   7  -4   51.59   19.30
  -8  -7  -4   54.59   26.60
  -8   7  -4   12.50   19.10
   8   7   4  -23.30   12.30
  -8   7  -4   33.50   23.50
   8  -8  -4   28.70   21.10
  -8   8   4  -23.20   39.90
   7  -8  -4   57.19   20.30
  -7   8   4   19.20   22.90
   6  -8  -4   16.40   17.30
   6   8  -4   23.60   10.60
  -6   8   4    4.30   18.40
  -5  -8   4   30.00   19.60
   5  -8  -4   39.50   16.40
   5   8  -4    0.40   18.20
   5   8  -4   33.10   10.20
  -5   8   4   43.10   19.40
  -4  -8   4   94.49   15.90
   4  -8  -4   63.99   17.90
  -4   8   4   67.69   11.90
   4   8  -4   55.39   16.50
   4   8  -4   53.59   10.90
  -4   8   4   70.09   18.10
   3  -8  -4   87.39   17.90
  -3  -8   4   74.29   14.60
  -3   8   4   78.39   14.30
  -3   8   4  108.89   21.00
   3   8  -4   91.29   16.20
   3   8  -4  123.89   17.40
  -2  -8   4  101.39   15.50
   2  -8  -4   94.49   16.70
  -2   8   4  100.19   19.70
   2   8  -4   77.59   12.70
  -2   8   4  163.58   23.50
   2   8  -4  125.89   20.10
   1  -8  -4   57.29   15.50
   1   8  -4   44.10   12.00
  -1   8   4   48.40   16.30
   1   8  -4   72.39   12.50
   0  -8  -4    5.10   12.10
   0   8  -4   20.70    8.20
   0   8  -4   16.20   11.30
   0   8  -4   -2.90    9.50
   0   8   4   -1.00   12.60
  -1  -8  -4   37.50   13.70
   1   8   4   59.79   15.10
  -1   8  -4   36.60   13.40
  -1   8  -4   53.99    9.40
  -2  -8  -4   46.40   15.80
  -2   8  -4   27.20    8.60
  -2   8  -4   24.50    8.50
   2   8   4   -4.60   13.30
  -3  -8  -4   -9.70   11.80
  -3   8  -4   19.60    8.80
  -3   8  -4    2.90    7.40
  -3   8  -4    6.80   14.10
   3   8   4   10.20   13.10
   3   8   4    1.10   11.60
  -4  -8  -4   25.80   14.10
  -4   8  -4   18.50    7.20
   4   8   4   24.50   14.20
  -4   8  -4   12.90   10.90
  -4   8  -4   23.60   15.30
  -5  -8  -4   11.60   15.10
  -5   8  -4   -2.00    6.90
   5   8   4    5.60   14.90
  -5   8  -4   16.60   12.50
  -5   8  -4    9.80   16.60
  -6  -8  -4   -9.10   15.10
  -6   8  -4    2.90   19.70
   6   8   4   13.50   15.40
  -7  -8  -4   13.40   17.70
   7   8   4   36.90   21.40
  -7   8  -4   64.59   25.20
   6  -9  -4   16.70   21.20
   5  -9  -4   -0.50   19.50
   5   9  -4   -3.60   12.60
  -5   9   4  -19.90   20.30
   4  -9  -4   70.79   21.30
   4   9  -4  108.19   16.00
  -4   9   4   98.19   24.60
   3  -9  -4   17.60   18.40
   3   9  -4   21.50   13.90
  -3   9   4   17.90   21.90
   2  -9  -4   25.70   17.20
  -2   9   4   13.70   20.20
   2   9  -4   13.30   13.80
   1  -9  -4    9.70   18.10
   1   9  -4   11.40   13.90
  -1   9   4    2.50   18.60
   0  -9  -4   46.90   20.20
   0   9  -4    8.10   10.20
   0   9  -4   15.20   14.80
   0   9   4   21.00   18.00
  -1  -9  -4   92.39   20.50
  -1   9  -4   56.79   13.10
   1   9   4   85.29   21.10
  -1   9  -4   32.10   16.00
  -2  -9  -4    2.50   17.10
  -2   9  -4   58.49   12.70
  -2   9  -4   36.30   16.90
   2   9   4   25.90   19.20
  -3  -9  -4   67.69   19.90
  -3   9  -4   21.80   11.40
   3   9   4   60.49   20.30
  -3   9  -4   12.90   18.90
  -4  -9  -4  -13.80   20.10
  -4   9  -4   12.10   18.00
   4   9   4  -28.20   17.60
  -4   9  -4   12.10   20.00
  12   0  -5   90.99   11.00
  11   0  -5   19.10    5.80
  10   0  -5   14.60    4.90
   9   0  -5   31.20    5.00
   9   0  -5   21.80   12.90
   8   0  -5   23.80    4.50
   8   0  -5   24.70   10.20
   7   0  -5   21.30    8.50
   6   0  -5  465.15   22.30
   6   0  -5  473.35   15.90
   5   0  -5  101.19   10.90
   5   0  -5   96.99    6.30
  -4   0   5  188.78    9.20
   4   0  -5  201.18    8.80
   3   0  -5  516.75   16.70
  -3   0   5  535.15   16.00
  -3   0   5  558.74   17.20
   2   0  -5   73.09    5.20
  -2   0   5   68.09    4.90
  -2   0   5   73.59    5.00
  -1   0   5  131.99    6.40
   1   0  -5  128.79    5.30
   1   0  -5  123.19    6.80
  -1   0   5  123.59    4.90
   0   0   5    6.70    1.90
   0   0  -5    4.10    2.30
   0   0  -5    8.60    2.20
   0   0   5    7.60    1.90
  -1   0  -5    2.00    2.30
  -1   0  -5    0.40    1.80
   1   0   5    1.60    1.50
  -1   0  -5    0.30    3.30
   2   0   5    6.70    2.10
  -2   0  -5    3.70    3.50
  -2   0  -5    3.80    2.60
  -2   0  -5    6.40    2.50
  -3   0  -5  376.86   13.00
   3   0   5  308.37   18.20
   3   0   5  395.36   13.30
  -3   0  -5  367.86   17.30
  -3   0  -5  355.96   14.40
  -4   0  -5  303.47   12.30
  -4   0  -5  300.07   13.90
  -4   0  -5  313.87   17.30
   4   0   5  329.57   12.10
   4   0   5  302.17   16.40
   5   0   5  135.79   12.80
  -5   0  -5  117.59    8.60
   5   0   5  117.49    7.50
  -5   0  -5  121.79   10.50
  -5   0  -5  131.59   13.30
  -6   0  -5   67.09    8.20
   6   0   5   59.09    6.30
  -6   0  -5   60.69   11.10
   6   0   5   43.00    9.00
  -7   0  -5  145.99   18.00
  -7   0  -5  138.99   11.70
   7   0   5  144.49   16.90
  -8   0  -5   -0.20   11.30
   8   0   5    4.10    4.30
   8   0   5  -13.40   11.30
  -8   0  -5    1.80    7.40
   9   0   5    8.10    4.60
  -9   0  -5    2.10   16.40
 -10   0  -5   -5.60   19.70
 -11   0  -5   19.90   25.00
  12   1  -5    7.90    6.70
  11  -1  -5   57.09    8.70
  11   1  -5   82.19   11.10
  10  -1  -5   19.50   14.70
  10  -1  -5   30.50    5.70
 -10  -1   5   54.49    8.70
  10   1  -5   50.49    7.40
   9  -1  -5  268.97   12.10
   9  -1  -5  267.47   22.60
  -9  -1   5  266.67   13.90
   9   1  -5  325.17   26.20
   9   1  -5  265.67   13.10
   8  -1  -5  207.88   18.90
   8  -1  -5  182.88    9.70
  -8  -1   5  198.08   10.60
   8   1  -5  181.58   10.50
   8   1  -5  188.08   20.10
   7  -1  -5  181.88   15.70
   7  -1  -5  153.88    8.60
   7   1  -5  151.28   16.70
   7   1  -5  150.08    9.30
   6  -1  -5  131.39    7.70
   6  -1  -5  126.79   12.80
   6   1  -5  132.69   13.60
   6   1  -5  130.19    8.30
   5  -1  -5  159.88    8.30
   5  -1  -5  158.48   12.20
  -5   1   5  167.98    8.30
   5   1  -5  159.08    8.60
   5   1  -5  161.18   12.90
   4  -1  -5   26.80    4.40
   4   1  -5   38.00    4.70
  -4   1   5   36.60    4.30
  -4   1   5   38.20    5.80
   3  -1  -5  749.33   22.20
  -3   1   5  769.42   21.40
   3   1  -5  710.53   21.70
  -3   1   5  733.93   22.30
  -2  -1   5   50.79    5.00
   2  -1  -5   36.60    4.50
  -2   1   5   40.90    3.90
  -2   1   5   36.10    4.80
   2   1  -5   34.80    4.00
   1  -1  -5  133.09    7.00
  -1  -1   5  138.79    7.20
   1  -1  -5  141.69    7.90
  -1   1   5  132.99    7.00
  -1   1   5  135.79    6.70
   1   1  -5  141.99    6.90
   0  -1  -5  225.08   11.00
   0  -1   5  231.58    9.20
   0  -1  -5  223.38    9.70
   0  -1  -5  210.68   10.00
   0   1  -5  218.48    6.70
   0   1   5  220.98    9.40
   0   1  -5  245.38    9.40
   0   1   5  219.88    9.00
  -1  -1  -5  750.62   24.30
  -1  -1  -5  767.52   23.10
   1  -1   5  804.42   22.30
  -1  -1  -5  776.62   25.30
  -1   1  -5  780.02   22.60
  -1   1  -5  796.82   25.80
   1   1   5  758.02   21.80
  -1   1  -5  777.02   20.20
   1   1   5  822.62   23.30
  -2  -1  -5  630.84   21.40
  -2  -1  -5  636.04   20.00
  -2  -1  -5  611.84   22.40
   2  -1   5  617.64   18.40
  -2   1  -5  622.44   17.20
   2   1   5  651.53   20.00
  -2   1  -5  586.94   19.00
   2   1   5  603.74   18.10
  -2   1  -5  612.84   22.40
   2   1   5  606.34   21.30
  -3  -1  -5  627.54   23.90
  -3  -1  -5  618.34   20.40
   3  -1   5  639.34   18.60
  -3  -1  -5  588.74   21.70
  -3   1  -5  639.04   23.90
   3   1   5  640.74   20.30
   3   1   5  529.35   24.70
  -3   1  -5  640.84   18.20
  -3   1  -5  632.74   19.70
  -4  -1  -5 1080.99   32.00
  -4  -1  -5 1089.59   36.60
  -4  -1  -5 1031.10   33.60
   4  -1   5 1077.29   29.00
   4  -1   5 1052.99   34.60
  -4   1  -5 1069.59   36.00
   4   1   5 1060.29   33.30
   4   1   5 1093.79   35.20
  -4   1  -5 1099.69   29.00
  -4   1  -5 1059.99   30.80
  -4   1  -5 1090.19   29.50
  -5  -1  -5   15.50    5.70
   5  -1   5   30.90    4.20
  -5  -1  -5   16.00    7.50
  -5  -1  -5   27.40    4.30
  -5  -1  -5   27.00    6.00
   5  -1   5   25.10    7.40
   5   1   5   22.90    7.20
  -5   1  -5   26.40    3.70
  -5   1  -5   26.90    7.50
  -5   1  -5   22.20    4.50
  -5   1  -5   18.80    3.90
  -6  -1  -5   13.90    6.60
  -6  -1  -5    7.90    8.60
   6  -1   5   26.20    8.00
   6  -1   5   15.00    3.10
  -6   1  -5    7.40    4.40
  -6   1  -5    6.90    8.90
   6   1   5    8.10    4.70
  -6   1  -5   12.40    5.40
  -6   1  -5   15.40    2.60
   6   1   5   -4.00    7.40
   7  -1   5    7.50    8.70
  -7  -1  -5   -3.90    9.30
  -7  -1  -5   -1.00    7.00
   7  -1   5    3.50    2.90
   7   1   5   11.50    9.30
  -7   1  -5    0.20    9.90
  -7   1  -5   -5.50    5.40
   7   1   5    5.30    5.00
  -8  -1  -5  106.89   18.50
  -8  -1  -5  105.09   15.70
   8  -1   5   92.39   15.60
   8  -1   5   87.99    6.90
   8   1   5   75.39   11.10
  -8   1  -5   81.39   16.50
  -8   1  -5  126.49   12.70
   9  -1   5   36.20    4.80
  -9  -1  -5   12.30   16.70
  -9   1  -5   32.90   18.80
 -10  -1  -5  201.18   29.10
 -10   1  -5  227.98   35.90
  10   1   5  272.87   23.40
 -11  -1  -5  -37.80   24.00
  12  -2  -5  120.39   18.10
  12   2  -5  123.49   14.80
  11  -2  -5    7.40    5.20
  11   2  -5   20.50    7.80
  11   2  -5   24.20   11.30
  10  -2  -5   20.30   13.70
  10  -2  -5   41.50    5.90
 -10  -2   5   46.40    9.70
  10   2  -5   41.00   10.30
  10   2  -5   44.50    8.10
   9  -2  -5   52.29   12.90
   9  -2  -5   48.50    6.10
  -9  -2   5   52.79    8.10
   9   2  -5   80.79    9.90
   8  -2  -5  101.29   15.20
  -8  -2   5  144.99   10.00
   8  -2  -5  102.89    8.40
   8   2  -5  117.49   10.40
   8   2  -5  142.79   21.70
  -7  -2   5   93.09    7.70
   7  -2  -5   90.19    7.70
   7  -2  -5   88.09   13.00
   7   2  -5   80.49    8.60
   7   2  -5  121.59   16.50
   6  -2  -5  725.73   22.90
   6  -2  -5  706.63   32.10
  -6  -2   5  756.32   22.20
   6   2  -5  731.23   24.30
   6   2  -5  800.32   31.90
  -6   2   5  747.03   22.10
  -5  -2   5   64.69    5.00
   5  -2  -5   67.39    6.40
   5  -2  -5   57.79    8.90
   5   2  -5   86.69   11.80
  -5   2   5   62.59    5.10
  -5   2   5   55.29    8.30
   5   2  -5   62.39    6.90
   4  -2  -5  439.56   16.00
  -4  -2   5  443.86   13.30
  -4   2   5  418.36   17.30
  -4   2   5  446.16   14.20
   4   2  -5  429.06   15.90
   3  -2  -5  170.58    9.50
  -3  -2   5  201.28    6.70
   3   2  -5  181.28    9.30
  -3   2   5  192.88   10.90
  -3   2   5  186.78    8.20
   2  -2  -5  660.63   22.30
   2  -2  -5  698.03   22.00
  -2   2   5  711.33   20.90
   2   2  -5  697.33   21.40
  -2   2   5  699.53   22.70
   1  -2  -5  406.96   15.90
   1  -2  -5  433.76   15.70
   1   2  -5  410.16   14.30
  -1   2   5  421.96   15.80
  -1   2   5  428.16   14.90
   0  -2  -5  227.08   10.80
   0  -2  -5  188.18   10.10
   0  -2   5  209.08    9.70
   0  -2  -5  204.18   10.90
   0   2   5  198.88    9.90
   0   2  -5  195.08    8.80
   0   2  -5  194.88    6.40
   0   2   5  200.08    9.60
   1  -2   5  139.49    7.70
  -1  -2  -5  136.49    9.20
  -1  -2  -5  128.19    9.20
  -1  -2  -5  129.99    9.10
   1   2   5  132.69    8.10
  -1   2  -5  145.79    9.80
  -1   2  -5  139.09    7.00
   1   2   5  135.59    8.10
  -2  -2  -5  290.97   14.60
  -2  -2  -5  285.67   13.40
   2  -2   5  305.87   11.50
  -2  -2  -5  306.57   14.80
  -2   2  -5  294.87   11.10
   2   2   5  287.17   12.10
  -2   2  -5  279.17   14.60
   2   2   5  302.87   13.90
  -3  -2  -5  338.57   16.80
  -3  -2  -5  351.86   17.60
   3  -2   5  351.16   12.50
  -3  -2  -5  322.57   17.60
  -3   2  -5  345.87   12.60
   3   2   5  356.46   14.90
   3   2   5  317.97   16.20
   3   2   5  353.96   13.80
  -3   2  -5  354.86   13.60
  -3   2  -5  333.67   16.80
  -4  -2  -5   50.99    8.90
  -4  -2  -5   51.29    5.80
  -4  -2  -5   33.00    6.40
   4  -2   5   41.40    4.70
  -4  -2  -5   55.29    9.30
  -4   2  -5   39.00    7.60
   4   2   5   43.30    7.30
  -4   2  -5   48.70    6.10
   4   2   5   42.30    6.30
  -4   2  -5   45.80    5.70
   4   2   5   53.79    7.70
  -5  -2  -5  439.76   23.70
   5  -2   5  440.36   20.80
  -5  -2  -5  457.75   15.60
   5  -2   5  446.66   14.80
  -5  -2  -5  445.26   19.40
  -5   2  -5  464.85   22.80
  -5   2  -5  445.46   15.90
   5   2   5  443.86   21.60
   5   2   5  460.55   18.90
  -5   2  -5  441.26   16.20
  -6  -2  -5   29.00    8.10
   6  -2   5   51.89   10.00
  -6  -2  -5   26.20   10.10
   6  -2   5   35.50    5.00
  -6  -2  -5   34.60    5.40
  -6   2  -5   39.80    5.00
  -6   2  -5   30.50    5.50
   6   2   5   37.50    6.50
  -6   2  -5   52.19   10.80
   6   2   5   47.10   10.30
   7  -2   5  106.69    6.90
   7  -2   5  123.39   17.80
  -7  -2  -5  104.49   14.80
  -7  -2  -5  149.29   19.00
   7   2   5  117.39   12.80
   7   2   5  128.39   19.30
  -7   2  -5  120.49   18.10
   8  -2   5    5.60    3.30
   8  -2   5   -9.30   12.90
  -8  -2  -5   21.40   14.90
   8   2   5    3.00    7.60
  -8   2  -5   11.30   12.10
  -9  -2  -5    8.80   15.60
  -9   2  -5   11.30   16.10
   9   2   5   10.90    9.00
 -10  -2  -5   18.70   21.70
 -10   2  -5   15.30   20.20
 -11  -2  -5  -20.10   27.40
 -11   2  -5   14.50   25.40
  12  -3  -5   12.60   12.50
  12   3  -5    4.80   10.50
  11  -3  -5  120.19   18.90
  11   3  -5  109.69   16.60
  10  -3  -5    5.00   12.70
 -10  -3   5    9.60   11.50
  10  -3  -5   21.70    5.10
  10  -3  -5   29.50    9.90
  10   3  -5   39.80   11.80
  10   3  -5   27.90    9.60
  -9  -3   5  132.69   15.00
   9  -3  -5  123.29   15.70
   9  -3  -5  123.39   10.20
   9   3  -5  152.38   16.20
   9   3  -5  160.88   13.90
  -8  -3   5   70.59   10.80
   8  -3  -5   51.69   10.90
   8  -3  -5   85.59    8.70
   8   3  -5   78.29   11.50
   8   3  -5   80.99   13.20
   8   3  -5   91.79   17.90
  -7  -3   5   14.70    5.00
   7  -3  -5   10.40    4.70
   7  -3  -5   11.10    7.60
   7   3  -5   10.20    6.40
  -7   3   5   16.80    3.90
   7   3  -5   11.00   11.00
   7   3  -5    7.20    6.00
  -7   3   5   11.10    7.20
   6  -3  -5   37.40    5.50
  -6  -3   5   44.50    6.20
   6  -3  -5   47.00    7.90
   6   3  -5   47.80    7.70
   6   3  -5   49.10   11.00
  -6   3   5   40.60    8.50
  -6   3   5   47.10    5.30
  -5  -3   5  130.19    8.20
   5  -3  -5  141.99   10.90
   5  -3  -5  122.19    9.10
  -5   3   5  123.59   12.00
  -5   3   5  125.49    7.10
   5   3  -5  127.19   10.10
   5   3  -5  142.79   15.40
   4  -3  -5  134.39    9.50
  -4  -3   5  131.69    7.40
   4  -3  -5  140.99    9.50
  -4   3   5  128.69   11.60
   4   3  -5  140.89   10.00
  -4   3   5  143.79    7.40
  -3  -3   5  181.48    7.80
   3  -3  -5  174.58   10.70
  -3   3   5  191.98    9.10
  -3   3   5  170.78   12.30
   3   3  -5  180.48   10.30
   2  -3  -5   90.19    8.50
   2  -3  -5   93.89    8.70
  -2  -3   5   85.59    4.50
  -2   3   5   85.29    9.60
   2   3  -5  100.29    3.80
   2   3  -5   89.09    7.10
  -2   3   5   92.49    7.00
   1  -3  -5  298.57   14.10
   1  -3  -5  288.17   14.40
   1  -3  -5  290.77   12.00
   1   3  -5  287.77    8.90
  -1   3   5  298.07   14.60
   1   3  -5  288.57   13.80
   1   3  -5  292.07   12.30
  -1   3   5  273.97   14.00
   0  -3  -5  222.48   12.40
   0  -3  -5  221.48   11.10
   0  -3  -5  220.08   12.90
   0   3   5  212.98   11.30
   0   3  -5  204.88    8.40
   0   3  -5  215.88   10.10
   0   3   5  223.78   12.30
  -1  -3  -5  323.67   14.40
  -1  -3  -5  316.67   16.50
   1   3   5  316.57   14.70
  -1   3  -5  328.27   11.90
  -1   3  -5  325.97   12.20
  -1   3  -5  330.07   14.60
   1   3   5  327.67   14.70
  -2  -3  -5  114.19   10.70
  -2  -3  -5  119.99    8.60
  -2  -3  -5  111.59   11.10
  -2  -3  -5  114.39   10.00
   2   3   5  120.29    9.10
  -2   3  -5  110.79    9.00
  -2   3  -5  113.89   10.10
   2   3   5  131.89    9.90
   2   3   5  116.39    9.40
  -2   3  -5  115.89    6.80
  -3  -3  -5   44.00    6.80
  -3  -3  -5   40.20    8.30
  -3  -3  -5   51.09    8.60
   3   3   5   44.40    6.60
  -3   3  -5   44.20    7.40
   3   3   5   66.09    9.10
   3   3   5   35.20    6.50
  -3   3  -5   47.90    5.00
  -3   3  -5   59.69    7.60
  -4  -3  -5  318.57   19.30
  -4  -3  -5  322.97   14.80
  -4  -3  -5  344.17   18.00
  -4   3  -5  342.67   15.40
  -4   3  -5  341.37   12.70
   4   3   5  379.66   17.80
   4   3   5  356.26   18.00
  -4   3  -5  328.27   17.70
   4   3   5  322.67   15.10
  -5  -3  -5  439.26   17.30
  -5  -3  -5  432.16   21.60
  -5  -3  -5  423.86   23.90
  -5   3  -5  450.05   17.80
  -5   3  -5  449.56   22.60
   5   3   5  470.45   21.20
  -5   3  -5  443.36   15.50
   5   3   5  424.66   21.80
   5   3   5  468.55   18.20
  -6  -3  -5  113.29    9.20
  -6  -3  -5  109.79   17.50
  -6  -3  -5   97.79   12.90
  -6   3  -5  111.29    9.60
  -6   3  -5   94.59    8.20
   6   3   5  127.09   14.90
   6   3   5  109.19   17.00
  -6   3  -5  121.19   15.70
  -7  -3  -5    0.30    9.70
  -7  -3  -5   -2.50    3.60
   7  -3   5   -7.00    9.00
  -7   3  -5   10.40   10.30
  -7   3  -5    3.00    4.20
   7   3   5   12.30   11.60
   7   3   5   10.40    8.70
  -7   3  -5   -5.20    4.20
  -8  -3  -5  106.19   19.90
  -8   3  -5   96.69   17.20
   8   3   5  148.89   17.80
  -9  -3  -5   38.00   19.10
  -9   3  -5   47.40   17.80
   9   3   5   52.59   12.60
 -10  -3  -5   43.70   25.60
 -10   3  -5   31.20   21.30
 -11  -3  -5  -22.90   26.40
 -11   3  -5   51.29   27.30
  12   4  -5   48.00   14.30
 -12   4   5   11.70   21.70
  11  -4  -5    9.90   12.90
 -11   4   5    6.70   17.20
  11   4  -5   -3.70   12.00
 -10  -4   5   -0.50   13.10
  10  -4  -5   -5.80   18.00
  10  -4  -5  -22.50   13.20
 -10   4   5   17.60   13.40
  10   4  -5   17.30   14.10
   9  -4  -5   18.40    9.50
  -9  -4   5    8.50   10.10
   9  -4  -5   38.00   11.10
  -9   4   5    4.30   12.40
   9   4  -5   17.20    8.60
   9   4  -5   16.90   11.60
   8  -4  -5   87.39   12.60
   8  -4  -5  110.59   14.70
  -8  -4   5   86.39   11.60
   8   4  -5   82.89   12.20
   8   4  -5   90.39   18.10
  -8   4   5   85.99   14.40
   7  -4  -5   24.40    6.30
   7  -4  -5   20.50    7.30
   7  -4  -5   36.70    8.00
  -7  -4   5   23.10    7.10
   7   4  -5   18.80    6.40
   7   4  -5   23.70   13.00
  -7   4   5   36.20    5.70
  -7   4   5   24.80    9.50
   7   4  -5   17.90    8.20
   6  -4  -5  212.78   13.60
   6  -4  -5  242.68   13.70
  -6   4   5  222.78    9.80
  -6   4   5  217.38   17.70
   6   4  -5  200.58   21.00
   6   4  -5  276.47   17.40
   5  -4  -5   49.90    8.10
   5  -4  -5   45.90    7.40
  -5  -4   5   52.49    7.60
   5   4  -5   35.00    8.10
   5   4  -5   58.09   11.00
  -5   4   5   52.19    5.60
  -5   4   5   47.70    9.80
   4  -4  -5  312.17   13.00
   4  -4  -5  290.77   15.60
  -4  -4   5  300.07   13.00
  -4   4   5  284.57   14.00
  -4   4   5  285.77   18.40
   4   4  -5  320.47   17.20
   4   4  -5  290.57   15.30
   4   4  -5  325.97   20.20
  -3  -4   5   25.90    4.30
   3  -4  -5   21.10    5.80
   3   4  -5   28.00    4.10
  -3   4   5   19.80    4.40
  -3   4   5   24.60    7.30
   3   4  -5   20.70    5.50
   3   4  -5   26.80    6.80
  -2  -4   5   93.59    6.30
   2  -4  -5  105.49   10.50
   2  -4  -5   87.59   10.00
   2  -4  -5  100.69    6.70
  -2   4   5   81.09   11.40
  -2   4   5   96.49    8.30
   2   4  -5  113.69   11.00
   2   4  -5  105.59    6.20
   2   4  -5   97.99    9.00
   1  -4  -5  166.28   12.20
   1  -4  -5  165.78    8.70
   1  -4  -5  173.18   11.90
   1  -4  -5  155.28   12.50
   1   4  -5  155.78    8.00
  -1   4   5  158.78   12.60
   1   4  -5  167.38   10.30
  -1   4   5  158.98   10.60
   1   4  -5  164.28   12.30
   0  -4  -5  117.29    8.60
   0  -4  -5  114.19   10.50
   0  -4  -5   95.49   11.40
   0  -4  -5  103.79   11.90
   0   4   5  112.99   10.20
   0   4  -5  125.99    8.00
   0   4   5  108.39   11.10
   0   4  -5  112.09    8.20
   0   4  -5  115.29   10.40
  -1  -4  -5    4.40    5.70
  -1  -4  -5   -0.50    4.60
  -1  -4  -5    2.50    4.20
  -1   4  -5   -4.30    2.50
  -1   4  -5   -6.00    3.20
   1   4   5    2.20    4.80
  -1   4  -5    2.50    4.90
   1   4   5    2.20    5.60
  -2  -4  -5  300.57   15.50
  -2  -4  -5  250.97   15.30
  -2  -4  -5  268.87   16.50
   2   4   5  288.07   14.20
   2   4   5  289.47   15.40
  -2   4  -5  280.27   15.60
   2   4   5  306.67   16.70
  -2   4  -5  293.77   15.60
  -2   4  -5  301.07   13.70
  -2   4  -5  287.67   11.80
  -3  -4  -5  116.99   11.00
  -3  -4  -5  122.79   13.40
  -3  -4  -5  129.69   13.50
   3   4   5  114.89   11.40
  -3   4  -5  118.29    7.40
   3   4   5  112.69   11.70
  -3   4  -5  120.99   10.40
  -3   4  -5  113.99   11.60
   3   4   5  130.79   11.80
  -3   4  -5  155.18   12.10
  -4  -4  -5    7.50    7.40
  -4  -4  -5    8.60    6.80
  -4  -4  -5   10.70    5.60
  -4   4  -5    6.80    3.10
  -4   4  -5    9.90    6.30
  -4   4  -5   15.50    7.00
   4   4   5   -3.60    6.50
   4   4   5   13.60    6.90
   4   4   5    6.30    5.70
  -5  -4  -5  240.68   24.90
  -5  -4  -5  248.38   20.40
  -5  -4  -5  284.17   15.80
  -5   4  -5  220.08   16.90
   5   4   5  226.38   18.20
  -5   4  -5  230.08   10.80
  -5   4  -5  237.88   16.00
   5   4   5  245.88   14.80
   5   4   5  311.97   18.80
  -6  -4  -5    8.00   11.00
  -6  -4  -5    2.60    5.60
  -6  -4  -5    3.60   10.30
  -6   4  -5   25.20    8.50
  -6   4  -5    3.10    4.00
  -6   4  -5   -4.80    6.90
   6   4   5    0.70    9.60
   6   4   5   14.20   10.20
   6   4   5   10.80    7.70
  -7  -4  -5   45.40    7.40
  -7  -4  -5   45.00   15.80
   7   4   5   42.30   14.90
  -7   4  -5   37.50    7.70
   7   4   5   39.60   11.70
  -7   4  -5   37.90    5.20
  -7   4  -5   35.20   12.80
  -8  -4  -5  -10.00   15.40
  -8   4  -5   20.40   14.00
  -9  -4  -5    9.90   20.60
  -9   4  -5   24.00   19.30
 -10  -4  -5   51.79   27.00
 -10   4  -5  -32.00   22.60
  11  -5  -5  122.29   20.00
  11   5  -5  161.78   24.90
 -11   5   5  136.69   25.80
  10  -5  -5   57.19   15.80
 -10   5   5   79.99   21.00
  10   5  -5   63.79   13.80
   9  -5  -5   78.69   14.10
   9  -5  -5   68.19   13.10
  -9  -5   5   34.30   15.40
  -9   5   5   93.29   18.10
   9   5  -5   79.89   13.80
  -8  -5   5   75.19   13.00
   8  -5  -5   62.09   12.80
   8  -5  -5   25.60   12.40
  -8   5   5   60.39    7.20
  -8   5   5   30.60   14.90
   8   5  -5   28.50   13.60
   7  -5  -5   48.10   11.10
   7  -5  -5   46.20    7.50
  -7  -5   5   57.59   10.30
   7   5  -5   62.49   13.10
   7   5  -5   28.10   17.40
  -7   5   5   55.69   13.30
  -7   5   5   54.69    6.70
   6  -5  -5   49.80   10.20
   6  -5  -5   67.89    8.60
  -6  -5   5   48.40    9.40
   6   5  -5   45.30   14.20
  -6   5   5   57.19   14.50
   6   5  -5   39.30   12.10
   5  -5  -5  351.26   20.70
   5  -5  -5  346.57   12.90
  -5   5   5  338.57   22.20
  -5   5   5  338.27   14.10
   5   5  -5  372.66   23.90
   5   5  -5  321.27   21.10
   4  -5  -5  101.19   13.10
  -4  -5   5   86.99   10.00
   4  -5  -5   64.69    4.80
   4  -5  -5   67.19    5.40
  -4   5   5   80.79    8.70
   4   5  -5   76.19   11.90
  -4   5   5   67.79   12.50
   4   5  -5   58.79    6.70
   4   5  -5   68.89   12.60
   3  -5  -5  113.19    5.10
   3  -5  -5  114.79    5.50
  -3  -5   5  118.69    9.50
   3  -5  -5  108.99   12.00
   3   5  -5  113.99    7.70
   3   5  -5  112.69   13.60
  -3   5   5  122.09   10.40
  -3   5   5  119.09   14.60
   2  -5  -5   57.99    9.30
  -2  -5   5   67.39    7.40
   2  -5  -5   87.09   12.30
   2  -5  -5   56.89    4.80
   2   5  -5   69.49    7.40
   2   5  -5   75.99   11.10
  -2   5   5   71.69    9.50
   2   5  -5   73.19    9.60
  -2   5   5   66.19   10.60
   1  -5  -5   29.60    8.50
   1  -5  -5   26.50    7.70
   1  -5  -5   24.30    4.50
   1   5  -5   18.50    5.30
  -1   5   5   23.20    6.10
  -1   5   5   26.10    8.40
   1   5  -5   31.30    5.50
   1   5  -5   13.80    7.30
   0  -5  -5  177.28   16.60
   0  -5  -5  166.68   10.30
   0  -5  -5  169.88   14.30
   0   5  -5  165.48   15.00
   0   5  -5  177.08   11.10
   0   5   5  167.38   14.00
   0   5   5  156.78   14.70
   0   5  -5  176.18   11.40
  -1  -5  -5  194.48   12.40
  -1  -5  -5  182.28   17.20
  -1  -5  -5  201.18   15.90
   1   5   5  219.48   16.00
  -1   5  -5  218.08   13.40
   1   5   5  182.98   15.10
  -1   5  -5  209.48   13.10
  -1   5  -5  223.38   16.10
  -1   5  -5  196.18   11.00
  -2  -5  -5  425.06   21.40
  -2  -5  -5  419.96   20.20
  -2  -5  -5  401.96   23.20
  -2   5  -5  434.96   21.80
   2   5   5  457.95   22.80
  -2   5  -5  423.46   16.40
  -2   5  -5  458.15   19.90
   2   5   5  443.96   21.00
   2   5   5  441.46   18.10
  -2   5  -5  449.36   20.00
  -3  -5  -5   33.90    8.20
  -3  -5  -5   39.40   11.00
  -3  -5  -5   27.10    8.20
  -3   5  -5   33.40    9.80
   3   5   5   25.40   10.00
  -3   5  -5   41.60    6.30
   3   5   5   39.80    7.90
  -3   5  -5   34.50    8.10
  -3   5  -5   30.00    8.00
   3   5   5   39.30    8.40
  -4  -5  -5  267.87   22.00
  -4  -5  -5  259.17   20.20
  -4  -5  -5  221.58   17.00
  -4   5  -5  241.98   18.30
  -4   5  -5  242.48   11.40
  -4   5  -5  254.07   16.90
   4   5   5  242.48   16.40
  -4   5  -5  232.98   16.90
   4   5   5  247.88   16.90
   4   5   5  284.97   20.60
  -5  -5  -5   34.60   13.70
  -5  -5  -5   65.09   10.60
  -5  -5  -5   73.69   14.20
  -5   5  -5   92.39   14.80
   5   5   5   61.99   11.60
   5   5   5   55.89    9.50
  -5   5  -5   47.70    7.00
  -5   5  -5   64.49   11.70
  -5   5  -5   73.59   11.70
  -6  -5  -5   62.69   15.50
  -6  -5  -5   50.09    9.70
  -6   5  -5   47.30   12.50
   6   5   5   59.49   13.50
  -6   5  -5   54.59    7.50
   6   5   5   63.69   10.90
  -6   5  -5   61.89   10.90
  -7  -5  -5   28.80   17.20
  -7  -5  -5   73.99   10.30
  -7   5  -5   66.99   10.90
  -7   5  -5   85.19   16.30
   7   5   5   72.19   11.70
  -8  -5  -5   55.99   19.70
  -8   5  -5   28.70   15.50
  -9  -5  -5    8.60   21.60
  -9   5  -5   -6.90   19.00
 -10  -5  -5  -12.60   27.40
 -10   5  -5   38.70   26.20
  10  -6  -5   -5.40   16.20
 -10   6   5   32.00   21.30
  10   6  -5   60.79   16.40
   9  -6  -5   53.59   16.30
  -9   6   5    9.30   19.40
   8  -6  -5   34.40   14.30
  -8  -6   5   33.80   15.30
  -8   6   5   36.60   18.90
  -7  -6   5   44.90   13.00
   7  -6  -5   15.70   12.40
  -7   6   5   17.50   14.60
  -6  -6   5   62.59   12.00
   6  -6  -5   60.29   13.40
  -6   6   5   72.29    8.70
  -6   6   5   65.29   15.60
   6   6  -5   74.59   18.30
   5  -6  -5    1.70    9.50
  -5  -6   5   18.90    8.80
   5   6  -5    4.30   12.50
  -5   6   5   -2.20   10.30
   5   6  -5   -1.90   13.20
   5   6  -5   13.90    5.20
   4  -6  -5   46.90   15.20
  -4  -6   5   47.10    9.60
  -4   6   5   63.19   15.70
   4   6  -5   49.40   13.10
   4   6  -5   62.99    8.80
  -4   6   5   69.49   11.00
   3  -6  -5  101.29   15.30
  -3  -6   5   68.79   10.30
  -3   6   5   79.29   14.70
   3   6  -5   73.79    9.60
   3   6  -5   69.69   12.70
   3   6  -5  106.29   14.30
  -2  -6   5   79.09   12.10
   2  -6  -5  120.59   16.70
   2  -6  -5  111.49   15.80
  -2   6   5  127.29   13.50
   2   6  -5  117.69   10.70
  -2   6   5   95.89   14.20
   2   6  -5   96.39   14.40
   1  -6  -5   -1.80   10.20
   1  -6  -5   27.10    9.30
   1   6  -5   24.70    6.80
  -1   6   5    3.80    8.30
   1   6  -5   15.50    6.40
  -1   6   5   19.80    7.80
   1   6  -5   14.00    9.30
   0  -6  -5   26.30    9.00
   0  -6  -5   25.70    5.30
   0  -6  -5   37.00   11.50
   0   6  -5   29.50    7.50
   0   6   5   37.50    9.50
   0   6  -5   20.70    9.30
   0   6   5   30.00    9.80
   0   6  -5   23.80    6.30
  -1  -6  -5   22.20   12.10
  -1  -6  -5    6.60    8.40
  -1  -6  -5    8.10    6.40
  -1   6  -5   11.30    5.20
   1   6   5    4.20    8.90
  -1   6  -5  -10.80    9.90
   1   6   5    8.40    8.90
  -1   6  -5    9.50    6.20
  -1   6  -5   13.60    7.30
  -2  -6  -5  138.19   14.80
  -2  -6  -5  172.88   21.90
  -2  -6  -5  151.58   17.50
  -2   6  -5  149.19   13.80
  -2   6  -5  152.28   10.90
   2   6   5  160.18   18.20
  -2   6  -5  136.99   15.10
  -2   6  -5  145.99   18.40
  -3  -6  -5   60.99   11.70
  -3  -6  -5   82.89   13.70
  -3   6  -5   74.89   11.90
   3   6   5   93.99   13.80
  -3   6  -5   82.79   13.50
  -3   6  -5   67.99   14.20
  -3   6  -5   68.39    8.90
   3   6   5   63.89    9.60
   3   6   5   69.69   14.30
  -4  -6  -5    5.40   10.80
  -4  -6  -5    6.50    9.60
   4   6   5   29.60   10.10
  -4   6  -5   14.60   11.30
   4   6   5    3.70    8.40
  -4   6  -5   13.30    4.60
  -4   6  -5   -3.40    8.80
  -4   6  -5    2.90    8.00
  -5  -6  -5  218.28   19.70
  -5  -6  -5  222.78   24.90
  -5   6  -5  208.58   11.60
  -5   6  -5  223.98   19.00
  -5   6  -5  171.78   22.10
  -5   6  -5  233.88   22.10
   5   6   5  187.28   21.40
   5   6   5  220.28   19.10
  -6  -6  -5   21.60   10.40
  -6   6  -5   20.10   12.20
  -6   6  -5   34.20   12.90
   6   6   5   22.40   10.10
  -6   6  -5    8.90   12.80
   6   6   5    6.30   14.80
  -6   6  -5   13.20    5.80
  -7  -6  -5   37.10   19.90
  -7  -6  -5   18.40   11.80
   7   6   5   42.40   11.80
  -7   6  -5   60.59   15.40
  -7   6  -5   24.40   15.30
  -7   6  -5   39.40   13.20
  -8  -6  -5   -6.30   21.70
  -8   6  -5   -9.30   16.30
  -8   6  -5   -3.80   17.00
  -9  -6  -5   32.70   31.20
  -9   6  -5   83.79   23.40
  -9   6  -5   59.19   24.60
   9  -7  -5   41.00   20.70
  -9   7   5    7.20   21.60
   8  -7  -5   29.90   16.30
  -8   7   5  -26.00   18.70
  -7  -7   5   98.79   17.90
   7  -7  -5   46.50   16.30
  -7   7   5   38.90   17.20
   6  -7  -5    3.00   13.60
  -6  -7   5    8.60   13.70
  -6   7   5    2.50    6.80
  -6   7   5   11.90   16.10
   5  -7  -5  116.49   18.70
  -5  -7   5   87.99   14.80
   5   7  -5   77.59   11.40
  -5   7   5   89.69   18.10
  -5   7   5  131.19   14.20
   5   7  -5  113.29   20.60
  -4  -7   5   39.50   10.70
   4  -7  -5   10.30   12.50
  -4   7   5   20.70    8.50
   4   7  -5   22.60    7.40
   4   7  -5    1.90   14.40
  -4   7   5   34.80   13.90
   3  -7  -5   71.29   14.40
  -3  -7   5   71.49   10.80
  -3   7   5   42.30   15.60
   3   7  -5   87.69   14.60
   3   7  -5   65.99    9.60
  -3   7   5   63.09   10.90
   2  -7  -5    3.20   11.20
   2   7  -5    6.80    7.10
   2   7  -5    3.80   11.70
  -2   7   5    4.20   12.00
  -2   7   5    9.70    9.60
   1  -7  -5   11.90    9.50
   1   7  -5   20.90    7.60
  -1   7   5   11.50   11.40
  -1   7   5   29.50   11.60
   1   7  -5   14.90    9.90
   0  -7  -5   78.79   14.20
   0   7  -5   52.49   10.40
   0   7   5   81.59   13.40
   0   7   5   71.79   14.20
   0   7  -5   57.09    9.00
  -1  -7  -5  106.89   11.00
  -1  -7  -5  109.09   16.30
  -1   7  -5   98.59   14.60
   1   7   5  115.19   16.80
  -1   7  -5   94.69   12.30
  -1   7  -5  118.59   16.40
  -2  -7  -5  160.88   20.70
  -2  -7  -5  149.88   15.60
  -2   7  -5  168.08   16.60
   2   7   5  192.68   20.60
  -2   7  -5  174.68   19.70
  -2   7  -5  155.48   13.50
  -3  -7  -5   30.80   12.70
  -3  -7  -5   35.30   11.00
  -3   7  -5   37.90    9.80
  -3   7  -5   29.50    6.70
   3   7   5   22.20    8.60
   3   7   5   25.70   12.10
  -3   7  -5   15.80   11.20
  -4  -7  -5   89.69   15.50
  -4  -7  -5   99.99   15.70
   4   7   5  100.69   14.00
  -4   7  -5   89.29   16.10
   4   7   5   98.69   15.20
  -4   7  -5   88.69   11.00
  -4   7  -5   90.49   13.20
  -5  -7  -5   20.30   11.90
  -5  -7  -5   20.70   15.90
  -5   7  -5   16.50    6.30
  -5   7  -5    3.90   14.30
   5   7   5   20.90   12.30
   5   7   5   16.90   13.40
  -5   7  -5   28.40   11.90
  -6  -7  -5   31.80   14.20
  -6  -7  -5   23.90   19.50
   6   7   5   15.50   12.90
  -6   7  -5   41.10   15.60
  -6   7  -5   38.50    7.20
  -6   7  -5  -16.40   15.10
  -7  -7  -5   74.59   24.40
  -7  -7  -5   50.59   16.80
  -7   7  -5   89.59   19.40
  -7   7  -5   31.30   20.40
   7   7   5   42.70   14.10
  -8  -7  -5   16.50   26.40
  -8   7  -5    1.00   23.20
  -8   7  -5   33.40   25.70
   7  -8  -5   66.39   21.10
  -7   8   5   79.69   23.60
   6  -8  -5    1.60   18.00
  -6   8   5   89.29   23.30
   6   8  -5   44.60   10.20
   5  -8  -5    6.70   17.10
  -5   8   5   63.59   20.60
  -5   8   5   52.19   13.40
   5   8  -5   39.20    9.60
  -4  -8   5   35.40   13.60
   4  -8  -5   26.70   16.70
  -4   8   5   33.20   12.00
  -4   8   5   19.30   18.40
   4   8  -5    1.70   17.90
   4   8  -5   24.70    9.70
  -3  -8   5    3.90   13.20
   3  -8  -5    1.40   14.00
   3   8  -5   38.20   15.80
  -3   8   5    8.00   16.00
   3   8  -5    5.30    9.70
   2  -8  -5    9.70   14.80
   2   8  -5   12.30    9.30
  -2   8   5   30.20   16.00
   2   8  -5   -3.50   13.50
   1  -8  -5   13.60   13.50
   1   8  -5   23.80   10.60
   1   8  -5   16.40    9.70
   1   8  -5    0.70   12.90
  -1   8   5    9.90   15.40
   0  -8  -5   10.40   14.00
   0   8   5   -4.00   13.20
   0   8  -5   22.10   10.20
   0   8  -5    8.70    9.20
   0   8  -5    7.00   10.40
   0   8  -5   44.00   12.60
  -1  -8  -5   36.40   14.60
  -1   8  -5   40.70   10.80
   1   8   5   54.69   16.10
  -1   8  -5   41.60   13.30
  -1   8  -5   49.80   10.20
  -2  -8  -5  103.89   19.30
  -2   8  -5   74.49   12.20
   2   8   5   71.69   16.80
  -2   8  -5   47.20   17.60
  -2   8  -5   36.30   11.00
  -3  -8  -5   76.69   18.40
   3   8   5  104.49   18.90
  -3   8  -5   87.59   11.10
  -3   8  -5   96.19   13.70
  -3   8  -5  109.09   18.70
  -4  -8  -5   15.10   13.90
  -4  -8  -5   28.30   15.90
  -4   8  -5   21.60    8.30
   4   8   5    4.00   14.30
  -4   8  -5    7.00   15.50
  -4   8  -5   27.70   12.80
  -5  -8  -5   39.80   19.20
  -5  -8  -5   74.19   18.60
   5   8   5  109.19   19.30
  -5   8  -5   75.99   20.00
  -5   8  -5  109.09   13.80
  -5   8  -5   77.99   17.60
  -6  -8  -5   22.50   21.60
  -6  -8  -5   19.50   17.90
  -6   8  -5   -3.20   20.10
   6   8   5    7.40   16.70
   5  -9  -5  -14.20   22.10
  -5   9   5   -2.70   27.40
   5   9  -5   29.00   13.00
   4  -9  -5   18.50   19.90
  -4   9   5   20.00   22.80
   4   9  -5   17.20   13.00
   3  -9  -5   64.89   23.60
  -3   9   5   93.09   26.60
   3   9  -5   72.89   16.30
   2  -9  -5   29.00   20.40
  -2   9   5  -43.00   20.10
   2   9  -5    9.20   13.40
   1  -9  -5   51.09   20.90
  -1   9   5   56.59   21.00
   1   9  -5   70.69   16.20
   1   9  -5   83.79   15.20
   1   9  -5   78.99   14.40
   0  -9  -5   39.50   19.80
   0   9  -5   32.90   14.00
   0   9  -5    6.60   12.70
   0   9   5   24.30   20.20
   0   9  -5   10.30   14.00
  -1  -9  -5   67.39   21.60
  -1   9  -5   35.10   12.80
   1   9   5   27.30   20.10
  -1   9  -5   27.60   16.20
  -2  -9  -5   17.10   17.70
   2   9   5   25.50   18.30
  -2   9  -5    5.80   10.90
  -2   9  -5   -3.70   17.80
  -3  -9  -5   20.80   19.40
  -3   9  -5  -41.20   18.20
   3   9   5    0.00   18.50
  -3   9  -5   -0.10   10.20
  -4  -9  -5   30.50   20.40
  -4   9  -5   50.89   23.40
  12   0  -6   30.90    8.20
  11   0  -6  278.27   15.10
  10   0  -6   -5.10    4.70
   9   0  -6  111.59   17.70
   9   0  -6  131.59   10.10
   8   0  -6  130.59   17.60
   8   0  -6  111.09    8.90
   7   0  -6  299.57   12.70
   7   0  -6  245.28   19.70
   6   0  -6   36.90    5.80
   6   0  -6   47.80   10.10
   5   0  -6   25.70    4.30
  -5   0   6   19.70    4.50
   4   0  -6    5.80    3.20
  -4   0   6    7.80    3.10
  -3   0   6   31.50    4.70
   3   0  -6   33.90    4.80
  -3   0   6   33.00    4.60
  -2   0   6   68.49    5.70
   2   0  -6   66.39    5.80
  -1   0   6   20.80    3.60
   1   0  -6   20.60    3.70
   1   0  -6   19.00    3.00
   0   0   6  311.47   11.70
   0   0  -6  305.57   10.60
   0   0   6  300.37    9.20
   0   0  -6  307.57   12.60
   1   0   6   43.10    4.60
  -1   0  -6   34.50    6.10
  -1   0  -6   46.70    4.90
  -1   0  -6   40.00    5.90
  -2   0  -6  121.19   10.90
  -2   0  -6  123.39    8.70
   2   0   6  114.49    6.90
  -2   0  -6  112.09    7.20
  -3   0  -6  382.96   18.50
  -3   0  -6  328.67   15.00
  -3   0  -6  358.16   13.70
   4   0   6  286.97   12.40
  -4   0  -6  312.97   13.50
  -4   0  -6  271.97   17.80
  -4   0  -6  288.77   14.70
   4   0   6  322.47   17.30
  -5   0  -6  124.09   14.90
  -5   0  -6  134.39    9.50
   5   0   6  138.59    8.60
   5   0   6  129.39   14.10
  -5   0  -6  133.69   11.70
   6   0   6   90.29    7.60
  -6   0  -6   86.19    5.10
  -6   0  -6   84.39   13.90
  -6   0  -6   78.69    9.80
   6   0   6   92.29   13.70
  -6   0  -6   71.59    9.80
   7   0   6    6.60    4.40
  -7   0  -6    5.60   13.30
  -7   0  -6   12.40    7.20
   7   0   6    2.50    9.90
  -8   0  -6   63.29   17.70
   8   0   6   85.69    8.70
  -8   0  -6   88.59   19.80
  -9   0  -6    7.40   17.20
   9   0   6   -2.30    5.50
 -10   0  -6   31.90   25.30
 -11   0  -6  118.89   35.70
  12   1  -6   10.00    8.20
  11  -1  -6   45.60    7.40
  11   1  -6   60.59    8.70
  10  -1  -6  179.08   11.80
 -10  -1   6  193.08   14.80
  10   1  -6  178.68   13.20
  -9  -1   6   -2.70    4.40
   9  -1  -6   30.40   13.10
   9  -1  -6   -5.40    4.50
   9   1  -6    0.90    4.60
   9   1  -6  -12.30   15.60
  -8  -1   6  109.99    8.60
   8  -1  -6  115.49    8.80
   8  -1  -6  116.79   18.90
   8   1  -6  130.89   17.10
   8   1  -6  101.99    9.20
   7  -1  -6   19.30    8.90
   7  -1  -6   19.20    4.60
   7   1  -6   15.20    3.90
   7   1  -6   11.30    9.40
   6  -1  -6  183.18   10.10
   6  -1  -6  196.08   16.10
  -6   1   6  197.28   12.30
   6   1  -6  197.58   17.80
   6   1  -6  178.08   10.30
   5  -1  -6   14.00    4.10
   5   1  -6   12.50    3.80
  -5   1   6   14.80    4.50
   4  -1  -6  429.16   15.80
  -4   1   6  454.45   15.60
  -4   1   6  408.16   16.10
   4   1  -6  434.56   15.60
  -3  -1   6  325.17    9.40
   3  -1  -6  303.67   12.90
  -3  -1   6  330.77    8.50
  -3  -1   6  301.37   13.60
  -3   1   6  335.27   12.30
   3   1  -6  319.37   12.50
  -3   1   6  318.77   13.10
   2  -1  -6  264.37   11.60
  -2   1   6  276.07   10.80
   2   1  -6  262.97   11.10
  -2   1   6  268.37   11.30
   1  -1  -6  660.93   20.10
   1  -1  -6  669.33   22.00
  -1  -1   6  694.93   21.10
   1   1  -6  651.73   20.60
  -1   1   6  633.24   19.70
  -1   1   6  681.33   20.50
   0  -1  -6   61.89    7.50
   0  -1  -6   62.69    7.90
   0  -1   6   71.59    5.60
   0  -1  -6   65.19    6.80
   0   1  -6   69.79    5.80
   0   1   6   73.09    5.60
   0   1  -6   69.39    3.60
   0   1   6   66.89    5.50
  -1  -1  -6  137.89    9.20
  -1  -1  -6  136.19   10.20
  -1  -1  -6  140.69    8.40
   1  -1   6  165.28    7.90
  -1   1  -6  132.79    8.00
  -1   1  -6  132.59   10.10
   1   1   6  150.18    7.30
  -1   1  -6  145.69    6.10
  -2  -1  -6   47.10    7.50
  -2  -1  -6   42.60    6.70
   2  -1   6   35.80    4.50
  -2  -1  -6   40.90    5.80
  -2   1  -6   25.80    4.30
   2   1   6   48.00    5.10
  -2   1  -6   36.00    3.90
   2   1   6   44.70    5.70
  -2   1  -6   35.20    6.20
  -3  -1  -6  138.79   10.40
  -3  -1  -6  137.49    9.50
   3  -1   6  146.39    7.70
  -3  -1  -6  137.59   12.30
  -3   1  -6  131.79    8.90
   3   1   6  137.49    8.80
  -3   1  -6  127.39   12.00
  -3   1  -6  129.99    7.10
   3   1   6  130.69   11.20
  -4  -1  -6  873.11   30.60
  -4  -1  -6  918.71   33.60
   4  -1   6  918.11   25.90
  -4  -1  -6  918.21   28.70
  -4   1  -6  851.01   27.70
   4   1   6  898.11   31.60
   4   1   6  932.71   28.00
  -4   1  -6  852.91   27.90
  -4   1  -6  871.81   32.80
   5  -1   6 1963.80   50.59
   5  -1   6 1920.21   57.69
  -5  -1  -6 2015.90   54.59
  -5  -1  -6 2014.00   56.89
  -5  -1  -6 1835.62   59.49
  -5   1  -6 1961.50   49.90
  -5   1  -6 1940.51   60.09
  -5   1  -6 1904.81   53.29
   5   1   6 1990.30   52.89
  -5   1  -6 2043.00   51.89
   5   1   6 1946.51   58.79
  -6  -1  -6  127.19   16.50
   6  -1   6  107.09   16.10
  -6  -1  -6  105.89    6.60
  -6  -1  -6   88.59   12.60
  -6   1  -6  126.09   11.70
   6   1   6  121.59   10.80
  -6   1  -6  102.19    9.60
  -6   1  -6  147.69   17.00
  -6   1  -6  118.99    6.90
   6   1   6   91.19   13.30
   7  -1   6   22.20   12.90
  -7  -1  -6   22.90   12.80
  -7  -1  -6   25.00    9.90
  -7   1  -6   20.60    7.10
  -7   1  -6   49.40   21.00
   7   1   6   18.30   11.20
  -8  -1  -6    0.40   13.00
   8  -1   6    3.70    4.70
  -8   1  -6    6.30    8.50
   8   1   6    0.40    6.10
  -8   1  -6   -2.30   13.40
  -9  -1  -6  -10.30   16.60
  -9   1  -6   11.40   16.90
   9   1   6    8.60    7.40
 -10  -1  -6   22.10   22.70
 -10   1  -6   37.20   24.90
 -11  -1  -6    0.80   27.80
 -11   1  -6  -22.70   25.90
  12   2  -6   58.09   10.70
  11   2  -6  145.19   15.00
  11   2  -6  197.78   23.10
 -10  -2   6   51.89    9.70
  10  -2  -6   59.89    7.60
  10  -2  -6    9.80   15.90
  10   2  -6   61.09    8.80
   9  -2  -6  120.79   10.50
  -9  -2   6  106.49   11.80
   9  -2  -6  128.19   17.50
   9   2  -6  110.19   11.80
   8  -2  -6   28.10    6.20
  -8  -2   6   23.10    5.20
   8  -2  -6   15.40   10.00
   8   2  -6   20.50   12.50
   8   2  -6   31.90    6.60
   7  -2  -6  215.68   17.50
  -7  -2   6  218.58   10.80
   7  -2  -6  202.68   11.60
  -7   2   6  203.18   15.00
   7   2  -6  226.28   12.80
   7   2  -6  176.88   20.40
   6  -2  -6  188.88   10.90
   6  -2  -6  200.78   15.10
  -6  -2   6  200.18    9.00
  -6   2   6  192.38   13.50
   6   2  -6  179.78   11.20
   6   2  -6  202.48   19.10
   5  -2  -6   76.09    7.60
  -5  -2   6   77.69    5.20
   5   2  -6   72.39    7.60
  -5   2   6   83.09    9.60
  -5   2   6   69.99    7.10
  -4  -2   6   22.80    3.20
   4  -2  -6   22.10    4.70
  -4   2   6   21.40    6.10
   4   2  -6   20.00    4.40
  -4   2   6   18.10    4.10
   3  -2  -6  303.77   13.80
   3   2  -6  308.67   12.80
  -3   2   6  274.37   13.80
   2  -2  -6  172.48    9.60
   2  -2  -6  180.78   10.70
   2   2  -6  165.78    9.00
  -2   2   6  172.78   10.50
   1  -2  -6  315.97   13.60
   1  -2  -6  312.97   13.90
  -1  -2   6  309.17   13.40
   1  -2  -6  306.67   14.10
   1   2  -6  322.87   12.60
  -1   2   6  324.07   13.60
  -1   2   6  322.87   13.20
   0  -2  -6  162.88   10.30
   0  -2  -6  181.98   10.70
   0  -2  -6  167.48   11.00
   0   2  -6  169.88    5.30
   0   2  -6  168.38    5.00
   0   2   6  165.08    9.80
   0   2   6  169.68    9.40
   0   2  -6  182.88    9.00
  -1  -2  -6    4.30    4.30
  -1  -2  -6    7.00    4.30
   1  -2   6    3.40    2.90
  -1  -2  -6    6.80    4.00
  -1   2  -6    5.50    1.50
   1   2   6    2.00    3.30
   1   2   6    3.30    3.40
  -1   2  -6    2.90    2.60
  -1   2  -6    1.80    4.20
   2  -2   6  260.67   11.20
  -2  -2  -6  261.97   14.90
  -2  -2  -6  245.78   13.40
  -2  -2  -6  257.97   14.50
  -2   2  -6  225.48   14.40
  -2   2  -6  257.37   11.20
   2   2   6  237.78   11.30
   2   2   6  262.57   12.90
  -2   2  -6  259.47    8.80
  -3  -2  -6   73.59    9.60
  -3  -2  -6   80.49   10.60
  -3  -2  -6   75.59   10.80
   3  -2   6   65.79    6.30
  -3   2  -6   74.49    7.30
   3   2   6   81.09    7.10
  -3   2  -6   64.59    6.40
   3   2   6   58.39    9.60
   3   2   6   72.39    8.20
  -3   2  -6   72.59   10.80
  -4  -2  -6   73.69   11.20
  -4  -2  -6   78.29    9.70
   4  -2   6   71.59    6.30
  -4  -2  -6   87.69   12.80
  -4   2  -6   82.49    8.10
  -4   2  -6   71.19    7.20
   4   2   6   64.39    9.10
   4   2   6   69.09    7.40
   4   2   6   93.99   11.50
  -4   2  -6   85.09   12.00
   5  -2   6  136.59    8.20
  -5  -2  -6  106.89   14.80
  -5  -2  -6  136.29    9.20
  -5  -2  -6  119.59   12.80
   5   2   6  138.89   11.80
  -5   2  -6  137.89    9.80
  -5   2  -6  170.48   16.20
  -5   2  -6  127.29    9.50
   5   2   6  164.88   15.50
   6  -2   6  305.87   20.20
  -6  -2  -6  296.77   12.70
  -6  -2  -6  359.36   19.80
  -6  -2  -6  343.27   24.00
   6  -2   6  303.97   12.70
  -6   2  -6  322.07   22.50
  -6   2  -6  307.17   13.40
   6   2   6  304.57   21.90
   6   2   6  323.67   17.00
  -6   2  -6  333.97   15.50
  -6   2  -6  362.36   15.20
   7  -2   6   57.49   12.90
  -7  -2  -6   62.29    4.60
  -7  -2  -6   59.49   12.10
   7  -2   6   69.09    7.20
  -7  -2  -6   76.79   15.50
   7   2   6   58.89   14.10
  -7   2  -6   52.69   16.80
  -7   2  -6   63.29    9.20
  -7   2  -6   44.40    5.50
  -7   2  -6   55.49    8.60
   7   2   6   68.79   10.10
  -8  -2  -6   76.69   18.80
   8  -2   6   58.29    7.80
  -8   2  -6   71.49   16.60
  -9  -2  -6   -5.10   20.70
  -9   2  -6   -3.20   17.60
   9   2   6    2.90   10.00
 -10  -2  -6  -27.50   22.50
 -10   2  -6  -14.70   22.10
 -11  -2  -6  -53.99   34.60
 -11   2  -6  -25.30   27.10
  12  -3  -6   45.90   14.20
  12   3  -6   12.60   10.80
  11  -3  -6   36.60   12.50
  11   3  -6   32.30   11.10
  10  -3  -6   78.39   11.20
 -10  -3   6   92.09   13.40
  10  -3  -6   54.29   16.00
 -10   3   6   75.29   16.40
  10   3  -6   93.59   14.70
  10   3  -6   93.09   15.20
  -9  -3   6   19.70    8.30
   9  -3  -6   10.50   12.20
   9  -3  -6   27.50    6.50
   9   3  -6   16.40    8.30
  -9   3   6    5.70   10.70
   9   3  -6   12.10    9.90
   8  -3  -6  101.69   11.10
   8  -3  -6  120.39   15.10
  -8  -3   6  113.99   11.80
   8   3  -6  129.59   12.50
  -8   3   6  115.79   16.40
   7  -3  -6   27.10    6.20
   7  -3  -6   35.80    9.20
  -7   3   6   24.80    9.30
   7   3  -6   18.60   12.90
   7   3  -6   24.60    6.50
   6  -3  -6  231.58   13.30
   6  -3  -6  224.58   16.00
  -6  -3   6  249.58   11.70
  -6   3   6  233.98   16.60
   6   3  -6  225.38   13.70
   6   3  -6  252.27   22.50
   5  -3  -6   97.89   10.80
   5  -3  -6  100.69    9.50
  -5  -3   6  116.69    7.50
   5   3  -6   94.89    9.60
   5   3  -6  112.39   16.00
  -5   3   6  108.99   12.60
  -5   3   6   94.19    7.10
   4  -3  -6   46.00    7.00
  -4  -3   6   42.60    4.90
  -4   3   6   42.50    8.20
  -4   3   6   46.70    5.40
   4   3  -6   40.50    6.30
  -3  -3   6   44.80    3.10
   3  -3  -6   38.40    6.20
  -3   3   6   35.60    7.00
   3   3  -6   45.30    6.80
  -3   3   6   41.20    5.50
   2  -3  -6   98.39    9.60
  -2   3   6  104.59    8.10
  -2   3   6  108.99   10.90
   2   3  -6  104.29    8.10
   1  -3  -6  162.48   11.70
   1  -3  -6  160.88    9.90
  -1   3   6  170.38   10.10
   1   3  -6  155.08    9.30
  -1   3   6  158.98   11.30
   0  -3  -6   61.99    8.20
   0  -3  -6   57.09    8.50
   0  -3  -6   71.39    9.80
   0   3  -6   62.39    8.00
   0   3  -6   61.29    4.60
   0   3   6   57.59    7.50
   0   3  -6   69.39    6.40
   0   3   6   61.99    8.10
  -1  -3  -6  122.29   11.80
  -1  -3  -6  123.89   11.60
  -1  -3  -6  120.69   10.50
   1   3   6  123.19    9.70
  -1   3  -6  118.79    7.10
  -1   3  -6  127.49   10.70
   1   3   6  128.59    9.90
  -1   3  -6  126.39    7.70
  -1   3  -6  124.09   10.40
  -2  -3  -6  135.19   12.80
  -2  -3  -6  155.48   13.00
  -2  -3  -6  148.79   12.50
   2   3   6  174.98   11.70
  -2   3  -6  161.68   11.30
   2   3   6  149.59   10.80
  -2   3  -6  163.78    8.90
  -2   3  -6  134.79   12.30
  -3  -3  -6   98.79   12.80
  -3  -3  -6  106.59   12.30
  -3  -3  -6  117.79   12.30
  -3  -3  -6  121.79    9.80
   3   3   6  110.49   10.60
   3   3   6  115.09   11.40
  -3   3  -6   88.49    7.30
  -3   3  -6   97.09   11.90
  -3   3  -6   79.49   10.50
   3   3   6   99.79    9.20
  -4  -3  -6  742.73   30.80
  -4  -3  -6  759.72   29.20
  -4  -3  -6  745.83   25.20
  -4   3  -6  706.63   23.00
  -4   3  -6  738.53   29.50
   4   3   6  738.73   27.30
   4   3   6  727.03   28.80
  -4   3  -6  742.43   28.90
   4   3   6  744.53   25.10
  -5  -3  -6  697.73   24.70
  -5  -3  -6  732.03   29.80
  -5  -3  -6  732.13   32.70
   5   3   6  726.63   30.40
   5   3   6  760.92   28.20
  -5   3  -6  686.43   23.20
   5   3   6  690.13   24.60
  -5   3  -6  732.53   25.30
  -5   3  -6  774.12   31.90
  -6  -3  -6   35.20    6.70
  -6  -3  -6   26.10   11.60
  -6  -3  -6   25.00    9.90
   6   3   6   44.40   11.20
  -6   3  -6   34.60    9.60
   6   3   6   37.40    8.50
  -6   3  -6   27.80    7.30
  -6   3  -6   23.60    5.80
  -7  -3  -6   53.09   15.90
  -7  -3  -6   38.30    6.00
  -7   3  -6   49.99   14.30
   7   3   6   32.90   10.00
  -7   3  -6   45.50    7.40
  -7   3  -6   39.40    6.00
  -8  -3  -6   19.60   17.60
  -8   3  -6   26.50   15.90
   8   3   6    4.40   10.60
  -9  -3  -6   25.00   22.60
  -9   3  -6   28.10   17.00
 -10   3  -6   14.90   22.60
  11  -4  -6  109.59   17.60
  11   4  -6  167.48   21.30
 -11   4   6  120.09   23.10
 -10  -4   6   -8.40   14.00
  10  -4  -6   26.20   12.10
  10  -4  -6   35.60   16.40
 -10   4   6   12.00   15.70
  10   4  -6   -7.80    9.50
   9  -4  -6  101.69   14.00
  -9  -4   6   98.69   14.60
   9  -4  -6   91.49   15.30
   9  -4  -6   78.59   12.30
  -9   4   6   95.89   16.50
   9   4  -6  111.49   16.60
   9   4  -6   85.09   12.30
   8  -4  -6   41.40   10.10
   8  -4  -6   11.60    7.60
  -8  -4   6    0.30    8.00
   8   4  -6   -0.70    7.30
  -8   4   6   15.10    5.30
   8   4  -6   17.80   11.60
  -8   4   6   27.80   12.50
   7  -4  -6  186.88   14.50
   7  -4  -6  228.08   21.30
  -7  -4   6  172.58   16.60
  -7   4   6  161.48   18.60
  -7   4   6  178.08   11.10
   7   4  -6  169.38   25.60
   7   4  -6  195.08   18.30
   6  -4  -6  147.59   13.30
   6  -4  -6  153.18   13.60
  -6  -4   6  157.78   11.70
   6   4  -6  189.98   16.20
  -6   4   6  136.79   16.90
   6   4  -6  172.88   21.60
   6   4  -6  168.48   13.50
  -6   4   6  149.19    9.10
   5  -4  -6   68.99    9.80
  -5  -4   6   81.89    8.50
   5  -4  -6   87.09   11.30
  -5   4   6   95.79   13.30
  -5   4   6   79.19    7.20
   5   4  -6   94.69   14.80
   5   4  -6   91.39   12.20
   5   4  -6   80.99   10.50
   4  -4  -6   26.60    7.30
  -4  -4   6   20.60    4.40
   4  -4  -6   22.70    5.40
   4   4  -6    9.60    6.90
  -4   4   6   19.40    4.70
  -4   4   6   14.90    7.50
   4   4  -6    9.40    5.30
  -3  -4   6  387.06   12.90
   3  -4  -6  401.86   15.10
   3  -4  -6  439.26   20.10
   3   4  -6  398.46   17.40
   3   4  -6  402.96   20.00
  -3   4   6  398.86   16.30
  -3   4   6  393.56   20.40
   2  -4  -6   79.89    7.70
   2  -4  -6   97.59   11.50
   2  -4  -6   97.79   11.60
  -2   4   6   83.59   12.00
   2   4  -6   92.69   10.70
   2   4  -6   84.39    4.80
   2   4  -6   86.99    8.60
  -2   4   6  103.89    9.30
   1  -4  -6   23.30    7.40
   1  -4  -6   24.70    4.80
   1  -4  -6   14.90    7.00
   1   4  -6   20.30    7.00
  -1   4   6    8.00    6.50
   1   4  -6   15.60    4.60
   1   4  -6   19.10    3.10
  -1   4   6   15.10    4.90
   0  -4  -6   62.89    8.20
   0  -4  -6   85.09   12.00
   0  -4  -6   65.19    9.50
   0  -4  -6   91.89   13.10
   0   4  -6   75.49    7.70
   0   4   6   81.79   10.40
   0   4  -6   74.09   10.20
   0   4   6   85.69    9.10
   0   4  -6   76.69    6.70
  -1  -4  -6   93.69   10.20
  -1  -4  -6   70.59   11.30
  -1  -4  -6   83.49   10.00
  -1  -4  -6   84.69   11.20
   1   4   6   80.59   10.60
   1   4   6  107.79   11.20
  -1   4  -6   79.59    8.30
  -1   4  -6   80.19   10.30
  -1   4  -6   91.39    7.60
  -1   4  -6   83.19   10.70
  -2  -4  -6  112.59   14.00
  -2  -4  -6  120.19   12.40
  -2  -4  -6  126.99   11.60
   2   4   6  104.59   11.70
  -2   4  -6  124.79   12.50
   2   4   6  130.49   12.10
  -2   4  -6  130.29   12.30
  -2   4  -6  126.49    8.30
  -2   4  -6  115.29    9.80
  -3  -4  -6  112.09   15.20
  -3  -4  -6  100.29   11.20
  -3  -4  -6  106.99   14.40
  -3   4  -6  123.59   10.70
   3   4   6  115.49   11.60
  -3   4  -6  118.69   13.00
   3   4   6  128.29   13.10
  -3   4  -6  126.29   13.10
  -3   4  -6  120.99    8.50
   3   4   6  147.09   14.20
  -4  -4  -6  243.78   19.60
  -4  -4  -6  306.37   21.60
  -4  -4  -6  287.27   16.60
   4   4   6  287.27   16.50
  -4   4  -6  311.07   13.30
  -4   4  -6  268.37   16.70
   4   4   6  320.47   19.10
   4   4   6  300.67   18.80
  -4   4  -6  302.47   19.30
  -5  -4  -6  158.38   19.80
  -5  -4  -6  170.48   14.20
  -5  -4  -6  183.98   19.80
  -5   4  -6  167.58   10.30
   5   4   6  161.88   18.60
   5   4   6  159.58   14.10
  -5   4  -6  171.98   14.80
  -5   4  -6  209.88   18.10
  -6  -4  -6  124.49   13.20
  -6  -4  -6   98.19   27.40
  -6   4  -6  123.09   10.10
  -6   4  -6  135.59   14.80
   6   4   6  107.89   14.30
   6   4   6  108.09   16.20
   6   4   6   96.99   13.20
  -6   4  -6  155.18   17.90
  -7  -4  -6   16.50   16.40
  -7  -4  -6    9.40    7.00
  -7   4  -6    9.70    9.50
  -7   4  -6   11.90   12.30
  -7   4  -6    7.90    5.80
  -8  -4  -6   41.90   19.50
  -8   4  -6   66.09   17.90
  -9  -4  -6   -0.50   23.30
  -9   4  -6   10.80   19.80
 -10  -4  -6  -14.90   27.40
 -10   4  -6   12.20   25.40
  11  -5  -6   27.00   17.50
  11   5  -6   10.20   14.90
 -11   5   6   20.90   23.40
  10  -5  -6   37.90   15.50
 -10   5   6   37.80   21.30
  10   5  -6   62.39   13.50
   9  -5  -6  -13.40   11.90
  -9  -5   6   43.20   13.80
  -9   5   6  -30.90   14.10
   9   5  -6   15.60   10.20
  -8  -5   6   45.90   12.00
   8  -5  -6   67.29   14.60
   8  -5  -6   32.80   10.60
   8   5  -6   35.10   11.50
  -8   5   6   38.20   15.90
   7  -5  -6   31.30    7.70
  -7  -5   6   35.30    9.80
   7  -5  -6   38.50   11.30
   7   5  -6   31.10    9.80
  -7   5   6   26.80   12.80
   7   5  -6   23.70   13.90
  -7   5   6   35.90    5.80
   6  -5  -6  123.89   18.90
  -6  -5   6  103.29   13.30
   6  -5  -6  155.48   11.40
  -6   5   6  136.79   18.50
   6   5  -6   83.09   14.00
   6   5  -6  124.69   14.90
  -6   5   6  117.19    9.50
   6   5  -6  120.59   18.70
   5  -5  -6   14.50    5.20
   5  -5  -6   19.90    8.50
  -5  -5   6   29.40    7.00
   5   5  -6   10.20   12.90
  -5   5   6   21.80    5.30
   5   5  -6   16.90   10.20
  -5   5   6   12.40    9.30
   4  -5  -6   58.29    6.80
   4  -5  -6   67.59   10.60
  -4  -5   6   65.59    7.70
   4  -5  -6   71.19    7.70
   4   5  -6   75.49   14.10
  -4   5   6   85.59    9.60
   4   5  -6   54.29   11.50
   4   5  -6   82.19   10.70
  -4   5   6   53.59   11.50
   3  -5  -6  159.08    9.00
   3  -5  -6  161.38    9.40
  -3  -5   6  158.68    9.30
   3  -5  -6  170.58   15.10
  -3   5   6  165.28   12.20
   3   5  -6  144.19   13.00
   3   5  -6  150.18    8.00
  -3   5   6  162.08   17.30
   3   5  -6  187.18   16.80
   2  -5  -6   23.30    8.10
   2  -5  -6   10.80    4.30
   2  -5  -6    4.10    7.50
   2   5  -6    9.50    5.50
   2   5  -6   12.90    7.60
  -2   5   6   15.20    9.00
   2   5  -6   11.50    4.00
  -2   5   6    0.90    5.10
   1  -5  -6   61.19   10.20
   1  -5  -6   54.39   10.70
   1  -5  -6   59.79    7.50
   1   5  -6   50.69    7.80
  -1   5   6   33.80    9.20
   1   5  -6   35.00    8.90
  -1   5   6   61.29    8.80
   1   5  -6   52.79    7.50
   0  -5  -6  134.49   14.10
   0  -5  -6  173.38   17.60
   0  -5  -6  165.98   11.80
   0   5  -6  143.19   10.40
   0   5  -6  112.79   14.50
   0   5   6  137.09   14.30
   0   5   6  138.19   13.30
   0   5  -6  158.48   11.00
  -1  -5  -6   78.69   12.80
  -1  -5  -6   87.79   12.80
  -1  -5  -6   71.49   11.70
  -1   5  -6   76.19   12.30
   1   5   6  102.29   13.70
   1   5   6   85.49   13.60
  -1   5  -6   71.69    8.30
  -1   5  -6   71.09   10.10
  -1   5  -6   98.99   12.30
  -2  -5  -6   32.60    9.00
  -2  -5  -6   55.09   11.30
  -2  -5  -6   31.80    8.40
   2   5   6   39.90    8.90
   2   5   6   30.40    9.50
  -2   5  -6   34.80    8.40
  -2   5  -6   24.10    5.30
  -2   5  -6   40.40    8.10
  -2   5  -6   41.80    9.70
  -3  -5  -6   15.00    8.10
  -3  -5  -6   20.70   10.80
  -3  -5  -6   11.00    8.60
   3   5   6   22.70    9.10
   3   5   6   10.00    7.80
   3   5   6   17.30    7.60
  -3   5  -6   13.50    4.20
  -3   5  -6    6.20    8.10
  -3   5  -6   11.50    7.50
  -3   5  -6   16.30    8.40
  -4  -5  -6  352.46   25.40
  -4  -5  -6  339.37   23.10
  -4  -5  -6  364.86   21.10
   4   5   6  347.97   22.00
  -4   5  -6  363.36   20.30
   4   5   6  315.77   21.10
   4   5   6  334.57   19.90
  -4   5  -6  329.47   21.00
  -4   5  -6  345.27   14.70
  -4   5  -6  345.37   21.90
  -5  -5  -6  499.05   25.00
  -5  -5  -6  500.05   30.40
   5   5   6  464.95   23.30
  -5   5  -6  457.15   24.60
  -5   5  -6  493.75   18.10
  -5   5  -6  481.85   25.90
   5   5   6  511.65   27.40
  -5   5  -6  475.65   26.60
  -6  -5  -6   25.60    9.60
  -6  -5  -6   20.90   15.20
   6   5   6   39.60   13.50
   6   5   6   26.60    9.80
  -6   5  -6   14.20   11.90
  -6   5  -6   37.10    6.30
  -6   5  -6   41.10   13.10
  -7  -5  -6   31.10    9.80
  -7  -5  -6   32.80   18.40
  -7   5  -6   35.10   15.80
  -7   5  -6   13.70   10.60
  -7   5  -6   44.40    7.00
  -8  -5  -6   34.60   22.90
  -8  -5  -6   70.59   11.10
  -8   5  -6   48.80   18.70
  -9  -5  -6   27.00   25.80
  -9   5  -6   -5.90   21.10
  10  -6  -6   13.80   19.20
  10   6  -6   33.30   15.30
 -10   6   6   15.80   22.40
   9  -6  -6   35.70   18.00
  -9   6   6   72.29   23.10
   9   6  -6   56.09   14.70
   8  -6  -6   -1.30   13.50
   8   6  -6    5.90   12.10
  -8   6   6   -0.10   17.00
  -7  -6   6   81.69   14.30
   7  -6  -6   51.29   14.40
  -7   6   6   59.69   16.50
  -7   6   6   48.30    7.00
   7   6  -6   48.50   13.10
   6  -6  -6   25.50   11.90
  -6  -6   6    1.90   10.00
  -6   6   6    1.50   13.10
   6   6  -6   -1.60    9.40
  -6   6   6   11.10    5.60
  -5  -6   6   24.50    8.60
   5  -6  -6   12.40   11.30
   5   6  -6   26.00   14.00
  -5   6   6    2.80   11.90
   5   6  -6   13.30    9.00
  -5   6   6   11.30    6.60
  -4  -6   6   29.20    7.10
   4  -6  -6   -3.70    9.20
   4   6  -6   20.20    8.10
  -4   6   6    1.90   11.30
  -4   6   6   28.20    7.20
   4   6  -6   12.70    4.80
   4   6  -6  -17.90   13.40
  -3  -6   6  100.59   10.80
   3  -6  -6  115.19   17.00
   3   6  -6  113.99   13.90
  -3   6   6   89.69   13.00
   3   6  -6  111.29    9.00
   3   6  -6   91.49   16.40
  -3   6   6   93.49   18.10
   2  -6  -6   97.79   16.00
   2  -6  -6   99.59   14.30
   2   6  -6  135.59   13.40
   2   6  -6  113.89   10.00
  -2   6   6  107.09   13.40
   2   6  -6   98.99   15.90
   1  -6  -6    5.40   10.70
   1  -6  -6   12.80    4.70
   1   6  -6    5.90    5.30
  -1   6   6    3.00    9.90
   1   6  -6    3.10    5.90
   1   6  -6    7.60   11.10
  -1   6   6   21.00    8.40
   0  -6  -6   87.09   10.70
   0  -6  -6   83.19   13.40
   0  -6  -6   81.99   13.40
   0   6   6   84.79   12.00
   0   6  -6   87.49   10.80
   0   6  -6   86.79   14.90
   0   6   6   74.39   19.40
   0   6  -6   91.69   11.30
  -1  -6  -6  127.69   16.10
  -1  -6  -6  128.19   20.00
  -1  -6  -6   93.59   13.30
   1   6   6  120.59   17.30
  -1   6  -6   82.29   12.10
  -1   6  -6   77.49   10.00
  -1   6  -6   78.29   13.90
   1   6   6   81.09   16.00
  -1   6  -6  112.99   13.60
  -2  -6  -6   38.00    9.60
  -2  -6  -6   52.29   24.10
  -2  -6  -6   31.10   10.30
  -2   6  -6   25.00    9.10
  -2   6  -6   20.90    5.90
  -2   6  -6   22.80    8.70
   2   6   6   32.30    9.40
  -2   6  -6   21.80   12.00
  -3  -6  -6  167.88   18.20
  -3  -6  -6  189.18   19.70
  -3   6  -6  156.48   21.70
  -3   6  -6  182.98   18.10
   3   6   6  167.48   18.40
  -3   6  -6  159.88   16.70
  -3   6  -6  166.58   12.00
  -4  -6  -6  158.68   20.10
  -4  -6  -6  105.09   16.50
  -4   6  -6  107.09   10.50
   4   6   6  116.69   16.90
   4   6   6  112.49   14.30
  -4   6  -6   99.59   14.00
  -4   6  -6  115.49   17.80
  -4   6  -6   84.29   15.60
  -5  -6  -6   67.49   12.90
  -5  -6  -6   69.89   17.20
  -5   6  -6   42.40    7.30
   5   6   6   56.69   14.70
   5   6   6   37.00   12.00
  -5   6  -6   80.99   16.60
  -5   6  -6   53.29   13.40
  -5   6  -6   63.19   14.20
  -6  -6  -6   72.89   13.60
  -6  -6  -6   80.99   20.40
  -6   6  -6   76.79   17.90
  -6   6  -6   66.19   15.30
  -6   6  -6   62.99   15.10
  -6   6  -6   50.29    7.60
   6   6   6   67.29   12.30
  -7  -6  -6   23.20   12.90
  -7  -6  -6   34.60   21.30
   7   6   6   39.90   13.70
  -7   6  -6   20.00   15.80
  -7   6  -6   46.10   18.00
  -8  -6  -6   57.59   28.20
  -8   6  -6   36.90   19.40
  -8   6  -6   62.99   22.50
   9  -7  -6   -9.60   20.00
  -9   7   6   20.70   30.60
   8  -7  -6   30.30   18.30
  -8   7   6   55.09   22.80
   8   7  -6   46.40   16.30
   7  -7  -6   39.00   16.30
  -7   7   6   15.40   19.80
   7   7  -6    2.10   12.60
   6  -7  -6   86.09   18.90
  -6   7   6  109.99   14.10
  -6   7   6   84.49   19.10
   6   7  -6   79.99   14.60
  -5  -7   6   55.49   12.00
   5  -7  -6   24.00   14.70
  -5   7   6   49.90    9.50
   5   7  -6   12.10   11.00
   5   7  -6   41.70    7.60
  -5   7   6   42.70   17.60
   4  -7  -6   13.60   14.00
  -4  -7   6   49.90   10.30
  -4   7   6   37.40   10.40
   4   7  -6   50.79    7.70
   4   7  -6   49.60   17.90
  -4   7   6   49.20   16.50
   4   7  -6   30.60   11.60
   3  -7  -6   27.20   14.30
  -3   7   6   44.20   16.00
   3   7  -6   40.40   17.60
  -3   7   6   25.60    9.30
   3   7  -6   42.00    7.60
   3   7  -6   28.80   10.90
   2  -7  -6   25.40   12.50
   2   7  -6   27.60    7.30
   2   7  -6   39.40    9.50
  -2   7   6   32.90   14.60
  -2   7   6   33.00   10.90
   1  -7  -6   65.19   14.90
   1   7  -6   46.60    9.30
  -1   7   6   37.20   14.50
   1   7  -6   46.00    9.70
   0  -7  -6   26.90   12.20
   0   7  -6   21.80    7.80
   0   7   6   23.20   13.10
   0   7  -6   21.80    9.00
  -1  -7  -6   31.40   13.10
  -1  -7  -6   36.00    8.20
  -1   7  -6   31.10   10.00
  -1   7  -6   39.80   10.70
   1   7   6   31.20   13.70
  -1   7  -6   41.70    8.20
  -2  -7  -6    6.00    9.60
  -2  -7  -6   -5.90   11.90
  -2   7  -6    0.20    6.90
  -2   7  -6   18.70    9.80
  -2   7  -6    7.20   10.30
   2   7   6   17.00   11.50
  -3  -7  -6   14.70   11.10
  -3  -7  -6   42.90   13.80
   3   7   6    3.60   11.50
  -3   7  -6    5.30   10.80
  -3   7  -6   25.20   10.10
  -3   7  -6    6.60    6.10
  -4  -7  -6  150.58   19.10
  -4  -7  -6  176.48   26.10
   4   7   6  151.48   21.20
   4   7   6  224.18   22.20
  -4   7  -6  151.28   21.70
  -4   7  -6  189.28   13.90
  -4   7  -6  146.69   18.80
  -5  -7  -6  194.08   24.70
  -5  -7  -6  211.98   24.90
   5   7   6  179.38   23.10
  -5   7  -6  246.98   24.30
  -5   7  -6  169.38   14.10
   5   7   6  155.28   21.10
  -6  -7  -6   44.50   15.40
  -6  -7  -6   31.90   21.40
  -6   7  -6   36.20   20.40
   6   7   6   53.69   14.80
  -6   7  -6   39.00   17.40
  -7  -7  -6   67.39   26.40
  -7  -7  -6   68.09   18.50
  -7   7  -6   78.19   22.60
   7   7   6   34.60   15.30
  -7   7  -6   47.20   22.60
   7  -8  -6   10.00   21.20
  -7   8   6   15.20   24.40
   7   8  -6  -22.90   17.30
   6  -8  -6   26.80   20.00
  -6   8   6  -13.10   23.10
   6   8  -6   10.60   14.60
   5  -8  -6   10.30   19.00
   5   8  -6   29.50    9.30
   5   8  -6   15.60   14.50
  -5   8   6    8.30   20.40
   4  -8  -6    2.20   17.70
   4   8  -6   -4.40    8.80
   4   8  -6   -1.30   13.80
  -4   8   6  -15.90   18.30
   3  -8  -6   11.00   16.40
   3   8  -6   33.60   12.10
   3   8  -6  -18.90   17.50
   3   8  -6   32.70    9.60
  -3   8   6   37.40   19.10
   2  -8  -6   39.10   16.00
   2   8  -6   38.50   10.50
  -2   8   6   15.20   17.50
   2   8  -6   12.90   10.40
   2   8  -6   -1.70   17.30
   1  -8  -6    1.30   15.40
   1   8  -6   -4.50    8.70
   1   8  -6   -4.00   10.00
   1   8  -6   -0.70   15.90
  -1   8   6    7.30   14.10
   0  -8  -6   22.60   16.70
   0   8  -6   -1.50   10.70
   0   8  -6   17.50    8.90
   0   8   6   22.60   14.60
   0   8  -6   20.70   11.30
  -1  -8  -6    7.70   16.30
  -1   8  -6   17.90    9.00
   1   8   6    7.10   15.00
  -1   8  -6   -2.30   11.10
  -1   8  -6   -6.60   12.30
  -2  -8  -6   45.90   16.30
  -2   8  -6   42.60    9.30
  -2   8  -6   40.50   15.00
   2   8   6   63.59   18.80
  -2   8  -6   41.90   12.80
  -3  -8  -6   65.89   19.30
   3   8   6   60.79   18.50
  -3   8  -6   43.80    9.50
  -3   8  -6   36.40   13.80
  -3   8  -6   12.80   15.10
  -4  -8  -6   44.40   29.10
  -4  -8  -6   12.20   16.30
   4   8   6   46.50   16.80
  -4   8  -6   58.49   18.30
  -4   8  -6   67.19   16.30
  -4   8  -6   51.19    9.80
  -5  -8  -6    4.90   17.70
  -5   8  -6   20.30   27.70
  -5   8  -6  -37.50   18.30
   5   8   6   15.00   16.80
   4  -9  -6   34.40   23.60
   4   9  -6   16.20   17.20
   4   9  -6   12.10   13.00
  -4   9   6   58.19   27.90
   3  -9  -6   24.70   22.80
  -3   9   6   31.40   24.50
   3   9  -6   18.60   14.80
   3   9  -6   39.90   16.50
   2  -9  -6   24.70   19.90
  -2   9   6   -3.00   23.20
   2   9  -6   24.60   14.50
   2   9  -6   37.20   28.40
   1  -9  -6   67.39   23.70
   1   9  -6   51.89   18.60
   1   9  -6   23.90   14.00
   1   9  -6   73.99   16.00
  -1   9   6    9.20   19.40
   0  -9  -6   22.70   18.50
   0   9   6   19.40   19.80
   0   9  -6   -3.70   11.50
   0   9  -6   18.60   15.60
   0   9  -6    7.80   14.90
  -1  -9  -6   87.69   22.90
  -1   9  -6   84.49   14.00
  -1   9  -6   52.59   18.50
   1   9   6   26.80   21.90
  -2  -9  -6   -6.60   19.40
  -2   9  -6   -8.20   18.00
   2   9   6   16.00   21.30
  -2   9  -6    9.10   11.40
  12   0  -7   46.80   10.10
  11   0  -7    6.40    7.20
  10   0  -7    7.30    6.20
   9   0  -7   41.70   25.80
   8   0  -7   30.70   13.90
   8   0  -7   33.90    6.30
   7   0  -7    2.60    3.90
   7   0  -7   13.10   10.00
   6   0  -7  359.06   22.00
   6   0  -7  324.47   14.50
   5   0  -7   84.29    7.60
  -5   0   7   91.89    8.80
  -5   0   7   91.79    7.90
  -4   0   7  311.67   12.30
   4   0  -7  305.57   13.60
  -4   0   7  321.57   13.80
  -3   0   7  145.99    8.80
   3   0  -7  144.99    9.10
  -3   0   7  140.89    7.20
   2   0  -7  196.08   10.30
  -2   0   7  214.98   10.40
  -2   0   7  209.58    8.30
   1   0  -7    9.00    3.40
   1   0  -7    4.80    2.40
  -1   0   7   10.80    3.20
  -1   0   7    9.90    2.10
   0   0  -7  172.18   12.00
   0   0  -7  173.68   10.10
   0   0   7  182.28    9.20
   0   0  -7  171.08    8.20
   0   0   7  172.38    6.40
  -1   0  -7    8.70    4.10
  -1   0  -7   12.70    3.60
   1   0   7   14.30    3.40
  -1   0  -7    1.30    4.90
   2   0   7  280.27   12.10
  -2   0  -7  274.17   14.10
  -2   0  -7  303.07   17.10
  -2   0  -7  280.67   12.30
  -3   0  -7  176.68   10.30
  -3   0  -7  164.08   11.50
   3   0   7  171.28    9.60
  -3   0  -7  184.48   14.20
   4   0   7  278.27   12.30
  -4   0  -7  262.37   13.60
  -4   0  -7  269.07   18.70
  -4   0  -7  279.17   15.00
  -5   0  -7   72.09   12.30
  -5   0  -7   91.39   11.10
  -5   0  -7   84.09   11.30
   5   0   7   92.79    8.00
   5   0   7   97.69   14.70
  -6   0  -7  477.05   22.90
  -6   0  -7  472.25   21.40
   6   0   7  470.95   17.90
  -6   0  -7  471.65   15.50
   6   0   7  499.05   27.40
   7   0   7   28.30    6.00
  -7   0  -7   19.40    9.10
  -7   0  -7   32.30   14.70
  -8   0  -7    5.70   14.30
   8   0   7   -4.60    6.20
  -9   0  -7   63.19   21.70
 -10   0  -7   16.10   26.40
  12   1  -7    6.30    9.00
  11  -1  -7   22.80    7.70
  10  -1  -7   73.99   11.10
 -10  -1   7  107.19   12.70
  10   1  -7  113.19   12.40
   9  -1  -7   56.29   16.20
  -9  -1   7   38.90    6.90
   9  -1  -7   29.40    6.70
   9   1  -7   28.50    6.50
   8  -1  -7   14.80    5.50
  -8  -1   7   28.50    5.20
   8  -1  -7   60.79   14.20
   8   1  -7   30.90    5.70
   8   1  -7   17.00   14.00
  -7  -1   7    3.80    3.10
   7  -1  -7   -2.10    4.10
   7  -1  -7   -8.90    8.90
   7   1  -7    1.60    4.10
   7   1  -7   14.00   11.20
  -7   1   7    6.60    6.00
   6  -1  -7   24.80    9.00
   6  -1  -7   45.80    6.60
   6   1  -7   51.09    7.30
  -6   1   7   45.20    7.20
  -6   1   7   48.60    7.40
   6   1  -7   32.00   10.40
   5  -1  -7  465.95   18.40
   5   1  -7  523.65   18.40
  -5   1   7  466.65   18.50
  -5   1   7  515.85   18.20
   4  -1  -7   44.20    6.80
  -4  -1   7   43.40    6.20
  -4   1   7   50.49    6.90
  -4   1   7   58.99    6.70
   4   1  -7   52.59    6.10
   3  -1  -7  494.25   18.50
  -3  -1   7  481.15   18.30
  -3   1   7  479.65   17.30
  -3   1   7  499.45   17.20
   3   1  -7  473.35   17.40
   2  -1  -7  406.56   16.70
  -2  -1   7  414.56   16.00
   2   1  -7  433.76   15.90
  -2   1   7  410.66   14.90
  -2   1   7  437.86   15.50
  -1  -1   7  214.88   10.90
   1  -1  -7  247.58   10.40
   1  -1  -7  227.98   12.30
   1   1  -7  211.48   10.50
  -1   1   7  226.48   10.00
  -1   1   7  235.98   10.60
   0  -1   7  439.26   16.00
   0  -1  -7  428.76   18.90
   0  -1  -7  432.16   17.70
   0  -1  -7  447.16   15.90
   0   1   7  440.06   15.80
   0   1   7  429.96   14.50
   0   1  -7  420.76   16.30
   0   1  -7  431.86   12.40
  -1  -1  -7  176.28   10.30
  -1  -1  -7  168.38   12.50
   1  -1   7  172.28    9.20
  -1  -1  -7  172.88   11.80
   1   1   7  180.58    8.40
  -1   1  -7  178.48   10.20
  -1   1  -7  175.28   12.90
  -1   1  -7  171.38    7.70
   1   1   7  183.98    9.80
  -2  -1  -7  105.09   11.40
  -2  -1  -7  112.59    9.50
   2  -1   7   92.59    7.30
  -2  -1  -7   93.39    9.50
   2   1   7  102.19    8.10
  -2   1  -7  108.39   11.50
   2   1   7   97.39    6.60
  -2   1  -7   99.89    8.30
  -2   1  -7   99.39    6.80
  -3  -1  -7    7.50    6.60
   3  -1   7    5.60    3.50
  -3  -1  -7    2.70    5.00
  -3  -1  -7   -7.20    4.50
  -3   1  -7   -5.40    5.30
  -3   1  -7    0.30    4.00
  -3   1  -7    5.70    3.30
   3   1   7   -2.60    3.70
   4  -1   7   46.10    6.80
  -4  -1  -7   49.70    7.40
  -4  -1  -7   50.29   10.20
  -4  -1  -7   41.60    7.80
  -4   1  -7   47.10    7.40
   4   1   7   45.20    8.30
  -4   1  -7   47.70    6.80
  -4   1  -7   33.40    9.40
   4   1   7   57.19    7.40
   5  -1   7  114.19    8.60
  -5  -1  -7  129.49   15.60
  -5  -1  -7  109.09   14.10
  -5  -1  -7   91.69   11.90
  -5   1  -7  120.09    8.70
   5   1   7  125.19   10.40
   5   1   7   96.19   15.60
  -5   1  -7  113.39    9.70
  -5   1  -7  108.79   11.50
  -5   1  -7  146.89   16.80
  -6  -1  -7  153.98   15.60
   6  -1   7  157.48   17.70
  -6  -1  -7  161.18    8.70
  -6  -1  -7  156.68   16.80
   6  -1   7  155.68   10.00
   6   1   7  159.38   11.80
  -6   1  -7  153.58    9.40
   6   1   7  160.08   20.00
  -6   1  -7  126.19   12.10
  -6   1  -7  154.58   14.20
   7  -1   7   -4.60    4.20
  -7  -1  -7    2.70   10.20
  -7  -1  -7  -17.50   12.70
  -7   1  -7   -7.80    7.90
  -7   1  -7    2.80    8.30
   7   1   7    1.80    6.10
  -7   1  -7   14.10   13.80
   8  -1   7  156.08   11.00
  -8  -1  -7  136.59   24.10
   8   1   7  127.39   13.80
  -8   1  -7  156.08   24.60
  -9  -1  -7   63.19   21.70
   9   1   7   20.60    8.70
  -9   1  -7    4.30   22.20
 -10  -1  -7   43.00   28.90
 -10   1  -7   10.30   26.40
  12   2  -7   29.20   10.40
  11  -2  -7   13.30    8.10
  11   2  -7   -6.40    7.90
  10  -2  -7   51.49    8.70
 -10  -2   7   68.99   10.50
  10   2  -7   57.09    9.60
   9  -2  -7   20.00    6.80
  -9  -2   7   15.90    6.70
   9  -2  -7   34.50   13.50
   9   2  -7   23.20    6.60
  -9   2   7   23.10   10.00
   8  -2  -7  141.89   19.50
  -8  -2   7  106.39    9.60
   8  -2  -7   93.49   10.80
  -8   2   7   83.09   11.90
   8   2  -7  113.29   11.20
  -7  -2   7   68.19    7.10
   7  -2  -7   63.39    9.40
   7  -2  -7   64.69   11.70
  -7   2   7   75.39   10.90
   7   2  -7   55.29   14.30
   7   2  -7   76.49    9.00
  -7   2   7   75.09    9.40
   6  -2  -7   89.49   14.20
   6  -2  -7   63.39    8.70
  -6  -2   7   66.09    5.90
   6   2  -7  107.29   15.40
  -6   2   7   61.39    7.80
   6   2  -7   72.99    8.60
  -6   2   7   54.19    9.10
   5  -2  -7  274.37   14.20
  -5  -2   7  270.57    9.60
   5   2  -7  266.37   13.10
  -5   2   7  268.77   15.50
  -5   2   7  275.27   12.20
   4  -2  -7   85.29    9.20
  -4  -2   7   79.39    3.60
  -4  -2   7   93.99    3.70
  -4   2   7   98.69    7.50
   4   2  -7   77.09    7.30
  -4   2   7   77.49   10.10
   3  -2  -7  312.67   15.10
  -3   2   7  296.97   14.90
   3   2  -7  306.37   13.60
  -3   2   7  313.07   12.80
   2  -2  -7   90.99    8.10
   2  -2  -7   83.49    8.60
  -2   2   7   94.19    7.10
   2   2  -7   96.99    7.50
  -2   2   7   90.09    8.60
   1  -2  -7  171.98   12.00
   1  -2  -7  200.18   11.00
  -1  -2   7  193.98   11.40
   1  -2  -7  190.88   12.20
  -1   2   7  176.68   10.40
   1   2  -7  182.88   10.00
  -1   2   7  168.38    9.70
   0  -2  -7  230.18   12.50
   0  -2   7  201.18   11.00
   0  -2  -7  199.38   12.80
   0  -2  -7  208.58   13.00
   0   2   7  215.38   10.90
   0   2  -7  201.48   10.60
   0   2   7  194.08   10.80
   1  -2   7    8.50    3.70
  -1  -2  -7   -3.50    4.60
  -1  -2  -7    6.60    4.90
  -1  -2  -7   -3.60    4.70
  -1   2  -7    7.20    3.70
   1   2   7    0.50    3.70
  -1   2  -7    5.70    2.00
  -1   2  -7    1.80    5.10
   1   2   7    5.20    3.70
  -2  -2  -7  345.77   17.70
   2  -2   7  328.97   13.80
  -2  -2  -7  303.37   15.80
  -2  -2  -7  327.47   17.80
  -2   2  -7  330.07   11.00
  -2   2  -7  296.67   13.70
   2   2   7  322.27   15.00
  -2   2  -7  310.57   18.10
   2   2   7  303.37   13.40
  -3  -2  -7   97.89   11.40
   3  -2   7   78.69    7.60
  -3  -2  -7   74.19   10.70
  -3  -2  -7   82.79   11.50
   3   2   7  101.89    9.80
  -3   2  -7   78.29   11.90
  -3   2  -7   90.59    8.40
  -3   2  -7   87.29    6.10
   3   2   7   95.59    8.30
   4  -2   7   45.50    5.90
  -4  -2  -7   59.19    9.90
  -4  -2  -7   45.20   10.40
  -4  -2  -7   45.60    9.20
  -4   2  -7   58.09    6.30
  -4   2  -7   60.99    8.30
   4   2   7   51.99    7.70
   4   2   7   44.10    9.40
  -4   2  -7   56.29    7.20
  -4   2  -7   67.49   11.90
  -5  -2  -7   17.20    5.40
   5  -2   7   35.80    5.60
  -5  -2  -7   11.90    9.80
  -5  -2  -7    2.80    8.20
  -5   2  -7   20.30    5.40
   5   2   7   14.90    6.80
  -5   2  -7   23.80    5.30
  -5   2  -7    3.90    5.10
  -5   2  -7   16.80    9.50
   5   2   7    0.30    8.40
   6  -2   7   52.29    8.10
  -6  -2  -7   50.09    8.30
  -6  -2  -7   39.90   11.10
  -6  -2  -7   75.59   16.00
   6   2   7   81.59   12.10
  -6   2  -7   63.79    9.20
   6   2   7   44.30   13.40
  -6   2  -7   64.59    9.80
  -6   2  -7   73.49   11.10
  -6   2  -7   57.99   21.40
  -7  -2  -7   41.20   16.60
   7  -2   7   45.40    6.40
  -7  -2  -7   44.70    6.60
   7   2   7   44.00    9.10
  -7   2  -7   33.70    8.70
  -7   2  -7   25.90   14.40
  -7   2  -7   51.09    8.80
  -7   2  -7   45.10    5.90
  -8  -2  -7    1.70   18.30
  -8   2  -7   41.60   16.60
   8   2   7   26.20    9.50
  -9  -2  -7   80.09   26.60
  -9   2  -7   53.59   23.50
 -10  -2  -7   24.10   28.40
 -10   2  -7   31.10   26.50
  12  -3  -7    6.80   14.40
 -12   3   7   22.40   20.20
  12   3  -7   14.70   11.60
 -11   3   7   54.09   17.80
  11   3  -7    4.00    9.50
 -10  -3   7   42.20   11.30
  10  -3  -7   44.30   17.00
  10  -3  -7   44.80    8.80
  10   3  -7   24.10    9.60
 -10   3   7   32.90   15.40
   9  -3  -7   49.80    9.00
   9  -3  -7   55.19   14.60
  -9  -3   7   58.79   10.10
   9   3  -7   53.79    9.80
  -9   3   7   58.99   14.50
  -8  -3   7    2.40    6.00
   8  -3  -7   -0.10   10.70
  -8   3   7   13.70   10.50
  -8   3   7   -2.30    5.70
   8   3  -7   -1.80    6.20
   7  -3  -7   21.30    6.40
  -7  -3   7   20.00    6.00
   7  -3  -7   18.90    8.70
  -7   3   7   23.00    5.50
   7   3  -7   26.20   14.80
   7   3  -7    9.80    6.00
  -7   3   7   21.50    9.70
  -6  -3   7   52.89    6.30
   6  -3  -7   43.00    7.60
   6  -3  -7   45.60    9.70
  -6   3   7   28.40    9.70
   6   3  -7   41.70   14.50
   6   3  -7   36.60    7.20
  -6   3   7   43.60    6.90
  -5  -3   7  305.27   11.10
   5  -3  -7  310.17   18.10
   5  -3  -7  298.27   16.00
  -5   3   7  300.67   18.10
  -5   3   7  327.17   13.70
   5   3  -7  332.17   15.90
   4  -3  -7   31.60    7.40
  -4   3   7   25.40    7.40
  -4   3   7   25.60    4.50
   4   3  -7   30.70    6.00
   3  -3  -7  677.13   25.70
   3   3  -7  693.83   23.80
  -3   3   7  680.73   25.90
  -3   3   7  691.43   22.50
   2  -3  -7   79.09   10.30
   2  -3  -7   92.49    9.20
   2  -3  -7   93.79    9.60
   2   3  -7   92.59    7.90
  -2   3   7   97.29    8.50
  -2   3   7   98.59   10.80
   1  -3  -7  200.98   12.60
   1  -3  -7  230.68   13.80
   1  -3  -7  215.78   13.90
  -1   3   7  211.58   11.90
   1   3  -7  198.98   11.30
  -1   3   7  207.98   13.00
   0  -3  -7  289.67   16.60
   0  -3  -7  267.57   16.00
   0  -3  -7  268.57   15.20
   0   3  -7  260.97   12.40
   0   3   7  262.07   14.40
   0   3   7  292.17   14.40
  -1  -3  -7  108.59   11.50
  -1  -3  -7   94.69   11.30
  -1  -3  -7   90.19   10.70
   1   3   7   88.69    9.90
  -1   3  -7  112.49   11.90
   1   3   7  106.89   10.40
  -1   3  -7  110.89    6.90
  -1   3  -7   95.69   10.10
  -1   3  -7  100.59    8.00
  -2  -3  -7  139.69   14.70
  -2  -3  -7  145.49   14.10
  -2  -3  -7  126.69   13.50
   2   3   7  134.19   11.00
  -2   3  -7  137.69    9.00
   2   3   7  152.18   11.20
  -2   3  -7  129.99   13.50
  -2   3  -7  151.28   11.80
  -3  -3  -7  110.59   15.40
  -3  -3  -7   87.49   13.30
  -3  -3  -7  121.19   14.10
   3   3   7  108.89   10.50
   3   3   7  111.19   11.50
  -3   3  -7   97.09   13.80
  -3   3  -7  103.89   11.20
  -3   3  -7   98.59    8.50
  -4  -3  -7   41.40   10.70
  -4  -3  -7   27.50   10.70
  -4  -3  -7   33.00    6.90
   4   3   7   47.80    7.40
  -4   3  -7   36.10    5.80
   4   3   7   36.90    9.70
   4   3   7   29.60    7.80
  -4   3  -7   45.90    9.80
  -4   3  -7   27.00    7.20
  -5  -3  -7  426.96   24.70
  -5  -3  -7  364.76   26.20
  -5  -3  -7  368.66   17.90
   5   3   7  382.76   23.90
  -5   3  -7  387.86   24.00
   5   3   7  372.06   20.60
   5   3   7  355.46   17.20
  -5   3  -7  382.96   18.70
  -5   3  -7  383.16   17.00
  -6  -3  -7   99.19   11.30
  -6  -3  -7  138.69   20.30
  -6  -3  -7  126.29   19.00
   6   3   7  129.19   16.00
  -6   3  -7  116.29   17.90
   6   3   7  126.19   18.00
  -6   3  -7  126.89   13.10
  -6   3  -7   83.49   11.40
  -7  -3  -7   16.70   16.20
  -7  -3  -7   21.20    6.80
  -7   3  -7   27.90    9.10
  -7   3  -7   30.90   14.60
  -7   3  -7   33.80    8.40
  -7   3  -7   23.30    7.30
  -8  -3  -7  103.69   24.20
  -8   3  -7   74.49   20.50
  -9  -3  -7   31.40   25.20
  -9   3  -7  -11.20   20.30
 -10  -3  -7   28.40   30.80
 -10   3  -7    9.20   26.20
  11  -4  -7  -12.00   14.30
  11   4  -7    7.10   12.30
 -11   4   7   -3.20   20.20
  10  -4  -7  109.39   17.60
  10   4  -7   96.79   14.30
 -10   4   7  114.49   20.60
   9  -4  -7   18.90    9.20
   9  -4  -7   34.50   14.80
  -9  -4   7   -9.80   11.20
   9   4  -7   36.10    9.40
  -9   4   7   43.40   15.40
   8  -4  -7   23.60    8.90
  -8  -4   7   53.79   10.20
   8  -4  -7   23.30   10.60
  -8   4   7   48.70    7.50
  -8   4   7   32.80   13.00
   8   4  -7   44.60    9.70
   7  -4  -7   21.80    8.00
  -7  -4   7   31.50    7.30
   7   4  -7   29.40   11.30
  -7   4   7   24.00    5.70
   7   4  -7   10.80    7.30
  -6  -4   7   79.59    9.70
   6  -4  -7   74.39   12.00
   6  -4  -7   84.19   12.90
   6   4  -7   83.59   13.30
  -6   4   7   86.59    8.80
  -6   4   7   76.89   13.40
   6   4  -7   89.29   16.90
   5  -4  -7   36.70    8.20
   5  -4  -7   51.99    8.80
  -5  -4   7   49.00    7.40
   5   4  -7   48.90   13.30
   5   4  -7   42.60   10.70
  -5   4   7   48.30    7.30
  -5   4   7   29.70   10.00
   5   4  -7   33.80    7.90
   4  -4  -7  157.38   14.70
  -4  -4   7  148.99    7.00
  -4   4   7  172.48   16.10
   4   4  -7  176.58   16.10
   4   4  -7  182.88   12.80
  -4   4   7  178.38   11.00
   3  -4  -7  432.76   21.60
   3  -4  -7  437.16   17.60
  -3   4   7  462.25   17.90
   3   4  -7  432.06   18.50
  -3   4   7  422.86   22.10
   3   4  -7  439.06   21.40
   2  -4  -7  254.87   16.50
   2  -4  -7  252.07   13.30
   2  -4  -7  238.98   16.90
   2   4  -7  238.58   13.80
   2   4  -7  231.88   16.10
  -2   4   7  262.77   17.10
  -2   4   7  260.17   14.00
   1  -4  -7  145.39   15.30
   1  -4  -7  143.79   14.00
   1  -4  -7  152.58   11.50
  -1   4   7  133.79   13.80
   1   4  -7  135.29   13.60
   1   4  -7  126.79   10.10
  -1   4   7  150.58   11.90
   0  -4  -7  155.58   15.40
   0  -4  -7  138.29   11.90
   0  -4  -7  148.39   14.60
   0   4  -7  135.89    9.80
   0   4  -7  150.78   13.90
   0   4   7  129.79   12.10
   0   4   7  157.38   13.50
   0   4  -7  146.09    7.50
  -1  -4  -7    4.40    6.00
  -1  -4  -7   -1.10    5.60
  -1  -4  -7    7.00    7.50
  -1  -4  -7    7.10    8.20
   1   4   7   -1.60    5.80
  -1   4  -7   17.60    7.00
  -1   4  -7    3.90    3.70
  -1   4  -7    0.90    6.50
  -1   4  -7    0.10    4.30
   1   4   7    1.20    6.30
  -2  -4  -7  107.09   15.10
  -2  -4  -7  102.79   12.20
  -2  -4  -7  144.89   13.70
  -2  -4  -7  132.09   16.30
  -2   4  -7  131.79   12.80
  -2   4  -7   91.79   13.90
   2   4   7  109.29   12.20
  -2   4  -7  118.39    9.40
  -2   4  -7  108.99   10.60
   2   4   7  123.89   11.90
  -3  -4  -7  107.69   16.20
  -3  -4  -7   95.89   13.50
  -3  -4  -7   75.39   11.70
   3   4   7  115.89   13.60
  -3   4  -7  101.79    9.40
  -3   4  -7   99.39   11.00
  -3   4  -7   93.89   14.70
   3   4   7  103.19   12.10
  -3   4  -7   89.29   12.50
  -4  -4  -7    7.70    7.40
  -4  -4  -7  -20.90    9.70
  -4  -4  -7    6.40   11.30
  -4   4  -7    3.10    8.70
   4   4   7    9.50    9.10
  -4   4  -7    2.90    4.70
   4   4   7    3.50    6.00
  -4   4  -7   12.40    8.30
   4   4   7   17.50    9.50
  -5  -4  -7    9.30    7.60
  -5  -4  -7   37.00   12.40
  -5  -4  -7   17.20   13.30
   5   4   7   23.80   11.40
  -5   4  -7    8.20   10.10
  -5   4  -7    3.10    9.20
   5   4   7   24.60   10.70
   5   4   7   18.20    7.50
  -5   4  -7   20.10    5.90
  -6  -4  -7   48.50    9.80
  -6  -4  -7    8.50   14.60
  -6   4  -7   37.00   13.30
  -6   4  -7   27.30    7.20
  -6   4  -7   26.40   10.00
  -7  -4  -7   44.50    9.10
  -7  -4  -7   84.59   21.10
  -7   4  -7   61.09   17.80
  -7   4  -7   48.30    8.60
  -7   4  -7   57.19   10.90
  -8  -4  -7   11.80   23.30
  -8   4  -7   14.40   17.00
  -9  -4  -7   84.89   29.60
  -9   4  -7   73.19   25.30
  10  -5  -7    3.10   17.00
 -10   5   7  -17.60   19.70
  10   5  -7   13.30   12.20
   9  -5  -7   30.10   14.20
   9   5  -7   19.60   11.70
  -9   5   7    6.30   16.30
   8  -5  -7    4.60   12.40
   8  -5  -7    2.20   14.80
  -8  -5   7  -23.20   10.00
   8   5  -7    1.00   10.40
  -8   5   7    5.80    6.40
  -8   5   7   28.50   15.20
   7  -5  -7    6.70   10.30
  -7  -5   7    4.20    8.80
   7  -5  -7    0.40    8.60
  -7   5   7    6.90    5.60
  -7   5   7    1.20   13.60
   7   5  -7   11.50    9.70
   6  -5  -7   11.70    9.10
  -6  -5   7   17.00    7.40
   6  -5  -7   26.80   10.00
   6  -5  -7   11.10    7.30
  -6   5   7   20.00   12.60
   6   5  -7    9.40    7.20
  -6   5   7    7.90    5.60
   5  -5  -7   99.19   15.10
  -5  -5   7   77.49    9.80
   5  -5  -7   93.49   15.50
   5  -5  -7   94.89   11.30
  -5   5   7   75.79   17.30
   5   5  -7   93.19   17.00
  -5   5   7   95.59   10.10
   5   5  -7  140.39   19.50
   5   5  -7  109.69   12.90
   4  -5  -7    7.10    8.90
   4  -5  -7   -6.00    5.60
   4  -5  -7    0.10    4.50
  -4  -5   7    9.20    3.90
   4  -5  -7   -1.80    7.40
   4   5  -7    4.40   10.50
  -4   5   7  -15.00    9.20
  -4   5   7    6.90    5.70
   4   5  -7    1.50    6.90
   3  -5  -7  131.39   15.00
   3  -5  -7  110.99   16.00
   3  -5  -7  122.69   10.10
  -3   5   7  132.09   12.30
   3   5  -7  114.99   15.20
  -3   5   7  127.79   17.60
   3   5  -7  125.39   12.10
   2  -5  -7   86.49   13.00
   2  -5  -7  126.69   13.90
   2  -5  -7   93.19    9.70
   2  -5  -7  110.49   13.90
  -2   5   7  101.59   11.80
   2   5  -7   98.49   11.30
   2   5  -7  100.79   16.00
  -2   5   7  129.39   16.60
   2   5  -7   97.89    5.80
   1  -5  -7  115.19   14.30
   1  -5  -7   90.79   13.50
   1  -5  -7  145.49   15.20
   1  -5  -7  130.39   11.30
   1   5  -7  135.09   11.30
  -1   5   7   79.49   12.80
   1   5  -7  119.99    7.20
  -1   5   7  100.59   14.70
   1   5  -7  133.99   15.90
   0  -5  -7   81.39   13.40
   0  -5  -7   93.49   10.80
   0  -5  -7   92.09   13.70
   0   5  -7   80.59    9.80
   0   5   7   83.89   12.90
   0   5  -7   77.89   12.50
   0   5   7   93.39   14.00
   0   5  -7   87.19    8.30
  -1  -5  -7   88.59   14.00
  -1  -5  -7   73.29   10.50
  -1  -5  -7   52.99   10.00
   1   5   7   51.19   10.20
  -1   5  -7   65.79   10.20
   1   5   7   96.29   13.80
  -1   5  -7   65.49    9.00
  -1   5  -7   75.09   11.90
  -1   5  -7   61.89   11.70
  -2  -5  -7  -12.20    7.70
  -2  -5  -7   12.20   10.70
  -2  -5  -7   -1.60    7.60
  -2   5  -7    4.20    7.90
  -2   5  -7   11.50    9.40
   2   5   7   28.10    8.60
  -2   5  -7    9.70    4.60
  -2   5  -7   -6.30    6.10
   2   5   7   -3.00    6.40
  -3  -5  -7  153.98   19.00
  -3  -5  -7  168.28   22.70
  -3  -5  -7  166.58   17.40
  -3   5  -7  132.99   17.80
   3   5   7  149.29   16.60
  -3   5  -7  178.38   12.10
  -3   5  -7  148.19   14.20
  -3   5  -7  172.38   17.90
  -4  -5  -7  153.48   17.50
  -4  -5  -7  139.19   19.90
  -4   5  -7  127.09   15.40
   4   5   7  142.99   16.20
   4   5   7  127.69   17.60
  -4   5  -7  124.29   18.30
  -4   5  -7  116.29   15.10
  -4   5  -7  126.49   11.20
  -5  -5  -7  119.59   28.00
  -5  -5  -7  102.39   14.00
  -5   5  -7  112.79   11.60
  -5   5  -7  107.89   14.10
   5   5   7   77.19   14.90
   5   5   7  116.69   15.40
  -5   5  -7  122.29   16.00
  -6  -5  -7   99.39   20.40
  -6  -5  -7  132.69   18.60
   6   5   7  124.09   17.00
  -6   5  -7  133.69   21.40
  -6   5  -7  104.59   17.90
  -6   5  -7   92.39   12.20
  -7  -5  -7   16.80   10.20
  -7  -5  -7   12.80   19.00
  -7   5  -7   10.10   16.20
  -7   5  -7    0.70    7.50
  -8  -5  -7   54.39   25.50
  -8   5  -7   48.20   23.60
   9  -6  -7   43.80   19.00
  -9   6   7   35.50   22.30
   9   6  -7   45.40   14.10
   8  -6  -7    8.20   15.60
  -8   6   7   19.40   19.10
   8   6  -7   15.10   12.80
   7  -6  -7   10.90   14.80
   7   6  -7   11.00   10.40
  -7   6   7    2.40   15.20
  -7   6   7  -11.10    6.90
  -6  -6   7  119.39   15.30
   6  -6  -7   83.89   15.60
   6   6  -7   65.89   13.40
  -6   6   7   77.79    9.40
  -6   6   7   94.19   17.70
   5  -6  -7    2.70   10.70
  -5  -6   7   18.10    7.30
  -5   6   7    2.90    6.80
  -5   6   7    6.00   13.70
   5   6  -7    3.20    8.40
   4  -6  -7  150.18   20.30
  -4  -6   7  161.58   12.10
   4   6  -7  157.88   16.30
   4   6  -7  187.58   27.20
  -4   6   7  191.28   14.90
  -4   6   7  176.78   22.70
   3  -6  -7  102.39   15.90
   3  -6  -7   93.69    7.50
   3   6  -7  115.99    8.10
   3   6  -7  103.89   14.20
  -3   6   7  152.08   15.00
  -3   6   7  106.89   16.70
   2  -6  -7  149.69   21.70
   2  -6  -7  166.58   11.20
   2  -6  -7  147.39   17.30
   2   6  -7  167.78   14.30
   2   6  -7  162.68    9.40
  -2   6   7  150.28   20.40
  -2   6   7  146.49   16.50
   1  -6  -7   59.99   14.20
   1  -6  -7   71.99   13.10
   1  -6  -7   63.09    8.50
  -1   6   7   71.69   11.80
   1   6  -7   69.79    8.80
  -1   6   7   56.99   12.40
   0  -6  -7   58.89    9.10
   0  -6  -7   57.09   18.20
   0  -6  -7   52.49   12.30
   0   6   7   45.70   13.50
   0   6   7   54.09   12.10
   0   6  -7   56.99    8.00
   0   6  -7   46.90    8.00
  -1  -6  -7   13.90    9.40
  -1  -6  -7   15.80   10.70
  -1   6  -7   -4.30    6.90
  -1   6  -7    9.50    5.80
  -1   6  -7   19.00    9.30
  -1   6  -7   42.50   15.10
   1   6   7   14.20   10.30
  -2  -6  -7   92.29   15.60
  -2  -6  -7   80.59   13.10
  -2   6  -7   64.39   14.50
   2   6   7  101.29   14.70
  -2   6  -7   90.89   13.70
  -2   6  -7   81.99   11.30
  -2   6  -7   87.69   11.50
  -3  -6  -7   74.49   14.70
  -3  -6  -7   99.79   21.90
  -3   6  -7   84.89   11.00
   3   6   7   92.69   14.60
  -3   6  -7   63.89   12.20
  -3   6  -7   74.79   13.70
  -3   6  -7   59.49   16.10
  -4  -6  -7   34.60   15.50
  -4   6  -7   24.10    7.10
  -4   6  -7   28.80   11.70
  -4   6  -7   18.80   11.00
   4   6   7   19.10   11.80
  -5  -6  -7   29.90   17.80
  -5  -6  -7   -4.40   12.70
  -5   6  -7   -3.40   11.90
  -5   6  -7   18.90   13.00
   5   6   7   10.70   15.40
   5   6   7   -5.40   11.30
  -5   6  -7   -0.20    6.80
  -5   6  -7    0.80   16.50
  -6  -6  -7   38.70   21.00
  -6  -6  -7   59.59   13.90
  -6   6  -7   44.40   15.50
  -6   6  -7   50.89    9.50
  -6   6  -7   72.29   19.40
  -6   6  -7   75.19   17.40
   6   6   7   36.70   12.80
  -7  -6  -7   17.00   24.60
  -7  -6  -7   12.70   14.10
  -7   6  -7   43.10   20.80
   7   6   7  -18.90   11.40
  -7   6  -7    8.20   18.30
   8  -7  -7  -19.70   19.80
   8   7  -7   17.50   14.80
  -8   7   7   19.70   24.00
   7  -7  -7  -14.50   18.10
  -7   7   7  -23.20   19.10
   7   7  -7    4.20   12.60
   6  -7  -7   14.60   17.20
  -6   7   7   17.30   11.40
  -6   7   7    1.00   17.40
   5  -7  -7  110.29   21.50
  -5   7   7   69.09   11.40
  -5   7   7   94.69   20.10
   5   7  -7   49.70   12.40
   4  -7  -7   66.69   18.00
  -4   7   7   44.90   18.00
   4   7  -7   58.59   13.00
  -4   7   7   47.20   11.80
   4   7  -7   51.79    7.10
   3  -7  -7   74.59   17.10
  -3   7   7   49.70   16.90
   3   7  -7   38.30   10.90
   3   7  -7   36.00   19.20
   3   7  -7   48.80    7.30
   2  -7  -7   83.89   17.20
   2   7  -7   76.59    9.00
  -2   7   7   93.29   17.90
   2   7  -7   70.49   12.20
   1  -7  -7   39.70   15.00
   1   7  -7   53.49    8.50
  -1   7   7   34.20   14.30
   1   7  -7   46.30    9.50
   0  -7  -7   49.30    8.70
   0  -7  -7   47.80   14.50
   0   7  -7   54.09   11.80
   0   7  -7   37.50    9.00
   0   7  -7   51.89   10.00
   0   7   7   52.39   15.10
  -1  -7  -7   37.40   14.50
  -1  -7  -7   35.50   10.20
  -1   7  -7   43.00   12.70
   1   7   7   43.40   15.80
  -1   7  -7   40.90   10.80
  -1   7  -7   34.40    8.50
  -2  -7  -7   29.80   12.00
  -2  -7  -7   47.40   16.00
  -2   7  -7   30.80   11.80
  -2   7  -7   35.60   12.10
   2   7   7   36.20   14.20
  -2   7  -7   35.60    9.90
  -3  -7  -7   69.19   15.70
  -3  -7  -7   57.69   16.70
  -3   7  -7   58.39   13.90
  -3   7  -7   88.89   12.40
  -3   7  -7   76.79   14.70
   3   7   7   74.29   16.50
  -4  -7  -7   68.69   16.80
  -4  -7  -7   72.49   18.60
  -4   7  -7   83.69   11.00
  -4   7  -7   86.79   16.60
   4   7   7   75.29   17.80
  -4   7  -7   80.69   20.90
  -5  -7  -7   42.50   21.70
  -5  -7  -7   86.59   19.80
  -5   7  -7   77.59   16.90
   5   7   7   73.89   16.90
  -5   7  -7   63.59   17.20
  -5   7  -7   63.29   11.20
  -6  -7  -7   80.29   19.70
  -6  -7  -7  116.49   27.20
  -6   7  -7   85.19   22.10
   6   7   7   88.89   17.40
  -6   7  -7   55.89   21.10
   6  -8  -7   -3.40   20.00
  -6   8   7   61.49   23.80
   6   8  -7   22.30   15.60
   5  -8  -7   17.10   20.30
  -5   8   7    1.40   21.10
   5   8  -7   -3.90   13.50
   4  -8  -7   69.09   20.80
  -4   8   7  124.09   24.20
   4   8  -7   53.29   15.10
   4   8  -7   82.49   10.50
   3  -8  -7    3.00   17.80
   3   8  -7   14.00   12.90
  -3   8   7    9.40   19.30
   3   8  -7   28.20    9.50
   2  -8  -7  128.79   23.50
   2   8  -7   77.89   14.30
  -2   8   7   79.09   22.10
   2   8  -7   82.39   12.00
   1  -8  -7  112.19   22.10
   1   8  -7   86.69   12.40
  -1   8   7   85.39   19.90
   1   8  -7  119.09   18.30
   0  -8  -7    5.60   16.80
   0   8  -7    8.20   11.20
   0   8   7   17.10   18.40
   0   8  -7   12.90    9.70
  -1  -8  -7    4.30   17.30
   1   8   7    5.00   17.30
  -1   8  -7   -3.00    9.50
  -1   8  -7    2.00   13.60
  -1   8  -7    4.90   12.60
  -2  -8  -7   49.20   18.80
  -2   8  -7   32.40   14.70
   2   8   7   15.30   17.80
  -2   8  -7   12.50   16.80
  -2   8  -7   23.90    9.40
  -3  -8  -7   20.40   19.90
  -3   8  -7   -2.40   18.20
   3   8   7  -20.60   16.90
  -3   8  -7    2.70    9.60
  -4  -8  -7   64.39   22.40
  -4   8  -7   40.40   19.40
  -4   8  -7   37.10   18.20
   4   8   7   17.70   17.00
  -4   8  -7   45.70   11.60
   2  -9  -7   26.20   26.10
  -2   9   7   28.60   27.60
   2   9  -7   21.90   14.40
   1  -9  -7  -38.50   21.50
  -1   9   7   15.20   24.00
   1   9  -7   14.70   17.30
   1   9  -7   11.50   13.00
   0  -9  -7   39.70   24.90
   0   9  -7    3.10   13.30
   0   9  -7   27.00   22.40
   0   9   7   50.79   25.90
  -1  -9  -7    1.10   21.10
  12   0  -8   -7.00   12.40
  10   0  -8   11.50    7.30
   9   0  -8  120.59   12.50
   8   0  -8   16.80   14.70
   8   0  -8   21.50    6.30
   7   0  -8  101.19    9.80
   7   0  -8  100.79   15.90
  -7   0   8   79.49   10.80
  -6   0   8   26.20    6.00
   6   0  -8   20.60    5.70
  -5   0   8   -0.40    4.70
  -5   0   8   -3.90    4.40
   5   0  -8    4.20    3.70
  -4   0   8  483.25   18.70
  -4   0   8  452.35   15.50
   4   0  -8  459.05   18.50
  -3   0   8 1073.59   31.90
  -3   0   8 1038.20   27.60
   3   0  -8 1039.10   32.20
  -2   0   8  408.56   12.10
  -2   0   8  409.36   15.90
   2   0  -8  382.26   16.50
  -1   0   8  303.77   13.10
  -1   0   8  305.97    9.40
   1   0  -8  298.77   14.50
   1   0  -8  316.17   10.70
   0   0  -8  116.49   12.10
   0   0   8  112.49    8.50
   0   0  -8  136.69    7.60
   0   0  -8  122.19    9.80
  -1   0  -8  117.99    8.50
   1   0   8  127.79    8.50
  -1   0  -8  120.89   10.30
  -1   0  -8  109.49   12.10
  -2   0  -8    5.90    4.20
   2   0   8    2.60    3.40
  -2   0  -8   -3.40    5.70
  -2   0  -8    3.50    4.40
  -3   0  -8   18.90    6.10
   3   0   8   19.60    4.90
  -3   0  -8   18.50    8.70
  -4   0  -8   46.30   11.50
  -4   0  -8   46.70    8.80
  -4   0  -8   39.90    7.40
   4   0   8   47.80    6.70
  -5   0  -8   11.50    6.90
   5   0   8    4.60    4.70
  -5   0  -8   -0.70    6.50
  -6   0  -8  535.55   31.60
  -6   0  -8  557.44   27.10
   6   0   8  520.45   20.40
  -6   0  -8  516.95   24.20
   7   0   8   -7.70    6.00
  -7   0  -8    4.20   14.10
  -7   0  -8  -12.20   11.30
  -7   0  -8   -8.00    9.90
  -8   0  -8   74.09   21.50
   8   0   8   64.59    9.70
  -9   0  -8  -13.80   24.80
 -10   0  -8    3.80   29.70
  12   1  -8    5.50   10.40
  11  -1  -8   18.50    9.90
  11   1  -8   46.90   10.80
 -10  -1   8  109.29   13.50
  10  -1  -8   99.09   13.50
  10   1  -8  123.59   14.50
   9  -1  -8    2.30    6.90
  -9  -1   8   17.00    5.90
   9   1  -8   18.60    7.30
  -9   1   8   22.20   10.80
  -8  -1   8  208.08   10.80
   8  -1  -8  199.08   13.60
   8  -1  -8  232.28   25.10
   8   1  -8  217.68   14.10
  -8   1   8  188.48   16.60
   7  -1  -8   -5.50   11.40
   7  -1  -8    3.70    5.10
  -7  -1   8   -1.10    3.20
   7   1  -8    7.70    5.10
   7   1  -8    3.10   13.90
  -7   1   8   13.40    6.90
  -6  -1   8  175.78   10.40
  -6  -1   8  187.58    7.80
   6  -1  -8  158.28   11.90
   6   1  -8  186.68   12.10
  -6   1   8  162.38   12.90
  -6   1   8  197.18   12.90
   5  -1  -8   -3.10    4.60
  -5  -1   8    4.10    1.90
  -5  -1   8    1.00    3.40
  -5   1   8    3.20    4.50
  -5   1   8    1.70    5.40
   5   1  -8   10.60    4.60
  -4  -1   8  157.08    6.00
   4  -1  -8  166.48   11.50
  -4  -1   8  171.68    5.20
  -4  -1   8  180.18   12.30
  -4   1   8  175.38   10.90
   4   1  -8  153.18   10.40
  -4   1   8  168.98   10.70
   3  -1  -8   76.99    9.20
  -3  -1   8   97.39    9.80
  -3   1   8   87.59    8.10
   3   1  -8  103.09    8.80
  -3   1   8   93.99    7.90
   2  -1  -8  521.85   20.50
  -2  -1   8  535.55   20.00
  -2   1   8  540.05   19.00
  -2   1   8  508.75   17.40
   2   1  -8  522.95   19.60
   1  -1  -8   67.39    6.90
   1  -1  -8   48.40    7.30
  -1  -1   8   36.10    5.70
  -1   1   8   45.60    6.30
   1   1  -8   47.60    7.20
  -1   1   8   54.29    6.00
   0  -1  -8   93.09   11.20
   0  -1  -8   88.29    8.50
   0  -1  -8   91.09    9.90
   0  -1   8  101.09    8.40
   0   1   8   90.89    6.50
   0   1  -8   90.99    9.00
   0   1   8   90.89    8.00
   0   1  -8  107.89    5.10
   1  -1   8   57.79    7.00
  -1  -1  -8   40.00    7.10
  -1  -1  -8   49.99    6.80
  -1  -1  -8   55.29    9.20
  -1   1  -8   58.89    5.70
   1   1   8   56.29    6.60
  -1   1  -8   45.10    7.30
  -1   1  -8   38.00    7.90
   1   1   8   48.20    5.50
   2  -1   8   21.90    4.70
  -2  -1  -8   21.40    7.10
  -2  -1  -8   27.00    7.80
  -2  -1  -8   27.80    6.50
  -2   1  -8   21.30    5.60
  -2   1  -8   24.50    7.70
   2   1   8   30.20    5.10
  -2   1  -8   25.60    4.50
  -3  -1  -8   23.00    6.90
  -3  -1  -8   35.00    9.20
   3  -1   8   28.30    5.00
  -3  -1  -8   41.90    8.30
  -3   1  -8   35.20    6.60
  -3   1  -8   24.80    9.20
  -3   1  -8   31.30    5.20
   3   1   8   31.20    5.70
  -4  -1  -8   18.90    7.90
  -4  -1  -8   21.50    8.00
   4  -1   8   25.20    5.40
  -4  -1  -8   19.90    9.60
  -4   1  -8   18.40    6.50
  -4   1  -8   12.50    5.60
  -4   1  -8   15.10    8.50
   5  -1   8   50.99    8.10
  -5  -1  -8   31.80    9.70
  -5  -1  -8   26.60    9.00
  -5   1  -8   32.90    7.80
  -5   1  -8   43.70    6.90
   5   1   8   44.90    7.40
  -5   1  -8   45.00    7.60
  -5   1  -8   44.20   16.00
  -6  -1  -8   20.20    5.30
   6  -1   8   34.50    6.40
  -6  -1  -8   34.90   10.90
  -6  -1  -8    7.70   10.20
  -6  -1  -8   20.20   13.70
  -6   1  -8   18.30    5.80
   6   1   8   12.10    6.60
  -6   1  -8   -0.50    7.40
  -6   1  -8   24.50   12.90
  -6   1  -8   15.80    8.50
   7  -1   8   -1.90    5.50
  -7  -1  -8    4.50    3.60
  -7  -1  -8    5.90   14.90
   7   1   8    1.10    7.30
  -7   1  -8  -14.70    8.90
  -7   1  -8  -16.70    8.70
  -7   1  -8    4.70    4.60
  -7   1  -8   -7.90   13.70
  -8  -1  -8   91.29   22.50
   8  -1   8   78.49   12.10
   8   1   8   96.59   14.90
  -8   1  -8   78.09   23.00
  -9  -1  -8  178.98   31.80
  -9   1  -8  153.78   29.20
 -10  -1  -8   46.00   39.90
 -10   1  -8  -47.30   28.30
  12   2  -8   31.90   12.50
 -12   2   8   13.20   19.20
  11  -2  -8    8.40   10.40
 -11   2   8   60.69   17.60
  11   2  -8   39.40   11.00
 -10  -2   8  -19.80    9.00
  10  -2  -8    1.90    7.90
  10   2  -8    3.20    7.60
 -10   2   8   29.80   14.20
  -9  -2   8   72.89    9.00
   9  -2  -8   96.09   19.60
   9  -2  -8   79.49   10.70
  -9   2   8   73.39   16.10
   9   2  -8   80.39   12.10
  -8  -2   8   26.70    6.30
   8  -2  -8   17.60    7.20
   8  -2  -8   23.90   12.80
  -8   2   8   35.00   10.90
   7  -2  -8   97.89   14.80
  -7  -2   8   92.99    8.00
   7  -2  -8   80.89   11.20
  -7   2   8   73.89   11.60
  -7   2   8   79.39   11.00
   7   2  -8  107.69   19.10
   7   2  -8   83.99   10.10
  -6  -2   8   13.40    3.50
   6  -2  -8   15.20    6.00
   6  -2  -8   17.20    9.20
   6   2  -8    9.60    5.70
  -6   2   8   -1.40    4.80
  -6   2   8    6.00    7.50
  -5  -2   8  117.19    5.30
   5  -2  -8  120.99   11.50
  -5  -2   8  121.19    5.20
  -5   2   8  109.69    9.10
  -5   2   8  107.49   12.30
   5   2  -8  128.69   10.50
   4  -2  -8  686.53   25.70
  -4   2   8  670.63   22.70
   4   2  -8  690.63   23.90
  -4   2   8  662.63   24.70
   3  -2  -8 1047.60   35.30
  -3   2   8 1099.99   33.70
  -3   2   8 1119.99   32.50
   3   2  -8 1111.79   33.40
   2  -2  -8  134.49    9.90
   2  -2  -8  124.39   11.40
  -2  -2   8  138.79   11.00
  -2   2   8  128.09    9.20
   2   2  -8  127.59    9.50
  -2   2   8  121.39   10.20
   1  -2  -8  129.49   11.80
  -1  -2   8  151.28   11.30
   1  -2  -8  165.78   11.00
   1  -2  -8  134.69   12.30
   1   2  -8  133.09    9.60
  -1   2   8  145.29    9.30
  -1   2   8  144.79   10.50
   0  -2  -8   80.29   10.90
   0  -2  -8   97.39   10.60
   0  -2  -8  109.29   11.80
   0  -2   8   83.59    8.50
   0   2   8   86.49    8.70
   0   2   8   83.99    8.80
   0   2  -8   93.29    8.80
  -1  -2  -8  159.68   12.70
  -1  -2  -8  110.99   13.40
  -1  -2  -8  154.88   12.70
   1  -2   8  154.18   10.70
  -1   2  -8  161.18   14.20
   1   2   8  161.68   10.80
  -1   2  -8  161.08   10.90
  -1   2  -8  140.29    6.70
   1   2   8  151.88    9.70
  -2  -2  -8    9.30    6.70
   2  -2   8   16.20    4.80
  -2  -2  -8   21.40    7.60
  -2  -2  -8    7.40    6.80
   2   2   8    9.90    4.40
  -2   2  -8    8.30    4.80
  -2   2  -8    8.30    7.30
  -2   2  -8    3.30    3.00
   2   2   8    7.90    4.80
  -3  -2  -8  206.78   17.20
  -3  -2  -8  229.48   16.20
   3  -2   8  212.38   12.40
  -3  -2  -8  214.18   17.60
   3   2   8  221.08   13.70
  -3   2  -8  220.88   10.20
  -3   2  -8  216.28   13.00
  -3   2  -8  211.48   19.00
   3   2   8  202.08   11.50
  -4  -2  -8  108.49   15.70
   4  -2   8  112.99   10.00
  -4  -2  -8  144.59   16.80
  -4  -2  -8   90.89   13.00
   4   2   8  116.89   11.60
  -4   2  -8  101.59   10.60
  -4   2  -8  111.39   16.90
  -4   2  -8  112.39   11.30
  -4   2  -8  106.09    8.90
   5  -2   8  113.19   10.50
  -5  -2  -8  162.28   23.20
  -5  -2  -8  126.09   15.10
  -5  -2  -8  107.19   10.70
  -5  -2  -8  128.19   18.00
  -5   2  -8  130.59   10.90
  -5   2  -8  120.79   19.00
  -5   2  -8  123.59   13.10
   5   2   8  156.88   13.80
  -6  -2  -8  142.29   12.00
  -6  -2  -8  140.39   20.80
  -6  -2  -8  134.99   20.70
   6  -2   8  161.18   11.90
  -6   2  -8  166.88   13.40
  -6   2  -8  161.28   23.10
  -6   2  -8  159.98   15.30
   6   2   8  160.48   15.40
  -6   2  -8  175.48   13.80
  -7  -2  -8   54.59   19.10
  -7  -2  -8   71.09    9.30
   7  -2   8   80.09   11.70
  -7   2  -8   57.49    8.10
  -7   2  -8   91.19   18.10
   7   2   8   67.99   12.40
  -7   2  -8   68.99   11.40
  -7   2  -8   58.79   11.20
  -8  -2  -8   21.10   20.30
  -8   2  -8  -10.60   18.60
  -9  -2  -8    8.50   27.40
  -9   2  -8   43.60   26.20
 -11   3   8   42.00   19.70
  11   3  -8   40.20   12.30
  10  -3  -8   66.49   11.10
  10   3  -8   81.69   12.40
 -10   3   8   78.99   17.80
   9  -3  -8   33.50   16.20
  -9  -3   8    1.40    8.40
   9  -3  -8    6.60    8.20
   9   3  -8   16.60    7.70
  -9   3   8   27.10   13.80
   8  -3  -8   96.99   13.90
   8  -3  -8  119.99   17.60
   8   3  -8   98.39   13.00
  -8   3   8  116.89   18.20
  -8   3   8  113.79   13.40
   7  -3  -8    7.80    7.40
   7  -3  -8    5.80   11.20
  -7  -3   8    7.00    5.50
  -7   3   8    5.90    9.60
  -7   3   8    0.40    5.60
   7   3  -8   10.10    5.60
   6  -3  -8   35.80    8.10
  -6  -3   8   56.89    6.50
   6  -3  -8   59.09   11.00
   6   3  -8   39.10   16.60
  -6   3   8   53.49   10.70
   6   3  -8   49.80    9.80
  -6   3   8   41.80    6.60
   5  -3  -8  108.49   12.30
   5   3  -8  101.29    9.60
  -5   3   8   77.89   11.20
  -5   3   8  112.79    9.70
   4  -3  -8  112.09   12.60
   4   3  -8  118.89   10.50
  -4   3   8  119.49    9.20
  -4   3   8  130.09   13.90
   3  -3  -8   38.30    8.30
   3   3  -8   29.70    6.50
  -3   3   8   43.00    6.90
  -3   3   8   33.40    7.70
   2  -3  -8  796.52   30.70
   2  -3  -8  832.82   28.70
   2  -3  -8  811.72   28.60
  -2   3   8  794.72   26.60
  -2   3   8  812.42   28.50
   2   3  -8  832.32   27.20
   1  -3  -8   73.99   11.30
   1  -3  -8   87.69   11.40
   1  -3  -8   67.49   10.40
  -1   3   8   93.99    9.60
   1   3  -8   80.69    8.70
  -1   3   8   89.59   10.60
   0  -3  -8   41.80    8.60
   0  -3  -8   55.59    9.80
   0  -3  -8   60.49    9.50
   0   3   8   63.29    8.60
   0   3  -8   65.59    8.30
   0   3   8   74.29    9.00
  -1  -3  -8   54.49    9.50
  -1  -3  -8   39.30    8.80
  -1  -3  -8   30.80    7.90
   1   3   8   46.90    7.80
  -1   3  -8   28.50    9.00
  -1   3  -8   33.50    5.30
  -1   3  -8   38.90    6.50
   1   3   8   27.40    6.20
  -1   3  -8   36.20    3.60
  -2  -3  -8   12.20    7.90
  -2  -3  -8    1.70    7.10
  -2  -3  -8    3.40    7.70
   2   3   8   10.90    6.20
   2   3   8    4.90    5.00
  -2   3  -8   -6.50    7.20
  -2   3  -8   -3.00    6.60
  -2   3  -8    6.40    4.70
  -2   3  -8    5.70    2.80
  -3  -3  -8   48.90   11.00
  -3  -3  -8   52.89   10.50
  -3  -3  -8   44.10   10.70
  -3   3  -8   41.30    6.80
  -3   3  -8   47.90    6.00
  -3   3  -8   41.60   10.60
   3   3   8   49.50    8.20
  -3   3  -8   69.09   11.30
   3   3   8   47.20    9.10
  -4  -3  -8   37.60   11.70
  -4  -3  -8   24.90   13.00
  -4  -3  -8   37.90    7.80
  -4  -3  -8   38.90   11.90
  -4   3  -8   32.60    5.50
   4   3   8   18.40    7.50
  -4   3  -8   23.50    6.40
  -4   3  -8   26.00    8.00
  -4   3  -8   30.90   10.50
   4   3   8   19.50    6.50
  -5  -3  -8   97.99   16.90
  -5  -3  -8   85.19   12.20
  -5  -3  -8   71.79   14.70
   5   3   8   66.09   14.20
  -5   3  -8   86.49   11.50
  -5   3  -8   63.89   10.00
   5   3   8  119.99   16.10
  -5   3  -8   75.09   11.70
  -5   3  -8   96.59   15.30
  -6  -3  -8    9.40   16.20
  -6  -3  -8    4.70    7.60
  -6   3  -8   -0.80    7.20
  -6   3  -8    1.40    7.40
  -6   3  -8   15.70   13.50
  -6   3  -8  -11.80    8.10
  -7  -3  -8   26.50    8.20
  -7  -3  -8   20.10   18.20
  -7   3  -8   19.30    9.80
  -7   3  -8   44.40   10.70
  -7   3  -8   21.90    9.60
  -7   3  -8   74.79   18.40
  -8  -3  -8   60.19   25.10
  -8   3  -8   27.00   21.10
  -8   3  -8   83.09   13.20
  -9  -3  -8  168.78   34.50
  -9   3  -8  289.77   42.80
  11  -4  -8   72.59   18.80
  11   4  -8   39.80   13.80
 -11   4   8   44.80   24.70
 -10   4   8   -4.30   18.20
  10   4  -8   -6.10   10.80
   9  -4  -8   14.10   10.70
   9  -4  -8    0.60   23.90
   9   4  -8    3.60    9.20
  -9   4   8    2.40   14.40
  -8  -4   8   49.60   11.40
   8  -4  -8   47.90   10.90
   8  -4  -8   29.70   14.10
  -8   4   8   53.89    8.80
   8   4  -8   40.20   10.10
  -8   4   8   43.10   14.40
  -7  -4   8   24.20    7.30
   7  -4  -8   13.80   11.20
   7  -4  -8   29.60   10.20
  -7   4   8   42.50   14.20
  -7   4   8   41.60    7.40
   7   4  -8   26.80    8.80
   6  -4  -8   18.10    9.90
  -6  -4   8    3.70    4.70
   6  -4  -8   17.30    8.30
  -6   4   8    7.60    5.30
   6   4  -8   15.70    7.30
  -6   4   8   20.30   10.50
   5  -4  -8   56.69   10.00
   5  -4  -8   42.60   10.40
   5   4  -8   59.09    9.40
  -5   4   8   41.20   11.10
   5   4  -8   22.30   10.00
   4  -4  -8  195.38   16.30
  -4   4   8  169.68   11.70
   4   4  -8  169.08   18.50
  -4   4   8  187.58   17.60
   4   4  -8  188.68   17.20
   3  -4  -8  566.44   26.10
   3  -4  -8  534.05   21.60
  -3   4   8  512.45   25.30
  -3   4   8  554.94   21.10
   3   4  -8  558.24   21.90
   3   4  -8  523.05   25.80
   2  -4  -8   26.10    8.50
   2  -4  -8   34.00    7.10
   2  -4  -8   30.80    9.40
  -2   4   8   31.60    9.60
   2   4  -8   52.99   11.10
  -2   4   8   54.19    8.20
   2   4  -8   36.80    6.70
   1  -4  -8   38.00    7.90
   1  -4  -8   36.00   10.10
   1  -4  -8   48.90   10.50
   1   4  -8   35.20   10.00
   1   4  -8   39.60    6.70
  -1   4   8   40.50    8.70
  -1   4   8   44.50    8.10
   0  -4  -8   34.60    7.80
   0  -4  -8   21.80    9.40
   0  -4  -8   56.29   11.60
   0   4   8   34.00    8.30
   0   4   8   27.90    8.30
   0   4  -8   25.70    9.10
   0   4  -8   33.80    6.20
  -1  -4  -8  107.29   13.70
  -1  -4  -8  104.29   14.60
  -1  -4  -8  110.59   14.80
  -1   4  -8   88.49    7.70
  -1   4  -8  114.79   13.90
   1   4   8  116.69   13.60
   1   4   8  104.89   12.60
  -1   4  -8   96.59   14.30
  -1   4  -8  109.29   10.20
  -2  -4  -8   18.00    8.40
  -2  -4  -8   49.20    9.10
  -2  -4  -8   34.50   11.40
  -2  -4  -8   35.80   21.80
   2   4   8   28.70    9.20
  -2   4  -8   24.30    6.20
   2   4   8   37.60    8.70
  -2   4  -8   36.40    9.10
  -2   4  -8   19.50    5.70
  -2   4  -8   31.10   10.10
  -3  -4  -8   55.79   13.50
  -3  -4  -8   53.09   12.90
  -3  -4  -8   51.69    9.30
  -3   4  -8   50.79   10.70
  -3   4  -8   43.70    7.60
   3   4   8   60.99    9.80
   3   4   8   36.30    9.80
  -3   4  -8   50.19   12.00
  -3   4  -8   62.49    8.10
  -4  -4  -8    0.70   13.00
  -4  -4  -8   16.40   12.30
  -4  -4  -8   17.80    8.30
  -4   4  -8   -0.70    6.00
  -4   4  -8   10.40    9.50
   4   4   8   11.00    8.30
  -5  -4  -8   38.50   15.00
  -5  -4  -8   34.70    9.60
   5   4   8   21.70    8.70
  -5   4  -8   26.20    7.40
   5   4   8   29.70   20.20
  -5   4  -8   47.50   11.30
  -5   4  -8   16.80   12.20
  -6  -4  -8   68.09   19.10
  -6  -4  -8   58.19   11.70
  -6   4  -8   70.09    9.90
  -6   4  -8   64.29   10.50
  -6   4  -8   62.39   16.40
  -6   4  -8   79.29   13.50
  -7  -4  -8   14.70   10.20
  -7  -4  -8   22.70   20.30
  -7   4  -8   10.90    9.50
  -7   4  -8   45.80   17.60
  -8  -4  -8   74.89   27.10
  -8   4  -8   44.50   22.60
  10  -5  -8   71.09   18.90
 -10   5   8   42.40   23.60
  10   5  -8   55.59   15.70
   9  -5  -8    7.70   14.90
  -9   5   8  -14.00   17.90
   9   5  -8    5.90   12.50
   8  -5  -8  126.29   20.60
   8  -5  -8  204.68   24.00
  -8   5   8  139.69   15.80
  -8   5   8  143.19   21.80
   7  -5  -8   -6.70   10.40
   7  -5  -8  -10.50   10.10
   7  -5  -8    6.90   12.40
  -7   5   8   15.00   14.10
  -7   5   8    5.10    6.60
   7   5  -8   26.30   10.30
  -6  -5   8   77.09   11.00
   6  -5  -8   95.09   14.80
  -6   5   8   74.89    9.00
   6   5  -8   95.09   14.70
  -6   5   8   93.89   16.30
   5  -5  -8   10.30    9.60
   5  -5  -8   11.40    6.50
   5  -5  -8   -5.80    7.90
  -5   5   8   16.60   12.10
   5   5  -8   10.90    7.80
  -5   5   8    6.00    5.80
   4  -5  -8  127.59   12.30
   4  -5  -8  173.38   19.20
   4   5  -8  116.99   13.70
  -4   5   8  141.09   22.20
  -4   5   8  169.68   12.80
   3  -5  -8   73.89    9.30
   3  -5  -8   75.69   13.70
   3   5  -8   93.19   12.70
  -3   5   8   72.19    9.40
  -3   5   8   84.49   13.90
   2  -5  -8  626.14   30.90
   2  -5  -8  563.84   28.40
   2  -5  -8  631.24   29.20
   2  -5  -8  625.64   23.60
  -2   5   8  577.34   28.60
   2   5  -8  625.64   31.20
  -2   5   8  627.84   25.40
   2   5  -8  601.54   28.10
   1  -5  -8   59.29   11.90
   1  -5  -8   35.40    8.70
   1  -5  -8   65.49   17.00
  -1   5   8   35.40    8.90
   1   5  -8   42.20    7.00
   1   5  -8   32.70   11.00
  -1   5   8   49.10   11.40
   0  -5  -8   70.29   15.00
   0  -5  -8   66.89   13.70
   0  -5  -8   82.79   13.40
   0  -5  -8   77.49   14.40
   0   5  -8   73.19   10.00
   0   5  -8   56.09   12.00
   0   5   8   53.69   10.70
   0   5   8  100.29   15.50
   0   5  -8   76.09    6.70
  -1  -5  -8   54.69   10.90
  -1  -5  -8   22.50   12.30
  -1  -5  -8   59.29   11.60
   1   5   8   70.39   11.70
  -1   5  -8   60.09   12.10
  -1   5  -8   70.99    9.50
  -2  -5  -8   49.90   12.20
  -2  -5  -8   40.00   15.20
  -2  -5  -8   36.70   10.60
  -2   5  -8   31.20    7.90
  -2   5  -8   44.80    7.60
  -2   5  -8   33.60   10.60
   2   5   8   53.39   11.20
  -2   5  -8   13.30   10.30
  -3  -5  -8   13.90   12.40
  -3  -5  -8   10.70    9.70
  -3   5  -8   -0.20    7.60
  -3   5  -8   11.70    6.50
   3   5   8   20.40    9.60
  -3   5  -8    1.00   11.50
  -4  -5  -8  103.19   14.70
  -4  -5  -8   88.09   17.50
  -4   5  -8   94.59   12.50
  -4   5  -8   80.49   14.50
  -4   5  -8   88.49   15.70
  -4   5  -8   99.29   12.60
   4   5   8   85.99   12.60
  -5  -5  -8   54.39   12.70
  -5  -5  -8   44.00   17.80
  -5   5  -8   44.90   14.90
   5   5   8   39.50   11.20
  -5   5  -8   50.99   15.70
  -5   5  -8   52.29    9.00
  -5   5  -8   56.59   12.50
  -6  -5  -8   -0.80   18.50
  -6  -5  -8    6.00   12.10
  -6   5  -8   15.10   16.50
  -6   5  -8    6.20   16.20
   6   5   8   23.00   10.60
  -6   5  -8   24.60    8.80
  -7  -5  -8    3.90   12.10
  -7  -5  -8   34.70   23.40
  -7   5  -8  -21.90   18.00
  -8  -5  -8   92.89   31.00
  -8   5  -8    6.30   23.60
   9  -6  -8   18.80   19.40
  -9   6   8    7.70   22.70
   8  -6  -8   -5.80   16.20
   8   6  -8   31.30   13.10
  -8   6   8    6.90   20.10
   7  -6  -8   77.49   18.00
  -7   6   8   48.50   18.70
   6  -6  -8    1.50    7.10
   6  -6  -8   16.50   14.10
  -6   6   8   37.30   17.30
  -6   6   8    8.30    7.90
   6   6  -8   16.70   10.10
   5  -6  -8   41.80   13.40
   5  -6  -8   29.00    6.50
  -5   6   8   32.60    8.60
  -5   6   8   43.70   15.90
   5   6  -8   63.29   11.80
   4  -6  -8   19.40    6.20
   4  -6  -8   20.60    6.70
   4  -6  -8   25.30   11.90
   4   6  -8   29.80    8.50
  -4   6   8   26.90   14.30
  -4   6   8   31.50    8.50
   3  -6  -8  312.77   15.10
   3  -6  -8  356.66   25.40
   3   6  -8  305.97   20.30
  -3   6   8  376.56   23.90
  -3   6   8  288.87   26.70
   2  -6  -8   49.80   12.70
   2   6  -8   65.39   10.00
  -2   6   8   45.40   14.80
   2   6  -8   54.59    5.50
   1  -6  -8   24.60   11.90
   1  -6  -8   38.10    8.70
   1   6  -8   37.10    8.20
  -1   6   8   49.90   12.90
   1   6  -8   37.30    5.10
   0  -6  -8   14.70   11.50
   0  -6  -8    6.80    9.60
   0   6   8    0.80   10.80
   0   6  -8   16.00    6.40
   0   6  -8   21.90    6.00
  -1  -6  -8   45.30   12.30
  -1  -6  -8   52.19   14.30
   1   6   8   55.79   14.30
  -1   6  -8   68.99    9.10
  -1   6  -8   73.69   16.30
  -1   6  -8   58.59    9.10
  -2  -6  -8   19.10   11.70
  -2  -6  -8   -1.40   12.20
  -2   6  -8    9.70    8.50
  -2   6  -8    7.00    8.60
   2   6   8   18.10   11.50
  -2   6  -8   12.20   17.10
  -3  -6  -8   27.70   13.20
  -3  -6  -8    6.10   13.70
   3   6   8   16.60   11.20
  -3   6  -8   28.30   11.20
  -3   6  -8   18.90    7.20
  -3   6  -8   35.30   13.10
  -4  -6  -8   65.69   16.00
  -4   6  -8   65.79   14.40
  -4   6  -8   68.59   10.50
   4   6   8   78.39   13.80
  -4   6  -8   74.79   17.30
  -5  -6  -8   11.40   15.10
  -5  -6  -8   19.00   18.00
  -5   6  -8   -4.70   13.40
   5   6   8   -6.40   11.60
  -5   6  -8   16.10   15.70
  -6  -6  -8   44.70   16.10
  -6  -6  -8   67.49   24.70
   6   6   8   43.90   14.80
  -6   6  -8   30.60   13.90
  -6   6  -8   76.29   18.50
  -6   6  -8   52.79   18.40
  -7  -6  -8  -24.20   25.90
  -7   6  -8    9.50   24.30
  -7   6  -8   32.50   20.90
   7  -7  -8   48.50   20.80
  -7   7   8   47.30   24.10
   7   7  -8   28.60   14.70
   6  -7  -8    2.40   18.70
  -6   7   8   39.00   22.20
   6   7  -8    7.40   12.00
   5  -7  -8  -25.40   15.20
  -5   7   8  -25.10   18.70
   5   7  -8    5.70   11.00
   4  -7  -8   17.30   18.10
   4   7  -8   23.00   12.10
  -4   7   8   37.30   17.90
   3  -7  -8   87.79   20.00
   3   7  -8  113.79   17.90
  -3   7   8   70.99   19.20
   2  -7  -8  176.68   28.40
   2   7  -8  147.19   10.80
   2   7  -8  125.99   16.60
  -2   7   8  175.78   27.70
   1  -7  -8   26.30   14.90
   1   7  -8   36.30   10.40
   1   7  -8   42.50    7.60
  -1   7   8   33.30   14.70
   0  -7  -8   29.30    9.90
   0  -7  -8   36.40   15.70
   0   7  -8   47.10   14.70
   0   7  -8   35.50    9.40
   0   7   8   41.00   15.40
   0   7  -8   48.60    9.10
  -1  -7  -8   24.00   15.90
  -1  -7  -8   25.00   11.40
  -1   7  -8   17.00    9.60
  -1   7  -8   30.80   13.80
  -1   7  -8   15.60    9.30
   1   7   8    2.50   15.30
  -2  -7  -8   18.00   16.30
  -2  -7  -8   22.60   13.30
  -2   7  -8  -19.30   10.90
  -2   7  -8    2.30    7.80
  -2   7  -8    3.30   12.60
   2   7   8   -8.20   13.60
  -3  -7  -8    0.60   15.80
  -3  -7  -8  -15.50   15.70
  -3   7  -8   -1.70    8.80
  -3   7  -8   -3.60   13.10
  -3   7  -8   20.60   14.90
   3   7   8    5.90   13.40
  -4  -7  -8   28.20   18.20
  -4  -7  -8   23.50   22.20
   4   7   8   37.40   21.10
  -4   7  -8   32.10   17.30
  -4   7  -8    8.80    9.80
  -5  -7  -8   11.30   23.40
  -5  -7  -8   32.00   19.40
  -5   7  -8    4.50   18.90
  -5   7  -8   13.80   13.50
   5   7   8   26.70   17.00
  -5   7  -8   49.80   19.50
   5  -8  -8   42.30   24.60
  -5   8   8   39.30   25.40
   5   8  -8   43.60   17.20
   4  -8  -8   55.29   22.40
   4   8  -8   38.90   15.10
  -4   8   8   18.90   22.80
   3  -8  -8  122.49   24.60
  -3   8   8   86.49   25.70
   2  -8  -8   29.40   21.30
   2   8  -8   -0.70   11.60
  -2   8   8   36.30   21.00
   1  -8  -8   58.79   22.70
   1   8  -8   58.29   13.40
  -1   8   8   52.39   20.90
   0  -8  -8   23.70   19.10
   0   8   8   62.29   30.30
   0   8  -8   13.00   17.30
   0   8  -8   44.90   12.70
  -1  -8  -8   60.49   20.30
   1   8   8   54.49   18.90
  -1   8  -8   23.60   16.90
  -1   8  -8   44.10   12.00
  -2  -8  -8   -4.50   20.00
   2   8   8   32.00   19.50
  -2   8  -8    6.00   18.10
  -2   8  -8   20.20   11.10
  -3  -8  -8   41.60   22.10
  -3   8  -8   -8.00   18.20
   3   8   8    3.10   18.50
  -3   8  -8   16.90   11.90
  11   0  -9  -17.60    8.90
  10   0  -9  154.28   15.90
 -10   0   9  156.48   22.10
   9   0  -9  141.39   16.80
  -9   0   9  170.68   17.60
   8   0  -9  151.38   13.60
  -8   0   9  151.88   15.60
   7   0  -9   -1.80    5.90
  -7   0   9    8.00    7.30
   7   0  -9    3.20   14.00
   6   0  -9   14.50    6.40
  -6   0   9   10.30    6.20
  -5   0   9   12.80    5.00
   5   0  -9   12.50    5.70
  -5   0   9   -3.10    5.70
   4   0  -9    3.00    5.30
  -4   0   9    2.10    3.60
  -4   0   9   -0.30    5.20
  -3   0   9  126.29   10.20
   3   0  -9  122.09   10.20
  -3   0   9  137.19    6.50
  -2   0   9  504.85   19.30
  -2   0   9  479.75   13.60
   2   0  -9  466.25   20.20
   1   0  -9   -0.10    4.70
  -1   0   9    3.70    4.10
   0   0  -9   57.89   10.10
   0   0  -9   71.79   10.10
   0   0   9   84.19    8.60
   0   0  -9   59.49    7.30
   1   0   9  188.08   11.50
  -1   0  -9  189.68   16.00
  -1   0  -9  163.28   13.10
  -1   0  -9  167.98   10.40
  -2   0  -9   28.10    7.80
  -2   0  -9   42.40    6.90
   2   0   9   31.20    6.30
  -2   0  -9   32.40   10.10
  -3   0  -9  133.79   17.40
  -3   0  -9  131.69   12.20
   3   0   9  108.89    9.80
  -3   0  -9  134.09   13.60
   4   0   9   14.50    5.70
  -4   0  -9    7.60    7.30
  -4   0  -9   15.90   10.90
  -4   0  -9   12.00    7.60
  -5   0  -9   13.90    8.70
  -5   0  -9   12.40    8.90
  -5   0  -9    7.70   10.90
   5   0   9   11.50    6.10
   6   0   9   11.20    7.30
  -6   0  -9   18.10   11.50
  -6   0  -9   18.50   14.00
  -7   0  -9   -5.60   14.20
  -7   0  -9    8.80   16.60
  -7   0  -9   -5.70    6.50
  -7   0  -9    3.10    4.90
  -8   0  -9   -9.90   22.30
  -9   0  -9  -13.20   25.00
  11  -1  -9  178.78   20.10
 -11   1   9  253.87   28.70
  11   1  -9  162.98   19.00
  10   1  -9   16.60    9.40
 -10   1   9   14.50   14.60
  -9  -1   9   54.29    7.70
   9  -1  -9   48.60    9.60
   9   1  -9   46.40    9.00
  -9   1   9   60.59   13.10
   8  -1  -9  -21.80   25.80
   8  -1  -9   24.70    7.50
  -8  -1   9   26.50    5.20
  -8  -1   9   18.80    7.70
   8   1  -9   30.70    7.40
  -8   1   9   24.80   10.50
  -7  -1   9  147.49    8.10
  -7  -1   9  146.09   12.00
   7  -1  -9  138.19   13.50
   7  -1  -9  167.88   23.70
   7   1  -9  153.78   15.00
  -7   1   9  156.58   15.10
   6  -1  -9   29.30    7.50
  -6  -1   9   37.50    3.90
  -6  -1   9   44.50    6.30
   6   1  -9   49.20    7.70
  -6   1   9   47.90    8.50
  -6   1   9   48.30    8.00
   5  -1  -9  208.98   14.00
  -5  -1   9  207.48    6.70
  -5   1   9  172.58   12.50
   5   1  -9  207.58   13.20
  -5   1   9  214.08   13.90
   4  -1  -9  256.87   15.50
  -4  -1   9  257.47   15.80
  -4   1   9  242.88   13.50
  -4   1   9  252.97   13.20
   4   1  -9  247.08   13.70
   3  -1  -9   23.40    6.50
  -3  -1   9   25.80    6.60
  -3   1   9   17.00    5.00
   3   1  -9   18.00    6.10
  -3   1   9   17.10    4.90
  -2  -1   9  224.08   13.30
   2  -1  -9  221.58   14.80
  -2   1   9  219.48   12.50
   2   1  -9  204.58   12.80
  -2   1   9  198.38   10.30
  -1  -1   9  234.98   13.50
   1  -1  -9  255.17   16.90
   1  -1  -9  256.87   15.60
   1  -1  -9  248.48   12.00
  -1   1   9  235.88   10.50
  -1   1   9  232.98   12.60
   1   1  -9  237.58   13.90
   0  -1   9    4.90    4.10
   0  -1  -9   13.30    5.20
   0  -1  -9    3.60    6.50
   0  -1  -9    4.10    5.10
   0   1   9   -1.40    3.90
   0   1  -9   -1.70    5.00
   0   1  -9    6.00    2.30
   0   1  -9    6.00    6.40
   0   1   9    4.70    3.30
   1  -1   9  273.87   13.80
  -1  -1  -9  271.97   17.00
  -1  -1  -9  240.68   14.30
  -1  -1  -9  278.87   19.00
  -1   1  -9  283.57   15.50
   1   1   9  247.38   10.90
  -1   1  -9  265.27   11.00
   1   1   9  266.77   13.80
  -1   1  -9  260.37   18.90
   2  -1   9   50.09    7.10
  -2  -1  -9   44.70   11.10
  -2  -1  -9   43.70    9.00
  -2  -1  -9   57.19    9.00
  -2   1  -9   50.59   10.10
  -2   1  -9   71.69   10.20
   2   1   9   43.30    7.10
  -2   1  -9   62.69    7.90
  -3  -1  -9   63.99   12.40
  -3  -1  -9   66.29   11.20
  -3  -1  -9   91.69   12.60
   3  -1   9   76.09    9.20
   3   1   9   73.59    9.20
  -3   1  -9   75.49    9.80
  -3   1  -9   94.59   14.60
  -3   1  -9   91.59   11.60
  -4  -1  -9   89.29   12.60
  -4  -1  -9   81.29   14.90
  -4  -1  -9   93.59   14.40
   4  -1   9   78.49    9.70
   4   1   9   70.19   10.40
  -4   1  -9   74.19   10.30
  -4   1  -9   87.39   15.30
  -4   1  -9   68.19   10.90
  -5  -1  -9  161.08   18.30
  -5  -1  -9  106.59   17.20
  -5  -1  -9  105.69   14.20
   5  -1   9  121.39   11.30
  -5   1  -9  172.78   22.70
  -5   1  -9  139.89   15.40
   5   1   9  137.09   12.60
  -5   1  -9   93.09   14.40
   6  -1   9   69.99    9.20
  -6  -1  -9  104.39   15.80
  -6  -1  -9  102.19   16.60
  -6  -1  -9   93.89   19.90
  -6   1  -9   81.19    9.60
  -6   1  -9   73.09   13.00
   6   1   9  101.49   13.60
  -6   1  -9   81.49   13.00
  -6   1  -9   77.49   17.80
  -7  -1  -9  133.19   10.70
   7  -1   9  154.98   14.50
  -7  -1  -9  207.88   31.10
  -7   1  -9  155.48   24.50
  -7   1  -9  126.99   17.20
  -8  -1  -9   61.79   23.70
  -8   1  -9   47.20   24.20
  -9  -1  -9   55.09   29.10
  -9   1  -9   36.40   26.20
 -11   2   9    5.80   18.70
  11   2  -9   -1.50   11.60
  10  -2  -9   82.99   12.50
 -10   2   9   95.89   18.00
  10   2  -9   96.09   12.90
   9  -2  -9   47.70   10.50
   9   2  -9   43.90    9.50
  -8  -2   9  145.89   11.20
   8  -2  -9  143.49   21.00
   8  -2  -9  150.28   16.40
   8   2  -9  160.48   14.90
  -8   2   9  146.39   19.90
  -7  -2   9   -1.90    4.10
   7  -2  -9    0.30    7.00
   7  -2  -9    0.50   13.10
  -7  -2   9    5.20    5.20
   7   2  -9    6.60    5.60
  -7   2   9   -5.00    6.40
  -7   2   9   -6.10    8.60
   6  -2  -9  113.29   13.40
  -6  -2   9   94.29    5.80
  -6   2   9  115.29   14.80
  -6   2   9   87.79   11.30
   5  -2  -9   94.59   12.30
  -5   2   9   75.79    9.70
   5   2  -9   98.89   10.90
  -5   2   9   89.29   12.50
   4  -2  -9   57.79    9.40
  -4   2   9   55.49    7.80
  -4   2   9   54.29    8.50
   4   2  -9   55.79    8.30
   3  -2  -9  122.19   12.60
  -3   2   9  102.19    9.70
  -3   2   9  140.59   11.50
   3   2  -9  142.59   11.40
  -2  -2   9  448.96   20.40
   2  -2  -9  416.96   21.00
  -2   2   9  456.75   18.10
   2   2  -9  443.16   18.50
  -2   2   9  431.16   17.80
   1  -2  -9    7.00    6.50
   1  -2  -9    3.80    6.60
  -1  -2   9    5.80    6.10
   1  -2  -9   23.50    7.20
  -1   2   9    6.20    4.90
  -1   2   9   14.50    5.30
   0  -2  -9  169.88   13.20
   0  -2   9  171.58   12.20
   0  -2  -9  158.38   14.20
   0  -2  -9  169.08   15.10
   0   2  -9  166.18   12.20
   0   2   9  158.48   11.10
   0   2   9  157.08   11.30
  -1  -2  -9  211.08   16.10
   1  -2   9  253.87   14.40
  -1  -2  -9  189.68   17.70
  -1  -2  -9  216.58   15.40
   1   2   9  238.78   13.60
  -1   2  -9  255.57   18.90
   1   2   9  242.18   12.30
  -1   2  -9  227.78    8.70
  -1   2  -9  225.78   14.00
  -2  -2  -9   40.00   10.60
   2  -2   9   43.00    7.30
  -2  -2  -9   52.49    9.60
  -2  -2  -9   32.90   10.00
   2   2   9   42.10    7.10
   2   2   9   43.10    6.70
  -2   2  -9   54.39   10.70
  -2   2  -9   52.69    8.20
  -2   2  -9   45.30    6.90
  -3  -2  -9  201.68   18.30
  -3  -2  -9  197.78   18.60
   3  -2   9  176.18   13.10
  -3  -2  -9  195.08   17.00
   3   2   9  188.78   14.40
  -3   2  -9  192.78   13.80
   3   2   9  185.28   11.70
  -3   2  -9  191.08   11.30
  -4  -2  -9   35.10   20.10
   4  -2   9   42.20    7.30
  -4  -2  -9   38.30   12.60
  -4  -2  -9   47.60   12.40
  -4   2  -9   29.30    7.90
   4   2   9   35.60    7.80
  -4   2  -9   28.40    8.30
  -4   2  -9   49.80    7.50
  -4   2  -9   26.90   12.50
   5  -2   9   65.49    9.30
  -5  -2  -9   60.69   14.40
  -5  -2  -9   92.39   17.40
  -5   2  -9   54.69   10.50
   5   2   9   75.69   16.90
  -5   2  -9   56.69    9.40
  -5   2  -9   53.39   10.00
  -5   2  -9   54.29   15.70
  -6  -2  -9   31.50    8.10
  -6  -2  -9   54.19   18.20
   6  -2   9   33.80    8.40
  -6   2  -9   30.00    9.40
  -6   2  -9   21.30   10.70
  -6   2  -9   13.80   10.20
  -6   2  -9   37.70   16.00
  -7  -2  -9   87.19   24.70
   7  -2   9   30.70   14.20
  -7  -2  -9   50.79    8.40
  -7   2  -9   56.59   13.70
  -7   2  -9   95.89   20.50
  -8  -2  -9   36.20   25.90
  -8   2  -9   68.09   17.20
  -8   2  -9   39.00   21.70
  -9  -2  -9   68.19   33.80
  -9   2  -9   35.50   27.50
 -11   3   9   19.90   22.40
  11   3  -9   45.30   13.00
  10  -3  -9   11.10   11.20
 -10   3   9    7.50   17.60
  10   3  -9   32.90   11.10
   9  -3  -9   30.40   11.00
  -9   3   9   76.59   17.70
   9   3  -9   54.99   10.60
   8  -3  -9   31.00   16.10
   8  -3  -9   -0.30    8.40
  -8  -3   9    7.90    6.70
  -8   3   9    1.70    8.80
  -8   3   9    0.50   14.90
   8   3  -9   23.20    8.50
   7  -3  -9  174.28   16.90
  -7  -3   9  186.88   10.10
   7  -3  -9  189.38   23.90
   7   3  -9  179.48   15.20
  -7   3   9  139.59   14.70
  -7   3   9  156.68   19.80
   6  -3  -9   16.40   12.10
   6  -3  -9   11.00    7.40
  -6   3   9   21.30    7.00
  -6   3   9   33.60   11.00
   6   3  -9   27.70    7.60
   5  -3  -9  145.99   15.60
  -5   3   9  149.39   12.10
   5   3  -9  134.19   12.50
  -5   3   9  158.08   16.20
   4  -3  -9   64.69   10.40
  -4   3   9   56.89    7.80
  -4   3   9   52.29   10.10
   3  -3  -9  139.89   14.20
  -3   3   9  101.89   13.30
   3   3  -9  128.19   11.50
  -3   3   9  110.19   10.50
   2  -3  -9   22.00    8.50
   2  -3  -9   10.60    7.10
   2  -3  -9   20.80    6.90
  -2   3   9   17.50    5.40
   2   3  -9   23.00    6.50
  -2   3   9   13.90    7.20
   1  -3  -9   96.59   12.90
   1  -3  -9   74.89   10.70
   1  -3  -9   80.99   12.70
  -1   3   9   72.99    9.30
  -1   3   9  100.89   12.00
   1   3  -9   85.39   10.30
   0  -3  -9   88.09   11.90
   0  -3  -9   94.99   14.10
   0  -3  -9   74.99   12.20
   0   3   9   93.89   11.10
   0   3   9   76.79   11.10
   0   3  -9   74.59    9.80
  -1  -3  -9  242.78   19.00
  -1  -3  -9  222.18   18.50
  -1  -3  -9  227.28   17.70
  -1   3  -9  207.28   18.90
   1   3   9  189.48   14.60
   1   3   9  228.58   13.80
  -1   3  -9  221.88   14.50
  -2  -3  -9   21.80   10.80
  -2  -3  -9   36.60   10.60
  -2  -3  -9   20.70   13.00
   2   3   9   29.20    8.50
  -2   3  -9   29.40   10.00
  -2   3  -9   17.20    8.20
   2   3   9   33.90    7.10
  -2   3  -9   30.90    4.70
  -2   3  -9   26.90    7.00
  -3  -3  -9  103.39   15.70
  -3  -3  -9  127.79   18.90
  -3  -3  -9   95.19   15.20
   3  -3   9   84.59   11.00
   3   3   9   98.09   10.90
  -3   3  -9  114.59   16.20
  -3   3  -9  116.49    8.60
  -3   3  -9   97.89   12.00
  -3   3  -9  103.19   14.20
   3   3   9   81.29   12.10
  -4  -3  -9   12.30   12.60
  -4  -3  -9   37.50   12.10
  -4  -3  -9   14.60   11.60
  -4  -3  -9   14.90    7.50
  -4   3  -9   15.30    7.40
   4   3   9   10.70    6.50
  -4   3  -9    1.40    5.80
  -4   3  -9   14.60   11.80
  -4   3  -9    9.30    8.80
  -5  -3  -9   19.30   15.50
  -5  -3  -9    4.40    8.10
  -5   3  -9    8.80    9.70
  -5   3  -9   -1.60    7.70
  -5   3  -9   43.90   13.50
  -5   3  -9    0.30    6.80
  -6  -3  -9   12.50   18.90
  -6  -3  -9   15.90    9.50
  -6   3  -9   30.40   17.60
  -6   3  -9    9.00   10.20
  -6   3  -9   26.40    9.20
  -6   3  -9   18.40    9.70
  -7  -3  -9  -15.80   20.40
  -7  -3  -9   31.60   10.00
  -7   3  -9   -0.50   11.30
  -7   3  -9   30.40   18.80
  -8  -3  -9   17.80   26.40
  -8   3  -9   59.29   24.90
 -10   4   9   48.00   22.90
   9  -4  -9   20.80   13.10
   9   4  -9   33.10   10.40
  -9   4   9   -1.40   17.10
   8  -4  -9  135.59   19.90
   8  -4  -9   98.49   14.30
  -8   4   9  121.29   17.40
  -8   4   9   68.79   18.20
   8   4  -9  118.09   16.20
   7  -4  -9   -3.40   13.70
  -7  -4   9   17.70    5.40
   7  -4  -9   36.60   11.00
  -7   4   9   28.80    8.50
   7   4  -9   29.50    9.40
   6  -4  -9   94.89   15.10
   6  -4  -9  158.18   17.80
   6   4  -9  139.89   13.60
  -6   4   9  117.59   12.70
  -6   4   9  116.79   16.30
   5  -4  -9    9.70    9.30
  -5   4   9   -4.10    6.20
   5   4  -9    4.80    6.40
  -5   4   9   16.20   11.10
   4  -4  -9   23.50    7.90
   4  -4  -9   22.30    9.60
   4   4  -9   17.80    6.70
  -4   4   9   18.70    6.80
  -4   4   9   13.30    9.50
   3  -4  -9  155.78   16.70
   3  -4  -9  156.38   14.50
   3   4  -9  165.88   13.40
  -3   4   9  158.08   17.70
  -3   4   9  171.78   13.00
   2  -4  -9  208.88   20.60
   2  -4  -9  222.88   16.00
   2  -4  -9  199.28   17.70
   2   4  -9  184.98   18.90
   2   4  -9  201.58   16.60
  -2   4   9  231.38   17.00
  -2   4   9  201.48   14.70
   1  -4  -9    0.60    9.80
   1  -4  -9   21.30    8.30
  -1   4   9    4.00    7.30
  -1   4   9   23.10    7.20
   1   4  -9   13.60   10.20
   1   4  -9   13.60    6.10
   0  -4  -9  201.98   19.10
   0  -4  -9  151.48   19.50
   0  -4  -9  162.68   15.70
   0   4   9  162.18   15.20
   0   4   9  149.29   15.00
   0   4  -9  187.58   19.00
   0   4  -9  160.18   13.10
  -1  -4  -9  158.98   17.00
  -1  -4  -9  152.08   20.60
  -1  -4  -9  158.48   20.10
   1   4   9  159.88   15.10
  -1   4  -9  145.19   12.60
  -1   4  -9  148.79    6.50
  -1   4  -9  156.38   18.30
  -2  -4  -9   62.09   14.10
  -2  -4  -9   37.40   10.30
  -2  -4  -9   57.39   12.60
  -2  -4  -9   44.50   13.20
   2   4   9   52.59    9.20
  -2   4  -9   49.30   11.50
  -2   4  -9   44.40    5.80
  -2   4  -9   59.99   13.20
  -2   4  -9   49.30    7.50
  -2   4  -9   47.90    8.70
  -3  -4  -9   20.20   14.40
  -3  -4  -9   59.99   11.40
  -3  -4  -9   40.00   15.10
  -3  -4  -9   50.49   12.50
   3   4   9   35.70   10.50
  -3   4  -9   37.90    8.70
  -3   4  -9   33.60   13.00
  -3   4  -9   35.50   10.60
  -3   4  -9   48.70    6.00
  -3   4  -9   37.00    8.10
  -4  -4  -9   61.19   15.50
  -4  -4  -9   26.10   10.50
  -4   4  -9   37.30   14.70
  -4   4  -9   40.30    6.50
   4   4   9   32.50    9.50
  -4   4  -9   26.60   12.00
  -4   4  -9   24.80    8.00
  -5  -4  -9  -25.60   16.20
  -5  -4  -9   -4.70   10.30
  -5   4  -9   36.30   12.40
  -5   4  -9   11.50    7.80
  -5   4  -9   16.80   14.70
   5   4   9    2.00    8.60
  -5   4  -9    6.40    8.00
  -6  -4  -9   76.39   14.20
  -6  -4  -9   76.89   23.70
  -6   4  -9   82.59   11.90
  -6   4  -9   65.69   12.40
  -6   4  -9   74.09   20.20
  -7  -4  -9   43.20   24.30
  -7   4  -9   23.40   19.50
  -7   4  -9   39.30   12.70
  -8  -4  -9   61.19   29.80
  -8   4  -9   39.20   26.10
   9  -5  -9  126.19   20.00
   9   5  -9   70.69   14.30
  -9   5   9   74.89   22.70
   8  -5  -9   -4.00   13.80
  -7   5   9   54.59   17.20
  -7   5   9   68.29   10.50
   7   5  -9   84.49   14.20
   6  -5  -9   14.30   22.60
   6  -5  -9   17.40   11.50
  -6   5   9    1.20    7.90
  -6   5   9   15.30   14.30
   6   5  -9   10.30    9.30
   5  -5  -9  150.38   21.90
   5  -5  -9  120.19   14.10
   5  -5  -9  101.79   14.20
  -5   5   9  109.79   17.50
   5   5  -9  121.29   15.30
  -5   5   9   97.29   13.80
   4  -5  -9   10.60    7.90
   4  -5  -9   -6.40   10.50
  -4   5   9   13.60   12.50
   4   5  -9   -7.00    6.80
  -4   5   9    4.90    7.60
   3  -5  -9    1.30    7.80
   3  -5  -9   10.40   11.30
   3   5  -9   17.30    7.60
   2  -5  -9   60.89   10.00
   2  -5  -9   75.39   15.30
   2  -5  -9   64.19   14.40
   2   5  -9   49.50    9.00
   1  -5  -9  178.38   19.60
   1  -5  -9  177.88   16.90
   1  -5  -9  203.28   22.60
   1  -5  -9  225.98   23.60
  -1   5   9  178.18   29.10
   1   5  -9  187.08   14.70
   0  -5  -9   70.89   16.20
   0  -5  -9   69.29   14.80
   0  -5  -9   47.70   10.90
   0  -5  -9  106.79   16.30
   0   5  -9   84.89   11.70
   0   5   9   46.30   14.40
   0   5  -9   60.79   13.30
  -1  -5  -9   76.79   13.40
  -1  -5  -9   92.89   20.40
  -1  -5  -9  115.19   18.40
  -1   5  -9   66.09    4.80
   1   5   9   60.69   12.30
  -1   5  -9   79.89   12.20
  -1   5  -9   64.29   14.10
  -1   5  -9   57.69    7.70
  -2  -5  -9   83.29   15.80
  -2  -5  -9   89.49   14.80
  -2   5  -9   98.29   15.40
   2   5   9   94.29   14.30
  -2   5  -9   80.89   12.00
  -3  -5  -9   41.20   13.50
  -3  -5  -9   10.20   14.50
   3   5   9   40.70   11.20
  -3   5  -9   42.60   18.10
  -3   5  -9   42.10    9.40
  -3   5  -9   33.90    9.80
  -3   5  -9   31.80   14.40
  -4  -5  -9  112.09   20.20
  -4   5  -9   81.89   13.20
   4   5   9   80.09   13.60
  -4   5  -9   81.09   16.70
  -4   5  -9   59.99   15.50
  -4   5  -9   85.19   11.20
  -5  -5  -9   40.40   20.10
  -5  -5  -9   25.70   14.30
   5   5   9   50.49   11.70
  -5   5  -9   44.10   18.30
  -5   5  -9   53.69   10.70
  -5   5  -9   68.79   14.80
  -5   5  -9   42.20   18.50
  -6  -5  -9   89.89   16.70
  -6  -5  -9   61.09   25.70
  -6   5  -9   68.79   18.80
  -6   5  -9   66.19   13.90
  -6   5  -9   67.79   21.90
  -7  -5  -9   20.90   28.10
  -7   5  -9   30.00   23.30
   8  -6  -9   65.29   19.50
  -8   6   9   34.50   21.70
   8   6  -9   70.89   17.30
   7  -6  -9   62.09   18.40
  -7   6   9   27.20   19.60
   7   6  -9   49.10   14.30
   6  -6  -9   37.30   17.40
   6   6  -9   32.50   12.60
  -6   6   9   55.49   18.20
   5  -6  -9   13.00    8.70
   5  -6  -9   31.80   14.80
  -5   6   9   40.00   16.70
   5   6  -9   34.70   10.60
   4  -6  -9   22.80    7.90
   4  -6  -9   21.90   13.20
  -4   6   9   23.90   15.10
   4   6  -9   24.50   10.90
   3  -6  -9  101.19   16.40
   3  -6  -9   73.99   10.30
   3   6  -9   64.79   11.40
  -3   6   9   75.99   17.60
   2  -6  -9   47.70    9.70
   2  -6  -9   71.69   15.50
   2   6  -9   40.70    8.80
  -2   6   9   23.20   14.20
   1  -6  -9   20.70   13.60
   1  -6  -9   32.40    9.80
   1   6  -9   10.80    8.20
  -1   6   9    4.30   13.20
   0  -6  -9  100.99   17.10
   0  -6  -9   95.19   14.00
   0   6  -9   89.79   15.30
   0   6  -9   87.89   13.60
   0   6   9   86.99   16.90
  -1  -6  -9   91.79   16.10
  -1  -6  -9   94.19   16.20
  -1   6  -9   82.39    8.80
   1   6   9   99.99   16.90
  -1   6  -9  110.79   14.80
  -1   6  -9   66.09   14.70
  -2  -6  -9   33.90   16.40
  -2  -6  -9   23.90   14.90
  -2   6  -9   23.00    9.70
   2   6   9   21.20   13.50
  -2   6  -9   34.50   10.00
  -2   6  -9   44.80   14.50
  -3  -6  -9   26.10   14.40
  -3  -6  -9   37.20   20.50
  -3   6  -9   39.60   12.20
   3   6   9   15.70   12.60
  -3   6  -9   44.30   10.30
  -3   6  -9   48.70   17.00
  -4  -6  -9   41.00   19.60
  -4  -6  -9   45.10   16.00
   4   6   9   -6.20   13.70
  -4   6  -9   28.80   16.10
  -4   6  -9   23.40   13.60
  -4   6  -9    7.50    9.90
  -5  -6  -9  -13.70   22.30
  -5  -6  -9   29.90   17.70
   5   6   9   10.20   14.10
  -5   6  -9  -21.70   14.80
  -5   6  -9    2.70   17.90
  -6  -6  -9   32.30   19.30
  -6  -6  -9   57.19   26.80
   6   6   9   55.99   15.70
  -6   6  -9   40.90   23.10
  -6   6  -9   55.39   20.60
   6  -7  -9   -9.20   21.20
  -6   7   9   -2.90   22.30
   6   7  -9   20.40   14.40
   5  -7  -9    0.90   19.00
  -5   7   9   43.60   21.60
   5   7  -9  -12.40   12.20
   4  -7  -9   37.10   18.90
   4   7  -9   28.50   12.70
  -4   7   9   31.10   20.20
   3  -7  -9   -1.10   16.80
  -3   7   9   39.40   19.00
   3   7  -9    0.30   10.50
   2  -7  -9   41.90   18.40
  -2   7   9   19.00   18.60
   2   7  -9   36.70   11.30
   1  -7  -9  102.89   21.30
   1   7  -9  110.79   17.40
  -1   7   9   95.79   19.60
   0  -7  -9   52.49   19.30
   0   7  -9   53.29   16.40
   0   7   9   19.50   15.90
   0   7  -9   28.70   10.80
  -1  -7  -9   46.10   18.30
  -1  -7  -9   27.90   15.60
  -1   7  -9   35.10   10.30
  -1   7  -9   11.00   15.80
   1   7   9   34.90   15.60
  -2  -7  -9   40.90   17.70
  -2  -7  -9   21.10   18.40
  -2   7  -9   29.00   16.00
   2   7   9   24.30   16.30
  -2   7  -9   19.00   10.60
  -3  -7  -9   11.10   22.00
  -3  -7  -9    4.20   19.00
  -3   7  -9   31.10   19.20
  -3   7  -9    6.90   11.00
   3   7   9   24.80   16.20
  -4  -7  -9   42.50   23.10
  -4  -7  -9   29.90   22.00
   4   7   9   37.70   17.40
  -4   7  -9   14.50   13.30
  -4   7  -9    6.60   20.10
   3  -8  -9   38.60   27.30
   3   8  -9   20.30   15.00
  -3   8   9   17.80   22.30
   2  -8  -9   37.00   23.20
   2   8  -9   14.30   13.20
  -2   8   9  -23.80   20.10
   1  -8  -9   -4.60   19.60
   1   8  -9   31.50   13.00
   1   8  -9   -8.10   17.40
  -1   8   9   23.40   21.20
   0  -8  -9   18.40   22.90
   0   8   9   22.00   21.40
   0   8  -9   33.40   20.60
  -1  -8  -9   43.40   22.80
   1   8   9   47.30   20.10
  -1   8  -9   26.80   21.00
  -1   8  -9   26.00   12.50
  11   0 -10   10.40   11.80
 -11   0  10   64.79   22.70
  10   0 -10  218.98   20.70
 -10   0  10  223.58   25.10
   9   0 -10   77.49   12.90
  -9   0  10  104.79   14.10
   8   0 -10    1.50    7.80
  -8   0  10    8.90    9.00
   7   0 -10  121.09   14.40
  -7   0  10  126.79   13.70
  -6   0  10    4.00    6.00
   6   0 -10    1.00    7.00
  -5   0  10  158.38   15.20
   5   0 -10  174.68   23.10
  -5   0  10  214.38   10.70
  -4   0  10    4.60    3.30
   4   0 -10   -3.60    5.30
  -4   0  10   -1.10    6.30
   3   0 -10   31.90    7.60
  -3   0  10   50.29    8.30
  -2   0  10   28.60    6.70
   2   0 -10   22.80    6.90
  -1   0  10   18.30    6.30
   1   0 -10   23.70    7.30
   1   0 -10   26.40    8.90
   0   0 -10   17.80    8.30
   0   0 -10   16.30    4.70
   0   0 -10   22.30    6.80
  -1   0 -10  198.28   19.30
   1   0  10  212.18   13.70
  -1   0 -10  202.08   16.10
  -1   0 -10  183.98   12.10
   2   0  10   80.19   10.70
  -2   0 -10   70.89    9.30
  -2   0 -10   60.59   14.60
  -2   0 -10   70.69   10.80
  -3   0 -10   52.59   13.70
  -3   0 -10   51.79   12.00
   3   0  10   68.09   10.90
  -3   0 -10   81.39   12.80
   4   0  10   15.50    7.70
  -4   0 -10   18.60   13.80
  -4   0 -10   18.40    9.40
  -4   0 -10    5.00    9.70
  -5   0 -10  135.09   20.00
  -5   0 -10  180.48   20.70
   5   0  10  130.59   16.20
  -6   0 -10   48.40   14.10
  -6   0 -10   -7.10   13.90
  -6   0 -10  -12.40   14.80
  -7   0 -10   24.80   15.90
  -7   0 -10  -34.60   19.40
  -8   0 -10   12.80   26.00
  11  -1 -10  189.48   23.30
  11   1 -10  144.79   22.40
 -11   1  10  148.79   23.10
  10  -1 -10   51.69   12.80
 -10  -1  10   70.39   14.40
 -10   1  10   55.89   17.10
  10   1 -10   49.20   12.10
   9  -1 -10   11.10   10.30
  -9  -1  10   12.80    9.70
  -9   1  10   14.20   12.10
   9   1 -10   20.60    9.50
  -8  -1  10   -2.50    7.70
  -8  -1  10   31.30    5.50
   8  -1 -10   11.40    9.20
   8   1 -10   15.30    8.10
  -8   1  10   15.50   10.90
   7  -1 -10    9.50    8.30
  -7  -1  10   14.10    4.00
  -7  -1  10    8.90    6.10
  -7   1  10    5.60    8.80
  -7   1  10   -5.80    9.20
   7   1 -10    8.80    7.80
  -6  -1  10   53.79    4.50
  -6  -1  10   70.49    8.70
   6   1 -10   75.89   11.60
  -6   1  10   49.80   10.00
  -6   1  10   64.69   10.10
   5  -1 -10   10.90    8.30
   5   1 -10   10.90    7.10
  -5   1  10   15.00    6.70
  -5   1  10    7.20    6.10
  -4  -1  10  153.98   15.20
   4  -1 -10  140.49   14.10
  -4   1  10  127.09   12.10
  -4   1  10  108.89   10.50
   3  -1 -10   54.39    9.40
  -3  -1  10   60.79    9.50
  -3   1  10   76.89   10.00
   3   1 -10   78.49   10.40
  -3   1  10   71.19    8.60
   2  -1 -10  145.29   13.80
  -2  -1  10  166.68   14.20
  -2   1  10  171.98    9.80
   2   1 -10  170.78   13.40
  -2   1  10  170.58   12.50
  -1  -1  10   32.60    7.10
   1  -1 -10   30.70    5.90
   1  -1 -10   23.50    7.90
   1  -1 -10   26.50    9.60
  -1   1  10   20.70    6.80
  -1   1  10   26.00    4.70
   1   1 -10   19.30    6.20
   0  -1  10  136.49   11.70
   0  -1 -10  109.69   11.30
   0  -1 -10  114.89   15.10
   0  -1 -10  124.19   13.90
   0   1 -10  124.19   15.60
   0   1 -10  116.79   11.80
   0   1  10  110.69   11.00
   0   1  10  121.39    7.90
  -1  -1 -10   13.80    8.30
  -1  -1 -10   20.30   10.10
  -1  -1 -10   33.30   10.30
   1  -1  10   18.20    6.50
  -1   1 -10   16.70    7.00
   1   1  10   20.70    5.70
  -1   1 -10   24.90    5.00
   2  -1  10  315.37   16.90
  -2  -1 -10  336.57   18.50
   2   1  10  327.17   17.20
  -2   1 -10  346.87   23.00
  -2   1 -10  311.47   14.80
  -2   1 -10  344.67   19.40
   3  -1  10   24.70    6.80
  -3  -1 -10   21.20    9.20
  -3  -1 -10    9.50    8.30
  -3  -1 -10   11.20   12.60
   3   1  10   14.10    7.10
  -3   1 -10    4.20    7.90
  -3   1 -10   17.30   11.40
  -4  -1 -10  180.88   19.90
  -4  -1 -10  181.98   25.10
   4  -1  10  179.98   14.40
  -4  -1 -10  228.18   20.00
  -4   1 -10  155.88   23.20
  -4   1 -10  193.48   19.30
  -4   1 -10  158.48   16.00
   5  -1  10   30.60    8.20
  -5  -1 -10   24.20   14.30
  -5  -1 -10   25.00   16.50
  -5  -1 -10   45.50   13.60
  -5   1 -10    5.80   13.20
  -5   1 -10   22.30   10.80
   6  -1  10   33.70    9.30
  -6  -1 -10   75.09   19.20
  -6  -1 -10   29.50   15.50
  -6   1 -10   10.70   12.30
  -6   1 -10   33.90   17.60
  -6   1 -10   10.30   12.30
  -6   1 -10   48.90   12.80
  -7  -1 -10  114.59   26.60
  -7   1 -10  105.59   23.30
  -7   1 -10   93.89   17.50
  -8  -1 -10   29.80   27.80
  -8   1 -10   22.50   26.10
  10  -2 -10  144.19   20.60
  10   2 -10  237.68   22.30
 -10   2  10  224.08   29.50
   9  -2 -10   98.19   14.10
  -9   2  10   96.49   21.50
   9   2 -10  100.89   13.10
   8  -2 -10   15.40    9.90
  -8  -2  10   11.10    7.00
  -8   2  10   19.30   12.60
   8   2 -10   22.20    8.70
   7  -2 -10   86.49   12.90
   7  -2 -10   49.60   18.50
   7   2 -10  100.69   14.30
  -7   2  10   80.69   13.00
  -7   2  10  111.59   15.60
   6   2 -10    2.10    7.20
  -6   2  10    8.60    8.80
  -6   2  10   10.40    8.60
   5  -2 -10   61.49   13.40
  -5   2  10   37.70    9.80
  -5   2  10   92.59   12.10
   5   2 -10   64.79    9.50
   4  -2 -10   58.19   10.30
   4   2 -10   86.99   11.40
  -4   2  10   65.49    9.40
  -4   2  10   63.79    8.50
   3  -2 -10  120.99   14.40
  -3   2  10  107.99   11.80
  -3   2  10  102.99   11.10
   3   2 -10  118.19   13.40
  -2  -2  10   90.19   12.90
   2  -2 -10   65.29   11.10
   2  -2 -10   65.29   11.60
  -2   2  10   62.79    8.40
  -2   2  10   57.69    8.30
   2   2 -10   41.30   10.60
  -1  -2  10   80.09   11.40
   1  -2 -10   89.69   11.50
   1  -2 -10   77.09   13.10
   1  -2 -10   75.19   12.20
  -1   2  10   77.29    9.80
  -1   2  10   54.89    8.10
   1   2 -10   77.19   11.20
   0  -2  10   27.00    7.80
   0  -2 -10    7.60    9.20
   0  -2 -10   20.30    8.40
   0   2 -10   24.10    7.70
   0   2  10   18.00    6.90
   0   2  10   17.80    5.60
  -1  -2 -10  202.18   20.00
  -1  -2 -10  220.78   18.20
  -1  -2 -10  230.98   17.50
   1  -2  10  216.08   16.10
   1   2  10  202.68   12.00
  -1   2 -10  197.68   14.70
  -1   2 -10  180.38   19.90
   1   2  10  208.48   14.20
  -2  -2 -10   40.50   11.10
  -2  -2 -10   40.60   10.20
   2  -2  10   32.20    8.80
   2   2  10   49.60   12.40
  -2   2 -10   50.29    6.30
  -2   2 -10   42.30    8.20
  -2   2 -10   50.19   11.90
   2   2  10   35.00    6.40
  -3  -2 -10    5.40    9.60
   3  -2  10    7.50    7.90
  -3  -2 -10   30.10   11.00
  -3  -2 -10    7.50   11.70
  -3   2 -10   10.30   11.50
  -3   2 -10    2.90    6.00
  -3   2 -10    9.20    7.20
  -4  -2 -10   28.00   13.70
   4  -2  10   31.30    8.80
  -4  -2 -10   29.30   13.40
  -4  -2 -10   22.10   14.20
  -4   2 -10    6.40    7.90
  -4   2 -10   31.90   15.20
  -4   2 -10   28.10    9.20
  -4   2 -10   26.70    9.70
  -5  -2 -10   95.89   17.70
  -5  -2 -10  109.19   18.80
  -5  -2 -10   50.89   16.40
  -5   2 -10  124.69   16.60
  -5   2 -10   81.49   12.20
  -5   2 -10   79.69   14.60
  -5   2 -10   82.49   19.20
   6  -2  10   46.70   11.40
  -6  -2 -10   37.80   20.70
  -6  -2 -10   51.49   10.20
  -6   2 -10   64.19   14.70
  -6   2 -10   48.80   20.80
  -7  -2 -10   -4.80   23.00
  -7   2 -10   74.89   22.80
  -7   2 -10    3.90   17.70
  -8  -2 -10   32.70   30.80
  -8   2 -10   26.60   19.70
  -8   2 -10  -13.00   25.40
  10  -3 -10  145.39   18.50
 -10   3  10  117.49   24.00
  10   3 -10  154.58   22.70
   9  -3 -10   17.10   11.90
   9   3 -10   17.20   10.80
  -9   3  10   46.70   17.40
   8  -3 -10   10.30   10.50
  -8   3  10   18.50   14.50
  -8   3  10   10.80   19.30
   8   3 -10   34.50   10.60
   7  -3 -10    0.10   16.50
   7  -3 -10    5.10   10.00
  -7   3  10   19.40   12.80
   7   3 -10   20.50    8.80
  -7   3  10   14.90   10.00
   6  -3 -10   12.30    9.60
  -6   3  10   25.40    8.30
  -6   3  10   18.50   11.90
   6   3 -10   17.50    8.50
   5  -3 -10   -1.60    8.00
   5   3 -10  -11.40    5.60
  -5   3  10   -1.70    9.80
  -5   3  10   -2.30    6.70
   4  -3 -10   49.20   11.60
   4   3 -10   57.29    9.40
  -4   3  10   53.69    8.40
  -4   3  10   68.89   11.50
   3  -3 -10   41.40    9.90
   3  -3 -10   31.70    9.50
  -3   3  10   23.50    8.70
  -3   3  10   17.70    7.00
   3   3 -10   40.00    8.20
   2  -3 -10  151.98   15.90
   2  -3 -10  200.98   17.40
   2  -3 -10  155.88   17.90
   2   3 -10  192.68   14.70
  -2   3  10  186.38   15.30
  -2   3  10  161.98   13.80
   1  -3 -10   11.30    8.50
   1  -3 -10    1.10    8.00
   1  -3 -10   -0.60    7.80
   1   3 -10   11.80    6.60
  -1   3  10   -1.30    6.70
  -1   3  10    5.80    7.10
   0  -3 -10   60.59   11.80
   0  -3 -10   60.69   12.00
   0  -3 -10   69.49   12.40
   0   3 -10   67.19   13.60
   0   3  10   62.99    9.00
  -1  -3 -10   34.00   10.70
  -1  -3 -10   49.80   11.60
  -1  -3 -10   22.00   11.10
  -1   3 -10   23.00   11.70
   1   3  10   22.10    7.50
  -1   3 -10   26.90   13.60
  -2  -3 -10  237.78   22.00
  -2  -3 -10  159.98   21.00
  -2  -3 -10  181.88   30.00
  -2   3 -10  213.28   20.10
  -2   3 -10  135.09   18.50
  -2   3 -10  151.78   19.40
  -2   3 -10  183.58   10.10
  -2   3 -10  173.78    9.70
   2   3  10  173.58   14.10
  -3  -3 -10   19.70   12.80
  -3  -3 -10   11.60   12.90
  -3  -3 -10    3.90   11.50
  -3   3 -10   16.30    9.00
  -3   3 -10   15.60    6.10
  -3   3 -10   18.00   13.60
   3   3  10   19.90    7.40
  -3   3 -10   19.40   10.40
  -4  -3 -10  156.18   21.10
  -4  -3 -10  132.89   20.30
  -4  -3 -10  143.49   22.40
  -4   3 -10  145.69   23.60
  -4   3 -10  147.39   18.80
  -4   3 -10  109.39   12.90
  -4   3 -10  105.59   15.40
  -5  -3 -10   15.80   10.00
  -5  -3 -10   14.60   17.90
  -5   3 -10   11.30   16.60
  -5   3 -10   16.80    9.70
  -5   3 -10   24.40   15.10
  -5   3 -10   13.80   12.30
  -6  -3 -10   59.69   24.20
  -6  -3 -10   49.70   12.50
  -6   3 -10   71.69   21.40
  -7  -3 -10   14.80   25.70
  -7   3 -10   40.60   22.40
  -7   3 -10    8.80   16.50
   9  -4 -10  108.59   17.40
   9   4 -10  103.59   16.70
  -9   4  10   61.59   21.60
   8  -4 -10   49.30   14.40
   8   4 -10   48.00   12.80
  -8   4  10   25.90   16.70
   7  -4 -10  150.98   21.70
   7  -4 -10  119.49   19.60
   7   4 -10  167.58   19.00
  -7   4  10  158.28   20.50
   6  -4 -10   31.10   11.10
   6  -4 -10   11.40   14.90
  -6   4  10   37.20   14.40
   6   4 -10   27.00    9.80
   5  -4 -10   41.50   12.20
  -5   4  10   12.50   11.80
   5   4 -10   28.90    9.10
   4  -4 -10   64.89   11.80
   4  -4 -10   60.69   12.80
   4   4 -10  101.39   14.00
  -4   4  10   77.99   13.60
   3  -4 -10   54.89   11.60
   3  -4 -10   71.39   13.40
   3   4 -10   50.19    8.90
  -3   4  10   78.09   13.20
   2  -4 -10   28.50    9.90
   2  -4 -10   26.90   10.20
   2  -4 -10    2.80   11.00
  -2   4  10   29.50   10.10
   2   4 -10   34.30    9.10
   1  -4 -10  243.38   20.30
   1  -4 -10  221.38   22.30
   1  -4 -10  243.28   20.90
  -1   4  10  234.88   18.20
   1   4 -10  237.68   16.40
   0  -4 -10   42.40   13.40
   0  -4 -10   25.30   12.10
   0  -4 -10   34.50   10.80
   0   4 -10   11.50   10.70
   0   4 -10   26.30    7.90
   0   4  10   30.00   10.00
  -1  -4 -10  317.27   23.50
  -1  -4 -10  332.37   26.80
  -1  -4 -10  286.17   26.30
  -1   4 -10  305.57   24.90
   1   4  10  289.97   19.30
  -1   4 -10  333.67   18.80
  -2  -4 -10    5.90   13.40
  -2  -4 -10   60.79   16.10
  -2   4 -10    6.50    7.80
  -2   4 -10   15.50    4.30
  -2   4 -10   49.60   13.30
   2   4  10   15.90    9.30
  -2   4 -10   19.00   12.10
  -2   4 -10   19.40    5.90
  -3  -4 -10    2.40   19.40
  -3  -4 -10  -13.80   14.20
  -3  -4 -10   24.70   13.30
  -3   4 -10    8.40    5.70
   3   4  10    9.30    8.60
  -3   4 -10    3.30    7.90
  -3   4 -10   -4.70   12.50
  -3   4 -10    1.00   12.60
  -3   4 -10    0.60    8.50
  -4  -4 -10   -9.50   10.50
  -4  -4 -10   14.20   15.70
  -4   4 -10   18.00    9.60
  -4   4 -10   11.80    9.80
  -4   4 -10   11.50   14.30
   4   4  10    3.60    8.70
  -4   4 -10   18.90    8.20
  -5  -4 -10  136.79   22.30
  -5  -4 -10  152.58   24.70
  -5   4 -10  144.29   21.60
  -5   4 -10  152.68   23.30
  -5   4 -10  180.68   24.90
  -6  -4 -10   72.99   24.20
  -6  -4 -10   66.59   16.50
  -6   4 -10   62.49   21.90
  -7  -4 -10    9.40   26.30
  -7   4 -10    9.00   21.50
   8  -5 -10   25.00   16.30
  -8   5  10   47.50   20.70
   7  -5 -10   48.20   16.90
   7   5 -10    9.20   12.30
  -7   5  10   -3.30   18.90
   6  -5 -10   67.49   16.40
   6  -5 -10   36.40   11.60
  -6   5  10   49.80   18.30
   6   5 -10   13.50   10.70
   5  -5 -10   11.50    9.50
   5  -5 -10   -2.60   13.50
  -5   5  10   21.80   14.30
   5   5 -10    4.70    9.80
   4  -5 -10   -1.50    9.20
   4  -5 -10   25.40   14.70
  -4   5  10   13.20   13.20
   4   5 -10   -1.70    8.30
   3  -5 -10   30.80   13.90
   3  -5 -10    1.50   10.10
   3   5 -10   20.00    8.60
  -3   5  10    4.10   11.90
   2  -5 -10   55.09   11.30
   2  -5 -10   17.00   15.30
   2   5 -10   60.69   10.20
  -2   5  10   62.29   13.40
   1  -5 -10   22.00   11.10
   1  -5 -10   15.50   14.70
   1   5 -10   10.90    8.20
  -1   5  10  -12.10   10.90
   0  -5 -10   17.40   11.40
   0  -5 -10   24.00   15.20
   0  -5 -10   35.10   12.00
   0   5 -10   28.00    9.00
   0   5 -10    9.50   12.10
   0   5  10   14.50   11.10
  -1  -5 -10  -11.70   14.20
  -1  -5 -10   31.00   12.40
  -1  -5 -10   50.69   13.20
  -1   5 -10   21.90   14.30
   1   5  10   56.69   13.00
  -1   5 -10   28.80    9.70
  -2  -5 -10  138.69   18.00
  -2   5 -10  119.29   18.90
  -2   5 -10  102.59   10.70
  -2   5 -10  107.09   13.40
   2   5  10   83.79   13.90
  -3  -5 -10    9.00   17.00
  -3  -5 -10   16.60   13.50
   3   5  10  -10.10   10.40
  -3   5 -10    8.00   15.70
  -3   5 -10   -7.60    9.20
  -4  -5 -10   -3.90   14.50
  -4  -5 -10   -3.10   19.40
  -4   5 -10   16.30   17.60
   4   5  10   -7.90   10.20
  -4   5 -10   10.60   10.10
  -4   5 -10    7.90   11.50
  -5  -5 -10   35.80   24.30
  -5  -5 -10   49.40   18.00
  -5   5 -10   39.40   14.90
  -5   5 -10   11.70   20.00
  -5   5 -10   19.20   12.30
   5   5  10    0.10   11.70
  -6  -5 -10   -7.80   25.80
  -6   5 -10   23.20   23.50
   7  -6 -10   58.59   21.40
   7   6 -10   34.40   13.60
   6  -6 -10    0.10   16.90
   6   6 -10   25.70   12.30
  -6   6  10  -30.80   18.90
   5  -6 -10   71.89   19.10
  -5   6  10   60.09   19.50
   5   6 -10   64.89   12.90
   4  -6 -10    8.70   15.10
   4   6 -10   19.70   11.20
  -4   6  10   20.60   16.70
   3  -6 -10   29.90   10.70
   3  -6 -10   29.70   15.80
  -3   6  10   30.80   15.00
   3   6 -10   24.10   11.50
   2  -6 -10   40.50   16.70
   2  -6 -10   -1.20   10.30
   2   6 -10   10.20   10.30
  -2   6  10   31.10   15.20
   1  -6 -10   46.60   15.10
   1   6 -10   43.40   10.70
  -1   6  10   27.50   14.50
   0  -6 -10   -0.40   12.50
   0  -6 -10  -18.90   13.80
   0   6 -10   -1.50    9.30
   0   6  10   -4.20   13.30
   0   6 -10    0.50   14.30
  -1  -6 -10  161.48   20.70
  -1   6 -10  141.69   21.80
   1   6  10  137.49   18.50
  -1   6 -10  181.38   19.00
  -2  -6 -10   29.20   18.50
   2   6  10   52.99   15.00
  -2   6 -10   36.00   17.90
  -2   6 -10   36.90   10.90
  -3  -6 -10   12.40   18.90
  -3  -6 -10    2.00   17.40
  -3   6 -10   16.30   19.00
  -3   6 -10   -6.90   10.70
   3   6  10   43.40   15.10
  -4  -6 -10   -8.40   21.80
  -4  -6 -10   21.20   19.30
  -4   6 -10  -11.80   18.60
   4   6  10   46.00   15.00
  -4   6 -10  -12.30   12.80
   5  -7 -10   31.80   31.50
  -5   7  10   42.30   23.30
   5   7 -10   19.20   15.60
   4  -7 -10   17.50   22.40
  -4   7  10   17.40   20.80
   4   7 -10   63.59   15.30
   3  -7 -10   39.40   21.00
   3   7 -10   10.60   13.10
  -3   7  10  -23.50   18.60
   2  -7 -10   39.20   20.70
  -2   7  10   24.20   19.80
   2   7 -10   39.10   13.00
   1  -7 -10   20.20   21.90
  -1   7  10   -6.10   17.00
   1   7 -10   22.60   17.20
   1   7 -10    5.10   11.10
   0  -7 -10   10.00   18.90
   0   7 -10   39.00   13.10
   0   7 -10   34.40   19.70
   0   7  10   51.19   19.20
  -1  -7 -10   -4.00   18.90
  -1   7 -10   15.50   18.10
  -1   7 -10   19.40   12.30
   1   7  10   12.10   16.50
  -2  -7 -10  112.59   25.70
  -2   7 -10  133.99   17.00
   2   7  10  193.68   28.80
  -2   7 -10   96.79   23.50
  10   0 -11   -7.40   12.00
   9   0 -11    9.90   11.00
  -9   0  11   61.39   19.90
   8   0 -11   18.60   10.20
  -8   0  11   18.50    9.90
   7   0 -11    7.80    8.90
  -7   0  11   16.40    7.90
   6   0 -11  251.77   18.70
  -6   0  11  253.27   12.80
  -5   0  11   36.00    5.20
   5   0 -11   18.10    9.10
   4   0 -11  138.99   14.90
   3   0 -11   90.99   13.70
   2   0 -11   47.80    9.50
   1   0 -11    3.60    7.40
   1   0 -11   20.20   10.60
   0   0 -11   93.29    8.80
   0   0 -11   84.79   12.10
   0   0 -11   87.09   14.50
  -1   0 -11   41.10   10.40
  -1   0 -11   40.90    7.80
  -1   0 -11   47.70   12.80
  -2   0 -11  234.38   25.10
  -2   0 -11  241.68   19.80
  -3   0 -11   10.90    9.40
  -3   0 -11  -14.80    9.40
  -3   0 -11    2.60   13.90
  -4   0 -11   16.50   12.10
  -4   0 -11   29.40   11.70
  -4   0 -11   25.90   15.40
  -5   0 -11   21.40   18.90
  -5   0 -11    9.40   14.10
  -5   0 -11   55.09   16.60
  -6   0 -11  228.48   29.60
  -6   0 -11  167.78   26.30
  -7   0 -11   94.79   27.50
  -7   0 -11   74.99   22.50
  10  -1 -11   16.10   13.40
  10   1 -11  -20.10   11.50
   9  -1 -11   47.70   13.40
  -9   1  11   31.30   14.20
   9   1 -11   22.60   11.50
   8  -1 -11  100.49   14.70
   8   1 -11   86.79   12.80
  -8   1  11   69.09   13.50
   7  -1 -11  189.88   19.70
   7   1 -11  176.18   17.80
  -7   1  11  189.88   18.00
   6  -1 -11   32.20    9.70
   6   1 -11   12.60    9.70
  -6   1  11   18.60    8.20
   5  -1 -11   75.89   11.90
   5   1 -11   64.79   11.30
  -5   1  11   66.09    8.50
   4  -1 -11   38.20   10.40
   4   1 -11   44.40    9.70
  -4   1  11   45.10    7.10
   3  -1 -11   95.79   14.50
   3   1 -11   81.99   11.40
  -3   1  11   74.29    8.50
   2  -1 -11   52.69   10.90
   2   1 -11   45.50    9.70
  -2   1  11   54.69    7.30
   1  -1 -11  357.86   15.90
   1  -1 -11  382.96   28.00
   1  -1 -11  354.36   21.30
  -1   1  11  322.67   12.60
   1   1 -11  355.76   19.80
   1   1 -11  345.37   23.40
   0  -1 -11   17.40   10.10
   0  -1 -11    5.90    8.40
   0  -1 -11   13.70    6.40
   0   1 -11   32.40   10.80
   0   1 -11   22.80    8.90
  -1  -1 -11  134.79   20.40
  -1  -1 -11   81.29   10.50
  -1  -1 -11   68.79   12.60
  -1   1 -11   95.09   14.00
  -1   1 -11   96.49    8.20
  -1   1 -11   87.89   15.30
  -2  -1 -11  -17.30    8.80
  -2  -1 -11    0.50    9.90
  -2  -1 -11    5.70   13.70
  -2   1 -11    3.60   12.40
  -2   1 -11    7.80    8.50
  -2   1 -11   -7.30    6.10
  -3  -1 -11   40.30   11.60
  -3  -1 -11   29.40   12.70
  -3  -1 -11   21.80   14.20
  -3   1 -11   30.30    9.90
  -3   1 -11   15.90   10.20
  -3   1 -11   27.30   14.90
  -4  -1 -11   41.70   16.30
  -4  -1 -11   49.60   15.00
  -4  -1 -11    9.70   13.50
  -4   1 -11   47.70   16.60
  -4   1 -11   57.59   11.80
  -4   1 -11   52.39   12.90
  -5  -1 -11   -8.50   16.10
  -5  -1 -11   -6.40   18.00
  -5   1 -11   -1.30   12.00
  -5   1 -11    1.50   17.10
  -6  -1 -11  -29.50   17.20
  -6  -1 -11   28.30   22.60
  -6   1 -11  -20.90   14.10
  -6   1 -11  -16.30   20.60
  -7  -1 -11   36.40   26.70
  -7   1 -11   31.10   24.80
  -7   1 -11   -6.10   18.50
  10  -2 -11   31.90   14.70
  10   2 -11   24.10   14.60
 -10   2  11   19.40   20.10
   9  -2 -11   69.39   15.10
  -9   2  11  108.09   18.80
   9   2 -11   97.29   15.40
   8  -2 -11    0.50   11.40
   8   2 -11    6.60    9.80
  -8   2  11   -7.60   13.00
   7  -2 -11    0.20    9.80
   7   2 -11    2.30    9.00
  -7   2  11   11.50   11.20
   6  -2 -11  157.08   18.60
  -6   2  11  154.98   18.90
   6   2 -11  199.98   17.60
   5  -2 -11    6.90    8.90
   5   2 -11  -14.60    6.60
  -5   2  11    3.10    8.60
   4  -2 -11  205.68   19.20
   4   2 -11  207.28   15.90
  -4   2  11  198.18   14.80
   3  -2 -11   66.69   12.40
  -3   2  11   63.19    9.00
   3   2 -11   66.79   10.60
   2  -2 -11   30.90   11.40
   2  -2 -11   30.10   10.50
   2   2 -11   61.99    9.90
  -2   2  11   44.20    7.70
   1  -2 -11   50.39   11.40
   1  -2 -11   37.10   14.30
   1  -2 -11   64.89   10.00
  -1   2  11   69.09    9.90
   1   2 -11   59.49   10.90
   0  -2 -11   23.70   11.30
   0  -2 -11   37.60   12.40
   0  -2 -11   38.00    9.40
   0   2  11   12.50    6.20
   0   2 -11   21.10    7.80
   0   2 -11   15.50   12.80
  -1  -2 -11   15.40   13.40
  -1  -2 -11   23.40   11.00
   1   2  11   25.70    6.30
  -1   2 -11    4.90   10.50
  -1   2 -11   13.50    8.30
  -2  -2 -11  206.18   24.50
  -2  -2 -11  202.58   21.50
  -2  -2 -11  198.48   22.00
  -2   2 -11  193.08   10.90
  -2   2 -11  184.88   17.70
  -2   2 -11  251.67   24.70
  -3  -2 -11   17.30   13.30
  -3  -2 -11    1.90   12.80
  -3  -2 -11  -12.10   12.10
  -3   2 -11    8.80   13.50
  -3   2 -11    7.70    9.60
  -3   2 -11   20.40    7.90
  -4  -2 -11   59.59   17.60
  -4  -2 -11   68.79   16.10
  -4  -2 -11   37.20   17.20
  -4   2 -11   39.60   17.20
  -4   2 -11   18.60   11.60
  -4   2 -11   37.60   12.90
  -4   2 -11    9.70   10.40
  -5  -2 -11   32.60   19.70
  -5  -2 -11   42.10   18.00
  -5   2 -11   14.20   18.60
  -5   2 -11   39.50   13.50
  -6  -2 -11  131.99   20.20
  -6  -2 -11   96.69   26.70
  -6   2 -11   78.59   17.10
  -6   2 -11   98.99   24.70
  -7  -2 -11  -34.30   26.40
  -7   2 -11   65.29   27.80
  -7   2 -11   37.30   20.40
   9  -3 -11  -14.90   12.70
  -9   3  11   -8.30   17.90
   9   3 -11   20.80   12.50
   8  -3 -11   53.89   15.00
   8   3 -11   80.89   14.80
  -8   3  11   33.00   16.10
   7  -3 -11   46.10   13.80
   7   3 -11   57.39   12.40
  -7   3  11   56.59   15.60
   6  -3 -11   -0.60   10.60
  -6   3  11   -3.70   12.50
   6   3 -11   12.30    9.90
   5  -3 -11  130.59   19.10
   5   3 -11  125.59   16.80
  -5   3  11  159.48   19.20
   4  -3 -11   17.00   10.80
   4   3 -11   24.60    8.90
  -4   3  11    4.60    8.80
   3  -3 -11  137.19   18.10
   3  -3 -11  149.49   18.90
  -3   3  11  140.69   15.90
   3   3 -11  115.89   14.50
   2  -3 -11   19.20   11.40
   2  -3 -11   24.00   11.10
  -2   3  11   32.00    9.10
   2   3 -11   27.30    9.70
   1  -3 -11  169.98   19.60
   1  -3 -11  186.58   18.60
   1  -3 -11  211.08   20.60
   1   3 -11  164.58   16.50
  -1   3  11  186.68   16.00
   0  -3 -11   34.10   17.50
   0  -3 -11   25.70   11.30
   0  -3 -11   18.10   10.40
   0   3 -11    0.10    7.60
   0   3 -11   -2.80   11.20
   0   3  11   17.10    7.70
  -1  -3 -11   40.40   13.20
  -1  -3 -11   28.70   13.40
  -1  -3 -11   23.00   12.90
  -1   3 -11   53.79   15.20
   1   3  11   43.80    9.40
  -1   3 -11   30.80    9.40
  -2  -3 -11   35.70   14.80
  -2  -3 -11   15.30   13.50
  -2  -3 -11   57.19   15.10
  -2   3 -11   15.60    9.50
  -2   3 -11   22.80   13.50
   2   3  11   18.30    7.90
  -2   3 -11   -1.60   22.90
  -3  -3 -11   43.50   18.10
  -3  -3 -11   31.50   16.50
  -3  -3 -11   31.90   17.00
  -3   3 -11   35.40    8.50
  -3   3 -11   37.40   18.20
  -3   3 -11   33.50   14.00
  -3   3 -11   33.10   11.10
   3   3  11   40.00    9.90
  -4  -3 -11   38.20   17.90
  -4  -3 -11   49.50   17.20
  -4   3 -11   61.99   15.90
  -4   3 -11   67.49   19.60
  -4   3 -11   31.90   11.90
  -5  -3 -11   21.20   12.70
  -5  -3 -11   11.50   19.40
  -5   3 -11    6.00   12.90
  -5   3 -11   15.10   18.90
  -6  -3 -11   13.50   25.90
  -6   3 -11   39.00   23.60
  -6   3 -11   17.80   15.80
   8  -4 -11   42.20   16.00
   8   4 -11   35.10   12.90
  -8   4  11   42.40   19.10
   7  -4 -11    5.20   13.60
   7   4 -11   -8.40   10.10
  -7   4  11   27.70   16.80
   6  -4 -11  182.98   35.70
   6  -4 -11  172.18   24.30
   6   4 -11  145.09   18.80
  -6   4  11  115.99   18.40
   5  -4 -11   37.60   12.40
   5  -4 -11   52.09   14.40
  -5   4  11   19.10   19.90
   5   4 -11   22.60   10.40
   4  -4 -11  211.28   21.30
   4  -4 -11  207.48   24.20
   4   4 -11  216.08   19.60
  -4   4  11  194.98   22.70
   3  -4 -11   10.20   10.90
   3  -4 -11   17.70   11.40
  -3   4  11    3.00   10.80
   3   4 -11    7.50    8.70
   2  -4 -11   47.40   13.80
   2  -4 -11   41.20   12.70
   2   4 -11   44.30   10.90
  -2   4  11   40.30   12.10
   1  -4 -11   23.20   12.60
   1  -4 -11   19.60   13.10
   1  -4 -11   24.00   13.30
  -1   4  11   18.00   10.40
   1   4 -11   23.90    8.60
   0  -4 -11   98.99   18.80
   0  -4 -11   87.09   16.90
   0   4 -11   75.29   12.70
   0   4  11   68.39   14.30
   0   4 -11   57.79   14.80
  -1  -4 -11    6.10   16.40
  -1  -4 -11   25.80   14.00
  -1  -4 -11   22.10   15.90
   1   4  11   18.70   10.10
  -1   4 -11   15.90    9.40
  -1   4 -11   11.00   14.00
  -2  -4 -11   52.49   17.10
  -2  -4 -11   57.49   16.50
   2   4  11   44.40   11.30
  -2   4 -11   38.90   16.20
  -2   4 -11   30.80   10.50
  -3  -4 -11   27.80   13.30
  -3  -4 -11   26.80   19.40
  -3  -4 -11   38.90   16.70
  -3   4 -11   16.30   11.20
  -3   4 -11   44.20   16.90
   3   4  11   17.50   10.10
  -3   4 -11   25.10   10.90
  -4  -4 -11   35.60   20.30
  -4  -4 -11   17.70   13.70
  -4   4 -11   35.70   12.20
   4   4  11   12.60   11.50
  -4   4 -11   60.39   21.70
  -5  -4 -11   25.70   16.30
  -5  -4 -11   -2.80   25.30
  -5   4 -11   15.90   13.50
  -5   4 -11  -22.40   19.30
   7  -5 -11   73.89   19.80
   7   5 -11   47.30   14.00
  -7   5  11   -0.60   21.10
   6  -5 -11   41.90   13.60
   6  -5 -11   27.00   17.90
   6   5 -11   46.90   12.80
  -6   5  11   45.90   18.70
   5  -5 -11   74.39   14.70
   5  -5 -11  144.99   21.60
  -5   5  11  105.69   19.60
   4  -5 -11    1.50   15.80
   4  -5 -11    7.50   11.70
  -4   5  11   -5.90   15.40
   4   5 -11   -2.10   10.00
   3  -5 -11   90.49   20.20
   3  -5 -11   59.59   14.10
  -3   5  11   35.60   15.30
   3   5 -11   77.89   13.30
   2  -5 -11   26.60   12.40
   2  -5 -11   14.00   17.50
  -2   5  11   43.40   14.70
   2   5 -11    7.60   10.30
   1  -5 -11   71.59   15.70
   1  -5 -11   53.49   19.40
  -1   5  11   66.49   14.70
   1   5 -11   65.89   12.00
   0  -5 -11   41.30   14.20
   0  -5 -11   66.19   19.10
   0  -5 -11   60.39   15.50
   0   5  11   51.29   14.20
   0   5 -11   33.00   11.50
   0   5 -11   58.49   17.30
  -1  -5 -11   56.69   15.30
  -1  -5 -11   31.20   17.30
  -1  -5 -11    4.50   18.20
   1   5  11   36.30   12.50
  -1   5 -11   23.70   16.20
  -1   5 -11   43.20   11.30
  -2  -5 -11   20.30   15.40
  -2  -5 -11   45.80   18.60
   2   5  11   -0.20   12.70
  -2   5 -11   -7.90   11.00
  -2   5 -11   -8.70   15.50
  -3  -5 -11   31.20   22.10
  -3  -5 -11   21.90   15.80
  -3   5 -11   15.90   19.60
  -3   5 -11   24.10   12.10
   3   5  11   48.10   13.30
  -4  -5 -11  -13.70   17.40
  -4  -5 -11  -27.40   23.90
   4   5  11   12.10   13.50
  -4   5 -11   15.20   19.40
  -4   5 -11   40.90   13.40
   6  -6 -11   46.60   22.70
  -6   6  11   95.69   23.70
   5  -6 -11   -1.20   20.80
  -5   6  11   48.20   20.40
   5   6 -11   25.20   13.10
   4  -6 -11   62.09   22.30
   4  -6 -11   95.49   18.60
   4   6 -11   69.49   15.70
  -4   6  11   58.69   20.80
   3  -6 -11   52.09   18.60
   3  -6 -11   -2.50   19.40
   3   6 -11   21.70   11.40
  -3   6  11   -3.90   16.50
   2  -6 -11   21.90   16.90
   2  -6 -11    9.20   16.30
  -2   6  11   46.60   18.30
   2   6 -11   35.00   11.90
   1  -6 -11   24.50   15.60
   1  -6 -11   27.40   13.90
   1   6 -11   17.60   11.60
   1   6 -11   23.40   16.00
  -1   6  11   -8.80   15.00
   0  -6 -11   76.59   19.80
   0  -6 -11   60.99   17.20
   0   6  11   71.59   17.80
   0   6 -11   63.89   14.00
   0   6 -11   84.19   20.80
  -1  -6 -11   29.70   20.10
  -1  -6 -11   44.60   20.10
  -1   6 -11    8.80   19.70
  -1   6 -11   20.20   12.50
   1   6  11   36.60   15.70
  -2  -6 -11   -3.90   19.40
  -2  -6 -11   -6.90   21.10
  -2   6 -11   16.80   13.60
   2   6  11   -2.60   15.40
  -2   6 -11   41.20   20.90
  -3  -6 -11  -27.90   21.10
  -3  -6 -11  -22.20   24.20
   3   6  11    9.30   16.60
  -3   6 -11   -4.70   21.60
  -3   6 -11    9.40   14.00
   9   0 -12   51.19   15.00
   8   0 -12   -9.90   10.70
   7   0 -12   -7.00   10.20
   6   0 -12  137.59   18.60
   5   0 -12   48.90   11.50
   4   0 -12   -2.90    9.50
   3   0 -12  138.89   17.80
   2   0 -12  108.39   17.10
   2   0 -12   98.49   14.00
   1   0 -12   98.09   15.80
   1   0 -12   68.09   12.60
   0   0 -12   40.00   15.50
   0   0 -12   34.90   11.50
  -1   0 -12   19.90   11.10
  -1   0 -12   34.50    8.60
  -1   0 -12   52.39   15.90
  -2   0 -12   60.29   17.70
  -2   0 -12   13.70   12.50
  -3   0 -12   48.00   12.80
  -3   0 -12   66.39   15.10
  -3   0 -12   43.10   18.80
  -4   0 -12   86.19   22.20
  -4   0 -12   33.50   15.20
  -5   0 -12    6.50   22.60
  -5   0 -12   14.40   18.20
  -6   0 -12   56.09   25.10
  -6   0 -12   39.10   20.90
   9  -1 -12    9.60   15.20
   9   1 -12   28.40   14.60
   8  -1 -12   30.80   13.90
   8   1 -12   12.70   11.40
   7  -1 -12  113.29   16.20
   7   1 -12   88.99   14.10
   6  -1 -12   95.59   16.60
  -6   1  12   85.99   10.30
   6   1 -12   72.79   14.20
   5  -1 -12   14.10   11.60
  -5   1  12   11.10    6.20
   5   1 -12    6.50    9.90
   4  -1 -12   59.89   12.70
   4   1 -12   51.79   10.90
   3  -1 -12  113.89   15.50
   3   1 -12  105.99   15.60
  -3   1  12   90.89    8.10
   2  -1 -12  195.98   23.50
   2  -1 -12  221.58   21.00
  -2   1  12  193.98    9.40
   2   1 -12  238.28   19.00
   1  -1 -12   64.89   13.70
   1  -1 -12   49.20   14.70
   1   1 -12   55.39   12.20
   1   1 -12   84.79   17.20
   0  -1 -12    8.70   10.00
   0  -1 -12   32.20   14.20
   0  -1 -12   33.40    7.80
   0   1 -12   22.30   13.50
   0   1 -12   15.10    9.70
  -1  -1 -12   11.00   14.70
  -1  -1 -12    0.50   12.20
  -1  -1 -12    9.40   10.20
  -1   1 -12   13.10   13.60
  -1   1 -12   22.50    9.50
  -2  -1 -12   14.10   12.40
  -2  -1 -12   18.90   16.00
  -2  -1 -12  -13.40   11.30
  -2   1 -12   -7.10   10.20
  -2   1 -12   -2.50   15.70
  -2   1 -12    5.00    7.70
  -3  -1 -12   -9.90   12.80
  -3  -1 -12   37.70   16.80
  -3  -1 -12   -4.20   14.10
  -3   1 -12   -0.50   11.80
  -3   1 -12   23.20   16.40
  -4  -1 -12   25.30   16.60
  -4  -1 -12   39.40   20.80
  -4   1 -12   54.89   21.70
  -4   1 -12   38.10   15.20
  -5  -1 -12   64.09   21.00
  -5  -1 -12   61.29   24.40
  -5   1 -12   21.80   16.80
  -5   1 -12   94.09   26.10
  -6  -1 -12   59.49   26.50
  -6  -1 -12  -50.49   21.80
  -6   1 -12   10.00   28.70
  -6   1 -12   -5.60   18.60
   9  -2 -12   76.69   17.20
   9   2 -12   94.09   16.60
   8  -2 -12   36.80   14.70
   8   2 -12   50.49   14.20
  -8   2  12   56.49   19.50
   7  -2 -12   35.40   13.00
  -7   2  12   13.00   12.10
   7   2 -12   15.80   11.60
   6  -2 -12  179.08   22.10
   6   2 -12  172.68   20.80
  -6   2  12  171.38   19.00
   5  -2 -12   93.09   15.90
   5   2 -12   77.29   13.80
  -5   2  12   57.49   10.40
   4  -2 -12    6.70   11.00
  -4   2  12   10.30    8.00
   4   2 -12    3.90    9.60
   3  -2 -12   60.79   14.40
   3  -2 -12   86.19   15.50
  -3   2  12   92.79   12.40
   3   2 -12  107.09   15.00
   2  -2 -12   89.69   15.60
   2  -2 -12   87.79   15.40
  -2   2  12   82.59   11.20
   2   2 -12   79.69   12.60
   1  -2 -12  154.78   16.10
   1  -2 -12  136.59   21.70
   1  -2 -12  130.59   20.50
   1   2 -12  145.29   23.40
  -1   2  12  125.79   11.60
   1   2 -12  137.39   17.10
   0  -2 -12   36.80   14.90
   0  -2 -12   -8.90    9.60
   0  -2 -12   -4.20   12.50
   0   2 -12   24.50   13.80
   0   2 -12    8.40    9.90
   0   2  12   12.00    5.90
  -1  -2 -12   44.10   14.30
  -1  -2 -12   66.79   17.60
  -1  -2 -12   65.59   16.90
  -1   2 -12   50.29   16.30
  -1   2 -12   73.19   12.80
  -2  -2 -12   32.40   16.30
  -2  -2 -12   -1.00   13.20
  -2  -2 -12   19.30   15.10
  -2   2 -12   -5.90   16.00
  -2   2 -12    6.40   10.50
  -3  -2 -12   39.90   19.00
  -3  -2 -12   80.39   20.70
  -3  -2 -12   34.30   17.20
  -3   2 -12   82.99   20.60
  -3   2 -12   69.09   13.50
  -4  -2 -12   53.59   22.60
  -4  -2 -12   30.50   19.00
  -4   2 -12   70.69   15.10
  -4   2 -12   39.40   21.30
  -5  -2 -12   21.50   20.90
  -5  -2 -12   72.39   22.70
  -5   2 -12   51.29   17.10
  -5   2 -12   22.20   22.00
   8  -3 -12    1.30   15.30
  -8   3  12   15.70   17.60
   8   3 -12   -4.80   12.80
   7  -3 -12   25.40   15.60
   7   3 -12   62.99   18.80
   6  -3 -12  127.39   18.50
  -6   3  12  151.88   23.30
   6   3 -12  169.18   21.80
   5  -3 -12   49.00   14.30
  -5   3  12   56.39   12.90
   5   3 -12   77.09   13.90
   4  -3 -12   23.30   13.80
   4  -3 -12   34.20   13.30
  -4   3  12   39.90   11.00
   3  -3 -12   56.99   14.20
   3  -3 -12   50.29   15.00
   3   3 -12   45.80   11.10
  -3   3  12   48.00   10.70
   2  -3 -12   46.70   14.70
   2  -3 -12   30.50   14.40
   2   3 -12   82.29   13.30
  -2   3  12   56.19   10.70
   1  -3 -12   40.00   12.60
   1  -3 -12   67.59   15.60
   1  -3 -12   85.49   17.20
   1   3 -12   49.20   11.60
   1   3 -12   50.49   16.20
  -1   3  12   72.49   10.60
   0  -3 -12   21.80   13.10
   0  -3 -12    7.60   12.80
   0  -3 -12   31.10   14.30
   0   3  12   10.50    8.60
   0   3 -12   38.30   17.30
   0   3 -12   12.30   10.60
  -1  -3 -12   -6.50   14.00
  -1  -3 -12    8.10   14.10
  -1  -3 -12   16.60   16.60
  -1   3 -12    4.30   10.20
  -1   3 -12  -10.30   17.00
  -2  -3 -12  127.49   22.70
  -2  -3 -12  113.29   21.60
  -2  -3 -12  111.99   21.70
  -2   3 -12  107.39   20.90
   2   3  12   91.89   13.70
  -2   3 -12  140.99   20.40
  -3  -3 -12   -5.70   17.80
  -3  -3 -12   -1.30   17.70
  -3   3 -12   14.20   12.90
  -3   3 -12   -6.40   19.60
  -4  -3 -12   16.10   19.70
  -4  -3 -12   42.50   19.40
  -4   3 -12   -1.00   20.60
  -4   3 -12    7.20   13.10
  -5  -3 -12   18.50   25.50
  -5  -3 -12   47.90   16.20
  -5   3 -12   -8.00   21.40
   7  -4 -12   32.20   16.30
   7   4 -12    7.10   14.10
  -7   4  12   27.20   19.10
   6  -4 -12   54.49   17.80
  -6   4  12   98.29   18.60
   6   4 -12   85.19   15.90
   5  -4 -12   25.00   14.40
   5  -4 -12    0.90   15.40
   5   4 -12   38.70   12.80
  -5   4  12   11.80   14.80
   4  -4 -12   55.49   16.20
   4  -4 -12   45.00   16.40
  -4   4  12   34.00   13.70
   4   4 -12   53.09   12.30
   3  -4 -12   20.60   14.10
   3  -4 -12   16.50   13.80
  -3   4  12  -13.70   25.00
   3   4 -12   -5.90   10.90
   2  -4 -12   14.10   15.50
   2  -4 -12   -1.50   13.90
   2   4 -12   -0.90   11.20
   1  -4 -12   32.40   15.90
   1  -4 -12   45.90   17.80
   1  -4 -12   27.00   16.50
   1   4 -12   41.60   17.70
   1   4 -12   43.60   12.00
  -1   4  12   34.00   12.80
   0  -4 -12    5.60   15.60
   0  -4 -12   24.70   17.60
   0   4  12   -3.40   10.60
   0   4 -12    5.60   11.10
   0   4 -12   29.00   16.70
  -1  -4 -12   38.80   19.10
  -1  -4 -12   12.70   17.70
  -1   4 -12   42.90   12.80
  -1   4 -12   19.90   17.20
   1   4  12   11.60   11.70
  -2  -4 -12   26.80   21.10
  -2  -4 -12   17.10   19.40
   2   4  12    3.20   10.40
  -2   4 -12    2.20   18.30
  -2   4 -12   24.80   12.90
  -3  -4 -12   40.00   20.60
  -3  -4 -12   31.70   21.10
  -3  -4 -12   43.40   16.30
  -3   4 -12   42.40   14.30
  -3   4 -12   19.80   20.40
   3   4  12   22.00   11.60
  -4  -4 -12  -38.80   24.00
  -4  -4 -12   53.09   18.30
  -4   4 -12   27.40   15.20
  -4   4 -12   62.99   24.20
   6  -5 -12  153.38   25.30
  -6   5  12  141.29   24.60
   5  -5 -12   43.40   21.30
  -5   5  12   43.10   18.80
   5   5 -12   26.30   14.90
   4  -5 -12   55.79   20.10
   4   5 -12   39.70   14.80
  -4   5  12   58.89   17.60
   3  -5 -12   58.29   20.80
   3   5 -12   26.50   12.80
  -3   5  12   17.40   15.60
   2  -5 -12   41.00   23.00
   2  -5 -12   43.60   17.00
   2   5 -12   72.49   14.40
  -2   5  12   80.39   17.60
   1  -5 -12  -13.50   20.20
   1  -5 -12  -27.20   15.10
   1   5 -12  -24.00   16.30
  -1   5  12    1.10   13.90
   1   5 -12  -11.60   11.80
   0  -5 -12   38.50   19.50
   0  -5 -12   63.29   19.40
   0  -5 -12   65.49   21.90
   0   5 -12   51.09   14.20
   0   5  12   57.09   15.70
   0   5 -12   66.19   21.50
  -1  -5 -12  -24.90   22.00
  -1  -5 -12   -9.50   17.90
  -1  -5 -12   58.59   19.10
  -1   5 -12    9.30   13.50
  -1   5 -12   27.20   19.30
   1   5  12   14.40   14.00
  -2  -5 -12  146.19   22.60
  -2  -5 -12  129.99   24.60
  -2   5 -12   90.79   24.90
  -2   5 -12  125.49   17.70
   2   5  12  100.99   17.20
  -3  -5 -12   36.20   23.50
  -3  -5 -12  -29.00   18.80
  -3   5 -12   20.70   15.30
   3   5  12   22.60   14.20
   3  -6 -12   44.40   24.30
   3  -6 -12   39.10   29.30
   3   6 -12   18.60   15.60
  -3   6  12   54.99   21.10
   2  -6 -12    2.00   23.70
   2  -6 -12   18.00   21.80
   2   6 -12   37.10   15.60
  -2   6  12   22.50   19.10
   1  -6 -12   49.40   20.30
  -1   6  12   28.20   18.60
   1   6 -12   27.60   21.90
   0  -6 -12   16.30   21.10
   0   6  12  -25.40   17.30
   0   6 -12    9.30   14.50
   0   6 -12   11.10   22.40
   8   0 -13  -13.50   15.40
   7   0 -13   24.40   14.10
   6   0 -13   16.70   13.80
   5   0 -13  107.69   17.10
   4   0 -13   56.99   14.60
   3   0 -13  -11.00   11.50
   2   0 -13   -3.80   11.10
   2   0 -13  -29.70   14.50
   1   0 -13   75.49   14.10
   1   0 -13   78.99   18.50
   0   0 -13  133.69   21.80
   0   0 -13  199.08   24.70
  -1   0 -13   12.60   12.00
  -1   0 -13   16.90   17.30
  -2   0 -13  276.77   35.50
  -2   0 -13  186.08   25.70
  -3   0 -13   29.00   15.90
  -3   0 -13   15.10   22.50
  -4   0 -13   66.89   20.60
  -4   0 -13   27.90   22.90
   8  -1 -13   21.30   17.70
   8   1 -13    7.80   14.10
   7  -1 -13   -2.80   14.70
   7   1 -13    0.50   13.70
   6  -1 -13    0.00   13.20
   6   1 -13   -2.60   12.70
   5  -1 -13   50.09   15.00
   5   1 -13   60.49   15.30
   4  -1 -13  -19.60   11.80
   4   1 -13    5.80   11.60
   3  -1 -13   -0.80   13.30
   3  -1 -13   17.90   15.60
   3   1 -13   11.20   11.60
   2  -1 -13   17.90   13.80
   2  -1 -13   56.39   16.00
   2   1 -13   18.80   17.90
   2   1 -13   46.70   12.90
   1  -1 -13   14.70   13.90
   1  -1 -13   36.90   16.80
   1   1 -13   46.40   16.80
   1   1 -13   31.50   13.60
   0  -1 -13   24.00   13.90
   0  -1 -13   43.80   17.40
   0   1 -13   11.20   13.00
   0   1 -13    1.00   15.70
  -1  -1 -13   67.89   17.10
  -1  -1 -13   46.20   20.00
  -1   1 -13   58.49   19.10
  -1   1 -13   42.60   14.30
  -2  -1 -13   43.20   20.90
  -2  -1 -13   13.30   14.90
  -2   1 -13   34.10   14.10
  -2   1 -13    6.30   20.50
  -3  -1 -13  128.79   21.80
  -3   1 -13  157.48   27.30
  -3   1 -13  141.39   20.90
  -4  -1 -13   19.70   19.10
  -4  -1 -13  -10.60   24.40
  -4   1 -13   14.70   18.10
  -4   1 -13   31.20   25.80
   7  -2 -13   33.00   17.90
   7   2 -13   10.00   14.80
   6  -2 -13   -8.00   14.10
   6   2 -13   -2.60   12.40
   5  -2 -13   38.80   15.00
   5   2 -13   62.19   14.60
   4  -2 -13   41.30   16.30
   4  -2 -13    5.10   13.80
  -4   2  13   30.40    9.60
   4   2 -13   24.00   13.40
   3  -2 -13    3.30   13.60
   3  -2 -13   41.50   15.00
  -3   2  13   27.10    7.70
   3   2 -13    9.40   11.40
   2  -2 -13    8.00   13.40
   2  -2 -13  -13.70   14.00
   2   2 -13    1.90   11.80
  -2   2  13  -10.40    6.20
   1  -2 -13   76.99   18.70
   1  -2 -13   38.90   15.50
   1   2 -13   68.09   15.70
   1   2 -13   72.49   19.30
  -1   2  13   79.19   10.70
   0  -2 -13  174.88   24.90
   0  -2 -13  182.08   25.80
   0   2 -13  199.48   23.00
   0   2 -13  173.58   24.10
  -1  -2 -13   20.20   17.50
  -1  -2 -13   11.60   16.90
  -1   2 -13    3.50   13.40
  -1   2 -13   46.00   19.20
  -2  -2 -13  144.49   25.20
  -2  -2 -13  133.49   21.80
  -2   2 -13  134.69   18.40
  -2   2 -13  123.29   24.20
  -3  -2 -13   12.50   22.60
  -3  -2 -13   18.70   18.50
  -3   2 -13   17.40   16.10
  -3   2 -13   19.80   21.90
  -4  -2 -13   56.29   24.10
  -4  -2 -13   46.20   24.70
  -4   2 -13   20.00   17.70
  -4   2 -13   16.80   24.50
   7  -3 -13    3.20   16.90
   7   3 -13   23.50   17.00
   6  -3 -13   22.60   17.50
   6   3 -13   43.70   15.20
   5  -3 -13   33.30   17.90
   5  -3 -13   28.70   17.20
   5   3 -13   28.30   13.90
  -5   3  13   40.80   13.80
   4  -3 -13  -23.40   14.80
   4  -3 -13   15.80   16.10
  -4   3  13   10.20   11.20
   4   3 -13   22.20   12.70
   3  -3 -13    7.40   16.10
   3  -3 -13   39.90   15.60
   3   3 -13    6.50   12.40
  -3   3  13   28.60   10.70
   2  -3 -13    5.10   16.10
   2  -3 -13   18.60   16.20
  -2   3  13   30.10   10.10
   2   3 -13   -0.50   12.90
   1  -3 -13   68.19   17.60
   1  -3 -13   28.80   19.30
   1   3 -13   51.69   18.70
  -1   3  13   62.29   11.30
   1   3 -13   59.99   13.70
   0  -3 -13   42.20   18.90
   0  -3 -13   47.40   17.70
   0   3 -13   17.50   13.10
   0   3 -13   11.30   20.10
   0   3  13   -0.60    8.80
  -1  -3 -13   69.99   19.50
  -1  -3 -13   58.99   20.20
  -1   3 -13   63.39   15.70
  -1   3 -13   85.99   22.50
   1   3  13   48.20   18.20
  -2  -3 -13   26.80   21.00
  -2  -3 -13  -26.30   20.20
  -2   3 -13   10.10   23.40
  -2   3 -13   26.50   14.90
  -3  -3 -13   20.90   24.10
  -3  -3 -13   24.70   22.00
  -3   3 -13   52.59   26.80
  -3   3 -13   24.90   16.10
   5  -4 -13   82.09   21.70
   5  -4 -13   77.39   19.70
  -5   4  13   72.59   17.80
   4  -4 -13   26.10   17.80
   4   4 -13   22.10   14.60
  -4   4  13   42.20   16.20
   3  -4 -13   -3.80   17.00
   3  -4 -13  -13.10   16.80
  -3   4  13    5.50   12.90
   3   4 -13   -4.20   13.40
   2  -4 -13   -3.30   18.10
   2  -4 -13  -10.00   17.50
  -2   4  13   52.29   13.90
   2   4 -13   41.40   13.60
   1  -4 -13   68.39   19.50
   1  -4 -13   45.80   22.20
   1   4 -13   12.40   12.80
  -1   4  13   30.10   12.10
   1   4 -13    5.80   20.20
   0  -4 -13   62.19   21.90
   0  -4 -13  150.88   26.40
   0   4  13   83.49   14.30
   0   4 -13   68.59   23.50
   0   4 -13   72.39   16.50
  -1  -4 -13   49.00   23.50
  -1  -4 -13    4.00   23.90
  -1   4 -13   43.00   15.00
   1   4  13   44.60   12.70
  -1   4 -13   71.99   21.50
  -2  -4 -13  105.19   26.80
  -2  -4 -13   91.19   32.80
  -2   4 -13   43.60   26.20
   2   4  13   74.69   14.10
  -2   4 -13   89.89   17.70
   3  -5 -13   52.29   25.60
   2  -5 -13   -5.70   23.30
   2  -5 -13   19.90   18.90
   2   5 -13  -20.60   20.50
   2   5 -13   -3.00   14.20
  -2   5  13   35.50   17.40
   1  -5 -13   17.00   28.60
   1  -5 -13    6.00   19.60
  -1   5  13   33.00   16.60
   1   5 -13   59.49   25.30
   1   5 -13   20.40   15.50
   6   0 -14   67.89   18.00
   5   0 -14   75.19   17.80
   4   0 -14    6.80   15.60
   3   0 -14  151.18   23.70
   3   0 -14  115.39   19.00
   2   0 -14   13.50   20.00
   2   0 -14   35.30   15.40
   1   0 -14   73.49   18.20
   1   0 -14   33.50   21.30
   0   0 -14   25.10   22.80
   0   0 -14  -26.10   15.00
  -1   0 -14  -33.90   22.20
  -1   0 -14    3.40   15.20
  -2   0 -14  130.19   23.30
  -2   0 -14  101.99   27.10
   6  -1 -14   -4.90   16.00
   6   1 -14   37.50   15.60
   5  -1 -14   35.60   17.90
   5   1 -14   43.70   17.00
   4  -1 -14   73.59   17.90
   4  -1 -14   48.60   19.10
   4   1 -14   32.40   16.10
   3  -1 -14  -24.40   17.50
   3  -1 -14   -9.90   15.00
   3   1 -14   37.60   15.70
   2  -1 -14   56.89   18.60
   2  -1 -14   76.29   20.70
   2   1 -14    9.70   21.00
   2   1 -14   78.59   16.20
   1  -1 -14  -19.50   17.80
   1  -1 -14   24.80   14.60
   1   1 -14   -1.30   19.70
   1   1 -14    8.20   15.70
   0  -1 -14   61.49   22.90
   0  -1 -14   -0.40   16.20
   0   1 -14   17.20   20.90
   0   1 -14   53.39   16.10
  -1  -1 -14  252.77   32.00
  -1  -1 -14  339.17   39.50
  -1   1 -14  267.27   31.30
  -1   1 -14  259.17   39.10
  -2  -1 -14  158.88   24.20
  -2  -1 -14  179.58   30.20
  -2   1 -14  153.38   28.30
  -2   1 -14  144.19   23.20
   5  -2 -14   29.80   19.00
   5  -2 -14   16.70   19.90
   5   2 -14   51.49   17.30
   4  -2 -14    6.90   18.20
   4  -2 -14    3.60   18.90
   4   2 -14   16.80   14.90
   3  -2 -14  145.69   22.40
   3  -2 -14  143.49   25.00
   3   2 -14  113.59   19.10
   2  -2 -14   -4.80   15.00
   2  -2 -14   -4.50   19.40
   2   2 -14   28.50   20.90
   2   2 -14   18.30   15.40
   1  -2 -14   56.39   20.80
   1  -2 -14   47.30   18.40
   1   2 -14   87.69   17.50
   1   2 -14   64.59   23.20
   0  -2 -14    7.10   21.20
   0  -2 -14    4.60   18.00
   0   2 -14   39.80   22.30
   0   2 -14   46.90   16.70
  -1  -2 -14   23.40   21.90
  -1  -2 -14   38.90   22.30
  -1   2 -14   23.00   16.20
  -1   2 -14   25.70   22.10
  -2  -2 -14   86.79   30.00
  -2  -2 -14  104.79   26.40
  -2   2 -14   61.09   20.50
   4  -3 -14   52.49   19.30
   4  -3 -14   78.89   23.60
   3  -3 -14    4.90   19.00
   3  -3 -14   10.50   19.40
   3   3 -14  -22.40   15.20
   2  -3 -14   28.80   19.40
   2  -3 -14   17.40   20.70
   2   3 -14    6.40   15.60
   2   3 -14   36.00   21.90
   1  -3 -14   19.30   22.50
   1  -3 -14   55.29   22.50
   1   3 -14   31.50   23.30
   1   3 -14   -2.30   13.90
   0  -3 -14   -5.10   22.80
   0   3 -14    8.50   26.90
   0   3 -14    5.50   16.70
   0   0   0    0.00    0.00

_computing_structure_solution     'SHELXT 2014/5 (Sheldrick, 2014)'
;
_shelx_hkl_checksum              2908
loop_
_space_group_symop_operation_xyz
'x, y, z'
'-x, y+1/2, -z'
loop_
_atom_site_label
_atom_site_type_symbol
_atom_site_fract_x
_atom_site_fract_y
_atom_site_fract_z
_atom_site_U_iso_or_equiv
_atom_site_adp_type
_atom_site_occupancy
_atom_site_site_symmetry_order
_atom_site_calc_flag
Cl1 Cl 0.73786(10) 0.47716(14) 0.27255(8) 0.0249(3) Uani 1 1 d
O1 O 0.8639(3) 0.6200(4) 0.6273(3) 0.0265(7) Uani 1 1 d
N1 N 0.8823(4) 0.3337(5) 0.5516(4) 0.0245(8) Uani 1 1 d
C7 C 0.8058(4) 0.4737(6) 0.5629(3) 0.0181(7) Uani 1 1 d
C6 C 0.6547(3) 0.4884(6) 0.5082(3) 0.0155(6) Uani 1 1 d
C1 C 0.6122(4) 0.4876(6) 0.3766(3) 0.0177(7) Uani 1 1 d
C12 C 0.4231(4) 0.5723(6) 0.8836(4) 0.0184(8) Uani 1 1 d
C18 C 0.2656(5) 0.3556(6) 0.9813(4) 0.0214(9) Uani 1 1 d
C2 C 0.4709(4) 0.4977(6) 0.3227(3) 0.0206(8) Uani 1 1 d
C14 C 0.2501(5) 0.6771(6) 1.0201(4) 0.0242(9) Uani 1 1 d
C5 C 0.5502(4) 0.5017(5) 0.5884(3) 0.0172(7) Uani 1 1 d
C11 C 0.4769(4) 0.4571(6) 0.8062(3) 0.0210(8) Uani 1 1 d
C13 C 0.3108(4) 0.5318(6) 0.9614(4) 0.0194(8) Uani 1 1 d
C4 C 0.4095(4) 0.5128(6) 0.5342(4) 0.0217(9) Uani 1 1 d
C8 C 1.0088(5) 0.5650(7) 0.6776(4) 0.0266(9) Uani 1 1 d
C3 C 0.3705(4) 0.5106(6) 0.4025(4) 0.0229(9) Uani 1 1 d
C10 C 0.5928(4) 0.5054(6) 0.7321(3) 0.0210(8) Uani 1 1 d
C17 C 0.1609(5) 0.3235(8) 1.0573(5) 0.0293(10) Uani 1 1 d
C15 C 0.1464(5) 0.6445(7) 1.0957(4) 0.0293(11) Uani 1 1 d
C9 C 1.0261(5) 0.3848(8) 0.6131(6) 0.0345(11) Uani 1 1 d
C16 C 0.1023(4) 0.4676(9) 1.1152(4) 0.0329(10) Uani 1 1 d
H11 H 0.459(4) 0.688(7) 0.884(4) 0.010(10) Uiso 1 1 d
H1 H 0.446(5) 0.505(8) 0.229(5) 0.032(13) Uiso 1 1 d
H5 H 1.071(6) 0.668(8) 0.649(5) 0.034(14) Uiso 1 1 d
H10 H 0.435(5) 0.329(7) 0.793(5) 0.024(12) Uiso 1 1 d
H15 H 0.138(6) 0.197(9) 1.078(6) 0.047(16) Uiso 1 1 d
H2 H 0.279(5) 0.506(8) 0.369(5) 0.032(13) Uiso 1 1 d
H3 H 0.334(5) 0.514(9) 0.591(5) 0.044(15) Uiso 1 1 d
H9 H 0.629(5) 0.621(7) 0.752(4) 0.016(11) Uiso 1 1 d
H6 H 1.064(9) 0.301(12) 0.673(8) 0.07(2) Uiso 1 1 d
H12 H 0.278(6) 0.801(8) 1.010(5) 0.029(13) Uiso 1 1 d
H16 H 0.306(5) 0.261(7) 0.947(5) 0.027(13) Uiso 1 1 d
H4 H 1.011(5) 0.566(8) 0.764(5) 0.032(14) Uiso 1 1 d
H8 H 0.669(6) 0.416(7) 0.752(5) 0.038(16) Uiso 1 1 d
H13 H 0.109(6) 0.742(8) 1.136(5) 0.034(14) Uiso 1 1 d
H14 H 0.034(6) 0.458(9) 1.175(5) 0.047(16) Uiso 1 1 d
H7 H 1.086(7) 0.402(9) 0.545(6) 0.056(19) Uiso 1 1 d
loop_
_atom_site_aniso_label
_atom_site_aniso_U_11
_atom_site_aniso_U_22
_atom_site_aniso_U_33
_atom_site_aniso_U_23
_atom_site_aniso_U_13
_atom_site_aniso_U_12
Cl1 0.0281(5) 0.0294(5) 0.0185(4) 0.0004(4) 0.0078(3) -0.0006(5)
O1 0.0202(15) 0.0244(16) 0.0333(17) -0.0050(13) -0.0007(12) -0.0018(12)
N1 0.0163(17) 0.0216(18) 0.0347(19) -0.0066(15) 0.0006(14) 0.0027(14)
C7 0.0197(16) 0.0195(17) 0.0155(14) 0.0053(18) 0.0035(12) -0.0026(19)
C6 0.0163(16) 0.0129(16) 0.0168(14) 0.0018(15) 0.0012(12) 0.0009(16)
C1 0.0228(17) 0.0131(16) 0.0173(15) 0.0001(17) 0.0035(13) -0.0003(18)
C12 0.0163(19) 0.021(2) 0.0165(18) 0.0018(14) -0.0002(14) 0.0005(16)
C18 0.022(2) 0.023(2) 0.0183(19) -0.0001(16) -0.0016(16) 0.0022(17)
C2 0.0254(18) 0.0159(19) 0.0188(16) -0.0011(16) -0.0023(14) -0.0003(17)
C14 0.025(2) 0.027(2) 0.0187(19) -0.0041(16) -0.0019(16) 0.0040(18)
C5 0.0183(17) 0.0145(18) 0.0186(15) -0.0009(15) 0.0021(13) 0.0015(15)
C11 0.0195(18) 0.024(2) 0.0196(16) 0.0024(16) 0.0027(13) 0.0011(17)
C13 0.0182(18) 0.026(2) 0.0127(16) 0.0007(14) -0.0015(13) 0.0009(15)
C4 0.0158(17) 0.024(2) 0.0250(18) 0.0007(16) 0.0015(14) 0.0020(16)
C8 0.018(2) 0.035(2) 0.025(2) -0.0017(18) -0.0026(17) -0.0023(18)
C3 0.0158(18) 0.024(2) 0.0263(19) -0.0001(16) -0.0052(14) 0.0003(17)
C10 0.0206(18) 0.024(2) 0.0186(16) 0.0022(16) 0.0026(14) 0.0003(18)
C17 0.021(2) 0.040(3) 0.025(2) 0.006(2) -0.0008(18) -0.008(2)
C15 0.019(2) 0.045(3) 0.024(2) -0.008(2) 0.0016(17) 0.006(2)
C9 0.014(2) 0.043(3) 0.046(3) -0.005(2) 0.001(2) 0.0025(19)
C16 0.0195(19) 0.057(3) 0.0232(19) 0.005(3) 0.0063(15) -0.005(3)
loop_
_atom_type_symbol
_atom_type_description
_atom_type_scat_dispersion_real
_atom_type_scat_dispersion_imag
_atom_type_scat_source
C C 0.0033 0.0016 'International Tables Vol C Tables 4.2.6.8 and 6.1.1.4'
H H 0.0000 0.0000 'International Tables Vol C Tables 4.2.6.8 and 6.1.1.4'
N N 0.0061 0.0033 'International Tables Vol C Tables 4.2.6.8 and 6.1.1.4'
O O 0.0106 0.0060 'International Tables Vol C Tables 4.2.6.8 and 6.1.1.4'
Cl Cl 0.1484 0.1585 'International Tables Vol C Tables 4.2.6.8 and 6.1.1.4'
loop_
_geom_angle_atom_site_label_1
_geom_angle_atom_site_label_2
_geom_angle_atom_site_label_3
_geom_angle
C7 O1 C8 105.3(3)
C7 N1 C9 105.3(4)
N1 C7 O1 119.2(3)
N1 C7 C6 124.2(4)
O1 C7 C6 116.6(4)
C1 C6 C5 118.4(3)
C1 C6 C7 121.1(3)
C5 C6 C7 120.5(3)
C2 C1 C6 122.3(3)
C2 C1 Cl1 117.3(3)
C6 C1 Cl1 120.3(3)
C11 C12 C13 126.5(4)
C11 C12 H11 114(3)
C13 C12 H11 119(3)
C13 C18 C17 120.7(4)
C13 C18 H16 119(3)
C17 C18 H16 120(3)
C3 C2 C1 118.4(3)
C3 C2 H1 122(3)
C1 C2 H1 120(3)
C15 C14 C13 120.3(4)
C15 C14 H12 118(3)
C13 C14 H12 122(3)
C4 C5 C6 119.1(3)
C4 C5 C10 121.1(3)
C6 C5 C10 119.8(3)
C12 C11 C10 123.9(4)
C12 C11 H10 119(3)
C10 C11 H10 117(3)
C18 C13 C14 118.8(4)
C18 C13 C12 122.7(4)
C14 C13 C12 118.5(4)
C5 C4 C3 121.1(4)
C5 C4 H3 119(3)
C3 C4 H3 120(3)
O1 C8 C9 103.7(3)
O1 C8 H5 104(3)
C9 C8 H5 114(3)
O1 C8 H4 104(3)
C9 C8 H4 119(4)
H5 C8 H4 111(4)
C2 C3 C4 120.7(4)
C2 C3 H2 119(3)
C4 C3 H2 120(3)
C11 C10 C5 114.4(3)
C11 C10 H9 112(3)
C5 C10 H9 106(3)
C11 C10 H8 108(3)
C5 C10 H8 107(3)
H9 C10 H8 109(4)
C16 C17 C18 120.0(5)
C16 C17 H15 120(4)
C18 C17 H15 120(4)
C16 C15 C14 120.5(4)
C16 C15 H13 120(4)
C14 C15 H13 119(4)
N1 C9 C8 105.4(4)
N1 C9 H6 112(5)
C8 C9 H6 109(5)
N1 C9 H7 108(4)
C8 C9 H7 109(4)
H6 C9 H7 112(6)
C15 C16 C17 119.7(4)
C15 C16 H14 114(4)
C17 C16 H14 126(4)
loop_
_geom_bond_atom_site_label_1
_geom_bond_atom_site_label_2
_geom_bond_distance
Cl1 C1 1.747(3)
O1 C7 1.346(5)
O1 C8 1.465(5)
N1 C7 1.275(6)
N1 C9 1.480(6)
C7 C6 1.480(5)
C6 C1 1.394(5)
C6 C5 1.406(5)
C1 C2 1.389(5)
C12 C11 1.330(6)
C12 C13 1.476(6)
C12 H11 0.92(5)
C18 C13 1.386(6)
C18 C17 1.393(7)
C18 H16 0.90(5)
C2 C3 1.372(5)
C2 H1 0.99(5)
C14 C15 1.383(7)
C14 C13 1.400(6)
C14 H12 0.95(6)
C5 C4 1.385(5)
C5 C10 1.518(5)
C11 C10 1.491(5)
C11 H10 1.02(5)
C4 C3 1.391(6)
C4 H3 1.01(5)
C8 C9 1.506(7)
C8 H5 1.03(6)
C8 H4 0.92(5)
C3 H2 0.89(5)
C10 H9 0.92(5)
C10 H8 0.98(6)
C17 C16 1.379(8)
C17 H15 0.98(7)
C15 C16 1.387(8)
C15 H13 0.93(6)
C9 H6 0.92(8)
C9 H7 0.99(7)
C16 H14 0.98(6)
