#------------------------------------------------------------------------------
#$Date: 2019-11-04 15:15:10 +0200 (Mon, 04 Nov 2019) $
#$Revision: 223118 $
#$URL: file:///home/coder/svn-repositories/cod/cif/4/03/46/4034641.cif $
#------------------------------------------------------------------------------
#
# This file is available in the Crystallography Open Database (COD),
# http://www.crystallography.net/
#
# All data on this site have been placed in the public domain by the
# contributors.
#
data_4034641
loop_
_publ_author_name
'Golushko, Andrei A.'
'Khoroshilova, Olesya V.'
'Vasilyev, Aleksander V.'
_publ_section_title
;
 Synthesis of 1,2,4-Oxadiazoles by Tandem Reaction of Nitroalkenes with
 Arenes and Nitriles in the Superacid TfOH.
;
_journal_issue                   11
_journal_name_full               'The Journal of organic chemistry'
_journal_page_first              7495
_journal_page_last               7500
_journal_paper_doi               10.1021/acs.joc.9b00812
_journal_volume                  84
_journal_year                    2019
_chemical_formula_moiety         'C13 H13 Cl3 N2 O3'
_chemical_formula_sum            'C13 H13 Cl3 N2 O3'
_chemical_formula_weight         351.60
_space_group_crystal_system      triclinic
_space_group_IT_number           2
_space_group_name_Hall           '-P 1'
_space_group_name_H-M_alt        'P -1'
_atom_sites_solution_hydrogens   geom
_atom_sites_solution_primary     iterative
_audit_creation_date             2018-09-05
_audit_creation_method
;
Olex2 1.2
(compiled 2018.05.29 svn.r3508 for OlexSys, GUI svn.r5506)
;
_cell_angle_alpha                105.441(4)
_cell_angle_beta                 113.046(4)
_cell_angle_gamma                97.005(4)
_cell_formula_units_Z            2
_cell_length_a                   8.5663(4)
_cell_length_b                   9.2482(4)
_cell_length_c                   10.8111(5)
_cell_measurement_reflns_used    6397
_cell_measurement_temperature    100.01(10)
_cell_measurement_theta_max      32.1100
_cell_measurement_theta_min      3.0850
_cell_volume                     734.57(7)
_computing_cell_refinement
;
CrysAlisPro, Agilent Technologies,
Version 1.171.36.32 (release 02-08-2013 CrysAlis171 .NET)
(compiled Aug  2 2013,16:46:58)
;
_computing_data_collection
;
CrysAlisPro, Agilent Technologies,
Version 1.171.36.32 (release 02-08-2013 CrysAlis171 .NET)
(compiled Aug  2 2013,16:46:58)
;
_computing_data_reduction
;
CrysAlisPro, Agilent Technologies,
Version 1.171.36.32 (release 02-08-2013 CrysAlis171 .NET)
(compiled Aug  2 2013,16:46:58)
;
_computing_molecular_graphics    'Olex2 (Dolomanov et al., 2009)'
_computing_publication_material  'Olex2 (Dolomanov et al., 2009)'
_computing_structure_refinement  'ShelXL (Sheldrick, 2015)'
_computing_structure_solution
;
Superflip (Palatinus & Chapuis, 2007;Palatinus & van der Lee, 2008;
Palatinus et al., 2012)
;
_diffrn_ambient_temperature      100.01(10)
_diffrn_detector_area_resol_mean 16.2096
_diffrn_measured_fraction_theta_full 0.998
_diffrn_measured_fraction_theta_max 0.999
_diffrn_measurement_details
;
#__ type_ start__ end____ width___ exp.time_
  1 omega  -69.00   47.00   1.0000    2.5000
omega____ theta____ kappa____ phi______ frames
    -      -25.5873   19.0000  -60.0000 116

#__ type_ start__ end____ width___ exp.time_
  2 omega  -90.00   -4.00   1.0000    2.5000
omega____ theta____ kappa____ phi______ frames
    -      -25.5873  -77.0000  -30.0000 86

#__ type_ start__ end____ width___ exp.time_
  3 omega    5.00   36.00   1.0000    2.5000
omega____ theta____ kappa____ phi______ frames
    -      -25.5873   57.0000    0.0000 31

#__ type_ start__ end____ width___ exp.time_
  4 omega   33.00  101.00   1.0000    2.5000
omega____ theta____ kappa____ phi______ frames
    -       26.6811 -178.0000 -120.0000 68

#__ type_ start__ end____ width___ exp.time_
  5 omega  -10.00   63.00   1.0000    2.5000
omega____ theta____ kappa____ phi______ frames
    -       26.6811  -99.0000   90.0000 73

#__ type_ start__ end____ width___ exp.time_
  6 omega   23.00   69.00   1.0000    2.5000
omega____ theta____ kappa____ phi______ frames
    -       26.6811  -99.0000 -120.0000 46

#__ type_ start__ end____ width___ exp.time_
  7 omega  -67.00   -4.00   1.0000    2.5000
omega____ theta____ kappa____ phi______ frames
    -      -25.5873  -57.0000 -150.0000 63

#__ type_ start__ end____ width___ exp.time_
  8 omega  -93.00   -4.00   1.0000    2.5000
omega____ theta____ kappa____ phi______ frames
    -      -25.5873  -57.0000  120.0000 89

#__ type_ start__ end____ width___ exp.time_
  9 omega  -66.00    4.00   1.0000    2.5000
omega____ theta____ kappa____ phi______ frames
    -      -25.5873  -77.0000   60.0000 70

#__ type_ start__ end____ width___ exp.time_
 10 omega  -96.00   11.00   1.0000    2.5000
omega____ theta____ kappa____ phi______ frames
    -      -25.5873  -19.0000 -180.0000 107

#__ type_ start__ end____ width___ exp.time_
 11 omega  -55.00   45.00   1.0000    2.5000
omega____ theta____ kappa____ phi______ frames
    -      -25.5873   77.0000  -30.0000 100

#__ type_ start__ end____ width___ exp.time_
 12 omega  -82.00  -51.00   1.0000    2.5000
omega____ theta____ kappa____ phi______ frames
    -      -25.5873    0.0000  -60.0000 31
;
_diffrn_measurement_device_type  'Xcalibur, Eos'
_diffrn_measurement_method       '\w scans'
_diffrn_orient_matrix_UB_11      0.0404868000
_diffrn_orient_matrix_UB_12      -0.0480294000
_diffrn_orient_matrix_UB_13      0.0372339000
_diffrn_orient_matrix_UB_21      -0.0586262000
_diffrn_orient_matrix_UB_22      0.0017284000
_diffrn_orient_matrix_UB_23      0.0316469000
_diffrn_orient_matrix_UB_31      -0.0598644000
_diffrn_orient_matrix_UB_32      -0.0667947000
_diffrn_orient_matrix_UB_33      -0.0581116000
_diffrn_radiation_monochromator  graphite
_diffrn_radiation_type           MoK\a
_diffrn_radiation_wavelength     0.71073
_diffrn_reflns_av_R_equivalents  0.0179
_diffrn_reflns_av_unetI/netI     0.0161
_diffrn_reflns_Laue_measured_fraction_full 0.998
_diffrn_reflns_Laue_measured_fraction_max 0.999
_diffrn_reflns_limit_h_max       11
_diffrn_reflns_limit_h_min       -11
_diffrn_reflns_limit_k_max       12
_diffrn_reflns_limit_k_min       -12
_diffrn_reflns_limit_l_max       14
_diffrn_reflns_limit_l_min       -14
_diffrn_reflns_number            12653
_diffrn_reflns_point_group_measured_fraction_full 0.998
_diffrn_reflns_point_group_measured_fraction_max 0.999
_diffrn_reflns_theta_full        25.242
_diffrn_reflns_theta_max         27.500
_diffrn_reflns_theta_min         2.607
_diffrn_source                   'Enhance (Mo) X-ray Source'
_exptl_absorpt_coefficient_mu    0.634
_exptl_absorpt_correction_T_max  1.00000
_exptl_absorpt_correction_T_min  0.89133
_exptl_absorpt_correction_type   multi-scan
_exptl_absorpt_process_details
;
CrysAlisPro, Agilent Technologies,
Version 1.171.36.32 (release 02-08-2013 CrysAlis171 .NET)
(compiled Aug  2 2013,16:46:58)
Empirical absorption correction using spherical harmonics,
 implemented in SCALE3 ABSPACK scaling algorithm.
;
_exptl_crystal_colour            'clear colourless'
_exptl_crystal_colour_lustre     clear
_exptl_crystal_colour_primary    colourless
_exptl_crystal_density_diffrn    1.590
_exptl_crystal_description
;
;
_exptl_crystal_F_000             360
_exptl_crystal_size_max          0.5
_exptl_crystal_size_mid          0.34
_exptl_crystal_size_min          0.26
_refine_diff_density_max         0.411
_refine_diff_density_min         -0.197
_refine_diff_density_rms         0.047
_refine_ls_extinction_method     none
_refine_ls_goodness_of_fit_ref   1.070
_refine_ls_hydrogen_treatment    constr
_refine_ls_matrix_type           full
_refine_ls_number_parameters     193
_refine_ls_number_reflns         3353
_refine_ls_number_restraints     0
_refine_ls_restrained_S_all      1.070
_refine_ls_R_factor_all          0.0255
_refine_ls_R_factor_gt           0.0232
_refine_ls_shift/su_max          0.001
_refine_ls_shift/su_mean         0.000
_refine_ls_structure_factor_coef Fsqd
_refine_ls_weighting_details
'w=1/[\s^2^(Fo^2^)+(0.0188P)^2^+0.4481P] where P=(Fo^2^+2Fc^2^)/3'
_refine_ls_weighting_scheme      calc
_refine_ls_wR_factor_gt          0.0540
_refine_ls_wR_factor_ref         0.0553
_reflns_Friedel_coverage         0.000
_reflns_number_gt                3128
_reflns_number_total             3353
_reflns_threshold_expression     'I > 2\s(I)'
_cod_data_source_file            jo9b00812_si_003.cif
_cod_data_source_block           9827-10501_ca238_1
_cod_original_cell_volume        734.58(6)
_cod_database_code               4034641
_shelx_shelxl_version_number     2014/7
_chemical_oxdiff_formula         'C13 Cl3 N2 O3'
_shelx_space_group_comment
;
The symmetry employed for this shelxl refinement is uniquely defined
by the following loop, which should always be used as a source of
symmetry information in preference to the above space-group names.
They are only intended as comments.
;
_reflns_odcompleteness_completeness 99.91
_reflns_odcompleteness_iscentric 1
_reflns_odcompleteness_theta     30.01
_olex2_refinement_description
;
1. Fixed Uiso
 At 1.2 times of:
  All C(H) groups
 At 1.5 times of:
  All C(H,H,H) groups
2.a Ternary CH refined with riding coordinates:
 C10(H10)
2.b Aromatic/amide H refined with riding coordinates:
 C4(H4), C7(H7), C8(H8)
2.c Idealised Me refined as rotating group:
 C11(H11A,H11B,H11C), C12(H12A,H12B,H12C), C13(H13A,H13B,H13C)
;
_shelx_res_file
;
    9827-10501_ca238_1.res created by SHELXL-2014/7

TITL CF solution in P-1
CELL 0.71073 8.566334 9.248238 10.811131 105.4409 113.0461 97.005
ZERR 2 0.00035 0.000383 0.000453 0.0037 0.0039 0.0035
LATT 1
SFAC C H Cl N O
UNIT 26 26 6 4 6

L.S. 4
PLAN  25
TEMP -173(2)
BOND
fmap 2
acta
OMIT -4 55
REM <olex2.extras>
REM <HklSrc "%.\\9827-10501_CA238_1.hkl">
REM </olex2.extras>

WGHT    0.018800    0.448100
FVAR       6.70053
CL1   3    0.442458    0.342979    0.824433    11.00000    0.01225    0.01489 =
         0.01261    0.00505    0.00419    0.00420
CL2   3    0.190300    0.151179    0.539760    11.00000    0.01784    0.01268 =
         0.01484   -0.00032    0.00587    0.00366
CL3   3    0.400518    0.445514    0.584289    11.00000    0.01897    0.02404 =
         0.01690    0.00814    0.01175    0.00198
O1    5    0.021958    0.268125    1.037852    11.00000    0.01405    0.02098 =
         0.00987    0.00515    0.00431   -0.00111
O2    5    0.356613    0.817794    0.916445    11.00000    0.01641    0.00966 =
         0.01466    0.00260    0.00504    0.00251
O3    5   -0.269957    0.078118    0.844985    11.00000    0.01454    0.02005 =
         0.01450    0.00557    0.00650   -0.00342
N1    4    0.112298    0.698265    0.717160    11.00000    0.01641    0.01245 =
         0.01374    0.00585    0.00695    0.00481
N2    4    0.358220    0.659341    0.872952    11.00000    0.01824    0.00891 =
         0.01569    0.00245    0.00539    0.00331
C1    1    0.211374    0.596922    0.756529    11.00000    0.01319    0.01193 =
         0.01114    0.00533    0.00706    0.00298
C2    1    0.206376    0.829332    0.819779    11.00000    0.01608    0.01406 =
         0.01295    0.00700    0.00832    0.00402
C3    1    0.288080    0.346768    0.659032    11.00000    0.01365    0.01207 =
         0.01031    0.00282    0.00577    0.00145
C4    1    0.082619    0.356097    0.863209    11.00000    0.01090    0.01012 =
         0.01127    0.00207    0.00425    0.00226
AFIX  43
H4    2    0.192304    0.424528    0.933872    11.00000   -1.20000
AFIX   0
C5    1    0.025933    0.343033    0.718884    11.00000    0.01267    0.00925 =
         0.01199    0.00379    0.00641    0.00348
C6    1   -0.021477    0.269123    0.902636    11.00000    0.01351    0.01218 =
         0.01047    0.00350    0.00600    0.00468
C7    1   -0.244805    0.163565    0.657198    11.00000    0.01077    0.01299 =
         0.01250    0.00155    0.00355    0.00065
AFIX  43
H7    2   -0.358349    0.101554    0.587550    11.00000   -1.20000
AFIX   0
C8    1   -0.138861    0.250440    0.617666    11.00000    0.01436    0.01385 =
         0.01013    0.00416    0.00487    0.00370
AFIX  43
H8    2   -0.180147    0.245885    0.521003    11.00000   -1.20000
AFIX   0
C9    1   -0.184906    0.167651    0.797067    11.00000    0.01237    0.01191 =
         0.01495    0.00391    0.00796    0.00307
C10   1    0.142700    0.426032    0.669740    11.00000    0.01173    0.01047 =
         0.00983    0.00394    0.00400    0.00249
AFIX  13
H10   2    0.064699    0.418716    0.569988    11.00000   -1.20000
AFIX   0
C11   1    0.168370    0.983774    0.844804    11.00000    0.02500    0.01338 =
         0.01861    0.00539    0.00837    0.00724
AFIX 137
H11A  2    0.117116    0.999666    0.912519    11.00000   -1.50000
H11B  2    0.085403    0.989273    0.754011    11.00000   -1.50000
H11C  2    0.277456    1.064520    0.884432    11.00000   -1.50000
AFIX   0
C12   1   -0.424938   -0.038740    0.739845    11.00000    0.01520    0.01918 =
         0.01898    0.00579    0.00707   -0.00234
AFIX 137
H12A  2   -0.398990   -0.103923    0.666327    11.00000   -1.50000
H12B  2   -0.516455    0.010450    0.695478    11.00000   -1.50000
H12C  2   -0.465785   -0.102988    0.785537    11.00000   -1.50000
AFIX   0
C13   1    0.190274    0.363087    1.147672    11.00000    0.01416    0.02160 =
         0.01077    0.00472    0.00349    0.00172
AFIX 137
H13A  2    0.282324    0.331525    1.122730    11.00000   -1.50000
H13B  2    0.207559    0.350613    1.238997    11.00000   -1.50000
H13C  2    0.195991    0.472034    1.156357    11.00000   -1.50000
AFIX   0
HKLF 4

REM  CF solution in P-1
REM R1 =  0.0232 for    3128 Fo > 4sig(Fo)  and  0.0255 for all    3353 data
REM    193 parameters refined using      0 restraints

END

WGHT      0.0188      0.4480

REM Highest difference peak  0.411,  deepest hole -0.197,  1-sigma level  0.047
Q1    1   0.1859  0.5121  0.7195  11.00000  0.05    0.41
Q2    1   0.2076  0.3855  0.6636  11.00000  0.05    0.36
Q3    1  -0.0986  0.2012  0.8455  11.00000  0.05    0.35
Q4    1   0.0883  0.3847  0.6985  11.00000  0.05    0.33
Q5    1   0.0486  0.3391  0.7859  11.00000  0.05    0.32
Q6    1  -0.0456  0.2799  0.6653  11.00000  0.05    0.31
Q7    1   0.0223  0.3166  0.8842  11.00000  0.05    0.31
Q8    1  -0.1965  0.2201  0.6405  11.00000  0.05    0.30
Q9    1  -0.2223  0.1974  0.7351  11.00000  0.05    0.28
Q10   1  -0.1957  0.1387  0.7208  11.00000  0.05    0.28
Q11   1   0.1847  0.9036  0.8325  11.00000  0.05    0.27
Q12   1   0.1557  0.6426  0.7337  11.00000  0.05    0.25
Q13   1   0.1376  0.7614  0.7904  11.00000  0.05    0.24
Q14   1   0.3296  0.3955  0.6280  11.00000  0.05    0.23
Q15   1  -0.2211  0.1234  0.8113  11.00000  0.05    0.23
Q16   1   0.2840  0.8252  0.8647  11.00000  0.05    0.23
Q17   1   0.0104  0.2654  0.9585  11.00000  0.05    0.21
Q18   1   0.2949  0.6239  0.7852  11.00000  0.05    0.21
Q19   1   0.3514  0.3535  0.7386  11.00000  0.05    0.20
Q20   1   0.1758  0.7812  0.7519  11.00000  0.05    0.20
Q21   1   0.2598  0.6131  0.8288  11.00000  0.05    0.20
Q22   1   0.4561  0.5397  0.6709  11.00000  0.05    0.20
Q23   1   0.3662  0.7410  0.8962  11.00000  0.05    0.19
Q24   1   0.2450  0.2557  0.6140  11.00000  0.05    0.19
Q25   1   0.0463  0.6762  0.7147  11.00000  0.05    0.18
;
_shelx_res_checksum              16266
_shelx_hkl_file
;
   0   0  -2 60292.2 480.053  10
   0   0   2 59775.4 495.207   1
   0   0   2 57829.4 442.672   4
   0   0   2 58666.1 526.419   7
   0   0  -2 58940.4 449.677   4
   0   0  -2 60595.7 535.519   7
   0   0  -2 57490.5 482.175   1
   0   0   2 59125.6 479.347  10
   0   0  -3 137634. 917.430   1
   0   0   3 137508. 990.805   7
   0   0   3 139310. 905.956  10
   0   0  -3 137128. 842.655   4
   0   0  -4 64488.5 729.910   1
   0   0  -4 65211.5 671.807   4
   0   0   4 64793.2 395.934   2
   0   0   4 64294.9 784.442   7
   0   0   4 62513.2 710.855  10
   0   0   5 1766.32 139.393  10
   0   0  -5 1896.12 146.444   1
   0   0  -5 1761.17 127.195   4
   0   0   5 2014.19 164.285   7
   0   0   5 1854.73 73.1628   2
   0   0   6 4833.87 275.713   7
   0   0   6 4955.72 119.984   2
   0   0  -6 4853.91 253.392   1
   0   0  -6 5362.22 239.307   4
   0   0   6 4960.94 252.580  10
   0   0  -7 26960.2 578.027   4
   0   0  -7 26778.5 643.741   1
   0   0   7 26040.8 627.638  10
   0   0   7 23711.5 252.540   2
   0   0   7 24867.4 667.962   7
   0   0   8 12523.2 520.020   7
   0   0  -8 12553.6 478.930   1
   0   0   8 13091.8 485.991  10
   0   0  -8 13403.2 435.712   4
   0   0   9 4241.28 328.171   7
   0   0  -9 3651.25 284.312   1
   0   0  -9 4683.81 280.417   4
   0   0   9 4118.11 298.535  10
   0   0  10 7864.15 472.646   7
   0   0 -10 7633.01 433.753   1
   0   0  10 7449.73 425.704  10
   0   0  11 4227.07 374.165   7
   0   0 -11 4586.74 359.081   1
   0   0  11 4402.51 349.602  10
   0   0  12 4451.20 406.079   7
   0   0 -12 3320.49 374.012   6
   0   0 -12 4304.05 373.287   1
   0   0 -13 481.686 189.367   6
   0   0  13 475.053 161.651   7
   0   1 -13 1760.78 260.381   1
   0  -1  13 1389.92 260.115   7
   0  -1  12 12834.1 639.641  10
   0   1 -12 12730.7 642.280   1
   0  -1  12 12392.9 661.172   7
   0  -1  11 11295.5 560.266  10
   0   1 -11 10758.1 555.428   1
   0  -1  11 10715.6 580.701   7
   0  -1  10-49.0330 104.583   7
   0   1 -10-30.2802 75.6970   1
   0  -1  10 107.473 99.3844  10
   0   1  -9 2111.51 223.206   1
   0  -1   9 1891.80 227.743   7
   0   1  -9 2202.16 180.259   4
   0  -1   9 2097.93 226.019  10
   0   1  -8 9752.66 430.298   1
   0   1  -8 10074.1 357.135   4
   0  -1   8 9677.13 427.674  10
   0  -1   8 9632.92 447.590   7
   0  -1   7 55363.3 940.711  10
   0  -1   7 54373.9 970.868   7
   0   1  -7 56186.8 952.491   1
   0  -1   6 13349.8 424.869  10
   0  -1   6 12677.3 430.846   7
   0   1  -6 13475.0 350.127   4
   0   1  -6 13195.8 428.903   1
   0  -1   5 1543.72 145.236   7
   0   1  -5 1501.59 136.099   1
   0   1  -5 1404.19 104.162   4
   0  -1   5 1348.45 127.355  10
   0   1  -4 202530. 1350.68   1
   0  -1   4 201658. 1335.84  10
   0  -1   4 199839. 1356.77   7
   0   1  -4 203180. 1068.45   4
   0   1  -3 78346.3 560.972   4
   0   1  -3 80158.1 736.988   1
   0  -1   3 79318.3 735.087  10
   0  -1   2 133772. 799.656   1
   0  -1   2 130728. 781.590   7
   0  -1   2 131493. 799.373  10
   0   1  -2 138252. 800.613   7
   0   1  -2 132590. 795.457   1
   0   1  -2 136199. 804.641  10
   0   1  -1 42325.8 344.747   1
   0   1   1 114256. 692.202   6
   0   1   1 117002. 636.628   5
   0  -1  -1 113969. 445.499   1
   0  -1  -1 116391. 641.807   5
   0   1   1 114262. 446.554   1
   0   1   1 117702. 670.101   4
   0  -1  -1 111832. 673.046  11
   0  -1  -1 112673. 677.089   6
   0   1   1 114371. 676.637  11
   0  -1  -2 45422.6 402.816   1
   0  -1  -2 45473.9 539.974   6
   0   1   2 45019.7 407.600  10
   0  -1  -2 43966.4 537.706  11
   0   1   2 45530.0 407.799   1
   0  -1  -2 45499.4 411.505  10
   0  -1  -2 45561.3 499.724   4
   0   1   3 593.623 75.9145   7
   0   1   3 795.183 73.0128  10
   0  -1  -3 741.699 89.3623  11
   0  -1  -3 872.938 84.1146   4
   0  -1  -3 568.704 61.2568   1
   0  -1  -4 25856.3 446.423   1
   0   1   4 27063.4 374.122   2
   0   1   4 25909.7 445.519  10
   0   1   4 26514.9 529.658   7
   0  -1  -4 25979.9 565.889  11
   0  -1  -4 27723.3 493.761   4
   0   1   5 41264.1 634.585  10
   0  -1  -5 39743.9 632.313   1
   0  -1  -5 41783.9 663.027   4
   0   1   5 42789.1 488.998   2
   0   1   5 40211.9 728.179   7
   0   1   6 266.483 72.2861  10
   0  -1  -6 355.129 81.1408   4
   0  -1  -6 172.560 62.4299   1
   0   1   6 173.276 68.9176   7
   0   1   6 310.062 48.9851   2
   0  -1  -7 2307.11 188.229   4
   0   1   7 2044.28 179.562  10
   0   1   7 2068.77 202.163   7
   0  -1  -7 2062.50 181.475   1
   0   1   7 2192.41 118.775   2
   0   1   8 3077.86 267.288   7
   0  -1  -8 2975.59 276.955   6
   0   1   8 2743.53 221.627  10
   0  -1  -8 2773.38 227.920   1
   0  -1  -9 9.90200 96.4892   6
   0   1   9-10.9291 81.4201  10
   0  -1  -9-9.28860 59.6696   1
   0   1   9 135.846 104.030   7
   0  -1 -10 15102.4 594.659   1
   0   1  10 15394.2 591.671  10
   0  -1 -10 15737.3 715.040   6
   0   1  10 15690.2 683.141   7
   0   1  11 6455.63 473.521   7
   0  -1 -11 7366.97 526.622   6
   0  -1 -12 2303.24 322.618   6
   0   1  12 1744.71 274.324   7
   0   1  13 14615.6 779.719   7
   0   2 -14-61.7249 97.0432   1
   0  -2  13 9414.93 606.504   7
   0   2 -13 8829.25 568.281   1
   0  -2  13 9354.86 582.604  10
   0  -2  12 32028.0 1012.91  10
   0   2 -12 32022.0 1025.12   1
   0  -2  12 31629.5 1038.56   7
   0  -2  11 38092.4 1071.51   7
   0  -2  11 40387.3 1073.44  10
   0   2 -11 38119.7 1051.40   1
   0  -2  10 1957.68 229.006  10
   0  -2  10 2015.74 240.442   7
   0   2 -10 2291.84 255.255   1
   0  -2   9 37946.1 919.473  10
   0   2  -9 38446.8 704.625   4
   0   2  -9 38813.0 937.924   1
   0  -2   9 39408.2 954.670   7
   0   2  -8 20551.5 638.701   1
   0  -2   8 20473.8 634.503  10
   0  -2   8 19830.8 634.526   7
   0   2  -8 20818.9 489.158   4
   0   2  -7 11400.8 442.448   1
   0  -2   7 11282.9 440.491   7
   0   2  -7 11705.3 339.013   4
   0  -2   7 11099.8 435.773  10
   0  -2   6 3647.71 233.750   7
   0   2  -6 3667.44 235.729   1
   0   2  -6 3833.75 178.574   4
   0  -2   6 3345.40 226.078  10
   0   2  -5 1267.78 94.9629   4
   0   2  -5 896.910 111.525   1
   0  -2   5 961.093 117.162   7
   0  -2   5 1012.70 123.785  10
   0   2  -4 729.049 96.3767   1
   0   2  -4 617.411 35.1917   2
   0  -2   4 747.741 96.0830  10
   0  -2   4 669.886 89.3963   7
   0   2  -3 97.8445 42.7381   1
   0   2  -3 17.9636 17.7858   2
   0  -2   3 35.6744 43.7844  10
   0  -2   3 115.638 44.9675   7
   0   2  -2 5331.89 177.907   1
   0  -2   2 5231.45 183.033  10
   0  -2   1 5436.14 146.873   1
   0   2  -1 5279.38 144.528   9
   0   2  -1 5583.51 161.923  10
   0  -2   1 5549.97 162.084  10
   0   2  -1 5264.27 144.416   1
   0  -2   1 5471.01 148.779  11
   0  -2   0 68749.2 476.493   9
   0   2   0 70892.1 486.361  10
   0  -2   0 68701.2 542.675   3
   0   2   0 70066.3 480.666   9
   0  -2   0 70519.4 554.940  11
   0  -2   0 70761.6 492.737   5
   0   2   0 72172.0 485.131   5
   0  -2   0 71001.8 409.420   1
   0  -2  -1 94045.7 757.000  11
   0  -2  -1 92732.7 756.480   6
   0  -2  -1 94086.1 696.614   5
   0   2   1 94452.8 449.251  12
   0   2   2 4702.37 142.238  10
   0  -2  -2 4578.77 127.083   1
   0  -2  -2 4327.85 192.842  11
   0  -2  -2 4487.73 96.5647  12
   0  -2  -2 4266.78 189.681   6
   0  -2  -2 4604.39 184.336   5
   0  -2  -3 481.099 81.9842  11
   0  -2  -3 348.064 77.0755   6
   0   2   3 404.961 55.5817  10
   0  -2  -3 402.824 52.5854   1
   0   2   4 3340.83 165.025   2
   0  -2  -4 2917.98 204.582   6
   0  -2  -4 3217.52 216.045  11
   0   2   4 3238.07 157.749  10
   0   2   4 3504.26 211.017   7
   0  -2  -4 3168.36 154.429   1
   0   2   5 42393.2 637.508  10
   0  -2  -5 41601.7 823.524   6
   0  -2  -5 40463.5 832.647  11
   0  -2  -5 42598.3 631.049   1
   0   2   5 42519.2 786.781   7
   0   2   5 44360.6 610.045   2
   0   2   6 37581.0 663.447  10
   0   2   6 37139.4 802.638   7
   0  -2  -6 37178.9 847.939   6
   0   2   6 39264.5 591.863   2
   0  -2  -6 37106.5 663.822   1
   0  -2  -7 12728.6 539.825   6
   0   2   7 13082.8 519.435   7
   0   2   7 13278.6 349.383   2
   0  -2  -7 13631.7 439.314   1
   0   2   7 12785.7 423.070  10
   0   2   8 8589.33 381.124  10
   0  -2  -8 9178.61 491.856   6
   0   2   8 8750.82 459.711   7
   0  -2  -8 9071.38 392.222   1
   0  -2  -9 39208.5 872.291   1
   0  -2  -9 39416.4 1082.94   6
   0   2   9 39440.9 874.046  10
   0   2   9 37831.6 1008.09   7
   0   2  10 187.775 106.064   7
   0  -2 -10 42.7739 114.164   6
   0   2  11 1259.58 225.633   7
   0  -2 -11 1227.58 237.689   6
   0   2  12 970.812 227.086   7
   0  -2 -12 463.311 159.796   6
   0   3 -14 4831.47 453.154   1
   0  -3  14 4735.01 456.554   7
   0  -3  14 4865.72 457.366  10
   0  -3  13 2397.35 312.991   7
   0  -3  13 2672.51 337.993  10
   0   3 -13 2706.88 324.107   1
   0   3 -12 794.365 181.830   1
   0  -3  12 464.815 162.869   7
   0  -3  12 525.788 162.423  10
   0   3 -11 783.678 159.760   1
   0  -3  11 372.681 116.505   7
   0  -3  11 719.505 173.972  10
   0   3 -10 9197.92 495.821   1
   0  -3  10 8528.17 480.027   7
   0  -3  10 9164.05 500.816  10
   0   3  -9 8057.51 439.137   1
   0  -3   9 7752.80 432.527   7
   0   3  -9 7695.06 308.355   4
   0  -3   9 6752.72 403.320  10
   0   3  -8 20.3461 41.4259   4
   0  -3   8-3.50415 77.6909  10
   0   3  -8 141.197 73.2317   1
   0   3  -7-17.9436 45.6474   4
   0   3  -7 26.0881 68.0843   1
   0  -3   7-28.0271 66.7526  10
   0  -3   7 89.2012 79.2764   7
   0   3  -6 36459.5 746.364   1
   0   3  -6 36574.4 547.586   4
   0  -3   6 35283.3 726.067   7
   0  -3   6 35273.7 745.148  10
   0  -3   5 11670.2 386.694   7
   0  -3   5 12139.0 405.684  10
   0   3  -5 12669.7 211.860   2
   0   3  -5 12247.0 400.488   1
   0   3  -4 914.757 66.3932   2
   0   3  -4 857.888 103.424   1
   0  -3   4 740.259 108.506  10
   0  -3   3 86204.4 902.289  10
   0   3  -3 84510.8 864.359   1
   0  -3   2 104444. 900.811  10
   0   3  -2 106537. 851.163   1
   0  -3   1 61038.3 620.603   3
   0  -3   1 61587.7 605.847  11
   0  -3   1 61654.6 529.106   5
   0   3  -1 59264.5 547.148   1
   0   3  -1 58688.8 565.801   9
   0  -3   1 59916.4 604.229  10
   0   3   0 29495.2 383.497   9
   0  -3   0 29156.5 392.806   5
   0  -3   0 29585.3 325.009   1
   0  -3   0 29089.9 445.742  11
   0  -3   0 29456.0 437.405   3
   0   3   1 221050. 876.648  12
   0  -3  -1 219361. 1352.61   6
   0  -3  -1 216847. 1358.88  11
   0  -3  -1 217281. 1225.66   5
   0   3   1 214520. 1070.38   9
   0  -3  -2 175608. 798.366   1
   0  -3  -2 174192. 1354.74  11
   0  -3  -2 174828. 1248.00   5
   0  -3  -2 174926. 1348.91   6
   0  -3  -3 15129.2 276.067   1
   0  -3  -3 14981.0 412.313   5
   0  -3  -3 14864.6 445.862  11
   0  -3  -3 15012.6 438.637   6
   0  -3  -3 13961.5 189.491  12
   0   3   3 14988.9 308.727  10
   0   3   3 15879.9 396.314   2
   0   3   4 17209.4 365.634  10
   0  -3  -4 15910.6 215.653  12
   0  -3  -4 17326.8 343.319   1
   0   3   4 18282.2 440.727   2
   0  -3  -4 17000.4 523.524  11
   0  -3  -4 16230.9 498.873   6
   0   3   5 19.8358 45.9128  10
   0  -3  -5 62.0697 40.0977   1
   0  -3  -5 81.5696 86.5397   6
   0  -3  -5 6.89499 71.1208  11
   0   3   5 9.24323 48.2827   2
   0   3   5-34.9791 67.2087   7
   0   3   6 9991.42 346.965   2
   0  -3  -6 10074.7 336.047   1
   0  -3  -6 9809.97 459.998   6
   0  -3  -6 9982.25 476.230  11
   0   3   6 10044.6 341.105  10
   0   3   6 9750.80 435.067   7
   0   3   7 52002.2 796.703   2
   0   3   7 50582.8 828.514  10
   0  -3  -7 50356.7 1106.65   6
   0   3   7 49827.6 1051.32   7
   0  -3  -7 49532.2 818.917   1
   0  -3  -8 22367.5 789.287   6
   0   3   8 22717.4 758.013   7
   0  -3  -9 32552.4 1014.52   6
   0   3   9 31817.5 954.381   7
   0  -3 -10 218.964 118.676   6
   0   3  10 440.917 141.964   7
   0  -3 -11 1652.41 283.382   6
   0   3  11 2010.90 283.495   7
   0   3  12 1047.52 229.030   7
   0   4 -14 5979.58 508.794   1
   0  -4  14 7475.10 572.294   7
   0  -4  14 6485.28 525.869  10
   0   4 -13 5281.98 458.916   1
   0  -4  13 5091.46 448.476  10
   0  -4  13 4852.61 440.573   7
   0   4 -12 994.227 191.941   1
   0  -4  12 1217.75 226.415   7
   0  -4  12 1114.85 229.558  10
   0  -4  11 1047.96 204.852   7
   0  -4  11 795.660 181.981  10
   0   4 -11 1025.93 197.160   1
   0  -4  10 57902.7 1270.88  10
   0   4 -10 57794.3 1265.33   1
   0  -4  10 59396.1 1262.69   7
   0   4  -9 461.886 87.3440   4
   0   4  -9 616.690 145.251   1
   0  -4   9 447.699 133.404  10
   0  -4   9 712.703 154.996   7
   0  -4   8 4986.88 338.444  10
   0   4  -8 5099.89 239.810   4
   0  -4   8 4496.16 317.698   7
   0   4  -8 5066.52 337.632   1
   0  -4   7 5139.46 312.900   7
   0  -4   7 5253.57 324.765  10
   0   4  -7 5206.40 232.472   4
   0   4  -7 4968.73 313.771   1
   0   4  -7 4674.57 129.106   2
   0   4  -6 68990.4 600.747   2
   0  -4   6 68085.2 1073.48  10
   0   4  -6 67734.5 1051.30   1
   0   4  -5 48066.7 555.011   2
   0   4  -5 48547.0 823.504   1
   0  -4   5 48235.5 842.806  10
   0   4  -4 30.3192 34.3541   2
   0   4  -4 88.3630 59.1149   1
   0  -4   4 87.0734 62.9785  10
   0  -4   3 153466. 1301.88  10
   0   4  -3 156143. 1245.01   1
   0   4  -3 154355. 1113.08   2
   0   4  -2 64708.6 718.204   1
   0  -4   2 65398.8 778.163  10
   0   4  -2 65772.3 721.086   9
   0  -4   2 63932.8 724.192  11
   0   4  -1 7112.14 211.069   1
   0   4  -1 7216.17 226.404   9
   0  -4   1 7493.56 219.464   5
   0  -4   1 7186.44 246.114  11
   0  -4   1 7586.50 257.235   3
   0  -4   0 83095.4 619.161   1
   0  -4   0 81731.6 768.549   5
   0  -4   0 81051.6 861.782   3
   0   4   0 80473.4 732.409   9
   0  -4   0 81467.9 865.025  11
   0   4   1 593.723 71.4163   9
   0  -4  -1 601.192 94.8328   6
   0   4   1 610.443 60.6337  12
   0  -4  -1 562.765 47.8882   1
   0  -4  -1 661.357 91.4466  11
   0  -4  -2 168258. 807.398   1
   0  -4  -2 168989. 1485.05  11
   0   4   2 165665. 1403.05   2
   0  -4  -2 167043. 1459.39   6
   0  -4  -2 169784. 1349.26   5
   0   4   2 165149. 1124.95   9
   0  -4  -3 13572.0 420.947   5
   0   4   3 12946.3 304.073  10
   0  -4  -3 13575.2 454.866   6
   0  -4  -3 12885.1 450.737  11
   0   4   3 13284.2 412.361   2
   0  -4  -3 13469.9 253.686   1
   0   4   4 2285.47 185.245   2
   0  -4  -4 2308.79 121.279   1
   0   4   4 2375.45 143.485  10
   0  -4  -4 2298.99 217.725  11
   0  -4  -4 2353.57 211.989   6
   0   4   5 15820.2 392.275  10
   0  -4  -5 16365.2 360.599   1
   0   4   5 16254.3 482.308   2
   0  -4  -5 16542.5 604.030  11
   0  -4  -5 16030.5 572.672   6
   0   4   6 4588.50 228.710  10
   0   4   6 4601.49 264.952   2
   0  -4  -6 4477.46 326.222   6
   0  -4  -6 4562.18 343.612  11
   0   4   6 4668.94 318.536   7
   0  -4  -7 151.229 117.432  11
   0   4   7 133.166 93.0126   7
   0   4   7 181.561 73.1984   2
   0  -4  -7 53.1548 91.7648   6
   0   4   8 3776.03 328.544   7
   0  -4  -8 3690.96 337.424   6
   0   4   9 4018.33 357.035   7
   0  -4  -9 4261.02 385.520   6
   0  -4 -10 484.525 191.517   6
   0   4  10 215.756 138.107   7
   0   4  11 7125.97 526.799   7
   0  -4 -11 7450.81 562.311   6
   0   5 -14 189.339 141.639   1
   0  -5  14-203.932 198.380  10
   0   5 -13 16.5580 113.142   1
   0  -5  13 36.0013 117.323  10
   0   5 -12 18104.2 803.446   1
   0  -5  12 19313.4 837.818  10
   0   5 -11 346.277 131.306   1
   0  -5  11 200.543 106.283  10
   0  -5  10 25233.4 867.105  10
   0   5 -10 27269.8 882.628   1
   0  -5   9 38901.8 1009.50  10
   0   5  -9 38083.2 697.933   4
   0   5  -9 38323.2 988.934   1
   0  -5   8 5800.27 375.914  10
   0   5  -8 6766.97 288.359   4
   0   5  -8 6449.95 390.363   1
   0   5  -7 45201.9 957.092   1
   0   5  -7 47101.1 568.802   2
   0  -5   7 44727.9 966.516  10
   0   5  -6 3625.41 173.815   2
   0   5  -6 3373.96 250.840   1
   0  -5   6 3605.27 263.721  10
   0  -5   5 6744.15 335.686  10
   0   5  -5 7053.76 329.873   1
   0   5  -4 3209.30 206.720   1
   0   5  -4 3450.61 189.433   2
   0  -5   4 3595.73 235.423  10
   0   5  -3 51561.3 734.151   9
   0  -5   3 49871.4 736.575  11
   0   5  -3 51667.6 755.034   1
   0  -5   3 49331.3 791.131  10
   0   5  -3 49328.9 727.059   2
   0  -5   2 118.080 45.9031  11
   0   5  -2 198.740 54.4853   1
   0   5  -2 252.637 71.4767   2
   0  -5   2 112.843 45.8606   5
   0   5  -2 120.665 43.1830   9
   0  -5   2 152.975 56.6813   3
   0  -5   2 112.620 50.8990  10
   0   5  -1 3049.53 165.818   9
   0  -5   1 3319.02 165.947   5
   0  -5   1 3145.82 187.791  11
   0  -5   1 2966.73 187.077   3
   0  -5   0 3223.46 174.461   5
   0   5   0 3171.82 164.889   9
   0   5   0 2957.88 156.834  12
   0  -5   0 2942.52 188.597  11
   0  -5  -1 11612.2 358.518   5
   0   5   1 11641.2 274.071  12
   0  -5  -1 11730.4 400.887  11
   0   5   1 11549.5 403.268   2
   0   5   1 12165.5 208.661   8
   0  -5  -1 11045.7 221.273   1
   0   5   1 11391.8 314.646   9
   0   5   2 1540.81 154.992   2
   0  -5  -2 1385.61 157.835   6
   0  -5  -2 1565.95 81.3347   1
   0  -5  -2 1490.76 78.1626   1
   0  -5  -2 1554.64 150.606   5
   0  -5  -2 1650.05 171.793  11
   0   5   2 1706.71 127.673   9
   0  -5  -3 16940.5 560.761  11
   0   5   3 16968.1 373.225  10
   0  -5  -3 18437.8 565.014   6
   0  -5  -3 17238.3 272.102   1
   0   5   3 17032.8 519.130   2
   0   5   3 17699.6 427.517   9
   0  -5  -3 16504.8 500.469   5
   0  -5  -4 1470.75 189.509  11
   0   5   4 1577.60 137.136   9
   0   5   4 1567.43 119.485  10
   0  -5  -4 1552.62 91.3453   1
   0   5   4 1753.95 176.852   2
   0  -5  -4 1513.90 191.266   6
   0  -5  -5 1182.62 184.223  11
   0  -5  -5 1367.15 183.306   6
   0   5   5 1224.26 149.918   2
   0   5   6 22.8862 60.2942   2
   0   5   6 36.0732 83.4026   7
   0  -5  -6 66.4819 99.6375  11
   0  -5  -6 110.489 81.7607   6
   0  -5  -7 64829.2 1435.90  11
   0   5   7 65662.6 1105.06   2
   0   5   7 64246.3 1301.08   7
   0  -5  -7 65769.1 1378.98   6
   0  -5  -8 4632.84 395.319   6
   0   5   8 4425.46 367.585   7
   0   5   9 3649.49 357.218   7
   0  -5  -9 4144.19 391.441   6
   0   5  10 6030.37 482.661   7
   0  -5 -10 5666.91 491.139   6
   0   5  11 425.771 184.331   7
   0   6 -14 292.254 147.481   1
   0  -6  14 87.4578 143.459  10
   0   6 -13 2327.39 317.686   1
   0  -6  13 1895.54 305.692  10
   0   6 -12 4574.41 415.866   1
   0  -6  12 4948.05 443.297  10
   0   6 -11 14258.9 686.432   1
   0  -6  11 13956.5 696.177  10
   0  -6  10 263.785 147.707  10
   0   6 -10 152.909 117.719   1
   0   6  -9 2103.90 247.528   1
   0  -6   9 1764.40 241.007  10
   0   6  -9 2046.63 175.959   4
   0  -6   8 20751.6 725.938  10
   0   6  -8 20791.5 703.770   1
   0   6  -7 5209.88 335.945   1
   0   6  -7 5779.79 242.815   2
   0  -6   7 5548.84 364.790  10
   0   6  -6 11760.0 471.288   1
   0  -6   6 11743.2 491.086  10
   0   6  -6 11495.0 357.501   2
   0  -6   5 1971.09 197.718  10
   0   6  -5 1966.87 188.411   1
   0   6  -5 2435.45 176.871   2
   0   6  -4 15599.0 476.692   1
   0  -6   4 14974.4 497.420  10
   0   6  -4 15514.2 448.323   2
   0  -6   4 15053.8 455.130  11
   0  -6   3 5014.84 274.809  10
   0   6  -3 4982.85 263.336   2
   0  -6   3 4586.95 124.265   8
   0   6  -3 5597.69 265.505   1
   0  -6   3 5306.65 263.815  11
   0  -6   3 4631.83 257.646   3
   0   6  -3 5953.63 267.389   9
   0  -6   2 31551.6 638.164  11
   0  -6   2 30383.9 646.148   3
   0   6  -2 31295.4 671.526   2
   0   6  -2 31254.6 566.225   1
   0  -6   2 31786.1 562.053   5
   0   6  -2 31225.8 593.343   9
   0  -6   1 8465.10 341.616  11
   0   6  -1 8130.13 297.014   9
   0   6  -1 8794.51 369.328   2
   0  -6   1 8720.51 303.164   5
   0  -6   1 8304.92 342.125   3
   0  -6   0 55597.6 907.850  11
   0   6   0 54175.0 932.202   2
   0  -6   0 55248.4 798.324   5
   0   6   0 55796.5 727.102  12
   0   6   1 235.472 54.1047  12
   0  -6  -1 354.813 90.1963  11
   0   6   1 265.602 64.7110   9
   0   6   1 229.886 88.9582   2
   0   6   1 230.757 31.7636   8
   0  -6  -1 199.457 62.2120   5
   0   6   2 55.1148 68.1370   2
   0   6   2 224.267 65.2643   9
   0  -6  -2 80.5463 62.5640   5
   0  -6  -2 148.401 28.9062   1
   0  -6  -2 200.339 98.6757  11
   0   6   3 98265.3 1358.71   2
   0  -6  -3 99782.2 1305.21   5
   0   6   3 99473.8 1076.52   9
   0  -6  -3 96530.3 1396.32   6
   0  -6  -3 96647.3 1440.24  11
   0   6   3 96240.5 934.668  10
   0   6   4 7665.52 390.799   2
   0  -6  -4 7637.23 439.610  11
   0  -6  -4 7945.22 426.158   6
   0   6   4 8082.97 325.607   9
   0   6   5 15157.0 467.018   9
   0   6   5 15371.2 564.355   2
   0  -6  -5 13771.7 586.687   6
   0  -6  -5 15088.1 651.363  11
   0   6   6 30255.4 891.033   7
   0  -6  -6 32570.8 959.145   6
   0   6   6 33138.4 842.372   2
   0  -6  -6 32484.7 1012.36  11
   0  -6  -7 3174.96 321.817   6
   0   6   7 3067.77 317.160   7
   0   6   7 3650.93 288.600   2
   0  -6  -7 3554.88 378.121  11
   0  -6  -8 943.035 205.378   6
   0   6   8 1641.97 240.557   7
   0   6   9 94.5141 118.143   7
   0  -6  -9 17.3447 136.543   6
   0   7 -13 1440.35 263.056   1
   0  -7  13 1173.27 267.296  10
   0   7 -12 1377.82 261.773   1
   0  -7  12 2100.35 309.398  10
   0  -7  11 243.484 147.810  10
   0   7 -11 351.834 157.542   1
   0  -7  10 1712.44 252.463  10
   0   7 -10 1926.28 261.455   1
   0  -7   9 13769.4 646.662  10
   0   7  -9 14442.3 639.225   1
   0   7  -8 6098.78 397.564   1
   0  -7   8 6490.34 427.820  10
   0   7  -8 6047.09 270.168   2
   0   7  -7 19611.9 503.307   2
   0   7  -7 18645.9 651.566   1
   0  -7   7 19002.8 684.358  10
   0   7  -6 43392.3 938.272   1
   0  -7   6 41248.8 956.893  10
   0   7  -6 42517.6 773.733   2
   0   7  -5 3075.20 219.224   2
   0   7  -5 2597.36 223.769   1
   0  -7   5 3049.61 255.029  10
   0  -7   5 2897.42 163.625   8
   0  -7   5 3044.20 235.595  11
   0  -7   4 55436.7 933.747  11
   0  -7   4 56340.7 986.699   3
   0   7  -4 55792.2 936.934   1
   0  -7   4 56390.5 1005.32  10
   0  -7   4 54881.9 521.264   8
   0   7  -4 56088.6 939.773   2
   0   7  -3 12805.2 420.106   9
   0   7  -3 11978.5 446.583   2
   0  -7   3 12718.6 464.098   3
   0  -7   3 12224.3 379.378   5
   0   7  -3 12624.4 415.141   1
   0  -7   3 12579.9 444.341  11
   0  -7   2 68208.3 1058.96   3
   0   7  -2 70406.1 956.650   9
   0  -7   2 69009.9 1043.80  11
   0  -7   2 69954.0 908.724   5
   0   7  -2 67790.9 1080.60   2
   0  -7   1 52657.4 814.476   5
   0  -7   1 53363.8 942.413   3
   0   7  -1 53750.9 991.285   2
   0   7  -1 56129.9 833.985   9
   0  -7   1 54793.8 955.451  11
   0   7   0 5047.05 250.417   9
   0   7   0 4958.29 314.016   2
   0  -7   0 5172.89 309.625  11
   0  -7   0 4968.56 266.411   5
   0   7   0 4770.51 232.806  12
   0   7   1 23202.7 526.537   9
   0   7   1 22199.7 451.651  12
   0  -7  -1 22399.0 592.350   5
   0  -7  -1 22392.1 671.411  11
   0   7   1 21903.5 667.681   2
   0  -7  -2 5029.36 340.691  11
   0  -7  -2 4886.40 293.298   5
   0   7   2 5026.46 334.311   2
   0   7   2 4513.04 241.867   9
   0  -7  -3 4560.59 345.401  11
   0   7   3 4189.98 310.420   2
   0  -7  -3 4441.62 297.133   5
   0   7   3 4113.73 236.219   9
   0   7   4 218.261 87.3270   2
   0  -7  -4 24.5425 100.027  11
   0  -7  -4-39.2279 97.2583   6
   0  -7  -5 972.085 190.998  11
   0  -7  -5 959.843 179.324   6
   0   7   5 781.788 145.974   2
   0  -7  -6 3901.23 359.259   6
   0   7   6 4005.01 317.078   2
   0  -7  -6 4369.12 404.174  11
   0   7   6 3864.48 342.081   7
   0  -7  -7 2948.50 348.746  11
   0   7   7 2959.11 314.388   7
   0   7   7 2999.90 285.750   2
   0  -7  -8 1198.81 225.756   6
   0   7   8 1301.12 218.068   7
   0  -8  13 20283.6 965.330  10
   0   8 -13 17603.1 879.543   1
   0  -8  12 2993.12 368.230  10
   0   8 -12 2940.71 351.246   1
   0   8 -11 6054.49 470.843   1
   0  -8  11 7000.46 526.912  10
   0  -8  10 16814.2 769.934  10
   0   8 -10 16031.0 727.757   1
   0   8  -9 2552.11 289.860   1
   0  -8   9 2505.61 310.657  10
   0  -8   8 94911.9 1660.04  10
   0   8  -8 95252.2 1597.74   1
   0   8  -8 98495.9 1212.27   2
   0  -8   7 502.573 122.595  11
   0  -8   7 314.458 125.175  10
   0   8  -7 630.961 110.241   2
   0   8  -7 583.577 142.139   1
   0  -8   6 23655.4 689.852  11
   0   8  -6 24370.6 642.890   2
   0  -8   6 24360.8 768.673  10
   0   8  -6 25074.7 738.348   1
   0  -8   5 8165.83 397.697  11
   0  -8   5 8300.98 430.272  10
   0  -8   5 8116.43 417.539   3
   0   8  -5 7668.08 386.995   1
   0   8  -5 8178.06 387.522   2
   0  -8   4 96.0407 58.3742   5
   0   8  -4 82.1201 81.2326   2
   0  -8   4-17.1847 92.9430   3
   0  -8   4 78.8265 66.9878  11
   0   8  -4 26.5656 57.8645   1
   0   8  -3 14817.0 479.251   9
   0   8  -3 13260.8 510.096   2
   0  -8   3 14229.7 443.725   5
   0  -8   3 14088.4 509.699  11
   0   8  -3 13292.5 444.820   1
   0  -8   3 14271.2 533.088   3
   0   8  -2 16268.7 492.119   9
   0  -8   2 17158.8 571.130  11
   0  -8   2 16758.5 485.775   5
   0  -8   2 16431.8 567.307   3
   0   8  -2 15442.1 567.252   2
   0   8  -1 27137.8 764.763   2
   0  -8   1 26513.8 730.129  11
   0   8  -1 27433.7 631.034  12
   0  -8   1 28418.9 652.566   5
   0   8   0 4991.39 341.866   2
   0   8   0 5294.39 260.680  12
   0  -8   0 5188.74 295.432   5
   0   8   0 5274.36 271.531   9
   0  -8   0 5351.55 346.374  11
   0  -8  -1 8086.94 441.668  11
   0   8   1 7207.97 416.865   2
   0   8   1 8079.22 336.004   9
   0  -8  -2 2652.89 274.971  11
   0   8   2 2582.12 197.347   9
   0   8   2 2418.59 248.680   2
   0  -8  -2 2848.57 241.745   5
   0   8   3 4170.52 328.369   2
   0  -8  -3 4099.52 348.932  11
   0  -8  -3 3558.60 284.645   5
   0  -8  -4 733.364 173.388  11
   0   8   4 890.753 168.805   2
   0  -8  -5 1301.44 230.981  11
   0   8   5 1377.72 207.862   2
   0   8   6 854.375 165.711   2
   0   8   6 1151.35 203.551   7
   0  -8  -6 965.570 211.286  11
   0  -8  -7 14.2916 118.310  11
   0   8   7 331.749 146.200   7
   0  -8  -7-23.1090 140.747   6
   0  -9  12 2101.92 322.600  10
   0   9 -12 1730.06 289.331   1
   0  -9  11 11043.4 675.496  10
   0   9 -11 10904.6 645.524   1
   0  -9  10 18855.1 840.375  10
   0   9 -10 17968.1 788.968   1
   0  -9   9 1774.34 266.861  10
   0   9  -9 1668.73 239.242   1
   0   9  -8 748.046 164.324   1
   0  -9   8 912.076 198.766  10
   0  -9   8 994.857 176.286  11
   0   9  -8 1046.59 155.104   2
   0  -9   7 9747.25 485.623  11
   0   9  -7 10746.0 525.463   1
   0  -9   7 10416.9 552.447  10
   0   9  -7 10383.6 450.258   2
   0   9  -6 4115.40 312.068   1
   0   9  -6 3794.96 281.217   2
   0  -9   6 3819.36 317.305   3
   0  -9   6 3204.70 278.016  11
   0  -9   6 3237.47 302.326  10
   0  -9   5 308.165 123.975   3
   0  -9   5 165.566 72.0091  11
   0   9  -5 127.132 63.9156   1
   0   9  -5 118.606 74.0351   2
   0  -9   5 271.814 82.8049   5
   0  -9   4 5012.36 346.369   3
   0  -9   4 5246.04 290.849   5
   0  -9   4 5435.22 346.029  11
   0   9  -4 5361.33 317.561   1
   0   9  -4 4788.86 332.145   2
   0   9  -3 3002.44 231.061   9
   0  -9   3 2897.58 252.961  11
   0   9  -3 2827.78 257.431   2
   0  -9   3 3353.41 233.165   5
   0  -9   3 2761.94 257.887   3
   0  -9   2 32.4379 78.3555  11
   0   9  -2-20.8218 68.8635  12
   0  -9   2 76.7178 64.9526   5
   0  -9   2 16.8347 75.1206   3
   0   9  -2 19.3524 74.4835   2
   0   9  -2-15.5380 57.3476   9
   0   9  -1 7872.87 359.859  12
   0  -9   1 8218.15 381.448   5
   0   9  -1 8627.56 375.743   9
   0  -9   1 7880.34 433.452  11
   0   9   0 251.310 104.679   2
   0   9   0 308.796 87.2443   9
   0  -9   0 98.1930 92.5580  11
   0  -9   0 316.868 104.874   5
   0  -9  -1 2817.88 246.824   5
   0  -9  -1 2448.37 270.260  11
   0   9   1 2860.42 288.703   2
   0  -9  -2 6529.74 381.103   5
   0   9   2 7165.49 456.576   2
   0  -9  -2 6869.15 457.505  11
   0   9   3 698.502 169.075   2
   0  -9  -3 640.511 133.938   5
   0  -9  -3 626.513 165.983  11
   0  -9  -4 13638.0 705.487  11
   0   9   4 14284.4 663.451   2
   0   9   5 11186.4 600.729   2
   0  -9  -5 10817.0 658.633  11
   0   9   6 182.746 102.864   2
   0  -9  -6-16.8869 153.652  11
   0  10 -12 559.994 179.230   1
   0 -10  12 797.382 247.801  10
   0 -10  11 138.519 97.7767  11
   0  10 -11 34.6455 101.723   1
   0 -10  11 264.726 170.661  10
   0  10 -10 1977.41 278.969   1
   0 -10  10 1268.41 248.061  10
   0 -10  10 1570.08 236.128  11
   0  10  -9 4567.31 393.975   1
   0 -10   9 4061.42 401.928  10
   0 -10   9 4552.32 372.732  11
   0 -10   8 755.415 168.560  11
   0  10  -8 1084.49 194.241   1
   0 -10   8 982.929 222.243  10
   0 -10   8 1057.33 207.512   3
   0  10  -8 1115.46 176.496   2
   0 -10   7 14533.3 617.826  11
   0  10  -7 15414.6 590.811   2
   0 -10   7 14972.7 681.656  10
   0 -10   7 15166.2 668.720   3
   0  10  -7 15100.7 644.873   1
   0 -10   6 9611.39 493.780  11
   0 -10   6 9600.46 518.112   3
   0 -10   6 9044.10 421.705   5
   0  10  -6 9038.88 473.252   1
   0  10  -6 9945.25 486.794   2
   0 -10   5 8355.90 478.895   3
   0  10  -5 6991.10 395.376   1
   0  10  -5 7707.15 434.524   2
   0 -10   5 7769.80 381.136   5
   0 -10   5 7908.66 446.775  11
   0 -10   4 4287.77 344.489   3
   0  10  -4 4038.50 333.473   2
   0 -10   4 4313.68 282.386   5
   0 -10   4 3531.15 302.255  11
   0 -10   3 5896.22 397.988   3
   0 -10   3 7079.70 361.419   5
   0  10  -3 5574.63 359.657  12
   0 -10   3 6487.12 406.453  11
   0  10  -3 6323.57 414.637   2
   0 -10   2 833.144 156.644  11
   0  10  -2 592.957 110.521   9
   0  10  -2 371.312 134.264   2
   0  10  -2 704.185 134.790  12
   0 -10   1 4271.83 356.876  11
   0  10  -1 5193.00 393.438   2
   0 -10   0 57817.4 1306.26  11
   0  10   0 57709.0 1308.45   2
   0 -10  -1 6408.05 457.926  11
   0  10   1 6599.09 460.974   2
   0  10   2 2835.65 318.973   2
   0 -10  -2 2479.62 303.535  11
   0 -10  -3 8944.36 582.008  11
   0  10   3 9434.11 563.151   2
   0 -10  -4 3898.99 417.142  11
   0  10   4 3222.48 353.089   2
   0 -10  -5 1318.63 259.051  11
   0  10   5 1249.42 230.379   2
   0 -11  12 5320.37 465.387  11
   0 -11  11 6975.59 570.665  10
   0  11 -11 6024.38 505.678   1
   0 -11  11 6137.79 477.253  11
   0 -11  10 1258.85 246.481   3
   0 -11  10 1338.21 229.828  11
   0 -11  10 1021.72 248.844  10
   0  11 -10 1265.61 231.001   1
   0 -11   9 1394.42 239.137   3
   0 -11   9 1823.30 290.949  10
   0 -11   9 1490.99 232.396  11
   0  11  -9 1898.69 274.531   1
   0 -11   8 510.701 174.205   3
   0  11  -8 512.836 149.432   1
   0 -11   8 346.703 147.841  11
   0  11  -7 13249.1 619.909   1
   0  11  -7 14160.7 610.679   2
   0 -11   7 14830.6 692.969   3
   0 -11   7 14984.7 664.112  11
   0 -11   6 1012.36 202.175   3
   0  11  -6 666.037 166.754   2
   0  11  -6 900.958 164.037   1
   0 -11   6 841.306 174.013  11
   0  11  -5 885.872 166.749   2
   0 -11   5 943.373 179.068  11
   0 -11   5 1108.32 204.642   3
   0 -11   4 38613.1 1046.37  11
   0  11  -4 40153.2 1080.73   2
   0  11  -4 42346.9 1058.39  12
   0 -11   4 40676.0 1105.73   3
   0  11  -3-40.0936 120.107   2
   0 -11   3-157.617 121.745  11
   0 -11   2 1038.09 192.554  11
   0  11  -2 1197.91 214.061   2
   0 -11   1 59759.9 1379.54  11
   0  11  -1 58740.5 1378.01   2
   0  11   0 7561.12 508.547   2
   0 -11   0 6826.94 492.331  11
   0  11   1 7955.61 534.647   2
   0 -11  -1 8388.21 557.849  11
   0  11   2 2972.98 338.289   2
   0 -11  -2 3145.58 365.495  11
   0 -11  -3 1858.00 284.547  11
   0  11   3 2288.44 303.752   2
   0 -11  -4 355.383 139.964  11
   0 -12  11 7456.44 537.071  11
   0 -12  10 2365.88 298.624  11
   0  12 -10 2050.71 292.638   1
   0 -12   9 5336.25 435.631  11
   0  12  -9 4914.14 432.397   1
   0 -12   9 5311.10 463.413   3
   0 -12   8 7922.16 515.378  11
   0 -12   8 9750.38 610.878   3
   0  12  -7 47.5135 105.779   2
   0 -12   7 50.4143 115.338  11
   0 -12   7 124.734 136.160   3
   0 -12   6 5157.54 431.290   3
   0  12  -6 5067.94 402.929   2
   0 -12   6 4829.96 398.138  11
   0 -12   5 4342.97 402.217   3
   0 -12   5 3448.13 344.378  11
   0  12  -5 3636.37 344.471  12
   0  12  -5 4396.19 385.304   2
   0 -12   4 2002.19 273.662   3
   0 -12   4 1772.15 251.839  11
   0  12  -4 1957.24 267.799   2
   0  12  -3 361.124 147.886   2
   0 -12   3 358.086 130.402  11
   0 -12   2 179.667 117.903  11
   0  12  -2 214.222 159.454   2
   0 -12   1 1014.85 230.872  11
   0  12  -1 1185.98 224.543   2
   0  12   0 16148.2 782.465   2
   0 -12   0 16996.1 812.764  11
   0 -12  -1 4194.47 434.810  11
   0 -12  -2 3165.44 385.630  11
   0 -13   9 700.718 175.604  11
   0 -13   8 33.7472 100.951  11
   0  13  -7-71.1385 138.845  12
   0 -13   7-51.7316 121.352   3
   0  13  -7 327.774 164.216   2
   0 -13   7 79.4631 118.318  11
   0  13  -6 2934.73 323.944   2
   0 -13   6 3466.35 361.248  11
   0 -13   6 3690.26 395.799   3
   0 -13   5 1639.42 253.564  11
   0  13  -5 1366.88 244.847   2
   0 -13   5 1625.55 265.324   3
   0 -13   4 473.606 170.021  11
   0  13  -4 362.676 146.064   2
   0 -13   3 1034.79 215.613  11
   0 -13   2 3778.14 399.513  11
   0 -13   1 4522.20 442.732  11
   1 -13   0 3686.10 416.698  11
   1 -13   1 1494.30 263.928  11
   1 -13   2 155.623 107.788  11
  -1  13  -3 2292.02 309.477   2
   1 -13   3 2527.15 327.484  11
  -1  13  -4-131.601 117.729   2
   1 -13   4-28.2095 113.117  11
   1 -13   5 4418.73 421.981   3
  -1  13  -5 4470.58 402.394  12
  -1  13  -5 4267.55 390.937   2
   1 -13   5 4361.43 414.275  11
  -1  13  -6-98.5311 145.000  12
   1 -13   6 21.4857 95.9941  11
  -1  13  -6 36.0370 108.830   2
   1 -13   6 5.40922 132.492   3
  -1  13  -7 1175.61 219.757   2
   1 -13   7 1099.55 224.696  11
  -1  13  -7 967.563 210.375  12
   1 -13   8 1629.54 257.160  11
   1 -12  -2 4035.38 434.163  11
   1 -12  -1 4436.31 431.242  11
  -1  12   1 3656.24 392.664   2
  -1  12   0 364.403 151.369   2
   1 -12   0 96.6954 106.097  11
   1 -12   1-22.0507 111.877  11
  -1  12  -1-63.9577 140.702   2
   1 -12   2 1028.38 208.926  11
  -1  12  -2 996.242 216.682   2
  -1  12  -3 15733.1 726.365   2
   1 -12   3 15350.6 721.454  11
   1 -12   4 10838.9 616.259   3
  -1  12  -4 11449.1 594.971  12
  -1  12  -4 11464.4 612.234   2
   1 -12   4 11181.0 611.597  11
   1 -12   5 1582.17 255.261   3
   1 -12   5 1435.81 229.840  11
  -1  12  -5 1700.44 244.922   2
  -1  12  -5 1003.76 206.698  12
  -1  12  -6 1845.31 269.956  12
  -1  12  -6 1590.57 231.710   2
   1 -12   6 1597.85 258.783   3
   1 -12   6 1821.90 255.624  11
  -1  12  -7 15717.0 688.073   2
   1 -12   7 17218.0 768.413  11
   1 -12   7 17340.8 806.346   3
   1 -12   8 2252.86 296.514  11
   1 -12   8 2963.12 347.978   3
   1 -12   9 45.4256 98.8004  11
  -1  12  -9 127.839 93.2636   1
   1 -12   9 14.3730 119.299   3
   1 -12  10 371.341 164.884  11
  -1  12 -10 266.668 158.843   1
   1 -11  -4 8099.36 606.841  11
   1 -11  -3-63.5800 142.147  11
  -1  11   3-62.5598 108.085   2
  -1  11   2 505.195 162.817   2
   1 -11  -2 238.208 131.185  11
   1 -11  -1 17369.9 794.202  11
  -1  11   1 14823.1 708.059   2
   1 -11   0 6762.97 488.812  11
  -1  11   0 6974.04 482.863   2
   1 -11   1 13036.8 646.430  11
  -1  11  -1 12482.4 628.642   2
  -1  11  -2 5499.65 413.923   2
   1 -11   2 4707.62 385.861  11
   1 -11   3 1767.04 243.380  11
  -1  11  -3 1658.01 236.347   2
  -1  11  -3 1478.30 207.702  12
   1 -11   3 2121.11 264.312   3
   1 -11   4 2414.02 286.518   3
  -1  11  -4 2932.35 302.500   2
  -1  11  -4 2604.45 282.653  12
   1 -11   4 2518.75 282.457  11
  -1  11  -5-47.0430 98.4468  12
  -1  11  -5 92.4008 102.407   2
   1 -11   5-214.748 160.375   3
   1 -11   5-17.4667 96.0253  11
   1 -11   6 524.739 159.173  11
   1 -11   6 739.306 177.283   3
  -1  11  -6 366.208 118.452   2
   1 -11   7 14608.0 670.959  11
  -1  11  -7 15251.2 626.347   2
   1 -11   7 14953.2 703.649   3
  -1  11  -7 13550.3 653.559   1
   1 -11   8 5635.19 431.397  11
  -1  11  -8 6304.73 466.541   1
   1 -11   8 5681.37 450.705   3
   1 -11   9 713.298 192.582   3
   1 -11   9 613.950 162.835  11
  -1  11  -9 679.017 178.426   1
  -1  11 -10 866.639 213.954   1
   1 -11  10 1117.29 230.408  11
   1 -11  10 1371.32 258.402   3
   1 -11  11 254.582 124.375  11
  -1  10   6 805.713 196.056   2
  -1  10   5 10797.4 622.286   2
   1 -10  -5 11976.6 726.915  11
   1 -10  -4 6468.32 516.573  11
  -1  10   4 6331.46 463.034   2
  -1  10   3 857.905 185.804   2
   1 -10  -3 818.495 189.885  11
  -1  10   2 20299.2 794.273   2
   1 -10  -2 18579.8 797.277  11
   1 -10  -1-23.1121 103.797  11
  -1  10   1-10.3031 100.134   2
  -1  10   0 13820.8 637.473   2
   1 -10   0 13130.4 623.657  11
  -1  10  -1 37.8039 64.4290  12
  -1  10  -1 82.2116 94.4795   2
   1 -10   1 10.3798 84.8935  11
  -1  10  -2 73.9169 77.3089  12
  -1  10  -2 312.337 120.160   2
   1 -10   2 358.803 118.809  11
   1 -10   3 7905.99 454.946  11
  -1  10  -3 8680.82 458.256  12
   1 -10   3 8570.32 490.377   3
  -1  10  -3 7963.27 455.384   2
  -1  10  -4-10.1637 77.5193  12
   1 -10   4 88.7206 106.215   3
   1 -10   4 152.665 84.3639  11
  -1  10  -4-8.70251 82.3620   2
   1 -10   5 4330.95 356.314   3
   1 -10   5 3432.01 308.199  11
  -1  10  -5 4099.92 321.051   2
   1 -10   6 9545.31 508.006  11
   1 -10   6 8954.50 514.751   3
  -1  10  -6 8887.74 491.967   1
  -1  10  -6 9519.29 472.587   2
  -1  10  -7 8069.33 486.680   1
  -1  10  -7 8446.95 436.557   2
   1 -10   7 7047.83 447.046  11
   1 -10   7 7730.46 486.721   3
   1 -10   8 11532.8 641.244  10
   1 -10   8 10880.2 592.921   3
  -1  10  -8 10711.4 593.792   1
   1 -10   8 10637.8 561.613  11
  -1  10  -9 8442.36 550.049   1
   1 -10   9 7881.39 504.172  11
   1 -10   9 8084.74 564.617  10
   1 -10  10 132.166 168.807  10
   1 -10  10-38.8062 99.6487  11
  -1  10 -10-96.8101 121.766   1
   1 -10  11 613.467 215.075  10
  -1  10 -11 822.807 205.654   1
  -1   9   7 608.249 193.568   7
   1  -9  -7 656.328 198.139  11
  -1   9   7 508.085 145.499   2
  -1   9   6 9958.48 566.712   2
   1  -9  -6 9907.86 652.872  11
  -1   9   5 1193.09 206.660   2
   1  -9  -5 1042.44 226.410  11
   1  -9  -4 6393.48 484.993  11
  -1   9   4 5614.85 415.543   2
   1  -9  -3 149.881 103.074  11
  -1   9   3 63.8713 107.933   2
   1  -9  -2 3265.75 318.256  11
  -1   9   2 2568.69 270.108   2
  -1   9   1 4842.58 361.606   2
   1  -9  -1 4239.86 346.927  11
  -1   9   0 259.302 79.3334  12
  -1   9   0 139.911 107.292   2
   1  -9   0 338.658 124.624  11
   1  -9   1 3154.74 277.275  11
  -1   9  -1 2885.11 239.663  12
  -1   9  -1 2726.67 259.350   2
  -1   9  -1 3101.18 211.645   9
   1  -9   2 311.962 101.479  11
   1  -9   2 236.079 72.2111   5
   1  -9   2 146.384 77.8067   3
  -1   9  -2 393.567 116.713   2
  -1   9  -2 93.8785 69.3473  12
  -1   9  -3 443.003 117.081   2
  -1   9  -3 525.571 123.870  12
   1  -9   3 494.974 121.946   3
   1  -9   3 507.576 85.5760   5
   1  -9   3 373.572 114.513  11
   1  -9   4 4114.50 327.922   3
  -1   9  -4 4311.32 314.429   2
   1  -9   4 4196.12 240.711   5
   1  -9   4 4354.75 318.382  11
   1  -9   5 76468.1 1322.72  11
  -1   9  -5 77963.9 1256.49   2
   1  -9   5 76135.6 1360.89   3
  -1   9  -5 78071.2 1326.38   1
  -1   9  -6 9879.93 500.554   1
   1  -9   6 9656.83 499.418   3
   1  -9   6 10156.7 496.437  11
  -1   9  -6 9171.34 428.305   2
   1  -9   7 5354.99 410.945  10
  -1   9  -7 5085.59 382.756   1
   1  -9   7 5154.67 371.317  11
  -1   9  -7 5567.85 327.261   2
   1  -9   8 11493.7 565.858  11
  -1   9  -8 13165.4 636.957   1
   1  -9   8 12995.6 659.452  10
   1  -9   9 4737.51 426.224  10
  -1   9  -9 3998.53 373.835   1
   1  -9  10-108.180 123.037  10
  -1   9 -10 60.8962 106.046   1
  -1   9 -11 1937.16 296.859   1
   1  -9  11 1498.01 263.296  10
   1  -9  12 376.933 198.548  10
  -1   9 -12 286.714 132.207   1
   1  -8  -8 124.875 120.326  11
  -1   8   8 101.246 145.393   7
  -1   8   7 5176.61 392.877   2
  -1   8   7 4711.22 422.437   7
   1  -8  -7 4965.73 435.331   6
   1  -8  -7 4172.68 428.821  11
  -1   8   6 2101.63 250.385   2
   1  -8  -6 1825.21 284.118  11
   1  -8  -5 1300.55 219.885  11
  -1   8   5 1279.98 195.116   2
  -1   8   4 5919.11 392.354   2
   1  -8  -4 5541.79 422.748  11
   1  -8  -3 303.462 114.935  11
  -1   8   3 379.886 119.158   2
   1  -8  -2 27788.2 669.932   5
  -1   8   2 26374.3 785.668   2
   1  -8  -2 27350.6 841.424  11
  -1   8   1 738.611 102.744   9
  -1   8   1 673.087 135.242   2
  -1   8   1 769.075 114.507  12
   1  -8  -1 587.352 136.779  11
   1  -8  -1 583.292 103.140   5
  -1   8   0 4725.99 236.705   9
  -1   8   0 5097.51 336.728   2
   1  -8   0 4508.16 315.226  11
  -1   8   0 4675.73 267.093  12
   1  -8   0 4627.54 246.030   5
  -1   8  -1 28291.9 682.928  12
  -1   8  -1 27862.6 754.541   2
   1  -8   1 28173.1 576.134   5
   1  -8   1 27259.4 750.332   3
   1  -8   1 27198.2 745.911  11
   1  -8   2 59051.0 1069.84  11
   1  -8   2 58723.5 811.667   5
   1  -8   2 60139.8 1097.75   3
  -1   8  -2 57545.7 1060.04   2
  -1   8  -2 61307.0 1049.95  12
  -1   8  -3 24963.5 685.386   2
   1  -8   3 23880.0 679.736  11
   1  -8   3 25118.1 531.272   5
   1  -8   3 25296.7 723.036   3
  -1   8  -4 6619.72 349.238   2
   1  -8   4 7491.37 386.508  11
   1  -8   4 6716.10 383.493   3
  -1   8  -4 7143.61 372.403   1
   1  -8   5 713.645 91.9158   8
   1  -8   5 1289.80 184.484   3
  -1   8  -5 1035.35 147.212   2
   1  -8   5 759.247 139.003  11
   1  -8   5 463.143 145.368  10
  -1   8  -5 531.012 125.498   1
  -1   8  -6 22202.8 724.809   1
   1  -8   6 21090.2 678.438  11
   1  -8   6 20849.1 732.236  10
   1  -8   6 21027.6 526.856   8
  -1   8  -6 21601.8 598.253   2
  -1   8  -7 2063.73 246.165   1
   1  -8   7 2249.54 204.054   8
   1  -8   7 2270.46 263.890  10
  -1   8  -7 2221.16 191.125   2
   1  -8   8 244.138 127.170  10
   1  -8   8 284.606 110.432   8
  -1   8  -8 608.024 168.841   1
   1  -8   9 29742.0 995.997  10
   1  -8   9 29238.6 834.457   8
  -1   8  -9 28769.4 950.575   1
   1  -8  10 1264.21 234.576  10
  -1   8 -10 1018.49 203.757   1
  -1   8 -11 599.373 166.405   1
   1  -8  11 545.394 174.284  10
  -1   8 -12 9776.59 647.155   1
   1  -8  12 9434.51 647.828  10
   1  -8  13 4130.72 416.869   8
   1  -7  -9 93.6583 129.859   6
  -1   7   9 401.720 152.886   7
   1  -7  -8 5853.01 501.140  11
   1  -7  -8 5665.69 458.160   6
  -1   7   8 5009.29 431.660   7
  -1   7   7 4992.22 362.874   2
   1  -7  -7 4130.81 403.296  11
   1  -7  -7 4623.88 396.565   6
  -1   7   7 4866.67 406.830   7
   1  -7  -6 10902.5 568.592   6
   1  -7  -6 11539.8 630.262  11
  -1   7   6 11247.0 525.115   2
  -1   7   5 33.5300 81.3760   2
   1  -7  -5 99.5398 103.612   6
   1  -7  -5 162.985 109.345  11
  -1   7   4 48451.5 1031.30   2
   1  -7  -4 46796.8 1127.21  11
   1  -7  -3 25104.9 779.959  11
  -1   7   3 25747.9 507.187   9
  -1   7   3 25119.3 725.506   2
  -1   7   2 8589.88 287.676   9
  -1   7   2 8372.42 411.052   2
   1  -7  -2 8730.46 347.505   5
   1  -7  -2 8410.88 430.785  11
   1  -7  -1 15215.4 547.376  11
   1  -7  -1 14645.9 422.916   5
  -1   7   1 13995.7 369.842   9
  -1   7   1 14589.7 528.783   2
  -1   7   1 15381.6 427.772  12
   1  -7   0 22644.1 491.929   5
   1  -7   0 22713.2 638.353  11
  -1   7   0 23727.7 487.764   9
  -1   7   0 23264.4 648.586   2
  -1   7   0 22555.9 548.688  12
  -1   7  -1 3912.33 264.279   2
   1  -7   1 3979.72 267.601   3
   1  -7   1 3659.05 254.249  11
   1  -7   1 3763.79 192.838   5
  -1   7  -1 3965.80 207.976   9
  -1   7  -1 3825.12 242.071  12
   1  -7   2 6892.91 254.401   5
   1  -7   2 7104.79 353.783   3
   1  -7   2 6775.11 338.368  11
  -1   7  -2 7623.44 355.608   2
   1  -7   3 1035.86 104.254   5
   1  -7   3 1036.36 139.767  11
   1  -7   3 876.413 138.578   3
   1  -7   3 938.549 69.3303   8
  -1   7  -3 986.259 136.952   2
  -1   7  -3 873.476 125.418   1
   1  -7   4 29005.5 704.886  11
   1  -7   4 30196.7 741.775   3
  -1   7  -4 29375.3 665.500   2
   1  -7   4 31450.1 495.176   8
  -1   7  -4 30704.6 735.088   1
   1  -7   4 31130.1 780.072  10
   1  -7   5 2613.66 226.378  11
  -1   7  -5 2501.05 191.967   2
  -1   7  -5 2429.39 231.672   1
   1  -7   5 2712.57 180.794   8
   1  -7   5 2285.15 236.318  10
  -1   7  -6 591.972 98.5704   2
   1  -7   6 506.527 135.473  10
   1  -7   6 415.587 89.6540   8
  -1   7  -6 364.246 119.687   1
  -1   7  -7 1740.40 211.342   1
  -1   7  -7 1904.16 156.169   2
   1  -7   7 1724.86 227.531  10
  -1   7  -8 2431.65 267.579   1
   1  -7   8 2551.11 286.641  10
  -1   7  -9 3975.16 352.197   1
   1  -7   9 4955.96 405.482  10
   1  -7  10 7904.54 528.388  10
  -1   7 -10 9275.25 559.947   1
  -1   7 -11 1592.99 256.698   1
   1  -7  11 2000.13 294.140  10
   1  -7  12 158.200 141.872  10
  -1   7 -12 140.957 117.559   1
   1  -7  13 7957.61 605.524  10
  -1   7 -13 7197.63 566.293   1
  -1   6  10 15733.6 788.993   7
   1  -6 -10 15759.9 804.022   6
   1  -6  -9 4602.13 424.145   6
  -1   6   9 5441.68 446.947   7
  -1   6   8 13482.1 662.795   7
   1  -6  -8 12036.3 682.418  11
   1  -6  -8 12073.0 632.575   6
   1  -6  -7 6973.02 498.396  11
   1  -6  -7 7051.96 466.971   6
  -1   6   7 7500.33 468.029   7
  -1   6   7 7155.57 396.923   2
  -1   6   6 6119.59 361.073   2
   1  -6  -6 5806.85 425.371  11
   1  -6  -6 4988.41 369.416   6
  -1   6   5 1141.87 129.098  10
   1  -6  -5 888.766 169.691   6
  -1   6   5 1383.10 175.004   2
   1  -6  -5 1283.90 201.668  11
   1  -6  -4 28155.6 768.729   6
  -1   6   4 25708.3 573.374  10
  -1   6   4 27775.1 511.396   9
   1  -6  -4 26784.0 796.121  11
  -1   6   4 25895.5 696.919   2
  -1   6   3 398.454 101.944   2
  -1   6   3 384.849 67.1308   9
   1  -6  -3 377.840 64.8506   1
   1  -6  -3 416.398 110.237  11
   1  -6  -3 486.346 100.634   5
   1  -6  -3 505.887 121.175   6
  -1   6   2 57313.0 673.883   9
   1  -6  -2 58657.8 1040.86  11
  -1   6   2 57343.2 976.599   2
   1  -6  -2 58449.6 825.451   5
  -1   6   1 12753.4 451.648   2
   1  -6  -1 12165.3 349.191   5
   1  -6  -1 12660.9 456.895  11
  -1   6   1 12342.0 314.363   9
  -1   6   1 12473.6 359.541  12
  -1   6   1 11745.7 203.194   8
   1  -6   0 25726.8 468.440   5
  -1   6   0 25785.6 545.173  12
  -1   6   0 27527.9 479.483   9
  -1   6   0 26276.9 628.181   2
   1  -6   0 25526.3 616.293  11
  -1   6  -1 568.412 76.8214   9
  -1   6  -1 339.369 76.5250  12
   1  -6   1 290.838 54.2014   5
   1  -6   1 286.044 86.0801  11
   1  -6   1 251.324 75.7484   3
  -1   6  -1 327.082 86.8321   2
   1  -6   2 8474.12 344.183  11
   1  -6   2 8642.39 352.278   3
  -1   6  -2 7942.58 331.469   2
   1  -6   2 8022.71 246.382   5
   1  -6   2 8141.83 170.762   8
  -1   6  -2 8462.76 326.586   1
   1  -6   3 20653.2 556.730   3
   1  -6   3 21716.8 587.451  10
   1  -6   3 20586.1 359.481   8
   1  -6   3 20113.1 532.504  11
  -1   6  -3 20596.0 515.324   2
  -1   6  -3 20554.8 543.946   1
   1  -6   4 4325.64 283.096  10
  -1   6  -4 3884.96 221.926   2
  -1   6  -4 4164.61 261.792   1
   1  -6   4 3557.11 188.137   8
   1  -6   4 4253.33 260.549  11
  -1   6  -5 37159.9 825.977   1
   1  -6   5 36716.0 667.174   8
   1  -6   5 38016.8 863.043  10
  -1   6  -5 38274.3 664.661   2
  -1   6  -6 11675.7 355.299   2
   1  -6   6 11169.0 497.776  10
  -1   6  -6 11534.2 496.481   1
  -1   6  -7 68121.8 805.289   2
   1  -6   7 67167.9 1264.42  10
  -1   6  -7 65335.9 1221.75   1
   1  -6   8 171.631 125.125  10
  -1   6  -8 209.504 111.795   1
  -1   6  -9 5155.91 303.116   4
   1  -6   9 5230.43 404.387  10
  -1   6  -9 4708.10 372.040   1
   1  -6  10 30352.3 991.240  10
  -1   6 -10 30144.6 978.164   1
   1  -6  11-98.4591 143.772  10
  -1   6 -11 239.531 122.076   1
  -1   6 -12 4095.08 412.205   1
   1  -6  12 3873.85 405.570  10
   1  -6  13 483.966 188.915  10
  -1   6 -13 202.006 137.782   1
  -1   5  11 4037.03 415.539   7
   1  -5 -10 621.620 202.490   6
  -1   5  10 380.990 154.407   7
  -1   5   9-150.290 119.660   7
   1  -5  -9-95.2376 121.952   6
  -1   5   8 845.591 179.942   7
   1  -5  -8 1188.09 228.826  11
   1  -5  -8 1093.05 203.596   6
  -1   5   7 298.499 122.317   7
  -1   5   7 215.497 78.0139   2
   1  -5  -7 202.810 127.729  11
   1  -5  -7 189.087 102.246   6
  -1   5   6 2861.19 229.634   2
   1  -5  -6 2598.71 261.907   6
  -1   5   6 2689.69 201.203  10
   1  -5  -6 2661.52 280.477  11
  -1   5   5 1818.08 181.677   2
   1  -5  -5 2057.28 225.427  11
   1  -5  -5 1634.01 195.722   6
   1  -5  -5 1908.06 141.819   1
  -1   5   5 1711.12 154.326  10
  -1   5   5 1760.24 136.224   9
  -1   5   4 2204.01 140.138   9
  -1   5   4 1877.91 150.240  10
   1  -5  -4 1860.14 197.003   6
  -1   5   4 2225.92 192.620   2
   1  -5  -4 1798.71 205.290  11
   1  -5  -4 2142.71 140.917   1
   1  -5  -3 17895.8 563.740  11
   1  -5  -3 17689.1 376.309   1
  -1   5   3 17651.7 357.204   9
  -1   5   3 18126.0 518.088   2
   1  -5  -3 16999.8 522.718   6
  -1   5   2 7128.84 315.472   2
  -1   5   2 7085.65 216.595   9
   1  -5  -2 6962.39 318.277   6
   1  -5  -2 7658.59 345.835  11
   1  -5  -2 6991.77 263.449   5
  -1   5   1 53.3358 50.0903   2
   1  -5  -1 97.2699 37.5821   5
   1  -5  -1 5.36121 49.1575  11
  -1   5   1 90.4797 23.3490   8
  -1   5   1 166.551 51.0496  12
  -1   5   1 89.8082 33.6395   9
  -1   5   0 8841.04 159.442   8
  -1   5   0 9461.01 251.967   9
   1  -5   0 9699.72 347.342   3
   1  -5   0 9451.94 249.593   5
   1  -5   0 9268.63 335.545  11
  -1   5   0 9596.69 305.697  12
  -1   5   0 9670.63 345.031   2
   1  -5   1 11632.7 185.541   8
   1  -5   1 12096.7 265.512   5
   1  -5   1 12232.1 381.282   3
  -1   5  -1 12311.6 304.036   9
   1  -5   1 11980.5 369.572  11
  -1   5  -1 12260.6 377.120   2
   1  -5   2 11783.9 369.440  11
  -1   5  -2 12150.5 368.363   1
   1  -5   2 12666.4 239.414   8
   1  -5   2 12259.2 382.910   3
  -1   5  -2 12073.7 362.748   2
   1  -5   3 77497.0 1041.61  10
  -1   5  -3 76971.3 1002.42   1
   1  -5   3 74991.8 741.985   8
  -1   5  -3 76369.0 880.632   2
   1  -5   3 77528.4 966.585  11
  -1   5  -4 8240.54 281.758   2
  -1   5  -4 8275.06 354.887   1
   1  -5   4 7947.92 362.546  10
  -1   5  -5 72547.1 1104.69   1
   1  -5   5 75554.5 1158.18  10
  -1   5  -5 73810.9 799.544   2
   1  -5   6 10004.7 450.200  10
  -1   5  -6 10053.3 440.195   1
  -1   5  -6 9579.54 275.819   2
  -1   5  -7 9025.59 442.197   1
  -1   5  -7 9002.40 243.472   2
   1  -5   7 7977.47 424.776  10
  -1   5  -8 354.555 101.375   4
   1  -5   8 344.295 113.989  10
  -1   5  -8 100.071 81.4906   1
  -1   5  -9 3114.91 305.633   1
  -1   5  -9 3476.45 244.525   4
   1  -5   9 3798.60 334.912  10
  -1   5 -10 38283.9 1072.96   1
   1  -5  10 39005.0 1086.29  10
   1  -5  11 10546.6 608.626  10
  -1   5 -11 11506.3 622.968   1
   1  -5  12 33.0059 107.386  10
  -1   5 -12-136.628 129.051   1
   1  -5  13 15822.0 806.799  10
  -1   5 -13 15588.1 801.893   1
  -1   4  12 3464.27 393.728   7
  -1   4  11 7912.41 550.540   7
   1  -4 -11 7191.15 544.134   6
  -1   4  10 6655.89 482.573   7
   1  -4 -10 6020.15 470.662   6
   1  -4  -9 850.455 183.160   6
  -1   4   9 731.497 175.022   7
   1  -4  -8 2422.94 288.765  11
  -1   4   8 2515.94 201.670   2
   1  -4  -8 2475.33 275.056   6
  -1   4   8 2456.95 264.718   7
  -1   4   7 76023.6 1349.79   7
   1  -4  -7 72156.0 1331.20   6
  -1   4   7 76975.3 1070.56   2
   1  -4  -7 72429.8 1413.28  11
   1  -4  -7 77885.0 1032.43   1
  -1   4   7 73538.9 1058.87  10
  -1   4   6 142.101 59.8141   2
   1  -4  -6 154.955 97.1018   6
  -1   4   6 97.1560 68.8510  10
   1  -4  -6 68.1938 52.4011   1
   1  -4  -6 165.987 105.572  11
   1  -4  -5 38374.1 891.291  11
   1  -4  -5 37440.3 839.782   6
  -1   4   5 40077.4 733.424   2
   1  -4  -5 39248.9 633.744   1
  -1   4   5 38774.1 678.283  10
   1  -4  -4 13029.4 336.746   1
  -1   4   4 12346.1 362.954  10
   1  -4  -4 12784.4 453.369   6
  -1   4   4 13430.3 414.837   2
   1  -4  -4 12838.9 478.565  11
   1  -4  -3 16359.6 476.048   6
  -1   4   3 16307.9 314.018   9
   1  -4  -3 15962.6 488.157  11
  -1   4   3 16970.2 448.461   2
   1  -4  -3 16405.1 349.688   1
   1  -4  -2 93605.1 1089.30  11
   1  -4  -2 94114.8 870.554   5
  -1   4   2 93275.0 678.354   9
  -1   4   2 96258.3 1026.45   2
   1  -4  -2 93911.7 1037.23   6
   1  -4  -1 133547. 896.670   5
   1  -4  -1 134212. 1186.95  11
  -1   4   1 133039. 1169.12   2
  -1   4   1 133527. 714.979   8
  -1   4   1 134458. 980.560  12
  -1   4   0 5164.85 205.381  12
  -1   4   0 4972.37 120.657   8
  -1   4   0 5347.25 166.005   9
  -1   4   0 5090.30 223.776   2
   1  -4   0 5006.83 153.218   5
   1  -4   0 5443.33 227.988  11
   1  -4   0 5051.21 125.527   8
   1  -4   0 5037.76 223.398   3
   1  -4   1 115357. 610.804   8
   1  -4   1 119176. 701.652   5
   1  -4   1 114612. 1036.00   3
  -1   4  -1 113974. 1008.33   2
   1  -4   1 110297. 996.742  11
  -1   4  -1 113903. 968.191   1
   1  -4   2 3554.17 201.533  10
   1  -4   2 3487.01 139.720   8
   1  -4   2 3433.77 184.496  11
  -1   4  -2 3491.42 173.388   2
  -1   4  -2 3728.29 194.733   1
  -1   4  -3 9928.62 342.702   1
   1  -4   3 10365.2 362.145  10
  -1   4  -3 10183.4 280.187   2
  -1   4  -4 168.884 71.2446   1
   1  -4   4 46.5379 62.3393  10
  -1   4  -4 45.0531 34.6273   2
  -1   4  -5 4301.20 164.889   2
   1  -4   5 4605.50 277.236  10
  -1   4  -5 3841.54 248.760   1
  -1   4  -6 35080.9 794.171   1
   1  -4   6 35462.0 800.469  10
  -1   4  -6 35810.5 433.527   2
   1  -4   7 4718.45 315.217  10
  -1   4  -7 4395.26 303.778   1
  -1   4  -7 4745.60 254.785   4
  -1   4  -8 88.0434 97.6213   1
  -1   4  -8 107.024 58.2790   4
   1  -4   8-60.6994 94.3367   7
   1  -4   8 9.57604 98.5842  10
   1  -4   9 12226.8 563.230  10
  -1   4  -9 11537.4 549.599   1
  -1   4  -9 11740.9 436.894   4
   1  -4   9 11529.8 540.368   7
  -1   4 -10 134.023 87.7839   1
   1  -4  10 240.493 120.377   7
   1  -4  11 2995.77 324.654   7
   1  -4  11 2699.30 312.639  10
  -1   4 -11 3124.17 326.910   1
   1  -4  12 3676.13 373.221   7
   1  -4  12 3064.28 347.366  10
  -1   4 -12 3967.10 389.410   1
   1  -4  13 3111.43 367.656  10
  -1   4 -13 2709.01 337.681   1
  -1   4 -14 416.406 142.260   1
   1  -4  14 778.203 228.107  10
   1  -3 -12 1443.27 247.221   6
  -1   3  12 1421.29 253.694   7
   1  -3 -11 766.344 208.541   6
  -1   3  11 699.222 194.630   7
  -1   3  10 409.525 153.413   7
   1  -3 -10 435.740 150.484   6
   1  -3  -9 10203.3 552.335   6
  -1   3   9 10531.6 458.771  10
  -1   3   9 10464.9 548.191   7
  -1   3   8 2173.38 203.720  10
   1  -3  -8 1939.35 185.195   1
   1  -3  -8 1938.95 236.821   6
  -1   3   8 1529.70 211.636   7
  -1   3   8 2143.45 165.778   2
   1  -3  -7 28596.2 643.470   1
   1  -3  -7 28373.1 838.037  11
  -1   3   7 29265.3 590.453   2
  -1   3   7 28736.1 658.771  10
   1  -3  -7 28704.0 807.351   6
  -1   3   7 29032.1 799.516   7
  -1   3   6 79666.1 1021.58  10
  -1   3   6 82944.1 1260.47   7
   1  -3  -6 80351.4 1248.42   6
   1  -3  -6 81259.4 1310.00  11
   1  -3  -6 82787.6 1000.97   1
  -1   3   5 23109.1 509.670  10
   1  -3  -5 22902.2 618.545   6
   1  -3  -5 22957.5 644.377  11
  -1   3   5 23260.9 498.024   2
   1  -3  -5 23059.6 486.908   1
   1  -3  -4 1207.45 143.318  11
   1  -3  -4 1057.64 98.6415   1
  -1   3   4 1130.85 110.371  10
   1  -3  -4 833.925 114.236   6
  -1   3   4 1128.99 110.771   2
  -1   3   3 78852.6 850.293   2
   1  -3  -3 81295.6 1002.58  11
   1  -3  -3 80328.5 747.327   1
   1  -3  -2 13632.5 296.311   5
  -1   3   2 13827.2 220.940   9
  -1   3   2 14346.6 349.150   2
   1  -3  -2 14640.1 369.391   6
   1  -3  -2 14413.8 381.807  11
   1  -3  -1 104370. 667.559   5
   1  -3  -1 107072. 895.066   6
  -1   3   1 103976. 619.184   8
  -1   3   1 104112. 775.552  12
   1  -3  -1 103206. 914.108  11
  -1   3   1 107679. 642.842   5
  -1   3   1 104273. 898.579   2
   1  -3   0 47120.8 364.831   8
  -1   3   0 47972.7 366.879   8
   1  -3   0 47056.5 415.074   9
   1  -3   0 47607.2 578.081  11
   1  -3   0 47910.5 584.265   3
   1  -3   0 47409.8 361.995   5
  -1   3   0 47122.1 551.256  12
   1  -3   1 85.5943 43.1297   3
  -1   3  -1 80.0478 41.0821   1
  -1   3  -1 88.8498 38.5238   2
   1  -3   1 28.6120 20.7713   8
   1  -3   1 48.3376 36.2955  11
   1  -3   2 41262.9 492.056   8
  -1   3  -2 42082.5 497.649   2
  -1   3  -2 40210.8 588.700   1
   1  -3   2 41603.7 615.797  10
  -1   3  -3 63026.4 583.989   2
  -1   3  -3 65212.5 820.311   1
   1  -3   3 65070.2 835.898  10
  -1   3  -4 19097.1 298.818   2
  -1   3  -4 18922.0 480.148   1
   1  -3   5 148122. 1454.13  10
  -1   3  -5 152324. 1470.32   1
  -1   3  -5 148959. 769.474   2
   1  -3   5 149887. 1418.40   7
  -1   3  -5 152005. 1246.49   4
   1  -3   6 17277.0 535.012  10
  -1   3  -6 17836.5 453.529   4
  -1   3  -6 18723.0 558.767   1
   1  -3   6 17914.3 535.180   7
   1  -3   7 2256.46 216.948  10
  -1   3  -7 2541.08 186.533   4
   1  -3   7 2366.71 219.826   7
  -1   3  -7 2664.50 235.868   1
   1  -3   8 4861.01 327.826   7
  -1   3  -8 5211.90 342.926   1
  -1   3  -8 5525.86 288.801   4
   1  -3   8 5045.03 337.217  10
   1  -3   9 4864.45 352.216   7
   1  -3   9 4804.64 350.675  10
  -1   3  -9 4985.62 289.453   4
  -1   3  -9 5426.37 370.403   1
   1  -3  10 11969.4 575.081  10
  -1   3 -10 11042.3 558.716   1
   1  -3  10 11638.9 571.367   7
   1  -3  11 13911.7 664.767   7
   1  -3  11 13528.9 649.031  10
  -1   3 -11 13086.8 641.346   1
  -1   3 -12 10.1780 104.775   1
   1  -3  12 346.893 174.446   7
   1  -3  12 22.8939 131.007  10
   1  -3  13 156.909 132.399   7
  -1   3 -13-92.3667 108.121   1
  -1   3 -14 3990.40 421.907   1
  -1   2  13 22979.5 979.416   7
   1  -2 -12 1367.81 264.833   6
  -1   2  12 1274.66 248.301   7
  -1   2  11 1457.43 245.478   7
   1  -2 -11 1431.62 249.268   6
  -1   2  10 37767.3 926.780  10
   1  -2 -10 35862.0 1068.07   6
   1  -2 -10 35395.9 900.304   1
  -1   2  10 35479.9 1035.02   7
  -1   2   9 2193.97 256.119   7
   1  -2  -9 2050.07 248.529   6
   1  -2  -9 2681.20 238.601   1
  -1   2   9 2306.25 226.146  10
  -1   2   8 2657.78 221.026  10
   1  -2  -8 2541.77 213.556   1
  -1   2   8 2647.41 257.070   7
   1  -2  -8 2597.56 260.122   6
  -1   2   8 3128.71 170.137   2
  -1   2   7 8677.20 362.861  10
   1  -2  -7 8907.75 366.722   1
   1  -2  -7 9126.71 440.588   6
  -1   2   7 9648.09 292.401   2
  -1   2   7 8535.59 418.749   7
   1  -2  -6 730.437 134.371  11
   1  -2  -6 662.017 96.9557   1
  -1   2   6 676.187 109.453  10
   1  -2  -6 625.677 119.305   6
  -1   2   6 642.384 79.1742   2
  -1   2   6 640.768 124.672   7
   1  -2  -5 2836.34 173.782   1
  -1   2   5 2835.69 178.798  10
   1  -2  -5 3002.06 224.431  11
   1  -2  -5 2814.74 211.558   6
  -1   2   5 2933.15 212.407   7
  -1   2   5 3208.90 163.131   2
   1  -2  -4 2502.94 178.088   6
   1  -2  -4 2835.09 157.719   1
  -1   2   4 2707.89 160.637  10
  -1   2   4 2783.37 145.317   2
   1  -2  -4 2799.68 194.613  11
   1  -2  -3 18746.5 436.693  11
   1  -2  -3 19384.8 360.127   1
  -1   2   3 19135.0 376.020  10
   1  -2  -3 19364.9 427.874   6
  -1   2   3 19808.1 363.159   2
   1  -2  -2 58425.5 670.114  11
  -1   2   2 59450.3 598.549   2
   1  -2  -2 57766.5 640.193   6
  -1   2   1 6863.43 132.728   5
  -1   2   1 6894.56 193.231   2
   1  -2  -1 6636.01 132.157   5
   1  -2  -1 6554.42 185.123   6
   1  -2  -1 6652.21 170.408  12
   1  -2  -1 6866.42 201.160  11
  -1   2   1 6698.48 150.440   8
  -1   2   1 6832.92 176.079  12
  -1   2   0 404048. 1395.13  12
   1  -2   0 406741. 978.077   9
  -1   2   0 402173. 1042.77   8
   1  -2   0 406958. 1402.67   3
   1  -2   0 403452. 1021.29   8
  -1   2   0 405905. 1402.90   2
  -1   2  -1 70717.5 553.481   2
  -1   2  -1 70812.1 643.279   1
   1  -2   1 70101.0 651.322  10
   1  -2   1 70300.9 529.291   8
   1  -2   2 1425.01 72.7495   2
   1  -2   2 1347.17 106.397  10
  -1   2  -2 1308.35 102.930   1
  -1   2  -2 1339.50 74.2150   2
  -1   2  -3 11725.3 202.518   2
   1  -2   3 12310.5 195.838   2
   1  -2   3 11917.1 329.281  10
   1  -2   3 12073.1 319.681   7
  -1   2  -3 12044.9 330.721   1
   1  -2   4 163882. 1337.09  10
  -1   2  -4 160796. 703.514   2
   1  -2   4 164902. 1307.47   7
  -1   2  -4 163998. 1181.37   4
  -1   2  -4 166797. 1359.70   1
  -1   2  -5 58855.2 881.831   1
   1  -2   5 58339.1 869.987  10
  -1   2  -5 58113.5 759.512   4
   1  -2   5 58434.2 857.670   7
   1  -2   6 430.022 94.4451   7
  -1   2  -6 396.940 98.9426   1
  -1   2  -6 636.981 94.3683   4
   1  -2   6 500.130 103.369  10
  -1   2  -7 42119.6 750.353   4
   1  -2   7 40126.3 845.363   7
  -1   2  -7 41039.5 861.865   1
   1  -2   7 40184.5 840.516  10
   1  -2   8 2101.11 225.769   7
   1  -2   8 1882.40 208.502  10
  -1   2  -8 2101.68 216.938   1
  -1   2  -8 2347.95 193.549   4
  -1   2  -9 13834.8 572.800   1
  -1   2  -9 13698.9 485.017   4
   1  -2   9 12929.5 547.126  10
   1  -2   9 12812.6 561.172   7
  -1   2 -10 7554.82 454.757   1
  -1   2 -10 7377.93 376.621   4
   1  -2  10 7803.42 457.503  10
   1  -2  10 6707.84 439.025   7
  -1   2 -11 12111.3 603.623   1
   1  -2  11 11742.2 588.212  10
   1  -2  11 11047.0 591.142   7
  -1   2 -12 19627.8 814.350   1
   1  -2  12 21171.4 824.362  10
   1  -2  12 18962.8 818.714   7
   1  -2  13 1880.21 290.945   7
  -1   2 -13 1842.53 268.745   1
   1  -1 -13-160.692 187.805   6
  -1   1  13 93.7878 126.440   7
   1  -1 -12 80.2506 112.195   6
  -1   1  12 246.019 123.598   7
   1  -1 -11-42.5115 112.204   6
  -1   1  11 62.7975 83.9591  10
  -1   1  11 82.6319 106.783   7
   1  -1 -11 34.0872 72.4285   1
  -1   1  10 2737.80 290.324   7
   1  -1 -10 2469.19 250.773   1
   1  -1 -10 2018.85 256.316   6
  -1   1  10 2290.42 240.188  10
  -1   1   9 182.631 80.1751  10
   1  -1  -9 351.447 139.675   6
  -1   1   9 352.608 125.701   7
   1  -1  -9 447.968 111.711   1
  -1   1   8 50651.0 552.686   2
   1  -1  -8 50186.3 937.212   1
  -1   1   8 49043.7 1028.77   7
  -1   1   8 48594.7 923.001  10
  -1   1   7 7158.16 207.819   2
  -1   1   7 7352.15 381.986   7
  -1   1   7 7643.74 341.363  10
   1  -1  -7 7045.70 328.846   1
  -1   1   6 150.483 64.9404  10
   1  -1  -6 171.160 68.4653   1
  -1   1   6 163.208 37.0096   2
  -1   1   6 304.067 94.2329   7
  -1   1   5 18313.4 438.182  10
   1  -1  -5 18080.4 433.067   1
   1  -1  -5 16948.7 487.782  11
  -1   1   5 17994.6 309.331   2
  -1   1   5 17009.0 470.253   7
   1  -1  -4 7211.80 246.136   1
   1  -1  -4 7390.62 285.625  11
  -1   1   4 7590.31 284.380   7
  -1   1   4 7959.23 198.433   2
  -1   1   4 7053.79 244.614  10
  -1   1   3 35496.3 395.039   2
  -1   1   3 36945.3 493.521  10
   1  -1  -3 37246.3 551.290  11
   1  -1  -3 37416.1 490.806   1
   1  -1  -2 30088.7 378.097   1
  -1   1   2 30733.3 343.034   2
   1  -1  -2 29934.8 412.948  11
   1  -1  -2 30778.1 347.627   2
   1  -1  -2 30671.2 401.660   6
  -1   1   1 4059.70 117.625   2
   1  -1  -1 4270.50 115.691   8
  -1   1   1 4099.98 111.311   6
  -1   1   1 4243.38 113.833   8
   1  -1  -1 4380.58 123.762   2
   1  -1  -1 4384.77 114.730   6
  -1   1   1 4252.27 123.369  11
   1  -1  -1 4056.98 121.848  11
   1  -1   0 2679.40 84.7482   3
  -1   1   0 2554.73 95.6715  12
   1  -1   0 2713.96 83.6823   8
   1  -1   0 2770.12 88.0538  11
  -1   1   0 2818.39 92.5129   2
  -1   1  -1 334751. 976.552   2
   1  -1   1 331428. 1204.48  10
   1  -1   1 335024. 941.569   2
   1  -1   1 337324. 1235.88   1
  -1   1  -1 332684. 1231.03   1
   1  -1   1 335608. 1201.53   8
   1  -1   2 240624. 1184.06  10
  -1   1  -2 240394. 831.057   2
  -1   1  -2 238657. 1207.93   1
  -1   1  -2 234459. 1151.32   4
   1  -1   2 239510. 1137.79   7
   1  -1   2 244590. 792.478   2
   1  -1   3 85985.2 461.987   2
  -1   1  -3 85692.0 825.241   1
  -1   1  -3 86926.5 784.246   4
   1  -1   3 86167.6 803.200   7
  -1   1  -4 27946.3 500.722   4
   1  -1   4 28081.9 524.959   7
   1  -1   4 29284.4 266.834   2
  -1   1  -4 28090.6 532.692   1
   1  -1   4 27492.6 513.803  10
   1  -1   5 51172.3 771.738  10
  -1   1  -5 51697.5 794.668   1
  -1   1  -5 51930.3 739.920   4
   1  -1   5 49269.3 332.518   2
   1  -1   5 51795.3 799.976   7
  -1   1  -6 18707.2 482.372   4
   1  -1   6 17972.5 520.917   7
  -1   1  -6 17730.5 509.011   1
   1  -1   6 17762.4 498.759  10
   1  -1   7 84724.2 1227.26   7
   1  -1   7 84496.8 1174.07  10
  -1   1  -7 85628.9 1208.58   1
  -1   1  -8 2868.80 243.227   1
   1  -1   8 2377.54 220.914  10
  -1   1  -8 3144.96 233.813   4
   1  -1   8 2555.32 239.141   7
  -1   1  -9 736.868 138.409   1
   1  -1   9 622.519 148.852   7
   1  -1   9 915.090 160.665  10
  -1   1  -9 1121.19 154.366   4
   1  -1  10 16480.3 678.656   7
  -1   1 -10 16140.0 571.039   4
   1  -1  10 16632.4 643.224  10
  -1   1 -10 16016.1 643.565   1
   1  -1  11 49.5765 96.8051   7
  -1   1 -11 1.86626 79.8349   1
   1  -1  11-29.8037 92.4516  10
  -1   1 -12 1898.94 257.395   1
   1  -1  12 1807.16 269.040   7
   1  -1  13 95.2143 135.432   7
  -1   1 -13 264.136 169.217   6
   1   0 -13 61.1924 125.458   6
  -1   0  13-215.703 138.697   7
   1   0 -13 126.113 116.101   1
   1   0 -12 30786.3 967.697   1
   1   0 -12 27938.9 1023.79   6
  -1   0  12 29991.9 951.733  10
  -1   0  12 31421.1 1048.04   7
  -1   0  11 713.811 152.066  10
  -1   0  11 525.679 168.291   7
   1   0 -11 786.686 160.089   1
  -1   0  10 799.607 154.841  10
   1   0 -10 761.058 148.017   1
  -1   0  10 573.029 153.329   7
  -1   0   9 5880.48 354.558  10
  -1   0   9 6359.92 394.820   7
   1   0  -9 6034.65 356.026   1
  -1   0   8 16576.0 544.963  10
  -1   0   8 16778.7 586.894   7
   1   0  -8 16799.5 549.948   1
  -1   0   7 10493.7 402.117  10
  -1   0   7 10622.8 192.797   2
  -1   0   7 11057.7 442.528   7
   1   0  -7 11115.5 413.608   1
  -1   0   6 41119.5 380.073   2
  -1   0   6 40750.2 721.342  10
  -1   0   6 41358.8 779.557   7
   1   0  -6 41124.5 726.795   1
  -1   0   5 143743. 687.745   2
   1   0  -5 145487. 1239.69   1
  -1   0   5 144209. 1234.23  10
  -1   0   5 143233. 1304.96   7
  -1   0   4 64210.1 733.708  10
  -1   0   4 66196.3 447.894   2
  -1   0   4 65834.1 528.097   4
   1   0  -4 67145.7 447.026   2
  -1   0   4 65949.8 782.212   7
   1   0  -4 65325.5 740.481   1
  -1   0   3 1051.95 89.9235   7
   1   0  -3 1117.34 55.8306   2
   1   0  -3 901.589 83.0333  11
   1   0  -3 989.678 83.7925   1
  -1   0   3 950.718 83.7764  10
   1   0  -2 13313.2 245.752  10
   1   0  -2 12664.3 228.175  11
   1   0  -2 13088.7 245.071   1
  -1   0   2 13004.6 243.283  10
  -1   0   2 13173.6 186.496   2
  -1   0   2 13081.3 229.024  11
  -1   0   2 13711.1 246.588   7
  -1   0   2 13478.0 192.696   9
   1   0  -2 13286.2 183.943   2
  -1   0   2 12877.4 242.103   1
  -1   0  -1 120427. 634.489   1
  -1   0  -1 120353. 578.960  10
   1   0   1 122847. 734.289   5
  -1   0  -1 116367. 735.895   4
  -1   0  -1 121270. 560.015  12
  -1   0  -1 119058. 727.953   5
   1   0   1 122403. 740.503   4
   1   0   1 120593. 575.513  10
  -1   0  -1 118527. 581.413   7
   1   0   1 121493. 637.335   1
   1   0   1 121065. 574.205   7
  -1   0  -2 163.284 32.3279  10
  -1   0  -2 238.623 51.3919   4
   1   0   2 172.902 43.1571   7
   1   0   2 147.277 37.2865  10
  -1   0  -2 156.498 34.6189   1
  -1   0  -3 103179. 856.471   1
  -1   0  -3 104307. 922.203   4
   1   0   3 105839. 814.381  10
   1   0   3 103890. 881.618   7
  -1   0  -4 2058.54 142.436   1
   1   0   4 1694.00 134.671   7
  -1   0  -4 1681.32 134.006   4
   1   0   4 1903.58 131.526  10
   1   0   5 474.599 78.6556  10
  -1   0  -5 593.037 92.8735   1
   1   0   5 489.873 86.1679   7
  -1   0  -5 633.067 94.1283   4
   1   0   6 13733.1 462.217   7
   1   0   6 13543.2 419.372  10
  -1   0  -6 12824.8 422.194   4
  -1   0  -6 13480.9 429.319   1
  -1   0  -7 2028.90 185.848   1
   1   0   7 2271.68 194.236  10
  -1   0  -7 2036.30 183.631   4
   1   0   7 2025.03 92.2179   2
   1   0   7 2246.16 217.206   7
   1   0   8 837.049 139.622  10
   1   0   8 829.317 152.920   7
  -1   0  -8 938.298 143.178   1
  -1   0  -8 900.917 135.699   4
  -1   0  -9 434.987 110.652   1
   1   0   9 500.944 124.942  10
  -1   0  -9 641.560 129.076   4
   1   0   9 503.929 138.631   7
  -1   0 -10 4177.16 308.961   4
   1   0  10 4166.21 315.362  10
   1   0  10 4032.55 345.161   7
  -1   0 -10 4469.22 336.959   1
  -1   0 -11 725.079 188.548   6
   1   0  11 468.415 143.013   7
   1   0  12 14661.0 730.017   7
  -1   0 -12 14691.8 788.810   6
   1   0  13 8149.95 584.961   7
   1   1 -14 3514.89 376.091   1
   1   1 -14 2952.19 377.968   6
  -1  -1  14 3771.49 418.958   7
   1   1 -13 2369.85 296.890   1
  -1  -1  13 2038.63 283.533  10
  -1  -1  13 1550.64 248.489   7
   1   1 -12 12689.7 632.902   1
  -1  -1  12 10961.7 588.935  10
  -1  -1  12 11057.7 620.448   7
   1   1 -11 15208.4 650.768   1
  -1  -1  11 14420.8 635.920  10
  -1  -1  11 15450.4 682.503   7
  -1  -1  10 33291.0 899.841  10
   1   1 -10 32589.1 891.707   1
  -1  -1  10 30262.9 892.243   7
  -1  -1   9 21921.3 711.856   7
   1   1  -9 21447.3 676.764   1
  -1  -1   9 22552.7 695.100  10
  -1  -1   8 44696.7 940.999   7
   1   1  -8 45923.8 634.655   4
   1   1  -8 44911.3 910.823   1
   1   1  -7 3887.30 254.306   1
   1   1  -7 4097.56 173.132   4
  -1  -1   7 4051.62 258.838  10
  -1  -1   7 3893.99 264.742   7
   1   1  -6 27807.3 396.882   4
  -1  -1   6 28345.7 631.891   7
   1   1  -6 28762.8 619.099   1
  -1  -1   6 27540.8 603.073  10
   1   1  -5 15476.2 414.796   1
  -1  -1   5 15271.7 410.196  10
   1   1  -5 15545.5 248.527   4
   1   1  -5 14149.5 158.760   2
  -1  -1   5 14916.6 413.260   7
  -1  -1   4 81550.5 843.733  10
   1   1  -4 82101.9 849.983   1
   1   1  -4 82845.3 432.952   2
   1   1  -4 82040.7 446.939   4
  -1  -1   4 81980.6 847.528   7
   1   1  -3 104856. 831.678   1
  -1  -1   3 103955. 830.126  10
  -1  -1   3 104169. 811.744   7
   1   1  -2 34998.9 402.544   1
   1   1  -2 36150.6 404.971  10
  -1  -1   2 35135.8 402.756  10
   1   1  -2 34934.9 380.477   9
   1   1  -2 35731.5 379.861   7
  -1  -1   2 35160.6 405.829   1
  -1  -1   2 36048.7 386.298   9
  -1  -1   2 35177.7 375.235   7
  -1  -1   1 153448. 630.569  10
   1   1  -1 151313. 642.485   1
   1   1  -1 155720. 647.798   4
   1   1  -1 156204. 635.366  10
   1   1  -1 153005. 724.208   9
  -1  -1   1 152860. 724.247   9
   1   1  -1 153377. 545.089   7
  -1  -1   1 153586. 582.645   8
  -1  -1   1 149012. 642.726   1
   1   1  -1 151956. 587.761   8
  -1  -1   0 15964.5 269.521   4
  -1  -1   0 16523.0 227.563   6
   1   1   0 16392.3 234.877   6
  -1  -1   0 16411.1 262.176   5
   1   1   0 15860.5 211.143   8
   1   1   0 16955.5 199.070  11
  -1  -1   0 16427.8 220.482   8
   1   1   0 17159.5 273.997   4
  -1  -1   0 15452.7 196.114  11
   1   1   0 16747.3 159.432   3
   1   1   0 16872.1 262.050   5
  -1  -1  -1 29271.0 421.521   5
  -1  -1  -1 30156.8 386.687  11
   1   1   1 30051.5 252.243   1
  -1  -1  -1 30345.7 399.455   6
  -1  -1  -1 29953.0 251.832   1
  -1  -1  -2 1978.00 129.596   5
  -1  -1  -2 1726.13 58.9669  12
  -1  -1  -2 1797.48 119.192   6
  -1  -1  -2 1687.03 118.903  11
  -1  -1  -2 1776.56 122.769   4
   1   1   2 1806.08 106.834   7
  -1  -1  -2 1782.13 74.7841  10
   1   1   2 1910.17 81.2760  10
   1   1   2 1788.53 84.8941   1
  -1  -1  -2 1760.06 85.1611   1
  -1  -1  -3 1168.50 116.277   6
  -1  -1  -3 1309.62 122.547   4
   1   1   3 1426.57 112.143   7
  -1  -1  -3 1299.50 90.5490   1
   1   1   3 1366.22 88.6723  10
   1   1   4 4838.18 191.227  10
  -1  -1  -4 4972.89 242.134   4
  -1  -1  -4 4797.88 200.841   1
   1   1   4 4842.09 231.404   7
  -1  -1  -4 5206.46 264.197   6
  -1  -1  -5 59326.0 779.276   1
   1   1   5 56976.6 744.271  10
  -1  -1  -5 59879.7 909.978   4
   1   1   5 56884.9 875.286   7
  -1  -1  -5 56900.2 949.390   6
  -1  -1  -6 40003.9 786.547   4
   1   1   6 41056.9 701.811  10
   1   1   6 41431.6 819.135   7
  -1  -1  -6 40599.6 882.353   6
   1   1   6 42289.2 561.849   2
  -1  -1  -6 41688.8 731.836   1
  -1  -1  -7 6026.67 304.374   1
   1   1   7 6454.43 218.674   2
  -1  -1  -7 6211.12 334.876   4
   1   1   7 6168.35 348.728   7
   1   1   7 6226.68 299.351  10
  -1  -1  -7 6352.06 386.837   6
   1   1   8 44633.6 1003.38   7
  -1  -1  -8 47684.0 925.329   1
   1   1   8 46937.1 892.416  10
  -1  -1  -8 47710.9 973.379   4
  -1  -1  -8 46198.3 1098.17   6
  -1  -1  -9 462.943 162.407   6
  -1  -1  -9 856.979 153.762   4
  -1  -1  -9 454.643 106.722   1
   1   1   9 481.941 125.682   7
  -1  -1 -10 1090.17 218.406   6
   1   1  10 1258.86 213.293   7
  -1  -1 -11 7525.88 548.238   6
   1   1  11 7368.66 500.737   7
   1   1  12 132.105 137.736   7
  -1  -1 -12-71.7759 134.402   6
   1   2 -15 142.937 132.892   1
  -1  -2  14 3226.09 361.470  10
  -1  -2  14 3624.22 403.652   7
   1   2 -14 3359.20 373.934   1
   1   2 -13 11977.8 655.087   1
  -1  -2  13 11835.5 655.193  10
  -1  -2  13 11290.5 647.779   7
  -1  -2  12 23104.7 878.139   7
  -1  -2  12 24196.6 883.297  10
   1   2 -12 23571.2 866.658   1
  -1  -2  11 1914.79 244.477   7
   1   2 -11 1882.77 244.163   1
  -1  -2  11 1843.93 250.078  10
  -1  -2  10 122.489 87.5020  10
   1   2 -10-31.2609 83.7968   1
  -1  -2  10-13.8490 92.0029   7
  -1  -2   9 2269.73 241.162   7
   1   2  -9 2352.09 145.922   4
   1   2  -9 2188.16 224.313   1
  -1  -2   9 2600.24 249.742  10
   1   2  -8 28839.5 741.368   1
  -1  -2   8 30039.5 758.630  10
  -1  -2   8 28448.1 743.613   7
   1   2  -7 16563.2 522.559   1
   1   2  -7 16833.0 319.893   4
  -1  -2   7 15875.2 510.206  10
  -1  -2   7 16303.5 519.544   7
   1   2  -6 18731.2 295.364   4
  -1  -2   6 18131.2 501.835   7
   1   2  -6 18172.6 503.050   1
  -1  -2   6 18340.2 507.490  10
   1   2  -5 1291.18 125.773   1
  -1  -2   5 1006.96 120.476  10
   1   2  -5 1154.14 65.5618   4
  -1  -2   5 1196.26 125.876   7
  -1  -2   4 25378.5 488.852  10
   1   2  -4 26553.6 495.095   1
  -1  -2   4 25878.8 480.562   7
   1   2  -3 85820.5 757.841   9
   1   2  -3 86028.1 779.728   1
  -1  -2   3 86666.7 758.205   7
  -1  -2   3 86291.3 797.519  10
   1   2  -2 12618.2 269.337   9
   1   2  -2 12883.2 253.925   1
  -1  -2   2 12472.0 259.705  10
   1   2  -1 15746.8 286.726   9
  -1  -2   1 15470.0 223.868  11
  -1  -2   1 16495.1 239.554  10
   1   2  -1 16209.9 217.287   1
   1   2  -1 16529.5 234.017  10
   1   2  -1 16194.9 221.096  11
   1   2  -1 16918.4 182.307   8
  -1  -2   1 16244.9 176.809   8
  -1  -2   1 16514.0 287.155   5
  -1  -2   1 16343.9 219.198   1
  -1  -2   0 260.727 40.6393  11
  -1  -2   0 222.630 43.8550   5
   1   2   0 189.322 31.4646   3
   1   2   0 314.746 42.4215  11
   1   2   0 282.762 47.6396   9
  -1  -2   0 304.276 47.9549   6
   1   2   0 201.570 32.3228   8
  -1  -2  -1 188514. 1122.88  11
  -1  -2  -1 187867. 1203.40   5
  -1  -2  -2 149668. 1218.34   5
  -1  -2  -2 148330. 1184.69   6
   1   2   2 148266. 647.401   1
   1   2   2 149076. 619.353  10
  -1  -2  -2 149033. 1173.97  11
  -1  -2  -2 146682. 651.060   1
  -1  -2  -3 547.441 89.1374   4
  -1  -2  -3 725.050 102.865  11
   1   2   3 682.824 85.5071   7
  -1  -2  -3 454.935 83.2645   5
  -1  -2  -3 608.785 95.4957   6
  -1  -2  -3 504.703 53.3367   1
   1   2   3 538.765 52.0566  10
  -1  -2  -4 188164. 1663.94   6
  -1  -2  -4 186388. 1679.34  11
  -1  -2  -4 186317. 1152.59   1
   1   2   4 187638. 1113.27  10
   1   2   4 184251. 1497.03   7
  -1  -2  -5 15194.9 487.889   4
  -1  -2  -5 14665.1 370.311   1
   1   2   5 14689.0 358.081  10
   1   2   5 14184.2 459.575   7
  -1  -2  -5 14984.4 515.978   6
   1   2   6 122855. 1168.75  10
  -1  -2  -6 126353. 1513.00   4
  -1  -2  -6 123847. 1600.11   6
   1   2   6 127732. 1154.17   2
  -1  -2  -6 122835. 1199.20   1
   1   2   6 123609. 1471.02   7
   1   2   7 1077.07 133.111  10
   1   2   7 1203.23 120.593   2
   1   2   7 1041.50 159.526   7
  -1  -2  -7 996.697 126.167   1
  -1  -2  -7 712.191 158.161   6
  -1  -2  -8 518.120 143.597   6
   1   2   8 496.776 131.354   7
  -1  -2  -8 598.807 106.853   1
  -1  -2  -9 12986.5 645.099   6
   1   2   9 14134.6 622.571   7
  -1  -2 -10 2.03280 105.869   6
   1   2  10 54.0060 128.662   7
  -1  -2 -11 3669.40 398.691   6
   1   2  11 3291.71 348.830   7
   1   2  12 18693.1 847.717   7
   1   3 -15 388.239 176.334   1
  -1  -3  14 27210.9 1057.34   7
   1   3 -14 25168.4 1012.18   1
  -1  -3  14 26807.5 1039.39  10
   1   3 -13 7992.68 546.859   1
  -1  -3  13 6492.64 493.874  10
  -1  -3  13 7663.57 543.029   7
   1   3 -12 3189.97 331.020   1
  -1  -3  12 3341.39 346.043  10
  -1  -3  12 3148.74 338.099   7
  -1  -3  11 13339.4 629.101  10
   1   3 -11 14022.6 639.004   1
  -1  -3  11 13665.6 631.846   7
  -1  -3  10 2440.63 262.226   7
  -1  -3  10 2072.57 247.292  10
   1   3 -10 2281.69 256.495   1
  -1  -3   9 16079.9 613.846  10
   1   3  -9 15485.7 594.451   1
   1   3  -9 16321.8 362.715   4
  -1  -3   9 15750.4 595.960   7
   1   3  -8 7250.39 224.973   4
  -1  -3   8 7008.71 379.436  10
  -1  -3   8 7175.08 375.746   7
   1   3  -8 7082.91 376.330   1
   1   3  -7 1878.59 193.024   1
   1   3  -7 1819.96 62.7249   2
   1   3  -7 1660.82 62.7135   2
   1   3  -7 1824.72 107.783   4
  -1  -3   7 1816.68 191.764  10
  -1  -3   7 2042.23 194.468   7
   1   3  -6 49840.7 851.034   1
   1   3  -6 49998.1 509.206   4
  -1  -3   6 48399.6 853.625  10
  -1  -3   6 48467.7 825.518   7
  -1  -3   5 7189.15 294.489   7
   1   3  -5 7384.88 301.312   1
  -1  -3   5 7272.60 307.609  10
  -1  -3   4 68890.3 817.465   7
   1   3  -4 69822.0 834.916   1
  -1  -3   4 68884.6 858.888  10
   1   3  -3 240235. 1401.54   9
  -1  -3   3 240460. 1429.79  10
   1   3  -3 242471. 1368.78   1
  -1  -3   2 10595.3 171.486   8
  -1  -3   2 10721.8 237.240  11
   1   3  -2 10302.8 242.454   1
  -1  -3   2 10243.4 262.796  10
   1   3  -1 10685.3 273.095   9
  -1  -3   1 9384.40 131.345   8
   1   3  -1 10499.1 220.435  10
   1   3  -1 9710.04 125.842   8
   1   3  -1 9895.58 188.161   1
  -1  -3   1 10010.7 242.892   3
  -1  -3   1 11354.7 278.954   5
  -1  -3   1 10050.1 220.649  10
  -1  -3   1 10224.4 190.326   1
  -1  -3   1 10328.7 237.723  11
  -1  -3   0 34677.3 526.981   5
   1   3   0 34688.0 316.906   8
   1   3   0 35256.5 499.242   9
   1   3   0 35013.9 329.406  10
  -1  -3   0 34073.5 483.411  11
   1   3   1 59479.9 374.198  10
  -1  -3  -1 60623.1 764.888   5
  -1  -3  -1 63503.7 772.188   6
   1   3   1 63604.4 704.427   9
  -1  -3  -1 63215.6 748.878  11
  -1  -3  -2 5259.69 246.398  11
   1   3   2 5194.40 120.733  10
  -1  -3  -2 5051.72 244.990   6
  -1  -3  -2 4997.50 246.531   5
  -1  -3  -3 25468.9 311.511   1
   1   3   3 26463.2 332.061  10
  -1  -3  -3 26426.8 610.847  11
  -1  -3  -3 26170.3 606.298   6
  -1  -3  -3 26421.5 610.922   5
  -1  -3  -4 49034.5 903.716   6
  -1  -3  -4 49096.1 920.430  11
   1   3   4 50374.0 546.195  10
   1   3   4 49812.1 827.363   7
  -1  -3  -4 49251.2 539.271   1
  -1  -3  -5 44504.2 597.400   1
   1   3   5 45095.6 597.908  10
   1   3   5 44243.7 849.528   7
  -1  -3  -5 43092.9 945.054  11
  -1  -3  -5 43971.3 928.560   6
   1   3   6 1143.31 131.344   2
   1   3   6 1104.83 154.410   7
  -1  -3  -6 1170.34 112.363   1
   1   3   6 1073.45 113.151  10
  -1  -3  -6 1187.26 190.644   6
   1   3   7 6239.37 293.168   2
  -1  -3  -7 6164.10 405.464   6
   1   3   7 6327.12 377.970   7
   1   3   8 10886.2 527.959   7
  -1  -3  -8 10397.3 561.727   6
  -1  -3  -9 2909.32 323.417   6
   1   3   9 2725.29 287.565   7
   1   3  10 1965.85 275.916   7
  -1  -3 -10 1648.84 268.031   6
  -1  -3 -11 5160.79 479.956   6
   1   3  11 5068.64 435.818   7
  -1  -4  14 180.242 136.134   7
  -1  -4  14 273.860 147.477  10
   1   4 -14 397.443 166.488   1
  -1  -4  13 3460.71 375.484   7
  -1  -4  13 3535.67 374.675  10
   1   4 -13 3502.25 371.447   1
   1   4 -12 833.542 182.414   1
  -1  -4  12 798.691 186.364  10
  -1  -4  12 940.627 197.580   7
  -1  -4  11 156.716 128.686   7
   1   4 -11 15.2530 106.272   1
  -1  -4  11-75.4395 107.883  10
  -1  -4  10 23882.7 786.280   7
   1   4 -10 23883.3 800.467   1
  -1  -4  10 24222.3 811.216  10
  -1  -4   9 708.007 155.697   7
  -1  -4   9 651.834 150.626  10
   1   4  -9 600.192 131.122   1
   1   4  -8 36919.7 878.086   1
   1   4  -8 34832.6 338.967   2
  -1  -4   8 37159.2 863.878   7
  -1  -4   8 37672.0 896.955  10
   1   4  -8 37153.1 531.042   4
   1   4  -7 140475. 1593.72   1
  -1  -4   7 141388. 1568.28   7
   1   4  -7 142822. 883.270   2
  -1  -4   7 137847. 1601.94  10
  -1  -4   6 2265.23 192.734   7
  -1  -4   6 2236.20 199.343  10
   1   4  -6 2202.88 190.683   1
  -1  -4   5 7114.43 319.339  10
   1   4  -5 7013.64 304.555   1
   1   4  -4 15279.8 404.610   9
   1   4  -4 14811.8 401.208   1
  -1  -4   4 15009.4 422.544  10
  -1  -4   3 3076.99 157.432  11
  -1  -4   3 2898.01 174.196  10
   1   4  -3 2881.89 160.548   1
   1   4  -3 3112.56 177.393   9
   1   4  -2 57749.6 720.521   9
  -1  -4   2 59218.3 701.160   3
  -1  -4   2 59478.3 689.198  10
  -1  -4   2 59392.2 698.371   5
   1   4  -2 58645.6 619.277   1
  -1  -4   2 58495.9 655.560  11
  -1  -4   1 12535.3 280.877  10
  -1  -4   1 12859.2 324.518   3
   1   4  -1 13583.0 343.290   9
  -1  -4   1 12926.3 234.741   1
  -1  -4   1 13108.8 341.540   5
   1   4  -1 12639.3 237.460   1
  -1  -4   1 12977.7 319.929  11
   1   4   0 20021.7 305.109  10
  -1  -4   0 18407.7 183.891   1
  -1  -4   0 18841.7 434.540   5
  -1  -4   0 19573.8 430.154  11
   1   4   0 19890.0 418.081   9
   1   4   0 18487.1 225.105   8
  -1  -4  -1 12277.2 380.271   5
   1   4   1 11896.6 189.495  12
   1   4   1 12671.2 217.651  10
   1   4   1 13360.8 270.409   8
   1   4   1 12758.4 347.622   9
  -1  -4  -1 12567.4 387.144   6
  -1  -4  -1 12488.6 376.828  11
  -1  -4  -2 7000.50 317.639   5
   1   4   2 6765.50 155.254  10
  -1  -4  -2 7365.17 322.035  11
  -1  -4  -2 7221.79 318.541   6
   1   4   2 7306.46 279.721   9
   1   4   2 6911.25 157.071  10
  -1  -4  -3 3348.92 238.678   5
  -1  -4  -3 3750.62 252.233   6
   1   4   3 3626.58 125.121  10
  -1  -4  -3 3540.53 248.643  11
  -1  -4  -4 1924.34 199.182  11
  -1  -4  -4 2070.86 212.711   6
   1   4   4 2070.59 107.449  10
  -1  -4  -4 2298.86 218.076   5
  -1  -4  -4 1997.88 91.4532   1
  -1  -4  -5-27.0969 79.0024   6
  -1  -4  -5 128.670 80.6829  11
   1   4   5 97.3806 54.9500   2
   1   4   6 681.180 139.302   7
   1   4   6 951.518 133.697   2
  -1  -4  -6 630.162 139.000   6
  -1  -4  -7 10546.7 548.539   6
   1   4   7 10240.7 416.930   2
   1   4   7 9952.79 492.463   7
   1   4   8 5216.54 382.700   7
  -1  -4  -8 5266.41 419.072   6
  -1  -4  -9 6299.11 483.964   6
   1   4   9 7236.23 480.313   7
  -1  -4 -10 12741.9 717.730   6
   1   4  10 11890.1 640.922   7
  -1  -5  14 25729.2 1033.40   7
   1   5 -14 23167.6 991.008   1
  -1  -5  14 25431.0 1050.80  10
   1   5 -13 113.942 115.117   1
  -1  -5  13-90.2393 126.382  10
  -1  -5  13 148.424 126.457   7
   1   5 -12 4219.83 390.755   1
  -1  -5  12 4401.16 402.626  10
  -1  -5  12 4851.39 408.562   7
   1   5 -11 26403.0 899.344   1
  -1  -5  11 25913.6 882.359   7
  -1  -5  11 25479.6 903.888  10
  -1  -5  10 460.223 146.836   7
  -1  -5  10 160.923 110.801  10
   1   5 -10 234.295 112.152   1
   1   5  -9-24.0496 86.5957   1
  -1  -5   9 125.915 104.203  10
   1   5  -8 4926.37 184.216   2
   1   5  -8 4324.27 312.531   1
  -1  -5   8 4362.70 322.558  10
   1   5  -7 949.396 96.1310   2
  -1  -5   7 819.137 147.509  10
   1   5  -7 889.355 145.821   1
   1   5  -6 21947.6 603.120   1
  -1  -5   6 23415.3 643.356  10
  -1  -5   5 41676.4 803.160  10
   1   5  -5 41246.4 761.589   1
  -1  -5   4 309.924 72.0747  11
  -1  -5   4 291.942 85.0417  10
   1   5  -4 381.663 83.6416   9
   1   5  -4 367.922 73.9197   1
  -1  -5   3 21322.9 454.479  11
   1   5  -3 22006.0 499.926   9
  -1  -5   3 21199.1 258.390   8
   1   5  -3 22012.8 461.632   1
  -1  -5   3 21737.6 501.572  10
  -1  -5   2 30834.4 560.292   5
   1   5  -2 29254.6 566.825   9
   1   5  -2 29458.3 474.146   1
  -1  -5   2 29782.2 534.861  10
  -1  -5   2 30832.9 549.035  11
  -1  -5   2 29855.6 564.167   3
  -1  -5   1 27878.9 543.667   3
   1   5  -1 27340.6 375.686   1
  -1  -5   1 28070.1 542.429  11
  -1  -5   1 27866.0 551.419   5
   1   5  -1 27913.1 539.421   9
  -1  -5   0 2125.99 168.183   5
  -1  -5   0 2166.92 72.7014   1
  -1  -5   0 2320.54 170.668  11
   1   5   0 2382.81 160.602   9
   1   5   0 2043.63 65.9778   8
   1   5   1 75.9497 30.5289   8
   1   5   1 82.9772 54.3041   9
  -1  -5  -1-12.7822 49.0786  11
   1   5   1 35.3272 17.8636  12
  -1  -5  -1 32.8917 50.9503   5
  -1  -5  -2 21194.0 587.371   6
  -1  -5  -2 20401.8 583.420  11
  -1  -5  -2 20070.2 572.101   5
   1   5   2 20018.9 298.787  10
   1   5   2 20731.1 501.155   9
  -1  -5  -3 66337.7 1108.31   6
  -1  -5  -3 64412.8 1122.76  11
   1   5   3 66184.7 941.468   9
  -1  -5  -3 65373.3 1092.77   5
  -1  -5  -4 746.734 140.051   5
   1   5   4 738.617 127.517   2
   1   5   4 495.359 92.8353   9
  -1  -5  -4 552.805 129.299   6
  -1  -5  -4 625.250 132.111  11
   1   5   5 12537.0 490.888   2
  -1  -5  -5 11776.4 536.983   6
  -1  -5  -5 10528.8 525.558  11
   1   5   5 11737.4 494.100   7
  -1  -5  -6 43353.8 1129.81  11
  -1  -5  -6 43181.9 1088.32   6
   1   5   6 42790.7 917.046   2
   1   5   6 43683.5 1007.84   7
  -1  -5  -7 4177.56 370.321   6
   1   5   7 3643.52 316.547   7
  -1  -5  -8 391.052 120.776   6
   1   5   8 286.122 131.448   7
  -1  -5  -9 218.860 123.015   6
  -1  -6  14 5239.95 497.666  10
   1   6 -14 5247.50 477.623   1
  -1  -6  13 2369.58 324.391  10
   1   6 -13 2695.24 343.683   1
  -1  -6  12 994.391 209.631  10
   1   6 -12 1513.22 246.904   1
  -1  -6  11 6679.96 482.528  10
   1   6 -11 6463.04 460.611   1
   1   6 -10 4891.69 384.527   1
  -1  -6  10 4971.72 396.164  10
   1   6  -9 2124.84 247.032   1
  -1  -6   9 1964.79 245.786  10
  -1  -6   8 21276.6 718.799  10
   1   6  -8 21734.8 466.714   2
   1   6  -8 21236.8 696.776   1
   1   6  -7 6488.25 273.229   2
   1   6  -7 6470.50 364.165   1
  -1  -6   7 6628.29 388.506  10
  -1  -6   6 693.146 139.461  10
   1   6  -6 472.521 104.490   1
  -1  -6   5 1398.13 166.307  10
   1   6  -5 1524.68 158.671   1
  -1  -6   5 1665.60 155.010  11
   1   6  -4 16048.3 456.893   1
  -1  -6   4 16489.4 499.205  10
   1   6  -4 16572.0 486.117   9
  -1  -6   4 16226.4 450.895  11
  -1  -6   3 47252.1 755.148   5
  -1  -6   3 45622.6 789.202   3
  -1  -6   3 46364.5 779.920  10
   1   6  -3 48183.1 797.722   9
   1   6  -3 46797.9 707.408   1
  -1  -6   3 44291.6 733.020  11
  -1  -6   2 6162.86 280.395   5
  -1  -6   2 6098.70 277.716  11
   1   6  -2 6500.97 289.918   9
  -1  -6   2 6493.05 296.821   3
   1   6  -2 5930.59 225.308   1
  -1  -6   1 118593. 1254.39   3
  -1  -6   1 117015. 1245.69  11
   1   6  -1 114116. 1186.93   9
  -1  -6   1 116534. 1236.97   5
   1   6   0 193.686 60.0323   9
  -1  -6   0 225.205 26.7238   1
  -1  -6   0 272.297 62.4093   5
   1   6   1 4023.27 231.104   9
   1   6   1 3947.43 133.373   8
   1   6   1 3912.31 145.502  12
  -1  -6  -1 4458.95 275.319   5
  -1  -6  -1 4398.01 278.411  11
  -1  -6  -2 18265.4 582.003   5
   1   6   2 18304.2 502.600   9
   1   6   2 19361.6 386.150   8
  -1  -6  -2 18198.1 600.662  11
   1   6   3 7599.71 289.377   8
   1   6   3 7911.61 344.789   9
   1   6   3 7448.33 390.074   2
  -1  -6  -3 7734.24 401.775   5
  -1  -6  -3 8005.10 427.642  11
  -1  -6  -3 7529.18 403.399   6
  -1  -6  -4 43.2350 70.5043   5
   1   6   4-2.08692 51.1008   9
  -1  -6  -4 104.540 85.4021  11
  -1  -6  -4 79.4485 94.0595   6
   1   6   4 137.721 67.9583   2
   1   6   5 2255.56 208.568   9
   1   6   5 1702.13 206.961   7
  -1  -6  -5 2066.49 250.678   6
  -1  -6  -5 1957.31 251.389  11
   1   6   5 2641.80 252.859   2
   1   6   6 31466.1 784.822   9
  -1  -6  -6 31684.8 968.022   6
  -1  -6  -6 30489.4 1003.49  11
   1   6   6 31627.6 849.217   2
   1   6   6 29734.8 874.905   7
   1   6   7 5267.70 394.648   7
  -1  -6  -7 5394.91 426.283   6
  -1  -6  -8 3027.10 343.097   6
  -1  -7  14 6694.12 564.508  10
   1   7 -14 6993.49 564.054   1
  -1  -7  13 731.552 225.356  10
   1   7 -13 874.550 200.174   1
   1   7 -12 2513.70 319.284   1
  -1  -7  12 2358.31 321.204  10
   1   7 -11 12372.7 642.390   1
  -1  -7  11 13458.4 689.518  10
   1   7 -10 127.618 101.782   1
  -1  -7  10-2.03182 119.366  10
  -1  -7   9 18236.6 726.403  10
   1   7  -9 19389.9 724.957   1
   1   7  -8 4023.53 318.320   1
  -1  -7   8 3981.23 330.937  10
   1   7  -8 4257.34 239.356   2
  -1  -7   7 17581.3 643.345  10
   1   7  -7 18493.7 516.053   2
   1   7  -7 18717.0 632.950   1
  -1  -7   6 89382.7 1372.16  10
   1   7  -6 90167.0 1299.07   1
   1   7  -6 89377.0 1170.75   2
  -1  -7   6 89124.1 1210.15  11
  -1  -7   5 57925.7 1044.85  10
  -1  -7   5 58401.0 941.899  11
   1   7  -5 59394.6 983.460   1
   1   7  -5 59932.6 1004.28   9
  -1  -7   4 105.601 58.1794  11
   1   7  -4 114.432 62.0512   1
   1   7  -4 147.017 74.2934   9
  -1  -7   4 92.6344 81.9027  10
  -1  -7   4 89.6623 59.2320   5
  -1  -7   4 43.9431 70.9935   3
  -1  -7   3 8516.95 355.372  10
   1   7  -3 8276.17 313.793   1
  -1  -7   3 8542.50 355.320  11
  -1  -7   3 8146.36 365.455   3
   1   7  -3 8093.23 352.428   9
  -1  -7   3 8489.71 349.880   5
   1   7  -2 1663.49 163.232   9
  -1  -7   2 1304.15 145.191  11
  -1  -7   2 1523.79 166.805   3
  -1  -7   2 1857.53 172.110   5
  -1  -7   1 28194.2 670.674   5
   1   7  -1 28076.4 635.033   9
  -1  -7   1 29313.1 695.970  11
   1   7   0 8093.28 345.039   9
  -1  -7   0 8564.23 385.677   5
   1   7   0 8393.66 277.102  12
  -1  -7   0 7643.86 377.946  11
  -1  -7  -1 24137.2 678.190   5
   1   7   1 25708.7 619.322   9
  -1  -7  -1 25146.1 717.730  11
  -1  -7  -2 5367.96 337.667   5
  -1  -7  -2 5451.59 356.290  11
   1   7   2 5366.61 290.953   9
   1   7   2 5120.71 347.183   2
  -1  -7  -3 494.930 140.833  11
  -1  -7  -3 575.258 136.593   5
   1   7   3 494.468 101.093   9
   1   7   3 503.428 114.887   2
   1   7   4 857.599 161.004   2
  -1  -7  -4 637.106 158.210  11
   1   7   4 877.464 133.093   9
  -1  -7  -4 824.306 168.719   5
  -1  -7  -4 797.848 154.569   6
  -1  -7  -5 8882.48 512.193   6
   1   7   5 7984.96 454.471   2
  -1  -7  -5 8796.23 538.748  11
   1   7   5 8631.40 473.404   7
  -1  -7  -6 31.9729 103.075   6
   1   7   6 71.7240 72.7921   2
  -1  -7  -6-86.0666 103.242  11
  -1  -7  -7 926.873 199.606   6
  -1  -8  13 21675.3 982.769  10
   1   8 -13 19601.2 914.488   1
  -1  -8  12 8277.97 590.266  10
   1   8 -12 8249.80 566.482   1
  -1  -8  11 106.162 151.627  10
   1   8 -11-5.92353 94.2948   1
   1   8 -10 12327.4 623.548   1
  -1  -8  10 11212.3 621.282  10
  -1  -8   9 3758.11 349.211  10
   1   8  -9 4263.17 353.976   1
   1   8  -8 3801.02 314.658   1
  -1  -8   8 3674.70 330.630  10
   1   8  -8 3805.18 252.540   2
  -1  -8   7 12676.1 506.781  11
   1   8  -7 11514.8 452.993   2
   1   8  -7 11319.8 511.010   1
  -1  -8   7 11480.2 549.233  10
   1   8  -6 2931.87 247.924   1
  -1  -8   6 3017.01 243.735  11
  -1  -8   6 2814.62 271.184  10
   1   8  -6 3002.86 243.003   2
  -1  -8   5 25106.4 665.914  11
  -1  -8   5 25735.3 655.120   5
   1   8  -5 26172.3 700.700   9
  -1  -8   5 26537.5 736.221  10
   1   8  -5 25394.1 668.255   1
   1   8  -5 25030.3 696.483   2
  -1  -8   5 24924.6 712.510   3
   1   8  -4 784.964 127.607   9
   1   8  -4 543.863 124.481   2
  -1  -8   4 675.987 115.926  10
  -1  -8   4 692.096 115.447   5
  -1  -8   4 530.701 112.306  11
  -1  -8   4 468.866 117.397   3
   1   8  -4 569.891 106.576   1
   1   8  -3 721.622 130.303   9
   1   8  -3 566.446 92.4763   1
  -1  -8   3 370.145 96.8068  11
  -1  -8   3 411.697 96.1590   3
  -1  -8   2 10899.9 450.776  11
   1   8  -2 11600.7 440.486   9
  -1  -8   2 10499.1 449.043   3
  -1  -8   2 10265.1 418.130   5
  -1  -8   1 974.400 159.363  11
   1   8  -1 991.362 165.463   2
   1   8  -1 996.942 140.598   9
   1   8  -1 988.229 122.346  12
  -1  -8   1 1103.10 145.351   5
   1   8   0 22649.8 742.070   2
  -1  -8   0 23726.5 683.603   5
  -1  -8   0 23631.7 721.213  11
   1   8   0 21979.9 601.004   9
   1   8   1 9040.69 390.575   9
   1   8   1 8612.93 467.671   2
  -1  -8  -1 8728.99 434.932   5
  -1  -8  -1 8932.84 467.350  11
   1   8   2 484.014 99.5978   9
  -1  -8  -2 562.640 130.551   5
   1   8   2 498.783 128.016   2
  -1  -8  -2 477.931 118.803  11
  -1  -8  -3 67.5019 72.6162   5
  -1  -8  -3 274.195 118.121  11
   1   8   3 150.890 98.7996   2
   1   8   4 40087.6 1066.12   2
  -1  -8  -4 39262.8 1134.61  11
   1   8   5 4457.86 368.359   2
  -1  -8  -5 4389.43 410.348  11
   1   8   6 564.184 159.489   2
  -1  -8  -6 390.599 131.653  11
  -1  -9  13 3962.61 461.326  10
   1   9 -13 3975.88 423.995   1
   1   9 -12 2807.90 341.486   1
  -1  -9  12 3689.91 428.122  10
  -1  -9  11 2696.12 343.341  10
   1   9 -11 2777.51 329.297   1
   1   9 -10 473.032 158.311   1
  -1  -9  10 501.985 152.100  10
  -1  -9   9 569.118 139.489  11
  -1  -9   9 343.617 143.102  10
   1   9  -9 313.012 109.417   1
  -1  -9   8 2122.44 269.533  10
   1   9  -8 1801.59 188.464   2
   1   9  -8 1438.07 208.333   1
  -1  -9   8 1580.69 199.807  11
   1   9  -7 49.5831 76.2445   2
  -1  -9   7-4.49215 99.9911  10
  -1  -9   7 112.514 67.3961  11
   1   9  -7 34.3572 64.3977   1
  -1  -9   6 478.101 128.849  10
   1   9  -6 391.743 115.474   2
  -1  -9   6 597.243 128.912  11
   1   9  -6 525.514 118.341   1
  -1  -9   6 471.789 110.150   5
  -1  -9   6 272.583 112.263   3
  -1  -9   5 830.524 157.216  10
  -1  -9   5 841.651 148.226  11
   1   9  -5 778.266 131.137   1
  -1  -9   5 546.356 112.984   5
  -1  -9   5 840.154 154.660   3
   1   9  -5 685.120 135.702   2
   1   9  -4-90.1283 83.7191   2
   1   9  -4 141.032 79.6462   9
   1   9  -4 77.7618 55.2366   1
  -1  -9   4 22.0549 60.1006  11
  -1  -9   4 47.8798 62.3976   5
  -1  -9   4 22.3706 88.7073   3
  -1  -9   3 24669.6 716.754  11
  -1  -9   3 23599.5 673.713   5
   1   9  -3 24307.5 690.752   9
  -1  -9   3 23097.7 719.691   3
   1   9  -3 23680.9 764.578   2
   1   9  -2 268.213 99.8317   9
   1   9  -2 63.4379 82.6467   2
  -1  -9   2 117.830 58.4360   5
  -1  -9   2 119.938 76.6065  11
  -1  -9   1 4066.66 298.932   5
   1   9  -1 3984.71 276.939   9
   1   9  -1 3457.21 311.689   2
  -1  -9   1 3607.03 300.434  11
   1   9   0 61534.0 1071.45   9
  -1  -9   0 61694.1 1173.81   5
  -1  -9   0 63658.6 1278.56  11
   1   9   0 61657.0 1302.58   2
   1   9   1 6890.88 364.913   9
  -1  -9  -1 6609.02 436.066  11
  -1  -9  -1 7141.80 421.703   5
   1   9   1 7645.98 479.398   2
   1   9   2 5421.42 407.803   2
  -1  -9  -2 5361.30 407.887  11
  -1  -9  -2 5373.46 381.157   5
  -1  -9  -3 17809.4 781.238  11
   1   9   3 17935.4 750.345   2
  -1  -9  -3 17562.0 715.137   5
   1   9   4 307.653 139.172   2
  -1  -9  -4 289.219 162.145  11
   1   9   5 6674.55 474.146   2
  -1  -9  -5 5807.40 496.050  11
  -1  -9  -6 459.106 134.009  11
   1   9   6 776.727 181.933   2
  -1 -10  12 5182.72 504.164  10
   1  10 -12 5602.06 490.925   1
  -1 -10  11 2509.09 344.867  10
  -1 -10  11 1817.61 256.941  11
   1  10 -11 1885.34 286.239   1
  -1 -10  10 673.854 204.530  10
  -1 -10  10 296.513 114.107  11
   1  10 -10 407.905 145.247   1
  -1 -10   9 12582.3 590.753  11
   1  10  -9 12420.3 629.298   1
  -1 -10   9 13562.3 703.991  10
   1  10  -8 446.649 116.336   2
  -1 -10   8 494.123 162.825  10
  -1 -10   8 755.137 183.843   3
   1  10  -8 534.347 145.248   1
  -1 -10   8 741.342 162.512  11
   1  10  -7 24728.1 773.191   2
  -1 -10   7 24202.4 828.960   3
   1  10  -7 23904.3 783.226   1
  -1 -10   7 25966.8 876.818  10
  -1 -10   7 23931.3 733.228   5
  -1 -10   7 25452.4 789.122  11
   1  10  -6 6334.83 404.050   2
   1  10  -6 6841.69 396.797   1
  -1 -10   6 6824.67 431.984   3
  -1 -10   6 6250.11 390.199  11
  -1 -10   6 6264.35 372.371   5
  -1 -10   5 3217.88 283.675  11
   1  10  -5 3348.00 303.074   2
  -1 -10   5 3233.70 267.273   5
  -1 -10   5 3676.27 323.762   3
  -1 -10   4 22003.3 726.911  11
  -1 -10   4 22433.7 692.624   5
   1  10  -4 23569.4 720.102   9
   1  10  -4 22322.1 776.062   2
  -1 -10   4 21532.5 744.654   3
  -1 -10   3 6092.38 402.194   3
  -1 -10   3 6478.47 406.265  11
   1  10  -3 6141.40 366.292   9
  -1 -10   3 6797.98 389.588   5
   1  10  -3 5584.73 404.979   2
  -1 -10   2 246.778 96.4379   5
   1  10  -2 134.334 89.4803   9
  -1 -10   2-22.3605 92.5163  11
   1  10  -2 104.876 105.838   2
  -1 -10   1 1410.18 198.167   5
   1  10  -1 1281.63 220.700   2
   1  10  -1 1306.36 177.960   9
  -1 -10   1 1350.97 215.055  11
  -1 -10   0 432.919 144.580  11
  -1 -10   0 416.830 139.139   5
   1  10   0 377.528 150.933   2
   1  10   1 1152.93 205.074   2
  -1 -10  -1 820.027 187.339  11
   1  10   2 687.245 167.189   2
  -1 -10  -2 390.962 138.254  11
   1  10   3 17110.6 774.641   2
  -1 -10  -3 16030.0 784.967  11
  -1 -10  -4 9648.20 631.032  11
   1  10   4 9141.96 579.051   2
  -1 -10  -5 1009.31 225.107  11
  -1 -11  12 4505.25 410.364  11
   1  11 -11 7417.94 550.161   1
  -1 -11  11 7927.52 595.868  10
  -1 -11  11 6903.42 486.595  11
   1  11 -10 2193.91 294.045   1
  -1 -11  10 2199.11 317.660  10
  -1 -11  10 1830.17 256.783  11
  -1 -11  10 2057.38 295.888   3
  -1 -11   9 17142.4 804.913  10
   1  11  -9 15279.9 713.465   1
  -1 -11   9 16382.9 699.707  11
  -1 -11   9 16141.9 750.082   3
  -1 -11   8 7002.77 428.032   5
   1  11  -8 6500.01 416.562   2
  -1 -11   8 6761.10 490.125  10
   1  11  -8 6216.19 434.041   1
  -1 -11   8 7159.34 455.987  11
  -1 -11   8 6875.95 486.020   3
   1  11  -7 190.123 105.951   2
  -1 -11   7 125.626 94.1785  11
  -1 -11   7 212.369 88.6854   5
  -1 -11   7 326.644 146.769   3
  -1 -11   6 4999.95 375.454  11
  -1 -11   6 4667.81 343.675   5
   1  11  -6 4161.80 351.835   2
  -1 -11   6 4844.84 394.711   3
   1  11  -5 315.526 132.447   2
  -1 -11   5 3.10709 99.3363  11
  -1 -11   5-45.1345 115.770   3
   1  11  -4 9722.63 486.652   9
  -1 -11   4 9126.48 501.991  11
   1  11  -4 9652.61 550.181   2
  -1 -11   4 10133.1 550.536   3
   1  11  -3 2411.97 244.405   9
   1  11  -3 2098.91 272.843   2
  -1 -11   3 2984.52 305.549  11
   1  11  -2 585.094 162.935   2
  -1 -11   2 1053.51 187.600  11
  -1 -11   1 140.019 113.646  11
   1  11  -1-106.796 121.015   2
  -1 -11   0 2306.57 291.193  11
   1  11   0 2107.50 297.573   2
  -1 -11  -1 25.1744 140.713  11
   1  11   1 172.028 114.310   2
   1  11   2 2942.73 341.270   2
  -1 -11  -2 2296.49 309.623  11
  -1 -12  11 530.659 142.952  11
   1  12 -11 143.023 119.210   1
  -1 -12  10 670.431 193.204   3
  -1 -12  10 551.543 192.223  10
   1  12 -10 333.740 142.390   1
  -1 -12  10 300.211 129.476  11
  -1 -12   9-55.0981 109.538  11
  -1 -12   9 77.6981 126.885   3
  -1 -12   8 5640.75 426.241  11
   1  12  -8 5123.69 398.642   2
  -1 -12   8 5462.82 451.873   3
  -1 -12   7 406.047 130.255  11
   1  12  -7 322.787 110.402   2
  -1 -12   7 408.621 163.943   3
   1  12  -6 140.306 113.680   2
  -1 -12   6 51.2361 121.529   3
  -1 -12   6 22.6807 83.1014  11
  -1 -12   5 478.001 158.529   3
  -1 -12   5 895.363 181.333  11
   1  12  -5 578.661 163.257   2
   1  12  -4 1194.01 221.572   2
  -1 -12   4 1462.09 240.033  11
  -1 -12   3 1084.18 202.895  11
   1  12  -3 907.310 213.401   2
   1  12  -2 748.598 192.908   2
  -1 -12   2 934.821 209.761  11
   1  12  -1 5206.45 453.385   2
  -1 -13   8 1184.70 243.678   3
  -1 -13   7 2505.09 323.289   3
   1  13  -7 2328.44 297.877   2
  -1 -13   6 4521.59 424.862   3
   1  13  -6 4435.51 414.897   2
   1  13  -5 4816.80 427.791   2
   2 -13   1-181.560 166.242  11
  -2  13  -2 3136.97 347.860   2
   2 -13   2 2611.29 332.610  11
   2 -13   3 23401.8 958.274  11
  -2  13  -3 26284.8 980.980   2
   2 -13   4 1639.64 280.738  11
  -2  13  -4 1715.12 262.521   2
  -2  13  -4 1025.92 196.007  12
  -2  13  -5 1366.35 248.640   2
   2 -13   5 1030.68 213.313  11
  -2  13  -5 1012.82 206.278  12
   2 -13   5 1185.52 244.920   3
  -2  13  -6 13961.7 751.316  12
  -2  13  -6 13078.0 670.915   2
   2 -13   6 13253.0 721.024  11
   2 -13   7 762.235 228.241  11
   2 -12  -2 813.515 210.017  11
   2 -12  -1 30190.7 1112.81  11
  -2  12   1 30238.2 1063.85   2
  -2  12   0 8523.26 562.914   2
   2 -12   0 8175.81 569.607  11
   2 -12   1 27.0214 120.364  11
  -2  12  -1 14.2102 111.401   2
  -2  12  -2 14212.5 698.725   2
   2 -12   2 13277.2 691.491  11
   2 -12   3 709.204 183.457  11
  -2  12  -3 400.432 134.853  12
  -2  12  -4 4707.01 404.928  12
  -2  12  -4 4644.33 395.307   2
   2 -12   4 4120.95 392.816  11
   2 -12   4 5213.02 436.961   3
  -2  12  -5 618.388 181.213  12
  -2  12  -5 946.848 189.949   2
   2 -12   5 777.153 215.581   3
   2 -12   5 551.650 159.411  11
  -2  12  -6 1024.01 205.215  12
   2 -12   6 1510.88 246.537  11
  -2  12  -6 1526.38 226.874   2
   2 -12   6 1570.37 255.225   3
   2 -12   7 507.436 194.881   3
  -2  12  -7 414.291 170.856  12
   2 -12   7 885.545 202.878  11
  -2  12  -8 347.286 136.573  12
   2 -12   8 519.626 185.303   3
   2 -12   8 473.489 172.982  11
   2 -12   9 123.670 116.590  11
  -2  11   4 244.917 145.693   2
   2 -11  -4 435.288 177.292  11
   2 -11  -3 4144.98 418.209  11
  -2  11   3 3837.47 379.156   2
   2 -11  -2 4628.76 427.303  11
  -2  11   2 4464.58 405.175   2
  -2  11   1 850.685 200.160   2
   2 -11  -1 1164.47 227.618  11
   2 -11   0 233.153 122.064  11
  -2  11   0 434.259 138.635   2
   2 -11   1 2534.50 291.418  11
  -2  11  -1 2663.02 293.203   2
  -2  11  -2 16333.5 665.362  12
  -2  11  -2 16362.6 702.808   2
   2 -11   2 16906.1 726.078  11
  -2  11  -3 7839.49 476.461  12
   2 -11   3 8386.98 519.193   3
  -2  11  -3 8283.21 495.077   2
   2 -11   3 7812.13 493.231  11
  -2  11  -4 661.917 149.937   2
   2 -11   4 326.111 107.257  11
   2 -11   4 528.049 162.249   3
  -2  11  -4 421.533 131.911  12
   2 -11   5 322.721 119.294   3
  -2  11  -5 219.292 128.401  12
  -2  11  -5 152.205 104.207   2
   2 -11   5 129.171 99.6330  11
   2 -11   6 571.796 164.861  11
   2 -11   6 532.184 163.304   3
  -2  11  -6 345.725 124.953  12
  -2  11  -6 403.622 100.972   2
   2 -11   7 2150.03 277.244  11
  -2  11  -7 1510.31 250.859  12
   2 -11   7 2258.56 295.302   3
  -2  11  -7 1916.38 234.679   2
   2 -11   8 2380.35 300.041  11
   2 -11   8 3049.97 346.633   3
  -2  11  -8 3048.87 346.258   1
   2 -11   9 3344.60 371.668   3
   2 -11   9 2839.03 333.725  11
  -2  11  -9 3354.18 373.979   1
  -2  11 -10 42.2947 97.7462   1
   2 -11  10 306.116 165.353  11
   2 -11  10 94.7434 142.537   3
   2 -10  -6 6.96606 135.634  11
  -2  10   6 99.4884 113.414   2
  -2  10   5 42.0421 103.958   2
   2 -10  -5 163.525 126.898  11
   2 -10  -4 325.855 148.390  11
  -2  10   4 293.223 122.704   2
   2 -10  -3 787.103 179.396  11
  -2  10   3 1495.55 229.530   2
   2 -10  -2 2614.02 302.461  11
  -2  10   2 2650.00 293.872   2
  -2  10   1 24526.7 848.379   2
   2 -10  -1 24837.0 880.647  11
  -2  10   0 4927.69 379.936   2
   2 -10   0 4999.25 390.900  11
  -2  10   0 4910.81 328.996  12
  -2  10  -1 1648.85 203.062  12
   2 -10   1 1774.25 232.912  11
  -2  10  -1 1800.89 234.940   2
   2 -10   2 2861.99 289.712   3
   2 -10   2 2997.91 291.132  11
  -2  10  -2 3028.63 289.327   2
  -2  10  -2 3071.25 281.919  12
   2 -10   3 6145.07 408.384  11
  -2  10  -3 5876.90 388.587   2
   2 -10   3 6313.83 421.703   3
  -2  10  -3 6779.08 425.133  12
   2 -10   4 51.9043 102.049   3
   2 -10   4-12.4753 99.5576  11
  -2  10  -4 91.8467 78.7098   2
  -2  10  -4 258.522 134.358  12
  -2  10  -5 13855.1 641.211  12
   2 -10   5 12519.3 587.329  11
   2 -10   5 13345.8 620.988   3
  -2  10  -5 13876.6 574.195   2
   2 -10   6 6351.88 428.769  11
  -2  10  -6 5915.15 370.467   2
   2 -10   6 6426.07 441.004   3
  -2  10  -7 23754.1 869.688   1
  -2  10  -7 23326.4 718.180   2
   2 -10   7 22556.3 818.144  11
   2 -10   7 22852.8 839.262   3
   2 -10   8 5451.36 430.632  11
  -2  10  -8 4448.93 400.053   1
   2 -10   8 4523.83 398.127   3
   2 -10   9 2141.97 289.383  11
   2 -10   9 1786.30 260.423   3
  -2  10  -9 2059.93 291.723   1
   2 -10  10 21.9487 118.506  11
  -2  10 -10 50.4828 112.515   1
   2 -10  11 172.547 149.726  10
  -2  10 -11 126.841 114.491   1
  -2   9   7 5265.23 415.094   2
   2  -9  -7 5371.07 502.482  11
  -2   9   6 28.8892 122.862   2
   2  -9  -6 124.380 135.708  11
   2  -9  -5 3093.77 351.709  11
  -2   9   5 3129.98 314.166   2
  -2   9   4 2861.11 292.791   2
   2  -9  -4 2859.94 325.095  11
  -2   9   3 8463.67 489.949   2
   2  -9  -3 8183.20 511.588  11
  -2   9   2 1133.47 188.503   2
   2  -9  -2 1715.75 245.035  11
   2  -9  -1 389.676 124.176  11
  -2   9   1 368.338 119.431   2
  -2   9   0 13875.3 521.037  12
   2  -9   0 13742.0 592.184  11
  -2   9   0 12919.8 564.415   2
  -2   9  -1 32311.1 874.250   2
  -2   9  -1 33337.2 831.265  12
   2  -9   1 35251.2 917.757  11
  -2   9  -2 5328.47 356.080   2
  -2   9  -2 5558.10 357.690  12
   2  -9   2 4700.58 340.229   3
   2  -9   2 4574.37 337.035  11
   2  -9   3 28320.8 830.509   3
   2  -9   3 27916.0 804.857  11
  -2   9  -3 27527.3 778.674   2
  -2   9  -3 28258.5 817.795  12
   2  -9   4 48585.4 1068.09  11
   2  -9   4 50213.9 1115.07   3
  -2   9  -4 51131.6 1131.99  12
  -2   9  -4 49071.4 1018.20   2
  -2   9  -5 11453.8 486.362   2
  -2   9  -5 11032.7 530.078   1
   2  -9   5 10973.6 535.446   3
   2  -9   5 11764.1 535.665  11
   2  -9   6 3885.96 328.319  11
  -2   9  -6 5146.83 320.549   2
  -2   9  -6 4654.71 362.743   1
   2  -9   6 4942.32 372.747   3
  -2   9  -7 4302.81 285.490   2
  -2   9  -7 4677.87 378.187   1
   2  -9   7 4696.57 366.655  11
   2  -9   7 4519.70 364.598   3
  -2   9  -8 33347.5 1040.20   1
   2  -9   8 32756.7 984.305  11
   2  -9   8 34542.6 1093.33  10
  -2   9  -9 1886.31 266.874   1
   2  -9   9 2993.15 352.276  10
  -2   9 -10-82.5715 130.534   1
   2  -9  10-72.3249 142.738  10
   2  -9  11 7179.07 565.850  10
  -2   9 -11 7082.18 549.770   1
  -2   8   9 1022.16 234.341   7
   2  -8  -8 10536.7 630.323   6
  -2   8   8 9918.92 626.471   7
   2  -8  -8 9895.75 669.052  11
   2  -8  -7 17734.6 778.954   6
   2  -8  -7 15603.0 797.587  11
  -2   8   7 16814.8 692.604   2
   2  -8  -6 10533.0 620.658  11
  -2   8   6 9765.58 521.377   2
   2  -8  -5 2747.29 311.382  11
  -2   8   5 2912.91 290.257   2
  -2   8   4 18246.7 681.247   2
   2  -8  -4 18756.5 758.039  11
   2  -8  -3 14249.0 627.777  11
  -2   8   3 14300.8 591.309   2
   2  -8  -2 5027.43 361.795  11
  -2   8   2 4794.58 338.506   2
  -2   8   1 12686.2 530.702   2
  -2   8   1 12739.5 456.667  12
   2  -8  -1 12813.0 547.945  11
   2  -8   0 3470.84 280.263  11
  -2   8   0 3376.29 249.938  12
  -2   8   0 3053.96 261.163   2
   2  -8   1 4914.83 320.502  11
   2  -8   1 5391.37 214.211   5
  -2   8  -1 5412.29 325.411  12
   2  -8   1 5044.64 332.488   3
  -2   8  -1 5385.25 333.461   2
  -2   8  -2 7833.39 396.351   2
   2  -8   2 8439.66 266.737   5
  -2   8  -2 7472.88 390.631  12
   2  -8   2 8055.15 414.854   3
   2  -8   2 7775.39 402.235  11
   2  -8   3 13402.3 538.187   3
   2  -8   3 13329.5 348.485   5
   2  -8   3 13206.6 519.637  11
  -2   8  -3 13394.6 503.528   2
  -2   8  -3 13670.3 545.175  12
  -2   8  -4 25848.0 684.614   2
   2  -8   4 25693.1 748.774   3
   2  -8   4 26635.7 503.849   8
   2  -8   4 27002.3 752.842  11
  -2   8  -4 27810.2 770.827   1
   2  -8   5 17063.9 463.467   8
  -2   8  -5 15926.6 614.395   1
   2  -8   5 16307.7 601.488  11
  -2   8  -5 16441.4 534.846   2
   2  -8   5 16184.8 605.183   3
  -2   8  -6 478.730 121.814   1
   2  -8   6 403.051 98.7523   8
  -2   8  -6 473.580 104.272   2
   2  -8   6 589.078 158.685  10
   2  -8   6 543.302 125.793  11
   2  -8   7 219.019 96.2730  10
   2  -8   7 237.148 98.4711   8
  -2   8  -7 266.135 116.070   1
  -2   8  -7 303.185 74.8416   2
   2  -8   8 6580.43 393.083   8
   2  -8   8 7601.34 502.555  10
  -2   8  -8 6976.82 469.164   1
  -2   8  -9 1096.34 210.094   1
   2  -8   9 510.547 167.851  10
   2  -8   9 755.492 166.754   8
   2  -8  10-46.8525 112.989   8
   2  -8  10 72.6488 137.302  10
  -2   8 -10 3.67632 122.367   1
   2  -8  11 2572.94 313.273   8
   2  -8  11 2888.43 359.492  10
  -2   8 -11 2477.64 313.967   1
   2  -8  12 2640.70 373.899  10
  -2   8 -12 3315.24 394.515   1
   2  -8  12 3368.24 368.721   8
   2  -8  13 97.2068 130.305   8
  -2   7   9 1141.22 233.355   7
   2  -7  -9 1630.63 267.508   6
   2  -7  -9 1174.60 257.261  11
   2  -7  -8 57833.6 1530.93  11
  -2   7   8 55883.6 1191.01   2
   2  -7  -8 57421.4 1393.21   6
  -2   7   8 55737.1 1403.76   7
   2  -7  -7 15843.2 765.132  11
  -2   7   7 17653.5 661.390   2
   2  -7  -7 17709.7 736.631   6
   2  -7  -6-35.1033 135.398   6
   2  -7  -6 83.4410 98.9201  11
  -2   7   6 106.563 90.3263   2
  -2   7   5 10579.8 433.122  10
   2  -7  -5 10807.2 567.370  11
   2  -7  -5 11181.5 530.199   6
  -2   7   5 11583.3 518.840   2
   2  -7  -4 6618.52 424.326  11
  -2   7   4 6092.26 365.714   2
  -2   7   3 23161.4 694.863   2
   2  -7  -3 25347.3 779.502  11
   2  -7  -2 13313.0 537.234  11
  -2   7   2 14535.5 538.131   2
   2  -7  -1 378.768 63.0827   5
   2  -7  -1 373.896 108.597  11
  -2   7   1 361.004 100.220   2
  -2   7   1 478.179 92.9015  12
  -2   7   0 17501.9 519.478  12
  -2   7   0 16465.1 544.957   2
   2  -7   0 17183.3 352.123   5
   2  -7   0 17125.1 561.810  11
   2  -7   1 24866.9 660.861  11
   2  -7   1 25548.8 678.333   3
   2  -7   1 26267.2 418.044   5
  -2   7  -1 25417.2 649.511  12
   2  -7   1 25580.8 369.297   8
  -2   7  -1 24850.5 653.380   2
   2  -7   2 9617.27 258.978   5
   2  -7   2 8921.08 403.093   3
   2  -7   2 9207.11 238.380   8
   2  -7   2 9283.00 402.649  11
  -2   7  -2 9028.33 389.686   2
  -2   7  -2 9639.54 418.170  12
   2  -7   3 4051.11 183.683   8
   2  -7   3 3588.84 259.327  11
  -2   7  -3 3495.92 241.594   2
   2  -7   3 3874.24 273.732   3
   2  -7   4 2610.32 228.915  11
   2  -7   4 2678.65 175.613   8
   2  -7   4 2551.74 230.899   3
  -2   7  -4 2669.19 206.536   2
  -2   7  -4 2299.85 221.494   1
   2  -7   5 11945.3 489.134  11
  -2   7  -5 13227.7 538.817   1
   2  -7   5 13426.1 560.829  10
  -2   7  -5 13545.3 442.412   2
   2  -7   5 12614.0 418.616   8
  -2   7  -6 35595.8 925.658   1
   2  -7   6 35561.3 771.708   8
   2  -7   6 36211.0 955.971  10
  -2   7  -6 36486.8 708.969   2
   2  -7   7-86.5896 124.118  10
  -2   7  -7 11.4821 45.7495   2
  -2   7  -7-25.9384 91.7130   1
   2  -7   7 81.8641 80.8438   8
   2  -7   8 2773.06 304.633  10
   2  -7   8 2493.52 254.262   8
  -2   7  -8 2520.18 278.103   1
   2  -7   9 26957.6 845.619   8
   2  -7   9 28349.0 963.435  10
  -2   7  -9 27250.7 780.094   4
  -2   7  -9 27205.5 934.842   1
  -2   7 -10 1456.61 246.215   1
   2  -7  10 1381.83 240.548  10
   2  -7  10 1015.35 178.149   8
   2  -7  11 7800.90 558.053  10
  -2   7 -11 6931.30 526.142   1
   2  -7  11 7031.45 500.821   8
   2  -7  12 916.900 203.176   8
   2  -7  12 998.810 246.947  10
  -2   7 -12 731.198 204.575   1
   2  -7  13 3000.15 380.045   8
   2  -6 -10 3825.69 393.824   6
  -2   6  10 3119.85 369.184   7
  -2   6   9 9789.32 596.732   7
   2  -6  -9 9158.69 616.681  11
   2  -6  -9 9771.61 589.424   6
  -2   6   8 85.5450 136.428   7
   2  -6  -8 14.2835 107.919  11
  -2   6   8 149.874 82.3033   2
   2  -6  -8 50.4111 103.699   6
   2  -6  -7 42354.5 1082.29   6
  -2   6   7 44171.3 965.647   2
   2  -6  -7 40977.0 1155.46  11
  -2   6   6 1415.21 180.975   2
  -2   6   6 1445.23 165.602  10
   2  -6  -6 1597.53 212.887   6
   2  -6  -6 1444.80 218.831  11
  -2   6   5 2513.67 204.986  10
   2  -6  -5 2782.64 270.715  11
   2  -6  -5 3052.66 204.726   1
  -2   6   5 2711.55 238.033   2
   2  -6  -5 2507.72 247.895   6
   2  -6  -4 4088.37 292.097   6
   2  -6  -4 4669.12 240.422   1
   2  -6  -4 5065.75 341.653  11
  -2   6   4 4419.03 286.855   2
   2  -6  -3 5642.18 343.109  11
  -2   6   3 5755.17 174.738   9
  -2   6   3 5053.30 302.410   2
   2  -6  -2 4877.50 303.447  11
  -2   6   2 5871.75 177.146   9
  -2   6   2 5356.69 301.177   2
   2  -6  -1 29596.6 693.559  11
  -2   6   1 29068.4 612.691  12
   2  -6  -1 30650.6 446.366   5
  -2   6   1 29450.5 683.262   2
  -2   6   0 285.442 84.3094   2
   2  -6   0 325.010 83.4555  11
   2  -6   0 235.165 42.1810   5
   2  -6   0 217.649 82.5754   3
  -2   6   0 237.373 79.5118  12
   2  -6   0 308.701 49.4658   8
   2  -6   1 2506.11 112.844   5
  -2   6  -1 2175.81 183.190  12
   2  -6   1 2538.85 201.932   3
  -2   6  -1 2351.39 191.757   2
   2  -6   1 2835.95 128.171   8
   2  -6   1 2566.54 201.933  11
  -2   6  -2 115814. 1260.14   2
   2  -6   2 114822. 890.229   8
   2  -6   2 115532. 1301.52  11
  -2   6  -2 114779. 1338.90  12
   2  -6   2 116313. 1318.55   3
  -2   6  -3 3443.45 217.166   2
  -2   6  -3 3313.04 238.180   1
   2  -6   3 3256.45 173.339   8
   2  -6   3 3478.00 235.753  11
   2  -6   3 3013.98 224.958   3
   2  -6   4 10435.3 450.196  10
  -2   6  -4 9841.09 353.399   2
  -2   6  -4 10256.1 435.947   1
   2  -6   4 10022.1 345.495   8
   2  -6   5 18259.8 624.306  10
   2  -6   5 18757.2 529.071   8
  -2   6  -5 19941.9 487.949   2
  -2   6  -5 18947.1 628.602   1
  -2   6  -6 12941.0 383.830   2
   2  -6   6 12857.4 551.568  10
   2  -6   6 11332.3 453.767   8
  -2   6  -6 12416.9 531.912   1
  -2   6  -7 152.096 60.3467   2
  -2   6  -7 122.489 99.7862   1
   2  -6   7 27.6581 100.435  10
   2  -6   7 147.696 96.3653   8
   2  -6   8 2373.57 272.303  10
  -2   6  -8 2529.42 275.741   1
  -2   6  -8 2405.95 226.983   4
  -2   6  -9 18947.7 633.949   4
   2  -6   9 18001.4 748.324  10
  -2   6  -9 18309.6 748.453   1
   2  -6  10 12588.5 658.844  10
  -2   6 -10 12099.0 640.782   1
   2  -6  11 101.820 127.114  10
  -2   6 -11 183.828 138.807   1
   2  -6  12 2456.42 342.259  10
  -2   6 -12 2649.83 339.588   1
   2  -6  13 913.640 232.861   8
  -2   6 -13 1187.93 247.076   1
   2  -6  13 981.722 235.846  10
   2  -5 -11 3005.93 363.593   6
  -2   5  11 2734.37 343.645   7
  -2   5  10 2396.91 329.336   7
   2  -5 -10 2079.89 289.035   6
  -2   5   9 3128.07 334.823   7
   2  -5  -9 3725.79 385.145  11
   2  -5  -9 3769.98 357.257   6
   2  -5  -8 45647.4 1148.93   6
  -2   5   8 43574.3 1137.35   7
  -2   5   8 47575.3 933.471   2
   2  -5  -8 45443.6 1226.32  11
   2  -5  -7 15807.6 640.817   6
  -2   5   7 15622.8 528.848   2
   2  -5  -7 16246.4 505.431   1
  -2   5   7 14628.1 517.222  10
   2  -5  -7 14867.3 659.324  11
   2  -5  -6 9806.36 471.954   6
  -2   5   6 10027.9 409.081  10
   2  -5  -6 10624.1 388.952   1
  -2   5   6 10556.6 426.810   2
   2  -5  -6 9838.87 508.058  11
  -2   5   5 32541.3 728.465   2
  -2   5   5 31149.5 444.866   9
   2  -5  -5 31584.2 839.926  11
   2  -5  -5 31831.2 789.262   6
   2  -5  -5 31098.5 633.949   1
  -2   5   5 31431.0 688.515  10
   2  -5  -4 4933.93 242.369   1
  -2   5   4 5417.04 164.204   9
   2  -5  -4 5166.16 301.072   6
   2  -5  -4 4725.51 307.857  11
  -2   5   4 5417.99 294.317   2
   2  -5  -3 24693.9 651.318  11
   2  -5  -3 25740.0 619.065   6
  -2   5   3 26181.6 617.362   2
   2  -5  -2 150411. 1496.39  11
  -2   5   2 153062. 754.623   9
  -2   5   2 152529. 1444.21   2
   2  -5  -1 161.477 34.3317   5
  -2   5   1 156.986 58.8131  12
   2  -5   0 120383. 1227.24  11
  -2   5   0 119375. 1221.94   2
   2  -5   0 121032. 1233.38   3
   2  -5   0 123955. 833.635   8
  -2   5   0 122555. 1199.96  12
   2  -5   0 124399. 669.716   5
   2  -5   1 41840.1 720.255   3
   2  -5   1 41862.2 716.092  11
   2  -5   1 43275.6 499.883   8
  -2   5  -1 41812.6 733.277  12
  -2   5  -1 42388.1 709.083   2
  -2   5  -2 17436.9 442.621   2
   2  -5   2 16744.1 356.069   8
   2  -5   2 17842.5 474.866  11
  -2   5  -2 17228.1 480.039   1
   2  -5   2 17488.7 468.882   3
   2  -5   3 6507.74 257.927   8
  -2   5  -3 6271.90 313.167   1
  -2   5  -3 6167.78 257.334   2
   2  -5   4 234.370 78.6302   8
  -2   5  -4 258.537 80.1765   1
   2  -5   4 148.059 74.1468  10
  -2   5  -5 13615.1 360.800   2
   2  -5   5 13067.2 502.331  10
  -2   5  -5 12009.8 481.248   1
   2  -5   5 12907.3 447.871   8
   2  -5   6 70129.4 1218.59  10
  -2   5  -6 67041.5 779.370   2
  -2   5  -6 68926.0 1203.30   1
   2  -5   7 349.069 128.592  10
  -2   5  -7 182.864 76.9352   4
  -2   5  -7 253.284 112.968   1
  -2   5  -8 12652.3 493.168   4
  -2   5  -8 11954.3 566.560   1
   2  -5   8 11378.0 549.085  10
   2  -5   9 129.586 123.808  10
  -2   5  -9 65.7589 76.6293   4
  -2   5  -9 101.893 117.017   1
   2  -5  10 565.090 178.452  10
  -2   5 -10 300.451 127.712   1
  -2   5 -11 70.6885 96.4537   1
   2  -5  11-136.249 140.036  10
   2  -5  12 951.228 219.809  10
  -2   5 -12 1053.05 214.744   1
  -2   5 -13 523.370 176.196   1
   2  -5  13 322.043 181.720  10
   2  -4 -12 109.341 126.022   6
  -2   4  12 414.472 170.887   7
   2  -4 -11 1442.27 252.784   6
  -2   4  11 2314.57 315.044   7
  -2   4  10 3018.95 338.424   7
   2  -4 -10 2740.90 317.816   6
  -2   4   9 17738.5 618.175  10
   2  -4  -9 17666.5 781.602  11
   2  -4  -9 19082.7 756.334   6
  -2   4   9 17944.5 744.767   7
   2  -4  -8 3799.93 344.660  11
  -2   4   8 3760.91 276.397  10
  -2   4   8 3560.25 237.798   2
   2  -4  -8 3729.25 261.112   1
   2  -4  -8 3500.34 312.111   6
  -2   4   8 3398.92 313.692   7
   2  -4  -7 10883.9 503.456   6
   2  -4  -7 11193.4 541.823  11
  -2   4   7 10855.2 435.882  10
   2  -4  -7 11053.0 422.964   1
  -2   4   7 11447.4 414.246   2
  -2   4   7 10962.5 523.102   7
  -2   4   6 37097.0 724.297   2
   2  -4  -6 36205.2 713.296   1
  -2   4   6 35453.7 739.047  10
   2  -4  -6 34326.6 881.584  11
   2  -4  -6 35442.3 843.524   6
   2  -4  -5 29948.5 611.645   1
  -2   4   5 30082.7 647.505  10
   2  -4  -5 29580.2 714.782   6
  -2   4   5 31386.9 645.902   2
   2  -4  -5 29571.0 761.664  11
  -2   4   4 7673.73 314.306   2
   2  -4  -4 7849.64 341.182   6
  -2   4   4 7932.82 181.859   9
   2  -4  -4 7437.19 287.275   1
   2  -4  -4 7388.91 354.445  11
   2  -4  -3 11456.2 408.068  11
  -2   4   3 11064.8 173.571   9
  -2   4   3 11484.9 369.844   2
   2  -4  -3 11115.6 372.937   6
   2  -4  -2 492.237 88.9487  11
  -2   4   2 385.591 75.3721   2
  -2   4   2 517.094 35.3250   9
   2  -4  -2 460.479 84.4175   6
  -2   4   1 8658.21 147.550   5
  -2   4   1 8143.86 296.371   2
   2  -4  -1 8422.66 226.168   8
   2  -4  -1 8281.34 158.728   9
  -2   4   1 8461.64 284.301  12
   2  -4  -1 8264.78 299.813  11
  -2   4   0 19720.0 446.377   2
   2  -4   0 19960.9 446.725  11
   2  -4   0 20479.4 330.380   8
   2  -4   0 19974.4 451.859   3
  -2   4   0 19948.7 448.480  12
  -2   4  -1 2602.16 172.607  12
   2  -4   1 2656.21 129.704   8
   2  -4   1 2730.73 167.688  11
  -2   4  -1 2769.61 165.711   2
   2  -4   1 2552.69 163.630   3
  -2   4  -2 112711. 1159.30   1
  -2   4  -2 113386. 999.937   2
   2  -4   2 109566. 1064.95   3
   2  -4   2 110656. 940.182   8
   2  -4   3 10897.1 391.082  10
   2  -4   3 10487.4 334.849   8
  -2   4  -3 10561.5 300.943   2
  -2   4  -3 10892.0 387.720   1
   2  -4   4 101.773 73.6806  10
  -2   4  -4-13.4939 58.5388   1
   2  -4   4 41.9146 50.3870   8
  -2   4  -4 26.2544 34.8523   2
  -2   4  -5 1103.32 154.610   1
  -2   4  -5 953.956 89.7010   2
   2  -4   5 688.401 123.851  10
  -2   4  -6 3026.87 251.902   1
  -2   4  -6 2588.67 208.411   4
   2  -4   6 2529.38 231.946  10
  -2   4  -6 2497.62 134.200   2
   2  -4   7 504.467 130.232  10
  -2   4  -7 369.786 90.1265   4
  -2   4  -7 421.182 127.213   1
  -2   4  -8 27678.3 828.359   1
  -2   4  -8 29197.3 736.579   4
   2  -4   8 28979.4 838.393  10
  -2   4  -9 4607.48 363.178   1
   2  -4   9 4830.38 367.145  10
  -2   4  -9 5580.17 340.152   4
  -2   4 -10 358.741 115.265   4
   2  -4  10 343.917 141.792  10
  -2   4 -10 320.579 150.155   1
   2  -4  11 45901.5 1229.96  10
  -2   4 -11 44958.7 1235.83   1
   2  -4  12 335.268 143.043  10
  -2   4 -12 360.782 162.441   1
   2  -4  13 244.123 167.239  10
  -2   4 -13 107.813 102.654   1
   2  -3 -12 9736.67 630.327   6
  -2   3  12 9109.32 609.591   7
   2  -3 -11 28364.2 1002.56   6
  -2   3  11 31028.6 1051.26   7
  -2   3  10 2217.44 243.462  10
  -2   3  10 2273.87 282.078   7
   2  -3 -10 2126.91 266.535   6
   2  -3 -10 2617.77 251.479   1
  -2   3   9 3309.87 273.540  10
   2  -3  -9 3912.63 333.500   6
   2  -3  -9 3434.43 271.065   1
  -2   3   9 3395.96 321.420   7
  -2   3   8 2674.21 261.970   7
  -2   3   8 2498.82 231.523  10
   2  -3  -8 2577.79 279.871  11
   2  -3  -8 2710.54 271.815   6
  -2   3   8 2946.32 197.087   2
   2  -3  -8 2786.56 228.236   1
  -2   3   7 13648.1 477.623  10
  -2   3   7 14893.1 576.070   7
   2  -3  -7 15697.6 577.167   6
   2  -3  -7 14932.0 489.893   1
  -2   3   7 15169.6 426.433   2
   2  -3  -7 13914.6 575.949  11
   2  -3  -6 49638.4 992.509  11
   2  -3  -6 49256.6 939.345   6
  -2   3   6 48702.7 842.736  10
  -2   3   6 49000.9 743.876   2
   2  -3  -6 49563.0 832.004   1
  -2   3   5 12008.8 395.901  10
   2  -3  -5 12234.5 458.251  11
  -2   3   5 12460.8 365.749   2
   2  -3  -5 11974.3 428.667   6
   2  -3  -5 12813.5 395.742   1
   2  -3  -4 6773.70 293.953   6
   2  -3  -4 6403.48 304.536  11
   2  -3  -4 6169.59 253.129   1
  -2   3   4 6503.05 275.782  10
  -2   3   4 6769.66 261.343   2
   2  -3  -3 11955.5 351.245   6
   2  -3  -3 12475.4 383.024  11
  -2   3   3 12062.9 340.067   2
   2  -3  -2 8450.91 262.476   6
   2  -3  -2 8160.98 280.535  11
  -2   3   2 8208.27 176.255   5
  -2   3   2 8867.61 282.333   2
  -2   3   1 2407.64 144.581  12
   2  -3  -1 2161.88 66.4330   9
  -2   3   1 2327.99 142.425   2
   2  -3  -1 2212.04 113.305   8
   2  -3  -1 2246.59 139.541  11
  -2   3   0 134992. 1068.78  12
   2  -3   0 134031. 1014.28  11
  -2   3   0 137768. 1035.79   2
   2  -3   0 136288. 1024.53   3
   2  -3   0 136797. 836.574   8
  -2   3  -1 794.925 93.0746  12
  -2   3  -1 1095.40 95.7192   2
   2  -3   1 1021.17 84.5014   8
   2  -3   1 1121.10 97.9298  11
   2  -3   1 942.099 92.1271   3
   2  -3   2 8216.82 266.782   8
  -2   3  -2 7960.66 238.785   2
  -2   3  -2 8044.76 295.312   1
  -2   3  -3 17093.1 460.655   1
   2  -3   3 16243.1 445.776  10
  -2   3  -3 16960.2 340.192   2
   2  -3   3 17081.3 431.479   8
  -2   3  -4 36470.8 497.821   2
  -2   3  -4 37167.0 726.107   1
   2  -3   4 36001.3 707.978  10
  -2   3  -5 5043.90 293.769   1
   2  -3   5 5431.41 295.923  10
  -2   3  -5 5288.52 268.289   4
   2  -3   6 17580.3 561.223  10
  -2   3  -6 17220.1 509.225   4
  -2   3  -6 16558.0 554.579   1
   2  -3   7 37495.4 853.025   7
  -2   3  -7 38741.9 811.592   4
   2  -3   7 37625.4 867.453  10
  -2   3  -7 37845.8 889.740   1
   2  -3   8 7034.39 401.494  10
   2  -3   8 6533.13 386.417   7
  -2   3  -8 6529.21 352.848   4
  -2   3  -8 6087.24 384.286   1
  -2   3  -9 9470.20 442.005   4
   2  -3   9 9480.82 496.610   7
   2  -3   9 9912.91 504.482  10
  -2   3  -9 9369.64 501.575   1
  -2   3 -10 201.160 122.066   1
   2  -3  10 121.867 90.4855  10
  -2   3 -10 126.718 83.0029   4
   2  -3  10 73.1361 91.5105   7
   2  -3  11 21279.7 833.715   7
   2  -3  11 22278.4 837.596  10
  -2   3 -11 22133.5 854.093   1
   2  -3  12 10082.7 612.028   7
   2  -3  12 11110.5 622.321  10
  -2   3 -12 10783.0 628.655   1
  -2   3 -13 241.816 137.938   1
   2  -2 -13-64.1324 121.421   6
  -2   2  13 118.853 134.580   7
   2  -2 -12 3042.56 358.952   6
  -2   2  12 2192.81 303.610   7
  -2   2  11 14376.8 698.110   7
  -2   2  11 12801.9 584.240  10
   2  -2 -11 13127.7 590.415   1
   2  -2 -11 15147.0 718.158   6
  -2   2  10 13703.1 573.685  10
   2  -2 -10 14068.9 577.571   1
  -2   2  10 13768.9 645.412   7
   2  -2 -10 14806.0 668.059   6
   2  -2  -9 5347.07 381.956   6
  -2   2   9 5841.23 353.434  10
   2  -2  -9 5905.12 355.225   1
  -2   2   9 5338.34 380.220   7
   2  -2  -8 7076.79 360.483   1
  -2   2   8 6452.84 349.255  10
   2  -2  -8 6924.73 400.916   6
  -2   2   8 7620.34 273.852   2
  -2   2   8 7110.00 411.199   7
   2  -2  -7 10713.9 411.732   1
  -2   2   7 10260.0 409.235  10
  -2   2   7 10017.0 308.628   2
   2  -2  -7 10179.7 448.488   6
   2  -2  -7 10484.9 471.326  11
  -2   2   7 10017.7 451.397   7
   2  -2  -6 7462.67 352.771   6
  -2   2   6 7440.63 327.237  10
   2  -2  -6 8299.23 339.940   1
  -2   2   6 7423.02 258.056   2
   2  -2  -6 7397.44 363.310  11
  -2   2   6 7523.95 364.872   7
   2  -2  -5 37035.7 740.273  11
  -2   2   5 36396.3 663.680  10
   2  -2  -5 36335.4 697.242   6
   2  -2  -5 37489.5 664.314   1
  -2   2   5 37440.4 559.191   2
  -2   2   4 54792.2 655.854   2
   2  -2  -4 55973.0 741.590   1
  -2   2   4 54986.1 755.515  10
   2  -2  -4 55660.6 768.426   6
   2  -2  -4 55361.4 809.707  11
  -2   2   3 1303.33 100.922   2
  -2   2   3 1289.21 48.4253   9
   2  -2  -3 1210.07 113.444  11
   2  -2  -3 1223.33 106.282   6
   2  -2  -3 1396.80 112.990   1
   2  -2  -2 31684.5 480.251  11
  -2   2   2 31418.0 465.938   2
   2  -2  -2 30591.0 439.206   8
   2  -2  -2 31046.4 429.320   6
  -2   2   1 990438. 2076.49   6
   2  -2  -1 994651. 2424.95  11
   2  -2   0 10412.7 239.488   3
  -2   2   0 10107.7 268.881  12
   2  -2   0 10179.2 239.857  11
   2  -2   0 10054.8 228.059   8
   2  -2   0 10327.4 127.986   5
  -2   2   0 10125.8 251.735   2
   2  -2   1 3118.33 112.461   5
  -2   2  -1 3419.50 146.613   2
   2  -2   1 3309.27 152.749   8
  -2   2  -1 2974.98 154.487  12
  -2   2  -2 220141. 1433.43   1
   2  -2   2 216421. 1377.64   8
  -2   2  -2 216890. 1135.18   2
   2  -2   2 217807. 1389.20  10
   2  -2   3 37.2943 49.6064   8
  -2   2  -3-67.2431 50.1698   1
   2  -2   3-1.91540 46.7616  10
  -2   2  -3 97.8126 48.8703   4
  -2   2  -4 7779.00 319.869   1
  -2   2  -4 7674.73 302.589   4
   2  -2   4 7484.88 305.442  10
   2  -2   4 7742.67 298.143   7
  -2   2  -5 577.326 103.133   1
   2  -2   5 720.685 111.793  10
   2  -2   5 547.676 99.9656   7
  -2   2  -5 707.862 103.189   4
   2  -2   6 24757.8 631.104   7
  -2   2  -6 24055.9 611.852   4
   2  -2   6 23427.8 615.742  10
  -2   2  -6 23867.0 641.730   1
   2  -2   7 6677.20 359.108   7
  -2   2  -7 6061.12 327.501   4
   2  -2   7 6253.44 348.038  10
  -2   2  -7 5668.10 340.126   1
  -2   2  -8 12769.3 496.449   4
   2  -2   8 12582.0 526.649   7
   2  -2   8 11396.9 493.180  10
  -2   2  -8 11871.1 514.822   1
  -2   2  -9 12898.0 526.329   4
   2  -2   9 12917.5 571.237   7
   2  -2   9 12492.5 546.757  10
  -2   2  -9 12659.6 567.464   1
   2  -2  10 8446.59 493.238   7
   2  -2  10 7558.42 451.694  10
  -2   2 -10 7788.37 424.478   4
  -2   2 -10 7751.65 473.458   1
   2  -2  11 2590.99 294.934  10
   2  -2  11 2827.35 319.903   7
  -2   2 -11 2613.73 298.919   1
   2  -2  12 1998.19 286.480   7
  -2   2 -12 2170.43 288.376   1
   2  -2  13 2706.39 352.019   7
  -2   1  13 3196.55 379.124   7
   2  -1 -13 2521.22 339.546   6
  -2   1  12 1905.76 288.366   7
   2  -1 -12 1471.90 217.076   1
   2  -1 -12 1421.75 236.418   6
  -2   1  12 1236.21 205.986  10
  -2   1  11 3891.12 328.113  10
   2  -1 -11 4013.86 332.332   1
   2  -1 -11 3929.51 369.416   6
  -2   1  11 3721.45 353.537   7
   2  -1 -10 17888.0 710.585   6
   2  -1 -10 18038.6 655.711   1
  -2   1  10 16823.3 632.771  10
  -2   1  10 16983.2 689.292   7
   2  -1  -9 3959.89 292.075   1
  -2   1   9 4005.25 301.806  10
  -2   1   9 3869.68 317.967   7
   2  -1  -8 14111.8 507.796   1
  -2   1   8 14040.2 510.178  10
  -2   1   8 14922.7 336.041   2
  -2   1   8 14093.8 551.627   7
  -2   1   7 39589.0 791.854  10
   2  -1  -7 40317.9 798.289   1
  -2   1   7 40024.5 856.942   7
  -2   1   7 41481.3 552.744   2
  -2   1   6 8478.35 343.055  10
  -2   1   6 9777.32 261.094   2
   2  -1  -6 9522.04 361.067   1
   2  -1  -6 9522.70 387.540  11
  -2   1   6 9111.39 379.761   7
  -2   1   5 170657. 1057.12   2
  -2   1   5 167488. 1395.30  10
   2  -1  -5 165868. 1448.88  11
  -2   1   5 168298. 1474.76   7
   2  -1  -5 169622. 1396.22   1
   2  -1  -4 85247.6 901.855   1
  -2   1   4 85538.1 908.118  10
   2  -1  -4 84849.1 916.444  11
   2  -1  -3 18583.1 369.029  11
   2  -1  -3 17677.4 337.586   6
  -2   1   3 18027.6 325.865   2
  -2   1   3 18994.1 234.183   9
  -2   1   3 17960.1 381.772  10
   2  -1  -3 17489.3 370.801   1
   2  -1  -2 264956. 1175.08  11
  -2   1   2 268078. 728.992   9
   2  -1  -2 267017. 726.056   9
   2  -1  -2 264472. 1243.20   8
  -2   1   2 262507. 1217.67   2
   2  -1  -2 266251. 1018.99   6
  -2   1   1 1104.13 51.5057   5
  -2   1   1 1239.97 70.3013  11
  -2   1   1 1164.73 82.8045   2
   2  -1  -1 1102.19 76.4103   8
   2  -1  -1 1143.54 68.4638  11
  -2   1   1 1204.85 50.8073   6
   2  -1   0 115658. 617.118   3
  -2   1   0 116605. 625.668   5
  -2   1   0 117396. 805.848   2
   2  -1   0 116023. 775.532   8
  -2   1   0 114118. 817.069  12
  -2   1  -1 41607.9 551.481   4
  -2   1  -1 41393.6 471.924   5
  -2   1  -1 42176.9 496.143   2
   2  -1   1 42475.7 543.621   8
  -2   1  -1 41325.4 503.489  12
  -2   1  -2 9149.88 273.547   1
  -2   1  -2 9005.85 281.778   4
   2  -1   2 9338.50 260.609  10
  -2   1  -2 9100.09 250.598  12
   2  -1   2 9111.85 291.577   8
   2  -1   3 134023. 1055.39   7
   2  -1   3 137462. 1102.23  10
  -2   1  -3 135811. 1200.34   4
  -2   1  -4 11509.5 367.933   1
   2  -1   4 10999.1 343.941  10
  -2   1  -4 11083.5 372.618   4
   2  -1   4 11173.3 344.772   7
  -2   1  -5 14104.2 446.433   4
   2  -1   5 13355.1 412.224  10
  -2   1  -5 13616.0 435.231   1
   2  -1   5 13926.1 427.926   7
   2  -1   6 10498.8 395.249  10
  -2   1  -6 10874.0 419.841   1
   2  -1   6 10519.3 411.786   7
  -2   1  -6 11053.8 424.711   4
  -2   1  -7 2775.26 228.116   1
  -2   1  -7 2667.11 230.215   4
   2  -1   7 2574.65 216.791  10
   2  -1   7 2807.91 236.301   7
   2  -1   8 15280.4 554.072  10
  -2   1  -8 13420.8 525.912   4
  -2   1  -8 14344.8 554.232   1
   2  -1   8 14018.9 555.735   7
  -2   1  -9 43088.8 1022.62   1
   2  -1   9 44558.3 996.787  10
   2  -1   9 43973.4 1047.50   7
  -2   1 -10 907.447 173.479   1
   2  -1  10 681.539 175.967   7
  -2   1 -10 1014.68 173.222   4
  -2   1 -11 7790.27 488.533   1
   2  -1  11 7984.81 509.578   7
   2  -1  12 3712.38 380.179   7
  -2   1 -12 3948.55 425.193   6
   2   0 -14 1323.62 272.825   6
  -2   0  14 1311.52 255.303   7
   2   0 -14 1596.81 258.019   1
  -2   0  13 1058.30 234.213   7
  -2   0  13 1265.92 228.467  10
   2   0 -13 1330.63 221.044   1
   2   0 -13 1510.86 280.797   6
  -2   0  12 2220.42 271.824  10
   2   0 -12 2284.79 270.414   1
  -2   0  12 2060.80 291.840   7
  -2   0  11 448.769 157.659   7
  -2   0  11 399.236 123.831  10
   2   0 -11 546.987 136.586   1
  -2   0  10 29205.5 837.276  10
   2   0 -10 28806.5 832.313   1
  -2   0  10 29062.6 881.713   7
   2   0  -9 86860.6 1356.57   1
  -2   0   9 85788.2 1342.55  10
  -2   0   9 85680.9 1408.43   7
  -2   0   8 2787.67 249.487   7
   2   0  -8 2517.79 217.931   1
  -2   0   8 2506.64 119.614   2
  -2   0   8 2226.59 209.745  10
  -2   0   7 1244.38 86.4388   2
  -2   0   7 1255.49 160.286   7
   2   0  -7 1041.34 140.546   1
  -2   0   7 789.835 123.531  10
  -2   0   6 7017.01 311.678  10
   2   0  -6 6943.08 310.386   1
  -2   0   6 6608.80 195.536   2
  -2   0   6 6937.21 320.540   7
  -2   0   6 6459.68 181.253   4
  -2   0   5 4096.56 124.263   4
  -2   0   5 3953.78 151.358   2
   2   0  -5 3941.18 215.947   1
  -2   0   5 4013.12 218.221  10
  -2   0   5 4288.01 228.621   7
   2   0  -4 1804.23 125.206  11
  -2   0   4 1846.33 104.161   2
  -2   0   4 1789.83 132.915  10
   2   0  -4 2155.44 146.066   1
  -2   0   4 1945.77 138.491   7
   2   0  -3 267183. 1216.13  11
  -2   0   3 266276. 1204.09   2
  -2   0   3 267707. 1404.84  10
  -2   0   3 266884. 1341.68   7
  -2   0   2 17843.1 232.086  11
  -2   0   2 17072.3 308.095   2
  -2   0   2 17891.3 255.984   9
   2   0  -2 16475.0 247.147   9
   2   0  -2 17416.0 235.035  11
  -2   0   2 17733.3 322.646  10
   2   0  -2 17410.7 306.123   8
   2   0  -2 17426.3 324.264   1
   2   0  -1 55758.3 297.842  11
   2   0  -1 54183.6 465.855   9
   2   0  -1 55716.8 498.691   8
  -2   0   1 55025.8 462.982   5
  -2   0   1 55615.4 495.622   4
   2   0   0 23981.4 354.983   8
  -2   0   0 24012.1 380.392   4
  -2   0   0 23509.2 348.598   5
  -2   0   0 24445.4 240.267   6
   2   0   1 13954.3 218.895   7
  -2   0  -1 13580.9 252.748  12
   2   0   1 13541.0 314.464   8
  -2   0  -1 13779.6 326.933   4
  -2   0  -1 13926.4 248.361  10
  -2   0  -1 13664.5 219.517   7
  -2   0  -1 13475.0 307.532   5
  -2   0  -2 7148.05 197.935  12
  -2   0  -2 6879.67 251.844   5
  -2   0  -2 7280.87 224.199   1
   2   0   2 7122.06 201.792  10
  -2   0  -2 7868.14 274.983   4
   2   0   2 7432.10 265.781   8
   2   0   2 7478.11 205.131   7
  -2   0  -3 17150.9 383.742   1
  -2   0  -3 16816.2 438.705   4
  -2   0  -3 17441.1 327.922  12
   2   0   3 17170.6 352.849  10
   2   0   3 17086.3 369.737   7
  -2   0  -4 17919.6 431.628   1
   2   0   4 16877.8 422.724   7
  -2   0  -4 17001.6 476.492   4
   2   0   4 17773.9 403.694  10
  -2   0  -5 17246.1 466.544   1
  -2   0  -5 17667.6 522.341   4
   2   0   5 18067.0 447.734  10
   2   0   5 16999.8 475.965   7
   2   0   6 58083.9 879.150  10
  -2   0  -6 57780.3 1009.39   4
   2   0   6 57168.5 953.884   7
  -2   0  -6 57725.9 922.978   1
   2   0   7 14677.2 481.297  10
  -2   0  -7 14917.2 515.108   1
  -2   0  -7 14880.5 542.722   4
   2   0   7 14732.4 529.332   7
   2   0   8 9167.12 454.451   7
  -2   0  -8 10300.7 474.675   4
   2   0   8 9783.49 427.391  10
  -2   0  -8 9894.72 446.423   1
  -2   0  -9 1105.28 196.998   6
   2   0   9 1076.18 184.736   7
  -2   0  -9 866.715 158.009   4
  -2   0  -9 977.019 156.043   1
   2   0  10 4181.21 359.097   7
  -2   0 -10 4730.30 421.888   6
  -2   0 -10 4782.92 357.821   4
  -2   0 -11-125.472 116.906   6
   2   0  11 264.554 130.355   7
   2   0  12 26.7023 110.457   7
  -2   0 -12-53.5408 174.808   6
   2   1 -15 1948.69 296.366   1
  -2  -1  14 163.738 157.792   7
  -2  -1  14-71.4391 141.795  10
   2   1 -14 124.916 99.7549   1
  -2  -1  13 29430.3 1011.50  10
   2   1 -13 30023.2 1018.98   1
  -2  -1  13 26724.5 1002.01   7
  -2  -1  12 1072.92 201.292  10
   2   1 -12 1361.89 211.686   1
  -2  -1  12 1334.36 230.594   7
   2   1 -11 2671.52 275.642   1
  -2  -1  11 2957.35 295.085  10
  -2  -1  11 3213.60 311.820   7
   2   1 -10 20316.4 703.438   1
  -2  -1  10 19765.3 695.447  10
  -2  -1  10 19878.1 719.534   7
   2   1  -9 6340.10 372.036   1
  -2  -1   9 6172.58 371.010  10
  -2  -1   9 6114.16 375.194   7
  -2  -1   8 24374.6 676.065  10
   2   1  -8 25096.8 686.143   1
  -2  -1   8 25273.2 700.848   7
   2   1  -7 76.7680 24.5114   2
   2   1  -7 150.383 73.3996   1
  -2  -1   7 64.9760 70.7082  10
  -2  -1   7 95.5809 80.2161   7
  -2  -1   6 451.352 92.3686  10
  -2  -1   6 480.236 96.8470   7
   2   1  -6 331.480 80.3781   1
   2   1  -6 600.548 55.1546   2
  -2  -1   5 61827.0 844.544  10
   2   1  -5 63278.1 853.109   1
  -2  -1   5 64066.5 831.909   7
   2   1  -4 323754. 1744.92   1
   2   1  -4 325231. 1498.00   9
  -2  -1   4 327792. 1728.63  10
  -2  -1   4 325121. 1643.43   7
   2   1  -3 33897.5 450.091   9
   2   1  -3 35235.9 513.706   1
  -2  -1   3 34165.0 385.293  11
  -2  -1   3 33962.0 494.424  10
  -2  -1   3 32963.8 247.041   4
  -2  -1   3 34160.3 447.741   7
  -2  -1   2 387963. 1436.63  10
   2   1  -2 390089. 1485.19   1
  -2  -1   2 391486. 1198.31   4
   2   1  -2 389543. 1442.94   9
   2   1  -2 389440. 1396.65   8
   2   1  -2 392672. 1169.22   7
  -2  -1   2 385627. 1143.94   7
  -2  -1   1 159673. 761.399  10
   2   1  -1 157981. 941.494   9
  -2  -1   1 162613. 937.630   4
   2   1  -1 160060. 833.133   8
  -2  -1   1 163237. 957.623   5
   2   1  -1 163208. 674.948   6
  -2  -1   0 50968.5 464.970   6
   2   1   0 54360.5 423.873  11
  -2  -1   0 53811.5 621.960   4
   2   1   0 52140.8 530.087   8
  -2  -1   0 49130.5 585.603   5
  -2  -1  -1 33012.9 535.973   5
  -2  -1  -1 32820.8 285.456  10
  -2  -1  -1 32076.1 540.133   4
   2   1   1 32358.4 489.941   8
  -2  -1  -1 32945.4 462.056   6
   2   1   1 33446.4 331.939  12
   2   1   1 32644.9 335.082   7
   2   1   1 32469.7 370.648   1
  -2  -1  -2 3672.73 202.621   5
  -2  -1  -2 3333.60 139.233   1
   2   1   2 3601.98 117.903  10
  -2  -1  -2 3672.27 115.114  10
   2   1   2 3466.00 185.915   8
  -2  -1  -2 3579.31 200.030   4
  -2  -1  -2 3538.25 181.647   6
   2   1   2 3564.75 146.287   7
  -2  -1  -3 73781.4 989.300   5
  -2  -1  -3 72952.6 923.825   6
   2   1   3 73278.4 643.051  10
  -2  -1  -3 74243.8 984.213   4
   2   1   3 73421.9 779.828   7
  -2  -1  -3 71553.8 725.792   1
  -2  -1  -3 74161.5 557.965  12
  -2  -1  -4 47925.8 831.918   6
   2   1   4 48256.4 602.132  10
  -2  -1  -4 47182.4 665.318   1
  -2  -1  -4 49403.7 860.616   4
  -2  -1  -4 48359.0 502.138  12
   2   1   4 49090.4 732.724   7
   2   1   5 561.522 96.2463   7
  -2  -1  -5 461.156 83.5643   1
  -2  -1  -5 652.005 129.504   6
   2   1   5 501.459 77.5481  10
  -2  -1  -5 345.503 93.4081   4
  -2  -1  -5 404.939 56.9953  12
   2   1   6 8627.27 319.537  10
  -2  -1  -6 9114.84 261.850  12
  -2  -1  -6 8357.56 337.961   1
  -2  -1  -6 8702.77 413.385   4
  -2  -1  -6 9137.53 439.846   6
   2   1   6 7841.24 366.740   7
  -2  -1  -7 12379.4 448.930   1
  -2  -1  -7 12636.1 558.864   6
   2   1   7 12880.9 428.375  10
  -2  -1  -7 12267.9 517.148   4
   2   1   7 12501.8 493.138   7
  -2  -1  -8 40621.8 870.336   1
  -2  -1  -8 43728.5 1014.71   4
   2   1   8 40999.4 965.060   7
  -2  -1  -8 40569.1 1075.19   6
   2   1   9 18535.0 697.120   7
  -2  -1  -9 18196.6 769.381   6
  -2  -1 -10 27.6875 108.524   6
   2   1  10 22.1222 97.8846   7
  -2  -1 -11 4804.10 456.180   6
   2   1  11 3375.85 349.240   7
   2   2 -15 19312.9 911.769   1
  -2  -2  15 20590.0 949.134  10
  -2  -2  14 1291.22 226.322  10
  -2  -2  14 1609.73 276.257   7
   2   2 -14 1397.78 252.449   1
  -2  -2  13 1287.05 238.469   7
  -2  -2  13 741.681 200.064  10
   2   2 -13 894.414 201.994   1
  -2  -2  12 4080.97 374.251   7
  -2  -2  12 4122.22 374.242  10
   2   2 -12 4161.94 365.039   1
   2   2 -11 9475.41 517.025   1
  -2  -2  11 9164.71 519.672  10
  -2  -2  11 9420.58 523.529   7
   2   2 -10 32.4907 81.0205   1
  -2  -2  10-16.6484 100.654   7
  -2  -2  10 115.268 98.9752  10
  -2  -2   9 8737.22 441.763   7
  -2  -2   9 8178.54 428.882  10
   2   2  -9 8704.42 441.235   1
  -2  -2   8 51544.8 986.342  10
   2   2  -8 53339.0 1008.69   1
  -2  -2   8 53056.4 992.676   7
  -2  -2   7 94.2833 73.5191  10
   2   2  -7 63.1524 70.8463   1
   2   2  -7 77.4344 25.6472   2
  -2  -2   7 111.159 70.0212   7
  -2  -2   6 28640.2 634.461  10
   2   2  -6 28182.4 630.443   1
  -2  -2   6 27633.2 600.502   7
  -2  -2   5 5441.65 260.046  10
   2   2  -5 5433.29 255.806   1
  -2  -2   5 5590.21 249.133   7
   2   2  -4 183395. 1259.46   9
   2   2  -4 186075. 1327.83   1
  -2  -2   4 184513. 1323.06  10
   2   2  -4 181604. 629.878   4
  -2  -2   4 181230. 1214.81   7
   2   2  -3 14355.8 327.408   1
  -2  -2   3 14041.1 324.279  10
   2   2  -3 13435.6 320.015   9
   2   2  -3 14966.5 238.404   4
  -2  -2   3 14068.3 288.844   7
  -2  -2   2 79160.6 651.327  10
   2   2  -2 79480.2 750.956   9
  -2  -2   2 81508.0 425.994  11
  -2  -2   2 77248.4 655.366   4
   2   2  -2 77561.6 601.902   8
   2   2  -2 78520.6 656.651   1
   2   2  -2 82459.4 561.980   7
  -2  -2   1 27162.8 454.602   5
  -2  -2   1 27774.6 285.511  11
   2   2  -1 27227.3 262.560  11
  -2  -2   1 27305.4 298.743  10
  -2  -2   1 27057.7 283.632   3
   2   2  -1 26593.6 438.088   9
   2   2  -1 27225.4 319.010   1
  -2  -2   1 26318.2 441.558   4
   2   2  -1 26575.8 333.855   8
   2   2  -1 27694.3 300.798  10
  -2  -2   0 48663.4 497.294  11
   2   2   0 49180.6 625.190   9
  -2  -2   0 47891.7 648.660   5
  -2  -2   0 47952.8 660.223   4
   2   2   0 48927.5 514.361   8
   2   2   0 50421.5 384.239   3
  -2  -2   0 49774.8 560.503   6
  -2  -2  -1 54199.9 645.613  11
  -2  -2  -1 54218.8 775.153   4
  -2  -2  -1 58053.3 781.818   5
   2   2   1 57806.4 388.825   1
   2   2   1 60103.6 670.096   8
  -2  -2  -1 57864.5 695.770   6
   2   2   1 56212.3 354.548  12
   2   2   2 1289.07 70.7201   1
  -2  -2  -2 1450.55 133.924   6
  -2  -2  -2 1293.91 138.345   5
   2   2   2 1253.55 117.194   8
  -2  -2  -2 1391.32 144.568   4
  -2  -2  -2 1193.07 116.335  11
   2   2   2 1342.39 100.750   7
  -2  -2  -3 876.491 115.821   6
  -2  -2  -3 675.256 53.6392  10
   2   2   3 788.578 93.2722   7
   2   2   3 741.942 57.9374  10
  -2  -2  -3 797.626 119.087   5
  -2  -2  -3 633.837 110.282   4
  -2  -2  -3 707.987 66.6920   1
  -2  -2  -4 50415.6 927.440   4
   2   2   4 50891.2 552.062  10
  -2  -2  -4 51614.2 630.937   1
  -2  -2  -4 48864.0 887.391   6
  -2  -2  -4 50175.1 942.847   5
   2   2   4 50492.5 784.898   7
  -2  -2  -5 16816.7 573.961   6
  -2  -2  -5 17854.5 417.966   1
   2   2   5 18012.2 380.083  10
   2   2   5 17496.6 509.839   7
  -2  -2  -6 25349.6 735.778   4
  -2  -2  -6 24540.5 543.456   1
  -2  -2  -6 25117.3 750.358   6
   2   2   6 24460.2 654.604   7
  -2  -2  -7 6055.25 407.892   6
  -2  -2  -7 6793.37 406.058   4
   2   2   7 7212.43 392.469   7
  -2  -2  -8 1213.49 196.036   4
   2   2   8 1123.83 177.940   7
  -2  -2  -8 1183.08 198.642   6
  -2  -2  -9 3960.36 372.989   6
   2   2   9 3933.71 331.425   7
   2   2  10 384.322 158.079   7
  -2  -2 -10 465.179 185.504   6
  -2  -2 -11 3646.70 406.661   6
   2   3 -15 11859.5 723.586   1
  -2  -3  15 11110.5 704.966  10
  -2  -3  14-25.3282 125.323  10
  -2  -3  14-45.1537 134.831   7
   2   3 -14 142.102 110.508   1
  -2  -3  13 1271.52 236.899  10
  -2  -3  13 893.106 203.495   7
   2   3 -13 1153.32 219.375   1
   2   3 -12 7203.55 487.436   1
  -2  -3  12 7410.06 500.390  10
  -2  -3  12 6852.61 477.938   7
  -2  -3  11 12258.1 602.684  10
   2   3 -11 11913.9 584.555   1
  -2  -3  11 12128.0 591.677   7
  -2  -3  10 5782.33 395.657  10
   2   3 -10 5473.32 379.553   1
  -2  -3  10 5771.73 389.432   7
  -2  -3   9 479.903 137.392   7
  -2  -3   9 649.603 145.988  10
   2   3  -9 418.396 112.627   1
   2   3  -8 114718. 1491.23   1
  -2  -3   8 113588. 1497.13  10
  -2  -3   8 112204. 1444.29   7
  -2  -3   7 54705.9 967.548  10
   2   3  -7 56842.8 983.405   1
  -2  -3   7 55186.5 935.728   7
   2   3  -6 32600.6 685.224   1
  -2  -3   6 32512.0 690.943  10
  -2  -3   6 31943.5 653.685   7
  -2  -3   5 5515.60 249.365   7
  -2  -3   5 4941.44 251.499  10
   2   3  -5 5333.83 245.336   9
   2   3  -5 5242.70 252.951   1
   2   3  -4 54.8584 47.3781   1
  -2  -3   4 58.3434 49.5053   7
   2   3  -4 8.83143 44.4085   9
  -2  -3   4-8.68390 52.4957  10
  -2  -3   3 10499.2 291.893  10
   2   3  -3 10431.3 282.634   1
   2   3  -3 9627.37 301.224   9
  -2  -3   2 8140.92 184.550   8
   2   3  -2 8165.50 271.396   9
  -2  -3   2 8158.52 268.779   5
  -2  -3   2 8100.79 187.346  11
   2   3  -2 8028.30 211.206   1
  -2  -3   2 8487.91 227.831  10
   2   3  -2 8131.33 186.934   8
  -2  -3   1 2454.79 114.612   3
  -2  -3   1 2465.90 99.1355  10
   2   3  -1 2565.84 96.7469  10
   2   3  -1 2340.72 90.6153   1
  -2  -3   1 2451.16 152.838   5
  -2  -3   1 2333.52 114.640  11
   2   3  -1 2719.75 159.181   9
   2   3  -1 2669.40 104.757   8
   2   3   0 94840.2 953.789   9
   2   3   0 96194.4 717.238   8
  -2  -3   0 96124.8 1019.87   5
  -2  -3  -1 186.704 61.2352   6
  -2  -3  -1 272.287 62.5014  11
   2   3   1 98.5145 39.9823   8
  -2  -3  -1 93.1546 65.3605   4
  -2  -3  -1 135.384 60.1926   5
  -2  -3  -2 4045.13 227.520  11
  -2  -3  -2 4367.95 260.359   5
  -2  -3  -2 3978.68 251.456   4
  -2  -3  -2 3839.05 226.502   6
   2   3   2 4221.07 208.781   8
  -2  -3  -3 19470.2 547.117  11
  -2  -3  -3 19535.2 581.189   5
  -2  -3  -3 19441.9 579.729   4
   2   3   3 18376.4 253.136   1
   2   3   3 19308.4 463.035   7
  -2  -3  -3 19428.5 545.336   6
  -2  -3  -4 29165.8 749.037   4
  -2  -3  -4 27967.6 394.730   1
  -2  -3  -4 29006.9 755.133   5
  -2  -3  -4 28299.4 714.637   6
   2   3   4 28674.9 624.444   7
  -2  -3  -5 32096.6 840.801   4
   2   3   5 32294.1 722.210   7
  -2  -3  -5 31724.4 819.204   6
  -2  -3  -6 2541.92 262.044   6
   2   3   6 2548.86 228.143   7
  -2  -3  -7 13792.7 619.782   6
   2   3   7 13555.7 547.007   7
  -2  -3  -8 223.355 115.830   6
   2   3   8 37.2118 95.7308   7
  -2  -3  -9 8039.38 540.664   6
   2   3   9 7235.75 458.424   7
  -2  -3 -10 4744.83 447.155   6
  -2  -4  15 337.162 189.133  10
   2   4 -15 453.905 153.372   1
  -2  -4  14 8123.35 577.668   7
  -2  -4  14 8482.45 597.290  10
   2   4 -14 8427.57 592.654   1
  -2  -4  13 5248.14 442.616   7
  -2  -4  13 5903.22 476.176  10
   2   4 -13 5704.35 461.860   1
  -2  -4  12 8746.40 551.035  10
   2   4 -12 9293.43 559.096   1
  -2  -4  12 9233.73 547.388   7
  -2  -4  11 21347.4 807.475  10
   2   4 -11 19790.8 761.216   1
  -2  -4  11 20053.8 755.174   7
  -2  -4  10 2598.02 278.433  10
   2   4 -10 2557.18 266.700   1
  -2  -4  10 2629.57 268.881   7
   2   4  -9 12273.1 532.725   1
  -2  -4   9 12702.8 558.152  10
  -2  -4   9 13544.9 548.398   7
   2   4  -8 77.8486 90.9075   1
  -2  -4   8 238.864 123.897  10
  -2  -4   8 219.362 95.0218   7
   2   4  -8 76.2640 25.5466   4
  -2  -4   7 57793.8 972.611   7
   2   4  -7 56755.6 1001.22   1
  -2  -4   7 58379.7 1033.75  10
  -2  -4   6 10371.6 382.996   7
   2   4  -6 10564.9 398.339   1
  -2  -4   6 9821.76 399.287  10
  -2  -4   5 7633.57 326.659  10
   2   4  -5 8046.79 322.684   1
   2   4  -5 8372.35 326.425   9
   2   4  -4 25174.6 542.536   9
  -2  -4   4 25485.0 539.890  10
   2   4  -4 24668.8 505.556   1
  -2  -4   3 46947.9 657.247  10
   2   4  -3 45293.1 704.286   9
  -2  -4   3 46369.4 551.006  11
   2   4  -3 46318.6 611.771   1
   2   4  -2 19916.2 342.816   1
  -2  -4   2 19239.5 370.077  10
  -2  -4   2 19443.1 457.481   5
  -2  -4   2 20457.7 278.060   8
   2   4  -2 20373.3 465.359   9
   2   4  -2 20036.6 275.439   8
  -2  -4   2 19726.4 360.486  11
  -2  -4   2 19384.9 385.825   3
  -2  -4   1 1886.49 123.139  11
   2   4  -1 1932.84 93.5832  10
  -2  -4   1 1921.22 98.2215  10
  -2  -4   1 2011.72 157.775   5
   2   4  -1 1782.99 142.026   9
   2   4  -1 1917.10 85.2408   8
  -2  -4   1 1761.84 119.375   3
   2   4  -1 1742.77 79.0233   1
  -2  -4   0 53970.7 720.638  11
  -2  -4   0 54114.9 842.785   5
   2   4   0 54034.9 777.800   9
   2   4   0 53376.3 524.680   8
  -2  -4  -1 4263.87 258.493   5
  -2  -4  -1 4479.86 245.347   6
  -2  -4  -1 4271.25 227.614  11
   2   4   1 4098.38 177.775   8
   2   4   1 4036.37 223.283   9
  -2  -4  -2 30535.7 674.057  11
  -2  -4  -2 32001.7 742.572   5
  -2  -4  -2 31559.0 690.508   6
   2   4   2 31869.3 654.925   9
  -2  -4  -3 2629.81 221.855   6
  -2  -4  -3 2637.97 222.631  11
   2   4   3 2278.36 178.881   8
  -2  -4  -3 2501.67 225.856   5
   2   4   3 2819.12 196.616   7
  -2  -4  -4 2991.65 253.851   6
  -2  -4  -4 3218.71 267.234  11
  -2  -4  -4 3205.32 274.290   5
   2   4   4 3572.92 241.438   8
   2   4   4 3373.63 230.433   7
  -2  -4  -5 62900.1 1208.77   6
   2   4   5 59223.5 1032.48   7
   2   4   6 687.819 133.970   7
  -2  -4  -6 894.795 175.670   6
  -2  -4  -7-71.4228 107.506   6
   2   4   7 98.6870 78.9770   7
  -2  -4  -8 1495.17 233.946   6
  -2  -4  -9 1445.06 262.163   6
   2   4   9 1003.25 203.412   8
   2   5 -15 6159.56 535.865   1
  -2  -5  14 12155.7 704.672   7
  -2  -5  14 11588.6 715.461  10
   2   5 -14 11050.2 681.815   1
  -2  -5  13 770.923 207.751   7
  -2  -5  13 591.774 181.135  10
   2   5 -13 1127.82 222.486   1
  -2  -5  12 448.043 147.228   7
  -2  -5  12 838.351 208.212  10
   2   5 -12 985.100 196.682   1
  -2  -5  11 6663.07 445.460   7
  -2  -5  11 6856.77 473.721  10
   2   5 -11 6047.93 428.898   1
  -2  -5  10 12134.2 563.377   7
  -2  -5  10 12026.7 586.090  10
   2   5 -10 12274.2 577.719   1
  -2  -5   9 445.758 134.934   7
  -2  -5   9 602.653 157.058  10
   2   5  -9 436.653 127.065   1
  -2  -5   8 108890. 1552.57  10
   2   5  -8 113123. 1543.63   1
  -2  -5   7 39620.4 880.283  10
   2   5  -7 39986.7 856.360   1
  -2  -5   6 34171.9 763.597  10
   2   5  -6 33738.0 731.452   1
   2   5  -6 33184.4 719.842   9
   2   5  -5 11512.2 409.851   9
  -2  -5   5 10712.4 398.712  10
   2   5  -5 10863.6 382.884   1
   2   5  -4 6138.33 291.321   9
   2   5  -4 5790.41 255.856   1
  -2  -5   4 5617.37 267.736  10
  -2  -5   4 5434.22 225.963  11
  -2  -5   3 20450.4 506.993   5
   2   5  -3 20843.5 518.689   9
  -2  -5   3 19508.4 269.807   8
  -2  -5   3 19305.8 451.021  10
  -2  -5   3 19476.7 416.312  11
  -2  -5   3 19539.6 457.076   3
   2   5  -3 19927.3 415.702   1
  -2  -5   2 162567. 1278.09   3
  -2  -5   2 165955. 1473.22   5
   2   5  -2 166248. 1439.49   9
  -2  -5   2 165755. 1173.05  10
  -2  -5   2 167756. 1235.18  11
   2   5  -2 165201. 1018.37   1
   2   5  -1 7761.19 160.905   1
  -2  -5   1 8102.84 162.190   1
  -2  -5   1 8626.57 348.394   5
   2   5  -1 8686.82 334.637   9
   2   5  -1 8948.93 169.668   8
  -2  -5   1 8966.64 302.254   3
  -2  -5   1 8743.31 306.780  11
  -2  -5   0 6766.29 325.065   5
   2   5   0 6904.18 300.101   9
   2   5   0 6581.59 140.746  10
   2   5   0 6844.89 181.194   8
  -2  -5   0 6296.89 280.426  11
   2   5   1 53706.7 865.601   9
  -2  -5  -1 54607.1 893.605  11
  -2  -5  -1 53787.0 969.176   5
   2   5   1 56546.5 639.534   8
  -2  -5  -2 86.5008 63.4840   5
   2   5   2 218.952 87.9059   9
   2   5   2 71.7350 44.0316   8
  -2  -5  -2 97.6481 86.8507  11
  -2  -5  -2 129.663 91.1757   6
  -2  -5  -3 905.603 155.413   6
  -2  -5  -3 991.816 164.330   5
   2   5   3 852.133 129.947   9
   2   5   3 1012.44 119.577   8
  -2  -5  -3 886.317 147.959  11
   2   5   4 5654.08 325.040   9
  -2  -5  -4 5754.43 373.653  11
  -2  -5  -4 6373.03 402.324   5
   2   5   4 6032.23 329.523   7
   2   5   4 6543.68 324.439   8
  -2  -5  -4 6264.24 384.006   6
   2   5   5-0.71867 63.8736   7
  -2  -5  -5 65.5995 95.3981   6
   2   5   5-7.11674 80.3973   8
   2   5   6 26956.2 775.669   8
   2   5   6 26623.7 758.443   2
  -2  -5  -6 26641.2 880.774   6
   2   5   6 25086.8 754.686   7
  -2  -5  -7 15831.5 714.666   6
  -2  -5  -8 4694.08 423.530   6
  -2  -5  -9 4330.53 427.562   6
   2   6 -14 11511.8 702.184   1
  -2  -6  14 12944.7 761.988  10
   2   6 -13 16352.5 794.809   1
  -2  -6  13 15774.8 801.104  10
  -2  -6  12 3723.20 380.822  10
   2   6 -12 4159.84 388.239   1
  -2  -6  11 420.834 154.293  10
   2   6 -11 277.324 113.327   1
  -2  -6  10 501.427 161.164  10
   2   6 -10 451.665 130.616   1
  -2  -6   9 45142.9 1089.72  10
   2   6  -9 44299.1 1044.34   1
  -2  -6   8 1555.45 205.312  10
   2   6  -8 1670.42 198.529   1
   2   6  -7 5787.89 340.771   1
  -2  -6   7 5806.82 355.970  10
  -2  -6   6 48888.9 950.147  10
   2   6  -6 48563.6 902.842   1
   2   6  -6 51030.5 935.326   9
   2   6  -5 13693.0 443.115   1
  -2  -6   5 13697.7 405.971  11
   2   6  -5 14788.4 493.477   9
  -2  -6   5 13156.5 465.954  10
   2   6  -4 35247.8 737.710   9
  -2  -6   4 33514.1 699.074   5
  -2  -6   4 34372.0 696.155  10
   2   6  -4 35443.2 648.481   1
  -2  -6   4 35617.5 629.830  11
  -2  -6   3 22260.2 502.653  11
   2   6  -3 22663.9 579.819   9
  -2  -6   3 23198.3 527.731  10
  -2  -6   3 23503.2 591.247   5
   2   6  -3 23427.8 469.098   1
  -2  -6   3 23003.4 545.974   3
  -2  -6   2 5332.24 265.272   3
  -2  -6   2 5530.65 258.299  11
  -2  -6   2 5260.19 290.408   5
   2   6  -2 5294.84 281.899   9
   2   6  -2 5107.25 185.534   1
  -2  -6   2 5300.78 226.365  10
  -2  -6   1 6152.30 292.270  11
  -2  -6   1 5745.27 309.812   5
   2   6  -1 5574.95 287.333   9
  -2  -6   0 10848.4 409.134  11
  -2  -6   0 10858.3 443.031   5
   2   6   0 10130.6 396.147   9
   2   6   0 10924.2 205.028   8
  -2  -6  -1 3182.29 243.898  11
  -2  -6  -1 3780.56 278.311   5
   2   6   1 3259.13 145.949   8
   2   6   1 3311.72 232.204   9
  -2  -6  -2 42889.9 971.805   5
  -2  -6  -2 42557.6 931.604  11
   2   6   2 43891.9 863.698   9
  -2  -6  -3 76.3992 77.0101   6
  -2  -6  -3 6.50987 66.8517   5
  -2  -6  -3 67.8296 68.0975  11
   2   6   3-38.5249 66.2723   9
   2   6   4 196.606 88.8312   7
  -2  -6  -4 141.694 90.9921   5
   2   6   4 107.717 79.0278   9
  -2  -6  -4 332.447 128.888  11
  -2  -6  -4 320.788 112.628   6
  -2  -6  -5 13539.3 645.006  11
  -2  -6  -5 12973.5 604.349   6
   2   6   5 12215.0 514.995   9
   2   6   5 12394.7 550.363   2
   2   6   6 59.1193 75.5507   9
  -2  -6  -6 63.1628 101.323   6
   2   6   6 7.87145 64.7053   2
  -2  -6  -7 1784.17 260.779   6
  -2  -6  -8 1475.19 232.578   6
  -2  -7  14 237.587 182.232  10
   2   7 -14 322.656 146.076   1
  -2  -7  13 20616.3 927.391  10
   2   7 -13 20977.1 912.996   1
  -2  -7  12 5540.57 475.479  10
   2   7 -12 6000.91 467.660   1
   2   7 -11 13527.4 667.645   1
  -2  -7  11 12256.4 658.797  10
   2   7 -10 27175.4 888.309   1
  -2  -7  10 25940.9 901.668  10
   2   7  -9 4683.70 258.120   2
  -2  -7   9 4441.25 366.002  10
   2   7  -9 4070.69 331.333   1
  -2  -7   8 7070.85 430.128  10
   2   7  -8 7051.16 410.126   1
  -2  -7   7 8779.22 448.545  10
   2   7  -7 8798.35 426.770   1
  -2  -7   7 8966.58 383.695  11
  -2  -7   6 325.625 91.8802  11
  -2  -7   6 333.095 104.315  10
   2   7  -6 283.975 100.448   9
   2   7  -6 246.402 79.2577   1
  -2  -7   5 37626.1 821.109  10
   2   7  -5 38986.0 846.229   9
  -2  -7   5 36951.2 790.563   5
   2   7  -5 36091.1 743.080   1
  -2  -7   5 36922.7 718.824  11
  -2  -7   4-4.29283 56.8157   3
  -2  -7   4-42.5520 55.8806  11
  -2  -7   4 34.5077 59.0449   5
   2   7  -4 101.588 52.5428   1
  -2  -7   4 5.19293 64.8033  10
   2   7  -4 73.5022 87.0164   9
  -2  -7   3 3111.80 225.318   3
  -2  -7   3 2870.96 206.571  11
   2   7  -3 2901.94 171.352   1
  -2  -7   3 2934.69 200.143  10
  -2  -7   3 3209.66 237.071   5
   2   7  -3 2908.51 228.471   9
  -2  -7   2 23071.0 589.574  11
  -2  -7   2 23594.2 644.664   5
  -2  -7   2 22643.1 590.109   3
   2   7  -2 21957.8 607.817   9
  -2  -7   1 2909.46 240.665   5
   2   7  -1 3339.81 242.119   9
  -2  -7   1 2793.55 220.619  11
  -2  -7   0 120.365 79.3089   5
   2   7   0-6.22632 62.5155   9
  -2  -7   0 34.1600 68.2362  11
  -2  -7  -1 15952.2 576.817  11
   2   7   1 15927.8 533.501   9
  -2  -7  -1 16080.4 609.085   5
  -2  -7  -2 2849.53 277.807   5
   2   7   2 2562.84 224.967   9
  -2  -7  -2 2932.27 266.533  11
  -2  -7  -3 3097.16 296.060  11
   2   7   3 3120.13 252.920   9
  -2  -7  -3 3496.18 315.242   5
  -2  -7  -4 8128.65 500.629  11
   2   7   4 9016.23 494.520   2
  -2  -7  -4 8505.19 508.849   5
   2   7   4 9117.63 443.829   9
  -2  -7  -5-63.4096 126.682  11
  -2  -7  -5 9.80669 101.398   6
   2   7   5 83.1269 87.0438   2
  -2  -7  -6 766.378 187.636   6
   2   7   6 832.078 163.325   2
  -2  -7  -7 25035.3 969.012   6
   2   8 -14 2389.07 346.106   1
  -2  -8  14 3076.22 404.472  10
  -2  -8  13 2681.29 369.337  10
   2   8 -13 2540.44 340.584   1
   2   8 -12-4.77751 116.108   1
  -2  -8  12-139.115 139.437  10
  -2  -8  11 995.704 231.565  10
   2   8 -11 1120.43 222.785   1
  -2  -8  10 9154.26 556.407  10
   2   8 -10 9811.57 545.614   1
  -2  -8   9 5533.37 414.169  10
   2   8  -9 5552.23 391.256   1
   2   8  -9 5567.61 312.345   2
  -2  -8   8 17582.3 592.309  11
   2   8  -8 17495.6 567.182   2
   2   8  -8 17209.3 646.333   1
  -2  -8   8 17110.7 685.234  10
  -2  -8   7 19917.0 695.885  10
  -2  -8   7 18856.3 587.545  11
   2   8  -7 19561.3 646.630   1
  -2  -8   6 263.826 80.4172  11
  -2  -8   6 214.175 87.7513  10
   2   8  -6 349.586 106.243   1
   2   8  -6 273.205 99.5656   9
  -2  -8   5 6642.38 331.180  11
  -2  -8   5 6103.03 351.940  10
   2   8  -5 6174.63 360.072   9
  -2  -8   5 5787.14 337.516   5
   2   8  -5 6143.78 317.091   1
  -2  -8   5 6093.18 348.378   3
   2   8  -4 151.139 64.9830   1
  -2  -8   4 145.375 71.8438  11
  -2  -8   4 97.0992 58.0632   5
   2   8  -4 144.122 81.6883   9
  -2  -8   4 121.633 67.8786  10
  -2  -8   4 196.118 91.2929   3
  -2  -8   3 4115.30 267.819  11
  -2  -8   3 4369.07 301.197   5
   2   8  -3 4024.79 282.167   9
  -2  -8   3 3828.56 270.040   3
  -2  -8   2 13367.0 496.412  11
  -2  -8   2 13708.3 536.416   5
   2   8  -2 14415.1 523.123   9
  -2  -8   1 49195.9 1040.38   5
   2   8  -1 50987.2 980.039   9
  -2  -8   1 49270.8 992.668  11
   2   8   0 964.419 147.622   9
  -2  -8   0 1241.32 185.521   5
  -2  -8   0 863.509 157.038  11
  -2  -8  -1 6116.61 388.347  11
   2   8   1 6422.38 359.460   9
  -2  -8  -1 6241.62 398.392   5
   2   8   2 4090.14 349.483   2
  -2  -8  -2 3872.99 330.365   5
   2   8   2 4112.64 296.849   9
  -2  -8  -2 3587.97 320.556  11
  -2  -8  -3 4628.09 386.650   5
   2   8   3 3787.39 291.138   9
  -2  -8  -3 4304.95 374.358  11
   2   8   3 4860.86 383.318   2
  -2  -8  -4 390.865 145.097   5
  -2  -8  -4 243.877 130.196  11
   2   8   4 236.630 115.595   2
  -2  -8  -5 779.139 187.467  11
   2   8   5 1292.76 220.019   2
  -2  -9  13 3144.83 408.493  10
   2   9 -13 3382.10 389.306   1
  -2  -9  12 21770.7 955.851  10
   2   9 -12 21641.2 912.955   1
   2   9 -11 2286.80 299.459   1
  -2  -9  11 3253.34 364.224  10
  -2  -9  10 1993.82 235.943  11
   2   9 -10 1773.23 244.569   1
  -2  -9  10 2108.83 293.675  10
   2   9  -9 2712.91 238.043   2
  -2  -9   9 2380.75 297.371  10
   2   9  -9 2968.02 299.146   1
  -2  -9   9 2997.16 270.178  11
  -2  -9   8 13516.2 540.644  11
   2   9  -8 12398.5 518.641   2
  -2  -9   8 12346.8 607.601  10
   2   9  -8 12250.4 562.603   1
   2   9  -7 370.599 115.308   2
  -2  -9   7 98.2100 96.6012  10
   2   9  -7 371.823 114.157   1
  -2  -9   7 282.238 113.552  11
  -2  -9   7 261.256 99.3032   5
  -2  -9   7 142.564 82.6772   3
  -2  -9   6 983.634 165.771   3
  -2  -9   6 1517.13 202.882  10
  -2  -9   6 1131.91 156.065  11
  -2  -9   6 1126.01 164.463   5
   2   9  -6 1257.40 182.058   9
   2   9  -6 1026.59 149.523   1
  -2  -9   5 56327.4 1040.19  11
  -2  -9   5 56159.7 1121.60   3
  -2  -9   5 58169.1 1102.80  10
   2   9  -5 56439.2 1127.64   9
  -2  -9   5 56689.1 1108.71   5
  -2  -9   4 25244.2 744.451   3
  -2  -9   4 24757.8 693.626  11
  -2  -9   4 25840.9 753.123   5
   2   9  -4 26055.9 760.411   9
  -2  -9   3 14.9563 72.0346   3
  -2  -9   3 44.1425 90.4718  11
   2   9  -3 188.313 90.0552   9
  -2  -9   3 64.8003 88.8473   5
  -2  -9   2 42658.7 1001.95   5
   2   9  -2 42020.4 945.823   9
  -2  -9   2 41939.7 960.584  11
   2   9  -1 59.0765 66.2294   9
  -2  -9   1 201.973 110.042  11
  -2  -9   1 121.606 92.5125   5
  -2  -9   0 14534.3 614.479  11
   2   9   0 14833.3 668.905   2
   2   9   0 15076.2 569.709   9
  -2  -9  -1 2257.59 264.417  11
  -2  -9  -1 2108.61 253.825   5
   2   9   1 2066.02 255.033   2
   2   9   1 2322.09 233.890   9
  -2  -9  -2 1917.58 244.031   5
   2   9   2 1848.05 255.236   2
  -2  -9  -2 1964.44 252.652  11
   2   9   3 7980.52 522.109   2
  -2  -9  -3 9356.19 564.638   5
  -2  -9  -3 8234.59 535.911  11
   2   9   4 1259.10 221.202   2
  -2  -9  -4 1604.57 264.584  11
   2   9   5 502.842 165.281   2
  -2 -10  12 1661.62 251.449  11
  -2 -10  12 1546.40 291.589  10
   2  10 -12 1414.40 263.044   1
  -2 -10  11 2622.68 289.451  11
   2  10 -11 2884.32 332.289   1
  -2 -10  11 2231.54 315.342  10
  -2 -10  10 6833.45 513.079  10
  -2 -10  10 6524.52 424.325  11
   2  10 -10 6107.89 459.258   1
  -2 -10   9 7593.37 515.583  10
  -2 -10   9 7870.74 447.205  11
   2  10  -9 7660.56 482.453   1
   2  10  -8 22339.1 776.381   1
  -2 -10   8 24054.5 787.576   5
  -2 -10   8 23749.5 752.860  11
   2  10  -8 23318.8 764.128   2
  -2 -10   8 22764.3 845.281  10
  -2 -10   8 23854.5 831.459   3
   2  10  -7 758.619 170.482   2
   2  10  -7 784.505 152.910   1
  -2 -10   7 578.635 152.829  10
  -2 -10   7 884.709 189.842   3
  -2 -10   7 600.576 132.429  11
  -2 -10   7 633.725 149.277   5
   2  10  -6 5973.01 405.763   2
  -2 -10   6 5523.69 375.187   5
   2  10  -6 5420.47 377.640   9
  -2 -10   6 5106.45 344.903  11
  -2 -10   6 6018.21 397.728  10
  -2 -10   6 5445.88 385.430   3
  -2 -10   5 991.123 172.961   3
  -2 -10   5 1259.17 182.830   5
   2  10  -5 1506.16 221.136   2
   2  10  -5 1542.30 208.315   9
  -2 -10   5 1496.87 191.217  11
  -2 -10   4 5288.03 354.213  11
   2  10  -4 5197.81 363.850   9
   2  10  -4 4686.72 376.457   2
  -2 -10   4 4682.89 349.201   5
  -2 -10   4 5071.06 360.791   3
   2  10  -3 472.608 151.531   2
  -2 -10   3 444.180 128.189  11
  -2 -10   3 408.356 107.457   5
   2  10  -3 542.660 125.511   9
  -2 -10   2 6813.46 428.199   5
   2  10  -2 6562.26 399.380   9
  -2 -10   2 6094.97 398.574  11
   2  10  -2 6142.71 440.486   2
   2  10  -1 26188.2 921.484   2
   2  10  -1 26812.7 797.558   9
  -2 -10   1 28822.4 897.426   5
  -2 -10   1 27894.4 881.043  11
  -2 -10   0 411.038 149.286   5
  -2 -10   0 292.806 122.107  11
   2  10   0 167.438 112.936   2
   2  10   0 247.100 92.6929   9
  -2 -10  -1 2415.27 286.612   5
   2  10   1 2415.16 306.764   2
   2  10   2 4415.34 411.434   2
  -2 -10  -2 4502.55 396.233   5
   2  10   3-6.65306 128.724   2
   2  11 -12 1119.89 233.895   1
  -2 -11  12 777.094 227.065  10
  -2 -11  11 757.228 211.113  10
   2  11 -11 1349.63 244.178   1
   2  11 -10 10434.9 605.571   1
  -2 -11  10 9389.43 616.902  10
  -2 -11  10 11132.4 635.900   3
   2  11  -9 1407.48 216.012   1
  -2 -11   9 1898.40 290.859  10
  -2 -11   9 1943.20 285.074   3
  -2 -11   9 1923.59 249.390   5
  -2 -11   8 17828.0 714.813   5
  -2 -11   8 17422.7 764.594  10
   2  11  -8 17543.0 709.352   2
  -2 -11   8 16536.1 728.300   3
  -2 -11   7 219.755 134.945   3
  -2 -11   7-1.39306 99.0468   5
   2  11  -7-9.92070 103.101   2
   2  11  -6 1987.14 254.251   2
  -2 -11   6 1907.67 230.810   5
  -2 -11   6 1396.46 227.865   3
   2  11  -5 5087.39 377.260   9
  -2 -11   5 5326.48 386.952   5
   2  11  -5 5985.16 446.779   2
  -2 -11   5 5932.83 422.308   3
  -2 -11   4 1040.56 175.138   3
   2  11  -4 1168.40 193.449   9
  -2 -11   4 974.599 173.274   5
   2  11  -4 1461.72 231.695   2
   2  11  -3 428.302 148.312   2
  -2 -11   3 292.945 104.695   5
   2  11  -3 320.741 106.274   9
   2  11  -2 5283.22 434.936   2
  -2 -11   2 6386.79 438.095   5
   2  11  -2 5442.02 381.787   9
   2  11  -1 1811.39 259.527   2
   2  11   0 1205.96 231.136   2
   2  11   1 6662.37 507.494   2
  -2 -12  11 5574.69 509.104  10
  -2 -12  10 1531.46 247.989   3
  -2 -12  10 1528.11 274.123  10
  -2 -12   9 676.571 191.481   3
  -2 -12   8 6043.33 474.178   3
   2  12  -8 5568.40 434.530   2
   2  12  -7-36.6728 98.2635   2
  -2 -12   7 153.152 147.025   3
   2  12  -6 9109.92 562.762   2
  -2 -12   6 9440.92 571.562   3
  -2 -12   5 3220.10 333.835   3
   2  12  -5 3520.73 331.522   9
   2  12  -5 3059.45 334.820   2
   2  12  -4 8336.19 496.501   9
   2  12  -4 6437.97 499.829   2
   2  12  -3 14236.5 741.564   2
   2  12  -2 1671.85 258.667   2
  -2 -13   8 2827.18 349.680   3
   2  13  -8 2016.34 281.892   2
   2  13  -7 10956.2 648.970   2
  -2 -13   7 11061.4 653.970   3
  -2 -13   6 4539.73 423.404   3
   3 -13   1 582.846 184.012  11
  -3  13  -2 18992.5 851.285   2
   3 -13   2 18872.0 881.297  11
   3 -13   3 85.8290 168.602  11
  -3  13  -3 110.977 154.558   2
  -3  13  -3 168.059 125.388  12
   3 -13   4 6359.88 510.863  11
  -3  13  -4 6550.18 492.377   2
  -3  13  -4 6277.05 497.064  12
   3 -13   5 3671.59 394.653  11
  -3  13  -5 3415.28 381.553  12
  -3  13  -5 3729.19 368.242   2
  -3  13  -6 11502.6 631.357   2
   3 -12  -2 4930.66 468.832  11
  -3  12   2 4852.25 443.818   2
  -3  12   1 281.142 151.046   2
   3 -12  -1 599.843 206.662  11
  -3  12   0 925.403 222.443   2
   3 -12   0 1014.40 239.706  11
  -3  12  -1 537.309 155.095   2
   3 -12   1 525.374 171.441  11
  -3  12  -2 10322.4 582.030  12
  -3  12  -2 9943.29 587.941   2
   3 -12   2 10777.9 630.803  11
  -3  12  -3 5822.88 444.049   2
   3 -12   3 6202.43 482.886  11
  -3  12  -3 5428.18 440.023  12
   3 -12   4 1525.61 241.747  11
   3 -12   4 2437.14 311.071   3
  -3  12  -4 2306.69 301.387  12
  -3  12  -4 2696.43 300.604   2
  -3  12  -5 8008.43 556.817  12
  -3  12  -5 8208.26 512.436   2
   3 -12   5 8224.08 549.684  11
   3 -12   5 8218.37 557.031   3
  -3  12  -6 2344.51 325.239  12
   3 -12   6 1990.18 288.644   3
   3 -12   6 2009.16 287.120  11
  -3  12  -6 2226.68 269.146   2
   3 -12   7 12446.6 702.099   3
   3 -12   7 12022.5 673.322  11
  -3  12  -7 12138.3 710.988  12
   3 -12   8 14.3281 124.345  11
   3 -11  -4 1254.22 253.094  11
  -3  11   4 1431.56 249.482   2
   3 -11  -3 2954.20 356.645  11
  -3  11   3 2701.32 324.912   2
   3 -11  -2 16190.4 787.592  11
  -3  11   2 14531.8 705.600   2
  -3  11   1 1013.88 191.888   2
   3 -11  -1 1231.90 231.921  11
   3 -11   0 76.8466 108.918  11
  -3  11   0-5.41915 131.278   2
   3 -11   1 3615.60 347.370  11
  -3  11  -1 4112.15 350.526  12
  -3  11  -1 3765.64 345.256   2
  -3  11  -2 8335.95 499.282   2
  -3  11  -2 8340.34 501.564  12
   3 -11   2 8344.02 523.322  11
  -3  11  -3 4467.97 366.050   2
  -3  11  -3 4563.44 380.394  12
   3 -11   3 4784.72 405.251   3
   3 -11   3 4513.75 379.189  11
  -3  11  -4 3749.08 330.851   2
  -3  11  -4 4175.59 380.910  12
   3 -11   4 3801.66 356.852  11
   3 -11   4 3457.80 341.017   3
   3 -11   5 5278.49 428.563   3
  -3  11  -5 5528.42 394.778   2
  -3  11  -5 5643.17 444.830  12
   3 -11   5 5872.73 434.998  11
   3 -11   6 12083.3 649.246   3
  -3  11  -6 12555.4 582.121   2
   3 -11   6 12010.3 634.743  11
  -3  11  -6 10779.7 629.503  12
   3 -11   7 19615.4 820.613  11
  -3  11  -7 19499.2 877.125  12
   3 -11   7 20404.2 848.903   3
   3 -11   8 11020.5 634.408  11
  -3  11  -8 10616.9 654.886  12
   3 -11   8 11870.8 664.284   3
  -3  11  -9 4264.71 437.608  12
   3 -11   9 4562.72 426.186  11
   3 -11   9 4170.04 408.427   3
   3 -10  -6 2253.98 339.850  11
  -3  10   6 2129.70 287.656   2
   3 -10  -5 710.601 204.967  11
  -3  10   5 462.185 151.939   2
   3 -10  -4 1573.82 268.400  11
  -3  10   4 1474.60 231.139   2
   3 -10  -3 4720.75 416.855  11
  -3  10   3 3967.54 357.368   2
   3 -10  -2 8659.68 540.987  11
  -3  10   2 7848.03 488.755   2
   3 -10  -1-5.09481 107.568  11
  -3  10   1-108.154 123.604   2
   3 -10   0 3657.87 338.709  11
  -3  10   0 3628.98 326.385   2
  -3  10   0 3692.55 305.635  12
  -3  10  -1 12630.3 571.029  12
   3 -10   1 12559.3 602.920  11
  -3  10  -1 13325.0 607.209   2
  -3  10  -2 307.689 122.891  12
  -3  10  -2 639.514 160.718   2
   3 -10   2 361.318 139.611   3
   3 -10   2 381.699 137.699  11
   3 -10   3 11996.2 587.928   3
  -3  10  -3 11828.3 550.907   2
   3 -10   3 10415.2 543.910  11
  -3  10  -3 12175.9 593.672  12
   3 -10   4 8510.95 495.690  11
   3 -10   4 8886.73 511.999   3
  -3  10  -4 8238.32 500.055  12
  -3  10  -4 8894.61 477.433   2
   3 -10   5 924.484 185.581   3
  -3  10  -5 610.213 181.174  12
   3 -10   5 719.939 161.695  11
  -3  10  -5 706.064 150.763   2
  -3  10  -6 1961.60 278.061  12
   3 -10   6 1954.73 254.620   3
   3 -10   6 1679.70 236.607  11
  -3  10  -6 1955.76 229.157   2
  -3  10  -7 505.916 165.946  12
   3 -10   7 185.234 124.051  11
   3 -10   7 440.614 154.512   3
  -3  10  -8 19264.0 852.164  12
   3 -10   8 19315.2 812.790  11
  -3  10  -8 20066.0 866.553   1
   3 -10   8 19405.5 805.542   3
   3 -10   9 1174.30 230.154  11
   3 -10   9 1014.30 202.125   3
  -3  10  -9 1080.30 234.274  12
  -3  10  -9 892.255 209.840   1
  -3  10 -10 340.649 152.338  12
   3 -10  10 574.587 178.323  11
  -3  10 -10 426.848 185.755   1
   3 -10  10 345.247 158.127   3
  -3   9   8 3187.25 340.710   2
  -3   9   7 62.1194 91.2199   2
   3  -9  -7 9.17569 119.166  11
   3  -9  -6-40.8459 122.894  11
  -3   9   6 128.454 102.716   2
  -3   9   5 7531.49 478.062   2
   3  -9  -5 7840.03 548.671  11
   3  -9  -4 57243.1 1393.58  11
  -3   9   4 55108.6 1254.13   2
   3  -9  -3 6837.81 468.518  11
  -3   9   3 6786.10 439.085   2
  -3   9   2 789.442 156.027   2
   3  -9  -2 1173.96 210.555  11
  -3   9   1 23758.4 779.801   2
   3  -9  -1 24387.0 815.294  11
  -3   9   0 3031.85 270.739  12
   3  -9   0 2858.18 279.932  11
  -3   9   0 3008.08 285.252   2
   3  -9   1 3706.39 309.318  11
  -3   9  -1 3248.48 281.971  12
  -3   9  -1 3270.25 284.557   2
   3  -9   2 2978.02 278.125   3
  -3   9  -2 2656.71 255.838   2
  -3   9  -2 2649.88 264.926  12
   3  -9   2 2559.95 261.984  11
   3  -9   3 1696.46 218.355  11
   3  -9   3 1265.88 200.232   3
  -3   9  -3 1216.45 176.939   2
  -3   9  -3 1285.35 194.988  12
   3  -9   4 23460.1 776.221   3
  -3   9  -4 24394.7 819.674  12
  -3   9  -4 24050.9 725.617   2
   3  -9   4 24498.5 783.609  11
  -3   9  -5 9236.84 446.306   2
   3  -9   5 8909.90 487.382  11
  -3   9  -5 8654.05 503.681  12
   3  -9   5 8721.26 480.634   3
   3  -9   6 2635.99 276.196  11
  -3   9  -6 3331.02 272.793   2
  -3   9  -6 3402.13 332.105  12
   3  -9   6 2989.79 292.676   3
  -3   9  -7 12354.3 636.950  12
   3  -9   7 12210.9 605.651  11
   3  -9   7 12518.7 608.537   3
  -3   9  -7 12211.0 632.910   1
  -3   9  -8 6684.74 496.859   1
   3  -9   8 7132.60 420.461   8
   3  -9   8 6488.93 459.669  11
  -3   9  -9 247.512 162.240   1
   3  -9   9 349.354 126.660   8
   3  -9  10 703.341 172.711   8
  -3   9 -10 1065.56 213.739   1
  -3   9 -11 2984.36 377.830   1
   3  -9  11 2135.11 281.381   8
  -3   9 -11 2270.84 314.797  12
  -3   8   9 153.723 128.160   7
   3  -8  -8 11853.2 718.840  11
  -3   8   8 12317.6 605.290   2
   3  -8  -8 11872.6 653.014   6
   3  -8  -7 30778.6 1101.31  11
  -3   8   7 29351.5 913.018   2
   3  -8  -6 2230.00 309.310  11
  -3   8   6 2564.19 270.199   2
  -3   8   5 9480.32 502.210   2
   3  -8  -5 8671.10 536.215  11
  -3   8   4 2491.76 264.713   2
   3  -8  -4 2441.73 281.020  11
   3  -8  -3 33341.3 953.225  11
  -3   8   3 32767.9 886.031   2
   3  -8  -2 782.881 156.579  11
  -3   8   2 948.088 162.296   2
  -3   8   1 9546.70 432.206  12
   3  -8  -1 9016.68 461.215  11
  -3   8   1 8914.49 447.137   2
   3  -8   0 18021.9 631.884  11
  -3   8   0 18970.7 617.907  12
  -3   8   0 18193.2 620.647   2
   3  -8   1 2595.19 244.115  11
   3  -8   1 2377.12 230.959   3
  -3   8  -1 2365.53 235.685  12
  -3   8  -1 2337.04 224.119   2
   3  -8   2 12391.5 521.641   3
  -3   8  -2 11854.1 486.699   2
   3  -8   2 12281.5 329.974   8
  -3   8  -2 11394.2 506.464  12
   3  -8   2 11052.3 487.388  11
   3  -8   3 22187.7 698.799   3
  -3   8  -3 21704.3 646.227   2
   3  -8   3 23649.2 496.646   8
   3  -8   3 21647.6 683.307  11
  -3   8  -3 22770.9 732.273  12
   3  -8   4 12227.4 527.238  11
   3  -8   4 12380.0 405.364   8
  -3   8  -4 12609.1 488.734   2
  -3   8  -4 11519.9 541.162  12
   3  -8   4 12604.4 530.746   3
   3  -8   5 386.523 125.425   3
   3  -8   5 415.594 122.460  11
  -3   8  -5 641.286 153.302   1
  -3   8  -5 454.582 101.564   2
  -3   8  -5 325.894 122.287  12
   3  -8   5 441.838 93.7422   8
   3  -8   6 712.313 150.496  11
   3  -8   6 913.623 148.956   8
  -3   8  -6 802.108 128.676   2
  -3   8  -6 908.850 184.825   1
   3  -8   6 902.724 170.547   3
  -3   8  -7 464.194 142.616   1
   3  -8   7 686.546 141.736   8
  -3   8  -8 1302.49 220.288   1
   3  -8   8 1564.51 213.762   8
  -3   8  -9 32369.2 1080.64   1
   3  -8   9 32726.4 1093.99  10
   3  -8   9 32321.6 954.846   8
  -3   8  -9 31976.0 940.551   4
   3  -8  10 406.542 179.063  10
  -3   8 -10 287.302 160.122   1
   3  -8  10 44.1303 108.945   8
   3  -8  11 406.290 185.155  10
  -3   8 -11 216.658 130.999   1
   3  -8  11 23.5969 132.846   8
  -3   8 -12 656.227 194.427  12
   3  -8  12 1069.40 228.291   8
  -3   7  10 96.8614 125.627   7
   3  -7 -10 119.655 130.722   6
  -3   7   9 1278.93 256.608   7
   3  -7  -9 768.345 186.215   6
   3  -7  -9 898.029 218.508  11
   3  -7  -8 4633.10 428.444  11
  -3   7   8 4768.85 358.234   2
   3  -7  -8 4464.28 392.763   6
  -3   7   7 6130.52 397.444   2
   3  -7  -7 6149.55 426.306   6
   3  -7  -7 6242.32 478.959  11
   3  -7  -6 455.310 142.038  11
  -3   7   6 692.767 138.310  10
  -3   7   6 548.975 131.843   2
   3  -7  -6 698.572 165.081   6
  -3   7   5 10282.9 487.550   2
   3  -7  -5 10570.2 553.354  11
   3  -7  -5 9737.70 402.686   1
  -3   7   4 21934.3 690.094   2
   3  -7  -4 21612.9 746.923  11
   3  -7  -4 22939.2 604.921   1
   3  -7  -3 1332.68 191.008  11
  -3   7   3 1049.23 162.325   2
  -3   7   2 3625.00 272.141   2
   3  -7  -2 3836.17 293.479  11
  -3   7   1 9549.60 427.799   2
   3  -7  -1 9483.22 435.436  11
  -3   7   1 10033.5 417.965  12
  -3   7   0 663.566 122.241  12
   3  -7   0 1129.27 158.384  11
  -3   7   0 863.042 133.297   2
   3  -7   0 827.072 89.5013   8
   3  -7   1 417.510 110.644   3
  -3   7  -1 586.870 121.361  12
   3  -7   1 361.948 38.2897   5
   3  -7   1 792.727 129.913  11
  -3   7  -1 553.884 115.383   2
   3  -7   1 685.693 87.5510   8
   3  -7   2 18330.4 588.360   3
   3  -7   2 20037.2 311.115   5
   3  -7   2 17602.7 572.937  11
  -3   7  -2 18424.4 565.301   2
  -3   7  -2 18644.0 607.344  12
   3  -7   2 19291.3 425.739   8
   3  -7   3-29.1932 74.9338   3
  -3   7  -3-1.34715 81.0771  12
   3  -7   3 109.977 78.8726  11
  -3   7  -3 128.731 70.3112   2
   3  -7   3 132.430 60.9393   8
  -3   7  -4 1037.68 164.759  12
   3  -7   4 1331.94 174.964   3
   3  -7   4 968.222 156.016  11
  -3   7  -4 1167.65 144.717   2
   3  -7   4 1234.02 140.444   8
  -3   7  -5 68850.9 1038.79   2
  -3   7  -5 66868.4 1269.11   1
   3  -7   5 65695.7 1164.84   3
  -3   7  -6 151.450 67.7285   2
  -3   7  -6 140.896 103.541   1
   3  -7   6-53.3444 93.9931   8
  -3   7  -7 4198.31 354.320   1
   3  -7   7 4154.47 353.103  10
   3  -7   7 3887.87 300.012   8
  -3   7  -8 23232.5 863.121   1
   3  -7   8 23488.2 860.806  10
  -3   7  -8 23623.7 773.321   4
   3  -7   8 22549.4 764.012   8
  -3   7  -9 29618.3 1006.06   1
   3  -7   9 29857.4 937.212   8
  -3   7  -9 29321.5 877.704   4
   3  -7   9 29572.9 1008.38  10
  -3   7 -10 21988.2 907.868   1
   3  -7  10 22084.3 906.752  10
   3  -7  10 22030.4 856.207   8
  -3   7 -11 273.843 134.596   1
   3  -7  11 406.612 175.351  10
   3  -7  11 338.496 143.221   8
  -3   7 -12 10995.5 659.500  12
   3  -7  12 10063.7 666.223  10
   3  -7  12 11068.5 681.743   8
  -3   7 -12 11004.5 705.690   1
  -3   6  11-13.6166 122.605   7
  -3   6  10 1311.61 257.125   7
   3  -6 -10 1340.65 261.343  11
   3  -6 -10 961.250 205.462   6
   3  -6  -9 6318.93 462.384   6
   3  -6  -9 5263.01 463.398  11
  -3   6   9 5501.14 452.913   7
   3  -6  -8 4500.45 372.665   6
  -3   6   8 4967.69 335.219   2
   3  -6  -8 5384.78 443.030  11
  -3   6   7 2325.21 229.330  10
  -3   6   7 2053.00 216.099   2
   3  -6  -7 1737.44 229.005   6
   3  -6  -7 2421.65 289.101  11
   3  -6  -6 7961.27 431.842   6
   3  -6  -6 8273.22 377.887   1
  -3   6   6 7669.83 394.420  10
  -3   6   6 8202.85 412.368   2
   3  -6  -6 7636.50 468.844  11
   3  -6  -5 3696.20 311.757  11
   3  -6  -5 3197.92 228.637   1
  -3   6   5 3619.31 271.818   2
   3  -6  -5 3179.85 262.191   6
   3  -6  -4 1245.37 163.481   6
   3  -6  -4 1068.86 168.967  11
  -3   6   4 967.400 148.313   2
   3  -6  -4 1243.93 145.562   1
  -3   6   3 23969.5 651.303   2
   3  -6  -3 25799.2 719.685  11
  -3   6   2 87436.3 1214.19   2
   3  -6  -2 86040.9 1247.06  11
   3  -6  -1 1105.83 144.375  11
  -3   6   1 1193.44 148.821   2
  -3   6   1 1355.12 153.927  12
   3  -6  -1 1386.41 116.416   8
  -3   6   0 8454.71 367.580  12
  -3   6   0 8730.24 370.814   2
   3  -6   0 8057.45 366.013   3
   3  -6   0 8046.12 362.227  11
   3  -6   0 7929.12 257.772   8
  -3   6  -1 22670.1 620.324  12
  -3   6  -1 22447.3 582.659   2
   3  -6   1 21933.3 238.117   5
   3  -6   1 23429.6 444.113   8
   3  -6   1 23215.7 609.018   3
   3  -6   1 23155.6 603.842  11
  -3   6  -2-13.3641 67.7048  12
   3  -6   2 62.0017 78.2071  11
  -3   6  -2 15.5752 55.8365   2
   3  -6   2 23.2012 73.5356   3
   3  -6   2-24.6323 44.2974   8
  -3   6  -3 4449.14 298.482  12
  -3   6  -3 4539.40 257.497   2
   3  -6   3 4550.09 281.461  11
   3  -6   3 4553.07 238.654   8
   3  -6   3 4845.12 287.190   3
  -3   6  -4 7510.22 398.789  12
  -3   6  -4 7700.05 403.004   1
   3  -6   4 7506.66 336.064   8
  -3   6  -4 8048.45 335.144   2
   3  -6   4 7843.09 373.162   3
  -3   6  -5 51190.8 1085.01   1
  -3   6  -5 49969.0 822.174   2
   3  -6   5 51759.1 946.236   8
  -3   6  -6 1889.89 230.620   1
  -3   6  -6 2335.39 176.722   2
   3  -6   6 2018.33 211.679   8
   3  -6   6 2014.58 240.020  10
  -3   6  -7 12277.5 588.427   1
   3  -6   7 11551.4 521.571   8
  -3   6  -7 12144.4 527.665   4
   3  -6   7 11667.2 564.006  10
   3  -6   8 22299.4 814.223  10
   3  -6   8 23078.9 785.590   8
  -3   6  -8 23762.5 757.185   4
  -3   6  -8 22996.5 829.672   1
  -3   6  -9 9307.26 489.215   4
  -3   6  -9 8501.62 534.455   1
   3  -6   9 7726.03 493.862   8
   3  -6   9 7792.67 509.698  10
  -3   6 -10 4031.82 386.390   1
   3  -6  10 3845.60 378.995  10
   3  -6  10 3711.01 360.878   8
   3  -6  11 1305.70 235.999   8
  -3   6 -11 1397.17 249.162   1
  -3   6 -12 1292.96 263.341   1
  -3   6 -12 1223.92 225.826  12
   3  -6  12 1015.86 229.612  10
   3  -6  12 1231.61 243.359   8
  -3   5  11 1722.98 301.268   7
   3  -5 -11 1394.09 253.808   6
   3  -5 -10 5872.46 494.240  11
   3  -5 -10 5559.86 438.869   6
  -3   5  10 6023.03 478.041   7
   3  -5  -9 3736.83 351.088   6
   3  -5  -9 3525.19 369.882  11
  -3   5   9 3211.37 286.406  10
  -3   5   9 3753.74 361.372   7
   3  -5  -8 887.258 185.112  11
   3  -5  -8 986.756 184.117   6
  -3   5   8 733.500 150.802  10
  -3   5   8 793.502 133.485   2
  -3   5   8 733.351 178.706   7
   3  -5  -8 895.845 142.761   1
   3  -5  -7 10946.3 561.750  11
   3  -5  -7 11446.4 460.368   1
  -3   5   7 10930.2 448.871   2
   3  -5  -7 11426.3 524.239   6
  -3   5   7 11402.7 480.657  10
   3  -5  -6 99337.3 1291.31   1
  -3   5   6 99401.6 1352.74  10
  -3   5   6 100502. 1319.43   2
   3  -5  -6 98775.2 1432.33   6
   3  -5  -6 99459.3 1558.36  11
   3  -5  -5 507.075 117.501   6
   3  -5  -5 614.169 105.391   1
  -3   5   5 756.402 126.220   2
   3  -5  -5 596.829 130.453  11
   3  -5  -4 34344.9 805.896  11
   3  -5  -4 35436.5 743.151   6
  -3   5   4 33769.3 730.789   2
   3  -5  -3 14506.3 494.978  11
  -3   5   3 13714.7 456.599   2
  -3   5   2 105576. 526.500   5
  -3   5   2 104735. 1221.76   2
   3  -5  -2 104339. 1247.53  11
   3  -5  -1 3137.07 213.759  11
  -3   5   1 2718.44 198.586   2
  -3   5   1 2912.52 205.108  12
   3  -5  -1 2650.35 102.265   9
   3  -5  -1 3018.00 163.021   8
   3  -5   0 2513.12 188.687  11
  -3   5   0 2049.23 171.141   2
   3  -5   0 2317.22 184.073   3
   3  -5   0 2119.42 132.228   8
  -3   5   0 2159.20 183.240  12
   3  -5   1 99917.5 1146.38   3
   3  -5   1 98264.7 1131.76  11
  -3   5  -1 99402.0 1128.30   2
   3  -5   1 98983.6 924.593   8
  -3   5  -1 98464.6 1208.11  12
   3  -5   2 1895.89 171.307  11
  -3   5  -2 1832.04 160.656   2
  -3   5  -2 1874.26 177.346  12
   3  -5   2 2193.58 158.293   8
   3  -5   2 2268.13 181.766   3
  -3   5  -3 7981.47 370.910  12
  -3   5  -3 7488.44 365.358   1
  -3   5  -3 7876.35 310.135   2
   3  -5   3 7953.90 321.436   8
   3  -5   3 8339.41 341.690   3
  -3   5  -4 73699.8 1193.46   1
  -3   5  -4 73506.7 933.471   2
   3  -5   4 72419.8 1048.84   8
  -3   5  -4 73948.8 1158.69  12
  -3   5  -5 8638.76 433.460   1
   3  -5   5 8644.75 429.341  10
  -3   5  -5 8867.69 322.132   2
   3  -5   5 7987.68 381.226   8
  -3   5  -6 5343.12 358.452   1
   3  -5   6 5769.34 373.289  10
   3  -5   6 4902.96 327.959   8
  -3   5  -6 5352.67 330.210   4
  -3   5  -6 5108.02 239.479   2
   3  -5   7 14.9626 87.2349   8
   3  -5   7 3.18787 88.3423  10
  -3   5  -7-47.7976 94.8542   1
  -3   5  -7 56.4611 69.1044   4
   3  -5   8 117.000 92.6958   8
  -3   5  -8 593.480 150.650   1
   3  -5   8 383.385 130.101  10
  -3   5  -8 465.098 124.854   4
   3  -5   9 2929.36 310.731  10
   3  -5   9 2717.85 297.000   8
  -3   5  -9 3126.08 279.008   4
  -3   5  -9 3641.12 345.052   1
  -3   5 -10 7970.07 528.614   1
   3  -5  10 8387.38 531.251  10
   3  -5  10 8378.04 547.607   8
  -3   5 -10 8206.76 466.794   4
   3  -5  11 2517.83 311.169  10
   3  -5  11 3307.60 373.243   8
  -3   5 -11 2499.22 314.505   1
  -3   5 -12 209.605 130.835   1
   3  -5  12 208.613 150.591  10
   3  -5  12 92.0100 135.313   8
   3  -4 -12 1615.70 269.230   6
  -3   4  12 1901.86 301.989   7
   3  -4 -11 15892.8 756.306   6
  -3   4  11 15860.1 780.844   7
  -3   4  10 24974.7 804.308  10
  -3   4  10 24030.5 909.727   7
   3  -4 -10 23535.9 865.032   6
  -3   4   9 151.784 111.699   7
   3  -4  -9-7.18837 70.4756   1
   3  -4  -9-28.9769 96.9529   6
  -3   4   9 15.9404 82.7137  10
   3  -4  -9 11.7085 97.3788  11
   3  -4  -8 11890.8 542.529   6
   3  -4  -8 11641.3 576.031  11
   3  -4  -8 11645.8 482.173   1
  -3   4   8 11630.4 499.715  10
  -3   4   8 12212.7 445.366   2
  -3   4   8 12018.5 576.189   7
  -3   4   7 581.186 126.607  10
   3  -4  -7 760.568 155.425   6
   3  -4  -7 556.031 140.373  11
  -3   4   7 499.989 102.620   2
   3  -4  -7 518.437 108.244   1
   3  -4  -6 2975.03 222.639   1
  -3   4   6 2803.37 207.669   2
   3  -4  -6 2734.59 237.224   6
   3  -4  -6 2733.36 249.219  11
  -3   4   6 3132.51 241.343  10
   3  -4  -5 6952.47 318.779   1
   3  -4  -5 6449.40 349.748  11
  -3   4   5 5749.93 286.993   2
   3  -4  -5 6872.15 334.694   6
  -3   4   5 5508.55 99.9273   9
  -3   4   5 6872.89 333.386  10
  -3   4   4 39444.3 722.849   2
   3  -4  -4 40726.8 735.114   6
   3  -4  -4 40428.0 808.844  11
   3  -4  -3 53080.0 766.892   6
   3  -4  -3 52408.9 858.516  11
  -3   4   3 53425.1 820.559   2
  -3   4   2 42418.3 716.743   2
   3  -4  -2 43761.3 728.454  11
   3  -4  -2 42855.0 623.121   8
   3  -4  -1 157227. 1324.39  11
  -3   4   1 154756. 1332.35   2
   3  -4  -1 150733. 713.629   9
   3  -4  -1 153375. 1107.29   8
  -3   4   1 157655. 1366.35  12
   3  -4   0 6667.74 268.934  11
  -3   4   0 6618.76 276.594   2
   3  -4   0 6993.24 235.832   8
  -3   4   0 6436.84 288.487  12
   3  -4   0 6856.78 273.598   3
  -3   4  -1 498.386 90.8586  12
   3  -4   1 741.969 100.416  11
  -3   4  -1 531.238 82.0306   2
   3  -4   1 597.342 90.5472   3
   3  -4   1 649.118 88.2616   8
   3  -4   2 2131.90 158.830   8
  -3   4  -2 2127.76 180.770  12
  -3   4  -2 2577.34 167.936   2
   3  -4   2 2350.81 167.993   3
  -3   4  -3 82985.4 1114.48  12
  -3   4  -3 85255.9 1165.45   1
   3  -4   3 83067.8 1044.55   8
  -3   4  -3 81482.9 926.825   2
  -3   4  -4 3686.01 248.439  12
  -3   4  -4 4051.05 276.005   1
   3  -4   4 3456.64 250.826  10
  -3   4  -4 3591.80 198.390   2
   3  -4   4 3732.53 244.950   8
  -3   4  -5 4489.19 218.495   2
  -3   4  -5 4490.63 307.713   1
   3  -4   5 4973.92 310.622  10
   3  -4   5 4798.99 303.282   8
  -3   4  -5 5076.56 301.473   4
  -3   4  -6 33683.5 862.380   1
   3  -4   6 35566.9 863.209  10
   3  -4   6 34108.2 849.735   8
  -3   4  -6 33503.5 800.227   4
   3  -4   7 7084.59 411.573  10
  -3   4  -7 7072.39 420.652   1
   3  -4   7 6435.48 400.908   8
  -3   4  -7 6474.82 374.486   4
  -3   4  -8 2867.11 287.746   1
   3  -4   8 2602.85 265.833  10
  -3   4  -8 2770.29 258.863   4
   3  -4   8 2440.78 270.274   8
  -3   4  -9 2344.69 279.694   1
   3  -4   9 2388.53 273.181  10
  -3   4  -9 2965.62 279.038   4
   3  -4   9 2294.83 283.086   8
   3  -4  10 190.106 142.034   8
   3  -4  10 308.453 115.824  10
  -3   4 -10 265.976 127.670   1
  -3   4 -10 295.244 124.411   4
   3  -4  11 11306.6 624.288  10
  -3   4 -11 10775.4 626.317   1
   3  -4  11 11063.4 666.790   8
  -3   4 -12 1404.35 253.179   1
   3  -4  12 1130.87 240.467   8
  -3   4 -13 7351.87 571.048   1
   3  -3 -13 459.485 169.403   6
  -3   3  13 639.129 210.246   7
   3  -3 -12 4829.87 439.703   6
  -3   3  12 5218.93 466.433   7
   3  -3 -11 2358.77 261.108   1
  -3   3  11 2861.01 289.207  10
   3  -3 -11 2174.60 285.883   6
  -3   3  11 2547.99 315.575   7
   3  -3 -10 14356.5 595.511   1
   3  -3 -10 15292.8 676.450   6
  -3   3  10 15820.0 633.741  10
  -3   3  10 15936.7 713.874   7
   3  -3  -9 4272.72 339.282   6
   3  -3  -9 4653.65 373.882  11
  -3   3   9 3990.74 240.556   2
  -3   3   9 4503.66 329.523  10
  -3   3   9 4686.60 372.494   7
   3  -3  -9 3923.02 302.044   1
  -3   3   8 761.478 154.733   7
   3  -3  -8 802.546 148.342   6
   3  -3  -8 825.744 171.114  11
  -3   3   8 790.581 108.611   2
  -3   3   8 750.277 140.518  10
   3  -3  -8 846.292 146.651   1
   3  -3  -7 9224.94 405.054   1
  -3   3   7 9761.64 358.219   2
   3  -3  -7 10007.3 472.378  11
   3  -3  -7 8982.15 420.637   6
  -3   3   7 9613.79 464.913   7
  -3   3   7 9369.19 417.866  10
  -3   3   6 16664.1 456.558   2
   3  -3  -6 17057.4 516.219   1
   3  -3  -6 16466.6 560.349  11
   3  -3  -6 17637.6 540.323   6
  -3   3   6 16349.9 517.012  10
   3  -3  -5 11623.4 432.002  11
   3  -3  -5 12223.9 410.748   1
   3  -3  -5 12559.5 415.602   6
  -3   3   5 12137.7 379.425   2
  -3   3   5 11579.3 183.950   9
  -3   3   5 12397.9 428.032  10
   3  -3  -4 17268.9 438.387   6
  -3   3   4 17714.9 445.618   2
   3  -3  -4 17323.7 487.303  11
   3  -3  -4 17574.8 467.792   1
   3  -3  -3 2889.30 186.640  11
  -3   3   3 3439.34 193.122   2
   3  -3  -3 2966.24 166.082   6
   3  -3  -2 51401.8 700.735  11
  -3   3   2 52687.2 735.143   2
   3  -3  -2 52644.7 663.751   8
  -3   3   1 80469.7 890.501   2
   3  -3  -1 81542.8 839.116  11
   3  -3  -1 79277.5 773.267   8
   3  -3   0 156207. 1150.95  11
   3  -3   0 155866. 555.640   5
  -3   3   0 154208. 1213.57   2
   3  -3   0 154980. 1139.20   3
   3  -3   0 153983. 1096.10   8
  -3   3   0 156578. 1295.74  12
   3  -3   1 24918.0 342.023   5
  -3   3  -1 24461.9 487.028   2
   3  -3   1 23228.3 461.362   8
  -3   3  -1 24939.6 535.506  12
   3  -3   1 24707.3 454.320   3
  -3   3  -2 35836.5 585.034   2
  -3   3  -2 35622.7 661.851  12
   3  -3   2 35139.7 628.121   8
  -3   3  -3 19993.7 514.887  12
   3  -3   3 19287.0 512.546   8
  -3   3  -3 19942.5 541.185   1
  -3   3  -3 19723.4 433.014   2
  -3   3  -4 12262.6 421.498  12
   3  -3   4 11723.0 427.295  10
  -3   3  -4 12560.0 348.661   2
   3  -3   4 12345.7 444.793   8
  -3   3  -4 12360.9 451.395   1
  -3   3  -4 11916.6 431.364   4
   3  -3   5 4791.55 292.954  10
  -3   3  -5 4588.22 298.399   1
   3  -3   5 4966.25 306.334   8
  -3   3  -5 4866.40 293.139   4
   3  -3   6 45027.2 928.099  10
   3  -3   6 43785.7 967.331   8
  -3   3  -6 44741.8 922.185   4
  -3   3  -6 44689.7 956.153   1
  -3   3  -7 44508.0 1006.78   1
   3  -3   7 43810.3 1029.70   8
   3  -3   7 42788.5 960.264  10
  -3   3  -7 46039.6 983.708   4
  -3   3  -8 555.614 138.539   1
   3  -3   8 515.447 134.060  10
   3  -3   8 501.370 143.960   8
  -3   3  -8 667.464 135.441   4
   3  -3   9 2409.96 266.901  10
  -3   3  -9 2988.25 297.113   1
   3  -3   9 2681.25 307.237   8
  -3   3  -9 2751.05 269.010   4
  -3   3 -10 13651.9 655.407   1
   3  -3  10 13588.5 633.645  10
  -3   3 -10 14101.1 619.304   4
   3  -3  10 13367.2 696.260   8
   3  -3  11 2674.27 338.812   8
  -3   3 -11 2421.94 299.417   1
  -3   3 -12 21.3398 99.5542   1
   3  -2 -13 317.464 151.443   6
  -3   2  13 235.003 138.071   7
  -3   2  12 490.270 156.962   7
   3  -2 -12 88.8043 85.1198   1
  -3   2  12 89.4488 112.776  10
   3  -2 -12 287.768 145.830   6
   3  -2 -11 228.362 105.515   1
  -3   2  11 46.0291 91.1210  10
   3  -2 -11 120.989 114.222   6
  -3   2  11 67.6433 111.676   7
   3  -2 -10 1812.29 219.087   1
   3  -2 -10 1876.58 257.699   6
  -3   2  10 1807.93 244.377   7
  -3   2  10 1991.56 235.198  10
  -3   2   9-134.769 107.604   7
  -3   2   9 2.99957 87.4490  10
   3  -2  -9 53.5509 73.9548   1
   3  -2  -9 125.180 99.0226   6
  -3   2   9 27.6870 43.4784   2
  -3   2   8 16866.8 440.848   2
   3  -2  -8 16641.4 570.185   1
  -3   2   8 16679.2 576.758  10
   3  -2  -8 15431.0 571.776   6
  -3   2   8 16740.5 620.816   7
   3  -2  -8 16198.6 611.620  11
  -3   2   7 352.259 118.102   7
   3  -2  -7 303.637 98.6955   6
   3  -2  -7 501.250 116.082  11
  -3   2   7 150.971 79.1263  10
  -3   2   7 214.498 57.6728   2
   3  -2  -7 283.142 94.3003   1
   3  -2  -6 28136.5 683.345  11
  -3   2   6 28671.1 547.186   2
  -3   2   6 27312.1 649.462  10
   3  -2  -6 27396.1 638.413   6
   3  -2  -6 27956.7 652.431   1
   3  -2  -5 42566.1 750.229   1
   3  -2  -5 42373.8 706.621   6
  -3   2   5 42608.3 762.336  10
   3  -2  -5 41684.7 756.481  11
  -3   2   5 42475.5 650.843   2
   3  -2  -4 13353.4 387.226  11
   3  -2  -4 13279.2 352.326   6
  -3   2   4 13114.2 185.097   9
  -3   2   4 13081.2 353.485   2
   3  -2  -4 13250.1 394.272   1
   3  -2  -3 55880.0 620.950   6
  -3   2   3 57270.9 725.117   2
   3  -2  -3 57889.7 722.577  11
   3  -2  -3 55925.1 717.444   8
   3  -2  -2 18826.4 368.805  11
  -3   2   2 18535.4 410.064   2
   3  -2  -2 18427.8 214.540   9
   3  -2  -2 19022.3 387.312   8
   3  -2  -2 18741.7 294.634   6
  -3   2   1 43613.0 346.116   5
  -3   2   1 44374.7 623.440   2
   3  -2  -1 43991.8 564.819   8
  -3   2   1 43578.7 394.725   6
   3  -2  -1 43432.6 531.517  11
   3  -2   0 42717.4 507.274   3
  -3   2   0 42709.5 632.596  12
  -3   2   0 42474.9 420.621   5
   3  -2   0 44053.6 408.786   5
   3  -2   0 42829.6 531.193  11
  -3   2   0 42754.0 611.641   2
   3  -2   0 42033.3 574.654   8
  -3   2  -1 15426.6 388.035  12
   3  -2   1 16064.6 390.624   8
  -3   2  -1 15551.4 314.865   5
  -3   2  -1 15874.1 379.489   2
   3  -2   1 15330.5 308.179   3
  -3   2  -2 137168. 1204.49  12
  -3   2  -2 137650. 1112.03   2
   3  -2   2 136972. 1246.18   8
  -3   2  -2 135137. 1274.35   4
  -3   2  -3 75713.6 995.670   1
   3  -2   3 74765.4 1014.64   8
  -3   2  -3 73071.7 998.646   4
  -3   2  -3 74139.3 921.431  12
  -3   2  -4 6035.32 280.035  12
  -3   2  -4 5715.22 298.698   4
  -3   2  -4 6320.05 310.569   1
   3  -2   4 5893.99 283.585  10
   3  -2   4 6011.96 317.177   8
  -3   2  -5 45594.6 800.372  12
   3  -2   5 44657.5 830.390  10
   3  -2   5 46645.8 936.186   8
  -3   2  -5 46266.3 895.416   4
  -3   2  -5 44761.4 871.048   1
   3  -2   6 111.191 84.9952   7
   3  -2   6 18.3638 84.0682  10
   3  -2   6 38.4721 94.0826   8
  -3   2  -6-40.7369 74.6840   1
  -3   2  -6 5.18126 65.5970  12
  -3   2  -6 93.0873 78.0595   4
   3  -2   7 3117.61 256.489   7
  -3   2  -7 2461.17 214.636  12
  -3   2  -7 2407.98 238.059   1
   3  -2   7 2588.70 231.918  10
  -3   2  -7 2870.86 254.942   4
  -3   2  -8 71.9447 69.7616  12
   3  -2   8 206.064 98.4707   7
  -3   2  -8 277.660 110.866   1
   3  -2   8 123.477 93.0603  10
  -3   2  -8 19.3128 71.6411   4
   3  -2   9 153.871 100.406   7
  -3   2  -9 35.4460 81.6192   1
   3  -2   9 135.697 100.475  10
  -3   2  -9 20.7129 70.1462   4
  -3   2 -10 1373.32 222.364   1
   3  -2  10 1410.34 225.028   7
   3  -2  10 1382.97 244.563   8
  -3   2 -10 1358.59 205.628   4
   3  -2  11 1093.74 210.871   7
   3  -2  11 1348.46 245.803   8
  -3   2 -11 1146.60 204.766   1
   3  -1 -14 7125.88 572.126   6
  -3   1  14 5985.88 486.286  10
  -3   1  14 6597.15 547.912   7
  -3   1  13 228.627 159.396   7
   3  -1 -13-125.504 166.714   6
  -3   1  13 229.570 163.827  10
   3  -1 -13 227.861 127.554   1
   3  -1 -12 30434.4 1023.31   6
  -3   1  12 31176.3 978.065  10
   3  -1 -12 30386.8 968.303   1
  -3   1  12 31542.9 1052.30   7
   3  -1 -11 8281.33 506.555   6
   3  -1 -11 9069.82 505.747   1
  -3   1  11 8787.64 497.588  10
  -3   1  11 8779.34 532.190   7
  -3   1  10 979.197 190.651   7
  -3   1  10 1165.30 191.158  10
   3  -1 -10 1192.65 201.607   6
   3  -1 -10 1428.54 202.075   1
  -3   1   9 52353.2 1069.50  10
  -3   1   9 54195.3 729.503   2
   3  -1  -9 52402.6 1071.10   1
  -3   1   9 52060.9 1129.25   7
   3  -1  -8 20328.8 626.726   1
  -3   1   8 20194.4 624.791  10
  -3   1   8 20156.4 446.393   2
  -3   1   8 20074.5 654.991   7
   3  -1  -7 20362.6 600.652  11
   3  -1  -7 21035.4 599.403   1
  -3   1   7 22005.3 455.314   2
  -3   1   7 20751.8 599.356  10
  -3   1   7 21592.5 630.327   7
  -3   1   6 871.625 130.523   7
   3  -1  -6 1075.97 133.732  11
  -3   1   6 1022.10 136.228  10
   3  -1  -6 929.035 129.777   1
  -3   1   6 950.378 98.3424   2
   3  -1  -5 23462.8 554.472   1
   3  -1  -5 24476.2 534.601  11
  -3   1   5 24702.0 468.168   2
  -3   1   5 24435.8 561.886  10
   3  -1  -4 35464.7 626.357   1
   3  -1  -4 34888.9 563.002  11
   3  -1  -4 35752.6 523.184   6
  -3   1   4 35702.3 552.583   2
  -3   1   4 36509.2 639.286  10
   3  -1  -3 24098.3 406.842  11
   3  -1  -3 24342.4 351.556   6
  -3   1   3 24568.0 454.397   2
  -3   1   3 24186.1 303.178   9
   3  -1  -3 25824.0 313.354   9
   3  -1  -3 24551.1 462.221   8
   3  -1  -2 132346. 988.704   8
   3  -1  -2 135327. 571.176   6
   3  -1  -2 135475. 826.221  11
   3  -1  -2 134734. 748.192   9
  -3   1   2 133218. 1062.39   2
  -3   1   1 129289. 774.944   5
  -3   1   1 127874. 1044.80   2
   3  -1  -1 128624. 954.345   8
   3  -1  -1 131295. 755.987  11
   3  -1   0 3785.57 121.325   3
  -3   1   0 3558.29 149.599   5
   3  -1   0 3414.89 167.907   8
  -3   1   0 3448.44 178.235   4
  -3   1  -1 3843.98 174.847   5
   3  -1   1 3863.32 194.123   8
  -3   1  -1 3997.30 185.777  12
  -3   1  -1 3998.39 207.016   4
   3  -1   2 12274.7 380.949   8
  -3   1  -2 11778.9 378.940   4
  -3   1  -2 12394.0 331.125  12
  -3   1  -2 12350.0 354.713   5
  -3   1  -3 613.716 94.8401   1
  -3   1  -3 682.732 88.9564  12
   3  -1   3 518.737 105.887   8
  -3   1  -3 541.628 95.9212   4
   3  -1   4 1258.49 127.802   7
  -3   1  -4 1302.97 140.554   1
   3  -1   4 1195.64 127.645  10
   3  -1   4 1450.71 165.058   8
  -3   1  -4 1011.37 133.695   4
   3  -1   5 21016.7 541.363   7
  -3   1  -5 21354.4 508.730  12
  -3   1  -5 21593.7 581.644   1
   3  -1   5 21966.0 549.746  10
  -3   1  -5 22068.7 628.582   4
   3  -1   5 22507.1 659.164   8
   3  -1   6 33323.7 744.326   7
   3  -1   6 33080.9 724.537  10
  -3   1  -6 33036.5 817.287   4
  -3   1  -6 33453.3 671.084  12
  -3   1  -6 32707.6 763.394   1
   3  -1   7 7571.51 383.852   7
  -3   1  -7 7872.54 401.287   1
  -3   1  -7 8626.68 439.691   4
   3  -1   7 8415.78 393.929  10
  -3   1  -7 9106.91 368.093  12
   3  -1   8 35253.1 890.876   7
   3  -1   8 35006.4 842.190  10
  -3   1  -8 36681.0 914.960   1
  -3   1  -8 37314.8 960.659   4
   3  -1   9-139.489 105.482   7
  -3   1  -9-19.7266 77.8373   1
  -3   1  -9-101.095 92.4504   4
  -3   1 -10 885.847 196.333   6
   3  -1  10 751.949 185.395   8
  -3   1 -10 704.600 165.967   4
   3  -1  10 969.683 186.710   7
  -3   1 -11 75.0283 141.598   6
   3  -1  11 118.837 116.215   7
   3  -1  11 447.572 152.749   8
   3   0 -15 15535.0 806.260   1
  -3   0  15 16132.3 825.566  10
   3   0 -14 15483.2 812.925   6
  -3   0  14 17546.1 824.591  10
   3   0 -14 15115.8 764.043   1
  -3   0  14 15763.2 817.570   7
   3   0 -13 14288.3 732.590   6
  -3   0  13 13276.3 684.252  10
   3   0 -13 14142.0 703.698   1
  -3   0  13 14186.0 737.307   7
  -3   0  12 509.320 159.727   7
   3   0 -12 442.234 141.712   1
  -3   0  12 896.787 190.418  10
  -3   0  11 576.425 166.024   7
   3   0 -11 824.541 165.565   1
  -3   0  11 278.587 121.911  10
   3   0 -10 3247.97 294.341   1
  -3   0  10 3270.49 293.644  10
  -3   0  10 2860.02 291.127   7
  -3   0   9 26954.1 770.393  10
   3   0  -9 26969.6 768.263   1
  -3   0   9 28379.2 806.071   7
   3   0  -8 21760.7 645.605   1
  -3   0   8 22391.8 668.801   7
  -3   0   8 22974.8 663.453  10
  -3   0   7 644.464 129.989   7
  -3   0   7 478.075 114.325  10
  -3   0   7 699.415 57.2411   4
   3   0  -7 652.958 113.479   1
  -3   0   7 527.358 74.4655   2
  -3   0   6 19841.6 536.408  10
  -3   0   6 19464.3 409.611   2
  -3   0   6 19087.1 259.575   4
  -3   0   6 19928.8 529.199   7
   3   0  -6 19176.8 530.655   1
   3   0  -5 7333.55 272.051  11
  -3   0   5 7900.71 317.075  10
  -3   0   5 7397.74 253.205   2
  -3   0   5 7472.21 297.292   7
   3   0  -5 7764.19 314.757   1
   3   0  -4 4717.74 187.745  11
  -3   0   4 4369.39 221.449  10
   3   0  -4 4451.09 222.999   1
   3   0  -4 4381.97 165.967   9
  -3   0   4 4240.35 190.943   2
  -3   0   4 4699.45 209.002   7
  -3   0   3 18475.7 285.953  11
   3   0  -3 18847.8 302.157  11
  -3   0   3 19134.4 415.137  10
   3   0  -3 18399.7 320.506   9
   3   0  -3 18870.3 395.201   8
   3   0  -3 18532.7 412.518   1
  -3   0   2 3656.21 99.0900  11
   3   0  -2 3602.90 102.216  11
  -3   0   2 3594.41 145.338   5
   3   0  -2 3585.89 145.887   9
   3   0  -2 3724.11 163.113   8
  -3   0   2 3605.39 149.208   4
  -3   0   1 8448.56 138.780   3
   3   0  -1 8296.43 146.044  11
  -3   0   1 8265.73 232.096   5
  -3   0   1 8608.20 257.093   4
   3   0  -1 8314.48 239.619   8
  -3   0   0 34027.4 342.733   6
  -3   0   0 33425.1 511.800   5
   3   0   0 33565.6 515.353   8
  -3   0   0 33203.8 550.772   4
  -3   0   0 34385.3 301.770   7
   3   0   1 235943. 1510.14   8
  -3   0  -1 236524. 1613.78   4
  -3   0  -1 239837. 1002.69   7
   3   0   2 56795.1 601.768   7
  -3   0  -2 56909.7 818.257   5
   3   0   2 59575.3 835.779   8
  -3   0  -2 57058.5 861.260   4
  -3   0  -2 57662.4 657.636  12
  -3   0  -3 79305.3 793.184  12
  -3   0  -3 79837.0 1067.19   5
  -3   0  -3 80409.1 913.354   1
   3   0   3 79514.0 1067.59   8
  -3   0  -3 78854.7 1085.84   4
   3   0   3 79245.6 814.457   7
  -3   0  -4 43654.7 859.184   4
   3   0   4 43022.6 658.106  10
  -3   0  -4 43118.5 725.733   1
   3   0   4 43420.4 858.184   8
  -3   0  -4 43836.2 622.268  12
   3   0   4 44275.8 695.891   7
  -3   0  -5 51131.0 861.019   1
   3   0   5 53106.3 786.516  10
  -3   0  -5 52393.8 1004.66   4
   3   0   5 52797.7 1018.14   8
  -3   0  -5 52837.2 722.093  12
   3   0   5 53726.3 850.699   7
  -3   0  -6 24804.7 523.294  12
   3   0   6 24554.9 584.615  10
  -3   0  -6 24726.9 732.598   4
  -3   0  -6 24665.1 633.483   1
   3   0   6 24425.7 633.164   7
   3   0   7 337.142 109.106   7
  -3   0  -7 514.539 149.973   6
   3   0   7 354.655 90.9766  10
  -3   0  -7 339.729 99.1510   1
  -3   0  -7 563.431 150.177   4
  -3   0  -8 35126.1 1002.63   6
  -3   0  -8 34480.0 851.539   1
  -3   0  -8 33858.0 940.949   4
   3   0   8 33815.3 868.821   7
  -3   0  -9 7363.35 491.470   6
  -3   0  -9 6871.09 445.572   4
   3   0   9 7117.10 491.777   8
   3   0   9 7031.07 432.710   7
  -3   0 -10 5208.17 404.572   4
  -3   0 -10 4127.08 398.830   6
   3   0  10 4358.34 408.012   8
   3   0  10 4810.21 386.921   7
  -3   0 -11 12164.6 716.155   6
   3   0  11 12346.5 724.859   8
  -3  -1  15 3243.15 389.583  10
   3   1 -15 3205.55 375.476   1
  -3  -1  14 524.844 190.802   7
  -3  -1  14 437.854 167.218  10
   3   1 -14 516.435 165.775   1
  -3  -1  13 12369.5 666.682  10
   3   1 -13 12574.0 664.165   1
  -3  -1  13 13342.4 702.449   7
  -3  -1  12 563.589 149.686  10
   3   1 -12 478.949 140.811   1
  -3  -1  12 342.431 141.710   7
  -3  -1  11 2723.81 293.894   7
  -3  -1  11 2104.90 261.413  10
   3   1 -11 2795.58 281.707   1
   3   1 -10 133.879 104.864   1
  -3  -1  10 145.508 96.5880  10
  -3  -1  10 218.672 92.1308   7
   3   1  -9 103.417 85.7306   1
  -3  -1   9 115.453 88.3777   7
  -3  -1   9 73.3679 100.017  10
  -3  -1   8 19056.1 607.592  10
   3   1  -8 19876.2 620.184   1
  -3  -1   8 18772.4 595.125   7
  -3  -1   7 1944.00 196.534  10
   3   1  -7 2228.55 197.771   1
  -3  -1   7 1809.58 177.541   7
  -3  -1   6 11707.6 412.424  10
   3   1  -6 11593.5 413.996   1
  -3  -1   6 11195.2 384.951   7
   3   1  -5 3551.22 219.352   1
  -3  -1   5 3558.80 214.008  10
   3   1  -5 3226.16 170.458   9
  -3  -1   5 3589.62 200.561   7
   3   1  -4 74277.9 887.487   1
  -3  -1   4 75767.0 878.764  10
  -3  -1   4 76288.8 484.798   4
  -3  -1   4 73908.4 768.929   7
   3   1  -3 280476. 1563.80   1
  -3  -1   3 281475. 1524.52  10
   3   1  -3 275637. 1423.97   9
  -3  -1   3 278116. 868.771  11
  -3  -1   3 279729. 1167.42   4
   3   1  -3 273293. 1458.44   8
  -3  -1   3 280650. 1230.96   7
   3   1  -2 85.2770 39.6103   1
  -3  -1   2 116.951 39.9262   5
   3   1  -2 113.921 41.9400   9
  -3  -1   2 159.198 27.0350   7
  -3  -1   2 70.9599 38.7098   4
  -3  -1   1 56915.7 695.201   4
   3   1  -1 58589.6 470.306   6
  -3  -1   1 58504.6 692.024   5
   3   1  -1 55293.5 673.330   9
   3   1  -1 57636.4 627.246   8
   3   1   0 63076.3 709.879   8
   3   1   0 62046.6 531.484  11
  -3  -1   0 64466.2 793.287   5
  -3  -1   0 60892.8 566.125   6
  -3  -1  -1 22709.3 415.472   6
  -3  -1  -1 23174.0 519.977   5
  -3  -1  -1 22279.3 528.157   4
  -3  -1  -1 23587.8 315.847  10
   3   1   1 23167.2 481.521   8
   3   1   1 23271.5 286.226   7
  -3  -1  -2 4677.05 255.636   5
  -3  -1  -2 4830.12 267.738   4
   3   1   2 4921.71 248.933   8
  -3  -1  -2 4678.04 220.651   6
   3   1   2 4893.34 171.704   7
  -3  -1  -3 9188.95 387.345   5
  -3  -1  -3 9535.89 353.966   6
  -3  -1  -3 10152.6 410.382   4
   3   1   3 9513.06 374.046   8
   3   1   3 9936.61 290.588   7
  -3  -1  -4 41418.2 814.371   6
  -3  -1  -4 39866.9 649.003   1
  -3  -1  -4 38759.3 847.390   4
   3   1   4 40507.6 833.533   8
   3   1   4 40026.0 667.212   7
  -3  -1  -5 50633.9 602.337  12
  -3  -1  -5 52367.1 1001.75   6
   3   1   5 50977.1 703.106  10
  -3  -1  -5 50689.8 799.840   1
   3   1   5 52797.5 1028.47   8
   3   1   5 50143.2 831.604   7
  -3  -1  -6 890.598 153.746   6
  -3  -1  -6 924.635 124.351   1
   3   1   6 878.429 165.716   8
  -3  -1  -6 773.879 151.150   4
   3   1   6 707.449 120.095   7
  -3  -1  -7 24568.3 804.899   6
  -3  -1  -7 24884.9 800.213   4
   3   1   7 23799.7 795.284   8
  -3  -1  -7 23815.1 637.734   1
   3   1   7 23147.2 674.676   7
   3   1   8 677.908 170.496   8
  -3  -1  -8 1012.26 208.427   6
   3   1   8 793.153 142.022   7
  -3  -1  -8 950.957 184.815   4
  -3  -1  -9 2889.09 328.809   6
  -3  -1  -9 2932.12 308.529   4
   3   1   9 2203.41 250.570   7
   3   1   9 2193.94 284.631   8
  -3  -1 -10 1750.16 274.293   6
  -3  -1 -10 1889.96 263.952   4
   3   1  10 1341.86 244.316   8
  -3  -1 -11 1647.96 279.132   6
  -3  -2  15 895.841 242.239  10
   3   2 -15 847.876 217.312   1
  -3  -2  14 995.244 220.775   7
   3   2 -14 1067.33 210.725   1
  -3  -2  14 828.114 214.315  10
  -3  -2  13 1998.27 285.264  10
  -3  -2  13 1346.07 246.134   7
   3   2 -13 1643.27 254.643   1
  -3  -2  12 1355.99 235.643   7
   3   2 -12 1215.39 214.705   1
  -3  -2  12 1055.74 212.032  10
  -3  -2  11 5954.07 419.619  10
   3   2 -11 5860.60 410.453   1
  -3  -2  11 5465.64 395.259   7
  -3  -2  10 2680.80 270.544  10
   3   2 -10 2782.23 272.146   1
  -3  -2  10 2644.73 265.853   7
   3   2  -9 549.166 131.345   1
  -3  -2   9 283.746 101.391  10
  -3  -2   9 460.293 118.079   7
   3   2  -8 71286.5 1177.07   1
  -3  -2   8 70927.9 1175.11  10
  -3  -2   8 69067.1 1119.76   7
  -3  -2   7 7346.82 356.438  10
   3   2  -7 6477.09 338.131   1
  -3  -2   7 6703.36 326.824   7
   3   2  -6 55162.5 894.628   1
  -3  -2   6 56449.5 904.611  10
   3   2  -6 53375.0 783.965   9
  -3  -2   6 56021.2 836.997   7
  -3  -2   5 232052. 1680.01  10
   3   2  -5 234264. 1706.42   1
   3   2  -5 230359. 1548.15   9
  -3  -2   5 234040. 1526.48   7
  -3  -2   4 22956.1 333.034  11
  -3  -2   4 22646.6 478.511  10
   3   2  -4 22181.5 480.648   1
   3   2  -4 21903.5 457.705   9
  -3  -2   4 22667.5 315.371   4
   3   2  -4 23807.9 318.613   4
  -3  -2   4 23228.0 418.287   7
   3   2  -3 180850. 1245.75   1
   3   2  -3 178667. 1274.73   9
  -3  -2   3 179026. 1068.00   4
  -3  -2   3 179323. 1197.04  10
  -3  -2   3 180962. 958.095   7
  -3  -2   2 3091.00 139.002  10
   3   2  -2 3140.74 149.161   1
   3   2  -2 2924.85 164.236   9
  -3  -2   2 3413.59 180.663   5
  -3  -2   2 3274.20 167.623   4
   3   2  -2 3166.36 146.048   8
   3   2  -2 3178.89 95.2175   7
   3   2  -1 37088.1 311.793  11
  -3  -2   1 36225.1 390.554  10
  -3  -2   1 36212.4 608.238   5
  -3  -2   1 35359.1 275.930   3
   3   2  -1 37162.0 598.230   9
  -3  -2   1 37134.6 611.865   4
   3   2  -1 37156.8 499.381   8
   3   2  -1 38014.6 457.759   1
  -3  -2   0 7170.99 231.315   6
  -3  -2   0 7181.32 294.213   4
  -3  -2   0 6992.82 131.392  10
  -3  -2   0 7321.81 294.626   5
   3   2   0 7116.28 241.863   8
   3   2   0 6852.53 118.419   7
  -3  -2  -1 104841. 1001.68   6
  -3  -2  -1 102573. 1180.44   5
   3   2   1 109822. 615.203   3
  -3  -2  -1 100767. 1190.93   4
   3   2   1 105420. 1029.52   8
   3   2   1 106337. 680.696  12
   3   2   1 106481. 675.083   7
  -3  -2  -2 6151.62 317.809   4
  -3  -2  -2 6732.23 286.237   6
  -3  -2  -2 5778.32 305.651   5
   3   2   2 5793.96 269.791   8
   3   2   2 6554.93 210.942   7
  -3  -2  -3 4284.67 253.329   6
  -3  -2  -3 4317.70 120.808  10
  -3  -2  -3 4526.56 294.383   5
   3   2   3 4496.22 261.941   8
  -3  -2  -3 4018.24 279.760   4
   3   2   3 4694.98 208.528   7
   3   2   4 677.017 98.9228   7
  -3  -2  -4 474.863 111.277   6
  -3  -2  -4 450.555 117.427   5
   3   2   4 573.983 113.900   8
  -3  -2  -4 257.718 103.683   4
  -3  -2  -5 740.441 140.193   6
   3   2   5 825.661 121.232   7
   3   2   5 827.593 153.280   8
  -3  -2  -5 841.792 147.159   4
  -3  -2  -6 5230.07 362.574   6
  -3  -2  -6 4934.00 361.553   4
   3   2   6 4881.87 343.387   8
   3   2   6 5080.73 300.394   7
  -3  -2  -7 3413.12 319.901   6
  -3  -2  -7 3488.71 315.056   4
   3   2   7 3885.37 333.856   8
   3   2   7 3402.42 268.025   7
  -3  -2  -8 191.353 105.911   6
  -3  -2  -8 138.108 100.026   4
   3   2   8-5.74934 90.0134   8
  -3  -2  -9 9618.01 588.784   6
   3   2   9 9279.78 568.835   8
  -3  -2 -10 7858.48 569.742   6
   3   2  10 8744.22 586.458   8
  -3  -3  15 14632.6 812.954  10
   3   3 -15 14419.0 791.743   1
  -3  -3  15 15805.4 830.884   7
  -3  -3  14 12904.8 731.083  10
   3   3 -14 13042.4 718.230   1
  -3  -3  14 12002.7 691.489   7
   3   3 -13 979.615 208.202   1
  -3  -3  13 951.831 218.726  10
  -3  -3  13 1129.15 229.118   7
  -3  -3  12 43411.0 1195.25  10
   3   3 -12 43522.7 1178.58   1
  -3  -3  12 44629.5 1174.67   7
  -3  -3  11 2621.70 283.475   7
  -3  -3  11 2371.74 275.933  10
   3   3 -11 2308.38 276.983   1
  -3  -3  10 3675.04 314.106  10
   3   3 -10 3482.59 302.656   1
  -3  -3  10 4089.29 319.994   7
   3   3  -9 7933.86 430.078   1
  -3  -3   9 6843.63 396.691  10
  -3  -3   9 7419.06 397.612   7
  -3  -3   8 38982.6 880.084  10
   3   3  -8 38862.5 877.668   1
  -3  -3   8 40217.0 853.784   7
  -3  -3   7 64387.0 1053.33  10
   3   3  -7 64127.9 1051.83   1
  -3  -3   7 65021.9 990.617   7
   3   3  -6 19921.8 215.347   4
  -3  -3   6 21390.5 563.984  10
   3   3  -6 21361.4 562.146   1
   3   3  -6 21330.3 524.977   9
  -3  -3   6 20629.1 511.112   7
  -3  -3   5 3936.41 227.411  10
   3   3  -5 4385.72 235.859   1
   3   3  -5 3960.25 222.549   9
  -3  -3   5 4113.10 208.961   7
  -3  -3   4 167458. 1313.50  10
   3   3  -4 170212. 1322.50   1
   3   3  -3 2163.14 137.220   1
  -3  -3   3 2167.01 137.607  10
  -3  -3   3 2179.87 156.813   5
   3   3  -3 2448.11 168.445   9
   3   3  -3 2334.16 132.547   8
  -3  -3   3 2215.62 86.1990  11
  -3  -3   2 5725.82 144.311  11
  -3  -3   2 5700.38 186.843  10
   3   3  -2 5677.31 252.376   9
  -3  -3   2 6406.46 270.564   5
  -3  -3   2 5801.09 245.868   4
   3   3  -2 5663.49 190.853   8
   3   3  -2 5831.75 196.356   1
   3   3  -2 5936.03 156.620   7
   3   3  -1 48664.9 479.718   1
  -3  -3   1 48314.9 506.446  11
  -3  -3   1 46807.7 411.969  10
  -3  -3   1 47180.7 762.619   5
   3   3  -1 49147.4 742.828   9
  -3  -3   1 47127.3 757.314   4
   3   3  -1 48289.3 562.364   8
  -3  -3   0 25040.0 496.304   6
   3   3   0 23788.3 275.298   1
  -3  -3   0 26131.0 605.263   5
   3   3   0 25453.4 559.869   9
  -3  -3   0 26229.1 447.487  11
  -3  -3   0 25435.0 595.924   4
   3   3   0 24812.7 445.925   8
   3   3   0 24698.3 284.551   1
  -3  -3  -1 5640.62 258.719   6
  -3  -3  -1 5258.36 236.227  11
  -3  -3  -1 6121.88 313.009   5
   3   3   1 5511.83 133.742  12
   3   3   1 5350.88 117.090   1
  -3  -3  -1 6186.93 320.548   4
   3   3   1 5764.58 243.358   8
   3   3   1 6300.58 195.954   7
  -3  -3  -2 89956.2 1279.82   5
  -3  -3  -2 91789.1 1133.77   6
  -3  -3  -2 93773.5 1307.84   4
   3   3   2 91606.6 1069.11   8
   3   3   2 92976.6 867.464   7
  -3  -3  -3 170.941 77.2704   4
  -3  -3  -3 121.749 74.5051   5
  -3  -3  -3 168.939 67.0490   6
   3   3   3 149.114 53.7559   7
   3   3   3 175.613 66.4309   8
   3   3   4 133.308 91.6594   8
  -3  -3  -4 93.1262 79.8191   6
  -3  -3  -4 13.1155 86.8504   5
   3   3   4 131.550 70.1382   7
  -3  -3  -4 129.852 72.4778   4
  -3  -3  -5 15638.5 596.737   6
  -3  -3  -5 14826.8 618.394   4
   3   3   5 15526.6 572.478   8
   3   3   5 15268.6 491.433   7
  -3  -3  -6 2538.78 272.745   6
  -3  -3  -6 2749.25 288.414   4
   3   3   6 1960.32 228.831   8
   3   3   6 2552.62 225.442   7
  -3  -3  -7 363.289 133.475   6
   3   3   7-53.7844 111.655   8
  -3  -3  -8 13327.7 669.015   6
   3   3   8 13371.8 648.818   8
  -3  -3  -9 19234.9 853.048   6
   3   3   9 19987.2 836.468   8
   3   3  10 9631.65 616.906   8
  -3  -4  15 1129.57 240.889   7
  -3  -4  15 1570.71 299.052  10
   3   4 -15 1864.93 305.155   1
  -3  -4  14 748.991 214.376   7
  -3  -4  14 871.495 222.168  10
   3   4 -14 1140.97 234.894   1
  -3  -4  13 2375.55 323.712  10
  -3  -4  13 1901.60 272.973   7
   3   4 -13 2292.96 303.325   1
  -3  -4  12 3931.67 377.826  10
   3   4 -12 3706.87 353.275   1
  -3  -4  12 3839.67 350.393   7
  -3  -4  11 9839.26 550.795  10
   3   4 -11 9747.81 535.801   1
   3   4 -10 1795.81 234.475   1
  -3  -4  10 1971.79 237.787   7
  -3  -4  10 1813.32 235.082  10
  -3  -4   9 16248.5 622.495  10
   3   4  -9 16621.8 620.396   1
  -3  -4   9 16493.2 592.291   7
  -3  -4   8 15088.8 560.989  10
   3   4  -8 14759.7 547.042   1
  -3  -4   8 15312.7 529.969   7
   3   4  -7 87.7373 70.1690   1
  -3  -4   7 11.3999 72.1221  10
  -3  -4   7 69.3032 66.5730   7
   3   4  -7 54.0918 62.5255   9
   3   4  -7 65.2912 20.7014   4
  -3  -4   6-6.96882 52.9954   7
   3   4  -6 80.8133 67.5010   1
  -3  -4   6 68.2941 60.7026  10
   3   4  -6 123.280 70.5585   9
  -3  -4   5 9644.79 360.773  10
   3   4  -5 9398.78 364.706   9
   3   4  -5 9734.23 353.451   1
   3   4  -4 2941.14 180.438   1
  -3  -4   4 3098.40 135.321  11
  -3  -4   4 3139.28 190.938  10
   3   4  -4 2840.22 199.269   9
  -3  -4   3 2869.50 125.710  11
  -3  -4   3 2798.28 196.779   5
   3   4  -3 3119.05 161.110   1
   3   4  -3 2998.29 201.229   9
   3   4  -3 2857.40 139.568   8
  -3  -4   3 3178.09 172.796  10
  -3  -4   2 87639.7 736.458  11
  -3  -4   2 89748.5 759.774  10
   3   4  -2 91240.1 742.295   1
  -3  -4   2 92211.9 1120.71   5
   3   4  -2 90709.2 1069.33   9
   3   4  -2 93717.7 754.704   8
  -3  -4   2 91337.6 797.520   3
  -3  -4   1 12274.0 209.142  10
  -3  -4   1 12856.6 438.534   5
   3   4  -1 12852.6 215.925   1
  -3  -4   1 12625.7 312.142  11
   3   4  -1 13510.3 295.441   8
  -3  -4   0 19525.1 573.589   4
  -3  -4   0 19525.0 446.298  11
  -3  -4   0 19343.9 563.823   5
   3   4   0 19791.0 523.999   9
   3   4   0 20341.7 399.586   8
  -3  -4  -1 25858.6 575.357  11
  -3  -4  -1 26359.9 610.370   6
  -3  -4  -1 26886.2 701.360   5
   3   4   1 26977.6 641.615   9
  -3  -4  -1 26308.4 707.520   4
   3   4   1 26139.1 513.180   8
  -3  -4  -2 4334.08 265.506  11
  -3  -4  -2 4158.09 303.783   4
  -3  -4  -2 4015.68 260.190   6
  -3  -4  -2 4254.87 301.716   5
   3   4   2 4324.82 270.235   9
   3   4   2 3844.15 221.675   8
   3   4   2 3999.37 205.120   7
  -3  -4  -3 2617.69 236.067   6
  -3  -4  -3 3060.69 270.753   5
  -3  -4  -3 2427.07 256.524   4
   3   4   3 2937.73 213.314   8
   3   4   3 2691.20 185.731   7
  -3  -4  -4 5962.52 367.342   6
  -3  -4  -4 6084.09 405.313   5
   3   4   4 6690.33 353.458   8
   3   4   4 6217.70 302.959   7
  -3  -4  -5 27496.9 824.693   6
   3   4   5 27494.2 767.119   8
   3   4   6 18471.2 675.347   8
  -3  -4  -6 18199.1 717.014   6
  -3  -4  -7 259.506 123.514   6
   3   4   7 111.545 83.2702   8
  -3  -4  -8 29270.1 1023.53   6
   3   4   8 30121.7 971.313   8
  -3  -4  -9 5996.97 497.621   6
  -3  -5  15 1699.25 293.662   7
  -3  -5  15 1857.63 321.090  10
   3   5 -15 1751.49 291.243   1
  -3  -5  14 80.1230 151.259  10
  -3  -5  14-16.5203 121.859   7
   3   5 -14 90.1027 126.755   1
  -3  -5  13 88.5689 114.683   7
  -3  -5  13 110.359 159.463  10
   3   5 -13 73.4797 98.9977   1
  -3  -5  12 1238.36 215.407   7
  -3  -5  12 1406.86 248.425  10
   3   5 -12 1420.82 235.924   1
  -3  -5  11 21600.1 776.552   7
   3   5 -11 19983.2 777.323   1
  -3  -5  11 20028.8 796.415  10
  -3  -5  10 3868.36 320.800   7
  -3  -5  10 3940.71 346.141  10
   3   5 -10 3814.54 330.847   1
   3   5  -9 499.520 143.873   1
  -3  -5   9 536.388 139.078  10
  -3  -5   9 664.661 135.186   7
   3   5  -8 14057.5 542.406   1
  -3  -5   8 14649.7 571.609  10
  -3  -5   7 19218.2 613.795  10
   3   5  -7 19122.4 590.190   1
   3   5  -7 19913.2 589.828   9
  -3  -5   6 37172.9 790.464  10
   3   5  -6 37012.8 760.301   1
   3   5  -6 38215.4 801.460   9
  -3  -5   5 6477.84 240.875  11
  -3  -5   5 7160.88 328.338  10
   3   5  -5 7217.29 310.518   1
   3   5  -5 7237.41 340.698   9
  -3  -5   4 16824.6 451.013  10
  -3  -5   4 17416.1 509.991   5
   3   5  -4 17160.7 509.052   9
   3   5  -4 17194.9 433.236   1
  -3  -5   4 17608.6 369.129  11
  -3  -5   3 54997.3 657.113  11
  -3  -5   3 54081.3 724.803  10
  -3  -5   3 54059.6 915.595   5
   3   5  -3 53263.2 670.974   1
   3   5  -3 52588.8 881.722   9
  -3  -5   3 54778.9 735.656   3
  -3  -5   2 16891.2 398.766   3
  -3  -5   2 17591.6 396.065  11
   3   5  -2 18745.5 325.998   8
  -3  -5   2 18413.6 543.693   5
   3   5  -2 17755.9 513.317   9
  -3  -5   2 18384.5 359.744  10
   3   5  -2 17859.6 319.197   1
  -3  -5   1 10655.6 336.718  11
   3   5  -1 10186.5 185.182  10
   3   5  -1 10427.7 399.345   9
   3   5  -1 10852.5 256.531   8
  -3  -5   1 11035.8 437.964   5
  -3  -5   0 20036.1 509.076  11
  -3  -5   0 21819.6 642.671   5
   3   5   0 20619.1 573.056   9
   3   5   0 20876.3 395.869   8
  -3  -5  -1 10600.1 400.918  11
  -3  -5  -1 11236.4 487.901   5
   3   5   1 10684.4 320.585   8
   3   5   1 10994.1 435.864   9
  -3  -5  -2 4643.99 297.394  11
  -3  -5  -2 4040.02 312.760   5
   3   5   2 4223.62 284.990   9
   3   5   2 4023.62 223.110   8
  -3  -5  -2 4448.24 294.015   6
  -3  -5  -3 11563.6 496.980   6
  -3  -5  -3 11860.9 554.078   5
   3   5   3 12277.9 496.369   9
   3   5   3 11729.0 420.072   8
   3   5   3 11618.6 411.417   7
  -3  -5  -3 11644.0 497.200  11
  -3  -5  -4 13663.2 573.312   6
  -3  -5  -4 13771.4 634.899   5
   3   5   4 12827.4 524.351   9
   3   5   4 13344.1 489.069   8
  -3  -5  -5 3214.82 305.089   6
   3   5   5 3172.38 260.271   8
  -3  -5  -6 147.046 113.684   6
  -3  -5  -7 293.683 128.050   6
  -3  -5  -8 12437.5 692.010   6
  -3  -6  14 3046.65 404.720  10
   3   6 -14 2996.25 369.167   1
  -3  -6  13 962.700 219.646  10
   3   6 -13 1788.54 277.776   1
   3   6 -12 4665.67 402.483   1
  -3  -6  12 4873.82 432.751  10
  -3  -6  11 32106.6 1021.24  10
   3   6 -11 31262.1 977.425   1
  -3  -6  10 18974.1 749.040  10
   3   6 -10 19120.8 730.305   1
  -3  -6   9 1773.27 236.040  10
   3   6  -9 1807.54 218.744   1
  -3  -6   8 5046.43 351.813  10
   3   6  -8 5251.95 343.571   1
  -3  -6   7 17254.0 602.320  10
   3   6  -7 16926.2 577.409   9
   3   6  -7 17551.0 578.382   1
  -3  -6   6 31384.2 753.514  10
  -3  -6   6 32546.3 618.463  11
   3   6  -6 32292.8 724.590   1
   3   6  -6 31758.4 766.299   9
  -3  -6   5 250.327 85.4576  10
  -3  -6   5 295.364 72.0977  11
   3   6  -5 377.292 84.3065   1
  -3  -6   5 169.479 67.7665   5
   3   6  -5 170.561 76.3154   9
  -3  -6   4 21813.0 472.433  11
  -3  -6   4 21584.8 534.959  10
   3   6  -4 21514.4 610.030   9
   3   6  -4 22906.6 508.320   1
  -3  -6   4 21100.0 606.198   5
  -3  -6   4 22613.0 543.808   3
  -3  -6   3 88763.4 1050.93   3
  -3  -6   3 91795.2 974.088  11
  -3  -6   3 93669.0 999.168  10
   3   6  -3 88901.7 1210.71   9
   3   6  -3 89882.0 879.118   1
  -3  -6   3 93647.2 1286.00   5
  -3  -6   2 2680.24 229.837   5
  -3  -6   2 2822.66 150.025  10
   3   6  -2 2213.82 201.315   9
  -3  -6   2 2503.06 175.675   3
  -3  -6   2 2902.23 191.582  11
   3   6  -2 2607.00 112.512   8
   3   6  -2 2396.62 113.632   1
  -3  -6   1 22037.8 541.812  11
   3   6  -1 20944.6 599.443   9
   3   6  -1 22384.7 343.737   8
  -3  -6   1 20404.0 642.114   5
  -3  -6   0 14133.2 472.824  11
  -3  -6   0 14116.4 556.442   5
   3   6   0 14401.7 505.951   9
  -3  -6  -1 1886.57 192.022  11
  -3  -6  -1 2018.20 224.332   5
   3   6   1 1943.63 196.483   9
  -3  -6  -2 10429.5 469.538  11
  -3  -6  -2 9003.04 489.781   5
   3   6   2 9688.77 442.521   9
  -3  -6  -3 17407.1 648.837  11
  -3  -6  -3 17401.3 704.933   5
   3   6   3 17158.1 609.459   9
  -3  -6  -3 16764.3 641.305   6
  -3  -6  -4 6556.82 428.985   6
   3   6   4 7204.30 413.481   9
  -3  -6  -4 7165.09 477.771   5
  -3  -6  -5 1579.49 238.061   6
   3   6   5 1390.88 193.957   9
  -3  -6  -6 5002.95 405.618   6
   3   6   6 5066.18 374.819   9
  -3  -6  -7-15.6696 139.678   6
  -3  -7  14 13736.5 802.417  10
   3   7 -14 13194.3 753.275   1
   3   7 -13 806.351 200.471   1
  -3  -7  13 1354.76 266.327  10
  -3  -7  12 723.506 203.566  10
   3   7 -12 929.561 198.218   1
  -3  -7  11 2813.64 326.462  10
   3   7 -11 2617.33 301.687   1
  -3  -7  10 11829.3 604.273  10
   3   7 -10 11758.0 578.698   1
  -3  -7   9 3995.54 341.837  10
   3   7  -9 4359.16 337.722   1
  -3  -7   8 1059.22 182.663  10
   3   7  -8 1013.82 162.746   1
  -3  -7   7 2346.40 194.459  11
  -3  -7   7 2870.64 259.694  10
   3   7  -7 2499.36 239.829   9
   3   7  -7 2923.46 245.550   1
   3   7  -6 12026.7 499.900   9
  -3  -7   6 12509.8 496.163  10
   3   7  -6 11845.8 449.493   1
  -3  -7   6 12085.5 402.920  11
  -3  -7   5 4107.42 293.370   5
  -3  -7   5 4428.99 281.306  10
  -3  -7   5 4653.34 245.410  11
   3   7  -5 4820.80 311.541   9
   3   7  -5 4695.99 265.364   1
  -3  -7   5 4661.62 282.710   3
  -3  -7   4 10770.3 370.716  11
  -3  -7   4 11253.6 402.513  10
  -3  -7   4 10351.6 455.580   5
   3   7  -4 10870.1 463.031   9
   3   7  -4 10667.1 354.539   1
  -3  -7   4 11686.1 424.815   3
  -3  -7   3 3270.33 228.417   3
  -3  -7   3 3071.91 202.764  11
  -3  -7   3 3461.67 207.005  10
  -3  -7   3 3521.98 274.572   5
   3   7  -3 3206.44 253.079   9
  -3  -7   2 89254.3 1381.13   5
   3   7  -2 87926.6 1293.30   9
  -3  -7   1 37162.7 780.275  11
  -3  -7   1 37525.4 922.313   5
   3   7  -1 37881.4 857.725   9
  -3  -7   0 26534.4 700.905  11
  -3  -7   0 26474.7 809.199   5
   3   7   0 26429.6 732.391   9
  -3  -7  -1 2111.65 218.420  11
  -3  -7  -1 1789.41 224.136   5
   3   7   1 1908.25 207.942   9
  -3  -7  -2 32478.3 890.179  11
  -3  -7  -2 34019.5 988.623   5
   3   7   2 33596.1 862.599   9
  -3  -7  -3 488.684 140.455  11
  -3  -7  -3 623.403 170.383   5
   3   7   3 685.747 138.831   9
   3   7   4 9653.06 495.293   9
  -3  -7  -4 8778.32 553.840   5
   3   7   5-20.3232 99.9163   2
   3   7   5 95.5589 99.7713   9
  -3  -7  -6 1148.76 219.127   6
  -3  -8  14 8623.63 641.662  10
   3   8 -14 7306.59 572.621   1
  -3  -8  13 2420.27 347.925  10
   3   8 -13 1597.99 266.406   1
   3   8 -12 871.028 195.183   1
  -3  -8  12 918.321 235.154  10
  -3  -8  11 3898.61 393.368  10
   3   8 -11 4089.53 375.262   1
  -3  -8  10 11147.5 605.731  10
   3   8 -10 10497.1 558.580   1
  -3  -8   9 6718.87 365.642  11
  -3  -8   9 7627.64 479.258  10
   3   8  -9 6536.86 417.278   1
  -3  -8   8 12869.5 481.507  11
  -3  -8   8 12956.4 589.698  10
   3   8  -8 12799.1 549.884   1
  -3  -8   7 11866.1 442.735  11
   3   8  -7 11380.9 518.270   9
  -3  -8   7 11744.1 528.378  10
   3   8  -7 11588.8 493.005   1
   3   8  -6 1347.94 188.873   9
   3   8  -6 1190.19 152.313   1
  -3  -8   6 1098.90 141.120  11
  -3  -8   6 1114.42 166.174  10
  -3  -8   6 1131.37 166.290   5
  -3  -8   6 1284.82 173.884   3
  -3  -8   5 25664.3 628.736  11
  -3  -8   5 26343.3 695.075  10
  -3  -8   5 27994.0 788.775   5
   3   8  -5 25450.6 612.720   1
   3   8  -5 26716.9 770.582   9
  -3  -8   5 25157.8 693.491   3
  -3  -8   4-6.03541 72.4301   3
  -3  -8   4-11.6829 68.0621  11
  -3  -8   4 6.66266 68.8368  10
  -3  -8   4 53.0287 68.8330   5
   3   8  -4-135.676 100.611   9
  -3  -8   3 2605.75 211.015  11
  -3  -8   3 2856.66 260.759   5
  -3  -8   3 2838.88 231.524   3
   3   8  -3 2819.63 256.707   9
  -3  -8   2 36256.6 942.937   5
  -3  -8   2 35114.5 795.106  11
   3   8  -2 34534.3 859.864   9
  -3  -8   1 7725.54 395.677  11
  -3  -8   1 7387.00 445.525   5
   3   8  -1 7400.03 405.238   9
  -3  -8   0 1048.19 169.478  11
  -3  -8   0 1462.44 215.326   5
   3   8   0 1214.51 179.280   9
  -3  -8  -1 1706.45 214.513  11
  -3  -8  -1 1070.21 196.918   5
   3   8   1 1650.28 201.029   9
  -3  -8  -2 18537.6 772.174   5
   3   8   2 17668.2 653.711   9
  -3  -8  -2 17248.6 691.724  11
   3   8   3 22284.9 755.358   9
  -3  -8  -3 23164.7 892.462   5
  -3  -8  -4 408.619 146.694   5
   3   8   4 762.531 183.948   2
   3   8   5 4118.77 381.219   2
   3   9 -13 2483.87 332.072   1
  -3  -9  13 2393.97 346.990  10
  -3  -9  12 4569.65 445.566  10
   3   9 -12 5202.72 445.343   1
  -3  -9  11 1713.08 220.978  11
   3   9 -11 1720.74 251.840   1
  -3  -9  11 1518.62 257.666  10
  -3  -9  10 4145.90 391.136  10
  -3  -9  10 4072.55 312.797  11
   3   9 -10 3982.21 355.376   1
  -3  -9   9 40311.4 919.537  11
  -3  -9   9 41032.1 1126.11  10
   3   9  -9 38636.2 1031.48   1
  -3  -9   8 4996.63 383.963  10
  -3  -9   8 4531.26 351.913   5
  -3  -9   8 4563.17 301.431  11
   3   9  -8 4111.93 323.907   1
  -3  -9   7 1451.46 204.899   3
  -3  -9   7 1196.30 155.882  11
   3   9  -7 1645.18 198.773   1
  -3  -9   7 1701.73 223.827  10
  -3  -9   7 1587.25 215.161   5
   3   9  -7 1542.12 213.202   9
  -3  -9   6-1.77066 82.1268   3
  -3  -9   6 27.8416 89.5002  10
  -3  -9   6 179.098 84.5118  11
   3   9  -6 90.5513 103.877   9
  -3  -9   5 746.466 152.720   3
  -3  -9   5 914.089 166.234   5
   3   9  -5 577.905 147.201   9
  -3  -9   5 889.638 136.678  11
  -3  -9   4 4825.68 301.947  11
  -3  -9   4 4617.51 347.723   5
   3   9  -4 5326.86 366.614   9
  -3  -9   4 4445.78 315.473   3
  -3  -9   3 2856.47 281.944   5
   3   9  -3 2914.28 272.248   9
   3   9  -2 286.001 109.156   9
  -3  -9   2 220.709 103.230   5
  -3  -9   1 42850.2 1110.58   5
   3   9  -1 41647.2 1003.75   9
  -3  -9   0 1177.79 205.739   5
   3   9   0 973.020 169.559   9
  -3  -9  -1 1585.39 240.007   5
   3   9   1 1729.82 220.297   9
  -3  -9  -2 5241.95 431.284   5
   3   9   2 5374.38 383.914   9
   3   9   2 4704.48 405.456   2
  -3  -9  -3-79.3512 96.3269   5
   3   9   3-54.3960 118.755   2
   3   9   4-156.129 133.238   2
  -3 -10  13 21403.7 1004.37  10
   3  10 -13 19664.7 920.333   1
  -3 -10  12 3847.02 432.238  10
   3  10 -12 4004.93 403.219   1
   3  10 -11 393.720 149.738   1
  -3 -10  11 200.175 121.164  10
  -3 -10  10-132.088 139.832  10
   3  10 -10-4.82644 79.5027   1
  -3 -10   9 3627.65 338.042   5
  -3 -10   9 2940.94 330.000  10
   3  10  -9 3386.69 309.959   2
   3  10  -9 3620.63 332.206   1
  -3 -10   8 2208.21 269.005   3
  -3 -10   8 2492.07 288.483  10
  -3 -10   8 2306.01 272.855   5
  -3 -10   7 1267.76 197.409   3
  -3 -10   7 944.642 177.764  10
  -3 -10   7 1089.97 184.495   5
  -3 -10   6 8745.20 484.085   3
  -3 -10   6 8575.92 493.820   5
   3  10  -6 9682.62 518.418   9
  -3 -10   5 7194.68 429.269   3
  -3 -10   5 7224.85 453.689   5
   3  10  -5 7473.31 456.679   9
  -3 -10   4 10547.2 511.282   3
  -3 -10   4 10697.9 555.442   5
   3  10  -4 11063.9 548.514   9
  -3 -10   3 2668.91 283.068   5
   3  10  -3 2693.72 273.027   9
   3  10  -2 7926.83 463.565   9
  -3 -10   2 9962.52 553.155   5
  -3 -10   1 1584.95 236.310   5
   3  10  -1 1548.20 213.694   9
   3  10   0 326.582 149.014   2
  -3 -10   0 351.046 140.412   5
   3  10   0 236.180 103.322   9
  -3 -10  -1 6963.60 504.947   5
   3  10   1 6188.16 487.229   2
  -3 -10  -2 167.830 147.187   5
   3  10   2 12.4515 112.547   2
  -3 -10  -3 4387.53 434.120   5
  -3 -11  12 14043.5 804.325  10
   3  11 -12 12096.1 700.062   1
  -3 -11  11 1950.85 306.689  10
   3  11 -11 2123.47 287.961   1
  -3 -11  10 328.788 128.567  10
  -3 -11  10 209.147 121.260   5
  -3 -11  10 337.687 150.044   3
   3  11  -9 6480.81 444.210   2
  -3 -11   9 7270.20 504.441  10
  -3 -11   9 6703.65 471.955   5
  -3 -11   9 6414.06 471.637   3
   3  11  -8 8098.85 509.139   2
  -3 -11   8 7761.27 501.862   5
  -3 -11   8 8607.87 525.196   3
  -3 -11   7 269.967 151.422   3
  -3 -11   7 44.8847 89.9655   5
   3  11  -7 228.787 135.596   2
   3  11  -7 182.060 123.263   9
   3  11  -6 1227.57 204.276   9
   3  11  -6 1240.42 222.501   2
  -3 -11   6 1167.27 202.723   5
  -3 -11   6 1462.75 221.291   3
  -3 -11   5-18.8621 86.8269   3
   3  11  -5 26.3224 104.309   2
  -3 -11   5 158.603 96.0970   5
   3  11  -5 59.3158 93.6423   9
   3  11  -4 9201.92 577.572   2
  -3 -11   4 8607.72 529.635   5
   3  11  -4 8917.35 515.569   9
   3  11  -3 4731.23 428.577   2
  -3 -11   3 4963.55 408.542   5
   3  11  -3 3884.39 343.814   9
  -3 -11   2 193.770 127.392   5
   3  11  -2 247.813 157.390   2
   3  11  -2-31.8836 92.9612   9
  -3 -11   1 8247.72 548.322   5
   3  11  -1 8374.54 578.519   2
  -3 -11   0 17962.2 820.167   5
  -3 -12  11 39.3370 143.089  10
  -3 -12  11-560.684 168.877   5
  -3 -12  10 787.316 192.404   3
  -3 -12  10 181.347 102.452   5
  -3 -12   9-157.343 161.206   3
  -3 -12   9 173.077 129.870   5
  -3 -12   8 12910.0 677.282   3
   3  12  -8 11799.8 644.332   2
  -3 -12   8 12579.0 662.259   5
  -3 -12   7 7359.68 503.953   3
   3  12  -7 7724.51 534.801   2
  -3 -12   7 7905.00 522.811   5
  -3 -12   6 374.576 124.872   5
   3  12  -6 752.645 190.000   2
   3  12  -6 424.253 144.460   9
   3  12  -5 4432.47 384.721   9
   3  12  -5 4705.47 434.378   2
   3  12  -4 2058.28 309.205   2
   3  12  -4 1692.88 249.967   9
  -4  13  -2 1761.76 263.246   2
  -4  13  -3 13369.6 718.289   2
  -4  13  -3 12667.2 711.256  12
  -4  13  -4 508.557 196.572  12
  -4  13  -4 505.890 173.358   2
  -4  13  -5 235.525 145.964   2
   4 -12  -2 12115.6 731.859  11
  -4  12   2 11040.2 655.139   2
   4 -12  -1 165.853 136.957  11
  -4  12   1 211.786 128.274   2
   4 -12   0 1961.58 292.715  11
  -4  12   0 1836.45 271.092   2
   4 -12   1 12267.4 689.898  11
  -4  12  -1 13413.7 688.528   2
  -4  12  -1 12698.5 659.849  12
  -4  12  -2 5784.00 463.325  12
  -4  12  -2 5845.87 452.576   2
   4 -12   2 6069.91 480.440  11
   4 -12   3 875.782 193.341  11
  -4  12  -3 644.972 188.629  12
  -4  12  -3 693.685 178.587   2
  -4  12  -4 7769.15 511.895   2
   4 -12   4 7991.00 558.902   3
  -4  12  -4 7707.15 547.640  12
   4 -12   4 7089.96 520.973  11
  -4  12  -5 308.585 140.405  12
   4 -12   5-155.047 122.454   3
   4 -12   5 122.043 131.162  11
  -4  12  -5 74.0766 97.1655   2
  -4  12  -6 2120.00 307.631  12
   4 -12   6 1480.23 274.037   3
   4 -12   6 2121.52 303.723  11
   4 -11  -4 250.472 164.240  11
  -4  11   4 99.5061 120.855   2
   4 -11  -3 5751.94 489.564  11
  -4  11   3 5938.76 470.347   2
   4 -11  -2 171.067 131.801  11
  -4  11   2 78.6698 114.820   2
   4 -11  -1 253.913 150.791  11
  -4  11   1 54.7732 96.7964   2
  -4  11   0 7929.37 509.267   2
   4 -11   0 8298.21 539.302  11
   4 -11   1-24.6779 121.729  11
  -4  11  -1-35.5372 91.6696  12
  -4  11  -1-152.203 122.139   2
   4 -11   2 2834.70 311.481  11
  -4  11  -2 2507.45 299.233  12
  -4  11  -2 2774.00 307.111   2
  -4  11  -3 9840.01 587.576  12
   4 -11   3 9656.73 571.876   3
   4 -11   3 10468.5 591.421  11
  -4  11  -3 10236.2 557.852   2
  -4  11  -4 200.634 115.919  12
   4 -11   4-75.2280 115.311  11
  -4  11  -4 83.1725 91.3356   2
   4 -11   4 160.715 134.963   3
  -4  11  -5 109.529 124.486  12
   4 -11   5 121.394 116.285  11
   4 -11   5 105.986 118.222   3
  -4  11  -5-6.17047 83.9662   2
  -4  11  -6 1540.59 264.308  12
   4 -11   6 1235.53 225.946   3
   4 -11   6 2104.38 291.774  11
  -4  11  -7 2457.92 336.855  12
   4 -11   7 1900.52 284.612  11
   4 -11   7 2215.31 304.573   3
  -4  11  -8 20195.4 927.404  12
   4 -11   8 20024.8 877.271  11
   4 -11   8 19570.4 858.713   3
  -4  10   7 3132.33 345.926   2
   4 -10  -6 961.492 229.877  11
  -4  10   6 1238.29 224.200   2
   4 -10  -5 2161.81 318.371  11
  -4  10   5 1831.18 267.492   2
   4 -10  -4 1221.46 238.499  11
  -4  10   4 1479.54 236.858   2
  -4  10   3 12799.2 640.980   2
   4 -10  -3 13525.2 696.647  11
   4 -10  -2 10064.0 579.273  11
  -4  10   2 10066.3 558.316   2
   4 -10  -1 4049.99 369.403  11
  -4  10   1 3934.49 348.124   2
  -4  10   0 1436.08 210.935  12
  -4  10   0 848.179 172.562   2
   4 -10   0 1137.55 202.593  11
  -4  10  -1 146.005 112.328  12
   4 -10   1 63.7206 93.7861  11
  -4  10  -1-23.9958 100.948   2
   4 -10   2 495.146 144.482   3
  -4  10  -2 828.210 190.382  12
  -4  10  -2 442.831 133.238   2
   4 -10   2 621.612 153.843  11
   4 -10   3 8365.08 506.691   3
  -4  10  -3 8225.13 471.654   2
  -4  10  -3 9054.09 533.520  12
   4 -10   3 8665.47 510.477  11
   4 -10   4 20947.4 793.153   3
  -4  10  -4 20574.6 819.964  12
   4 -10   4 19116.2 758.448  11
  -4  10  -4 19681.5 717.312   2
  -4  10  -5 2024.47 281.318  12
   4 -10   5 2125.23 263.780   3
   4 -10   5 1844.48 246.273  11
  -4  10  -5 2328.41 254.621   2
  -4  10  -6 10319.9 610.465  12
  -4  10  -6 9646.52 494.078   2
   4 -10   6 8869.88 537.923  11
   4 -10   6 9679.08 560.816   3
  -4  10  -7 14329.7 739.788  12
   4 -10   7 14945.1 712.639  11
   4 -10   7 15411.5 712.450   3
  -4  10  -8 602.041 180.438  12
   4 -10   8 403.658 153.843   3
   4 -10   8 475.223 170.413  11
   4 -10   9 3085.03 351.581  11
  -4  10  -9 3532.55 402.417  12
   4 -10   9 3520.53 368.508   3
  -4   9   8 2767.62 319.148   2
   4  -9  -7 515.429 188.593  11
  -4   9   7 107.014 104.927   2
   4  -9  -6 5275.29 467.675  11
  -4   9   6 4943.33 411.739   2
   4  -9  -5 14411.6 732.249  11
  -4   9   5 14919.5 672.880   2
   4  -9  -4 2664.87 308.133  11
  -4   9   4 3218.23 319.972   2
   4  -9  -3 3171.97 326.263  11
  -4   9   3 3151.45 305.307   2
   4  -9  -2 783.399 171.588  11
  -4   9   2 737.338 157.311   2
   4  -9  -1 9270.89 507.343  11
  -4   9   1 11398.2 548.705   2
  -4   9   0 22881.1 757.006  12
   4  -9   0 22597.3 769.119  11
  -4   9   0 23579.7 769.568   2
   4  -9   1 21.9392 101.521  11
  -4   9  -1-6.76262 94.3665   2
  -4   9  -1 158.866 98.3473  12
   4  -9   2 5368.82 378.402   3
   4  -9   2 5758.22 389.898  11
  -4   9  -2 5856.74 379.015   2
  -4   9  -2 5161.25 382.923  12
   4  -9   3 22093.9 764.527   3
  -4   9  -3 22079.1 724.557   2
  -4   9  -3 22124.8 793.717  12
   4  -9   3 23228.6 777.832  11
   4  -9   4 5031.69 373.958   3
   4  -9   4 5545.43 388.590  11
  -4   9  -4 6069.98 378.779   2
  -4   9  -4 5503.42 410.985  12
  -4   9  -5-61.0389 103.327  12
   4  -9   5 204.675 106.158   3
   4  -9   5 95.8652 95.7430  11
  -4   9  -5 95.8335 94.8930   2
  -4   9  -6 2015.15 272.278  12
   4  -9   6 2470.31 271.871   3
   4  -9   6 1552.62 228.683  11
  -4   9  -6 2030.34 214.804   2
   4  -9   6 1871.45 203.382   8
   4  -9   7 3444.68 338.723  11
  -4   9  -7 3250.51 349.257  12
   4  -9   7 3436.88 294.069   8
   4  -9   7 3885.03 355.247   3
   4  -9   8 123.850 124.304   3
   4  -9   8 241.835 130.633  11
   4  -9   8-75.8495 92.6905   8
  -4   9  -8 46.2140 116.804  12
  -4   9  -9 2087.74 299.758  12
  -4   9  -9 1957.76 290.838   1
   4  -9   9 1754.76 251.549   8
  -4   9  -9 2276.76 284.602   4
   4  -9   9 2194.77 291.267   3
  -4   9 -10 66.5809 136.685  12
  -4   9 -10 321.272 146.333   1
   4  -9  10 53.2574 149.155   8
   4  -9  11 2938.27 350.300   8
   4  -8  -9 5662.24 471.975   6
  -4   8   9 5677.00 503.340   7
   4  -8  -9 5752.64 521.759  11
   4  -8  -8 17729.0 864.764  11
  -4   8   8 17957.0 739.399   2
   4  -8  -7 6.05051 116.982  11
  -4   8   7 81.1395 87.2696   2
  -4   8   6 773.894 163.780   2
   4  -8  -6 914.280 202.760  11
  -4   8   6 691.266 144.575  10
   4  -8  -5 33343.7 1035.32  11
  -4   8   5 34750.1 963.175   2
   4  -8  -4 748.524 173.031  11
  -4   8   4 933.373 170.309   2
   4  -8  -3 851.500 170.633  11
  -4   8   3 558.165 121.989   2
   4  -8  -2 8014.82 454.218  11
  -4   8   2 7544.05 428.165   2
   4  -8  -1 6066.42 381.625  11
  -4   8   1 5985.21 376.245   2
  -4   8   0 12217.0 534.146  12
   4  -8   0 12326.7 534.891  11
  -4   8   0 12083.2 521.516   2
   4  -8   0 13013.8 385.468   8
  -4   8  -1 23999.1 756.406  12
   4  -8   1 23796.4 733.055  11
  -4   8  -1 24238.0 723.805   2
   4  -8   1 24638.5 751.980   3
   4  -8   1 25088.4 536.303   8
   4  -8   2 5001.59 335.482   3
  -4   8  -2 5059.70 358.624  12
   4  -8   2 4673.81 329.469  11
  -4   8  -2 5027.36 329.541   2
   4  -8   2 5011.57 252.400   8
   4  -8   3 3417.74 286.436   3
  -4   8  -3 3345.35 302.171  12
   4  -8   3 3621.89 299.706  11
  -4   8  -3 3876.35 290.285   2
   4  -8   3 3941.17 236.853   8
  -4   8  -4 8534.07 484.272  12
  -4   8  -4 8882.76 427.149   2
   4  -8   4 8886.02 466.715  11
   4  -8   4 8211.93 372.130   8
   4  -8   4 9439.47 476.479   3
  -4   8  -5 2823.26 290.364  12
   4  -8   5 2714.36 277.854  11
   4  -8   5 3092.49 251.289   8
  -4   8  -5 2688.03 238.512   2
   4  -8   5 2575.11 267.422   3
  -4   8  -6 554.099 163.540  12
   4  -8   6 463.559 133.557  11
  -4   8  -6 705.385 136.076   2
   4  -8   6 395.643 116.710   8
   4  -8   6 477.316 149.558   3
  -4   8  -7 2350.56 294.501  12
  -4   8  -7 2382.15 293.500   1
   4  -8   7 2060.84 241.279   8
   4  -8   7 2117.08 245.677   3
  -4   8  -8 658.349 178.590   1
   4  -8   8 355.713 133.601   8
  -4   8  -8 385.681 178.762  12
  -4   8  -8 330.499 156.722   4
  -4   8  -9 3741.17 380.970  12
  -4   8  -9 4194.29 418.801   1
  -4   8  -9 3867.85 358.584   4
   4  -8   9 3280.54 332.141   8
  -4   8 -10 9330.00 615.376  12
   4  -8  10 8864.61 564.292   8
  -4   8 -10 9541.19 639.004   1
  -4   8 -11 2486.91 336.644  12
   4  -8  11 2372.07 316.082   8
  -4   7  10 324.411 167.984   7
   4  -7 -10 392.200 155.256   6
   4  -7 -10 200.830 151.030  11
   4  -7  -9 31377.8 1144.97  11
   4  -7  -9 33507.4 1059.44   6
  -4   7   9 31636.1 1117.05   7
   4  -7  -8 278.155 114.530   6
   4  -7  -8 440.167 181.864  11
  -4   7   8 483.191 133.943   2
   4  -7  -7 4519.71 404.318  11
  -4   7   7 5047.89 364.892   2
  -4   7   7 5319.04 369.360  10
   4  -7  -7 5369.90 393.398   6
   4  -7  -6 6295.03 362.297   1
  -4   7   6 5927.75 379.912  10
  -4   7   6 5547.98 372.280   2
   4  -7  -6 5237.80 417.186  11
   4  -7  -5 1073.07 185.121  11
   4  -7  -5 601.782 115.986   1
  -4   7   5 964.758 169.661   2
   4  -7  -4 3132.90 293.035  11
  -4   7   4 3135.19 271.480   2
  -4   7   3 13356.5 535.460   2
   4  -7  -3 13062.2 555.681  11
  -4   7   2 2940.80 252.166   2
   4  -7  -2 2780.97 252.735  11
   4  -7  -1 51239.6 1020.40  11
  -4   7   1 51942.7 1015.37   2
   4  -7  -1 52602.4 781.026   8
   4  -7   0 26580.9 719.522  11
  -4   7   0 26976.6 725.196   2
  -4   7   0 27310.2 752.887  12
   4  -7   0 27636.3 559.272   8
   4  -7   1-22.5015 72.0630  11
  -4   7  -1 70.8581 76.1083  12
  -4   7  -1-19.5602 79.8972   2
   4  -7   1 8.27776 72.2941   3
   4  -7   1 14.5679 52.3614   8
   4  -7   2 7509.61 388.799   3
  -4   7  -2 8176.65 430.458  12
  -4   7  -2 7415.40 373.880   2
   4  -7   2 7150.36 305.003   8
   4  -7   2 7134.71 379.129  11
  -4   7  -3 8697.29 459.848  12
   4  -7   3 8114.95 411.705  11
  -4   7  -3 9110.93 411.721   2
   4  -7   3 9108.19 364.360   8
   4  -7   3 9343.53 439.341   3
  -4   7  -4 10338.5 507.561  12
  -4   7  -4 9906.27 426.723   2
   4  -7   4 9822.34 411.021   8
   4  -7   4 10093.4 473.490  11
   4  -7   4 9949.16 458.920   3
  -4   7  -5 19310.8 712.205  12
  -4   7  -5 18954.8 584.710   2
   4  -7   5 18201.9 596.343   8
   4  -7   5 17219.1 611.897   3
  -4   7  -6 21460.5 789.636   1
  -4   7  -6 20732.5 605.318   2
   4  -7   6 21742.1 694.901   8
  -4   7  -6 20903.1 769.701  12
  -4   7  -7 6032.24 432.137  12
  -4   7  -7 5504.94 424.916   1
   4  -7   7 5824.21 391.049   8
  -4   7  -7 5568.47 397.556   4
  -4   7  -8 11829.4 638.311   1
  -4   7  -8 10863.8 597.815  12
   4  -7   8 11738.0 585.276   8
  -4   7  -8 11767.7 592.808   4
   4  -7   9 4171.60 382.847   8
  -4   7  -9 4133.68 399.999   1
  -4   7  -9 3661.49 352.066   4
  -4   7 -10 185.062 122.688  12
  -4   7 -10 370.460 166.989   1
   4  -7  10 411.025 163.931   8
  -4   7 -11 481.516 164.617  12
  -4   7 -11 37.2598 135.823   1
   4  -7  11 349.290 158.646   8
  -4   7 -12 231.788 152.247  12
  -4   6  11 509.162 214.381   7
   4  -6 -11 288.500 163.328  11
   4  -6 -11 2.45338 150.469   6
   4  -6 -10 7688.76 576.482  11
   4  -6 -10 7539.50 516.200   6
  -4   6  10 7696.72 557.557   7
  -4   6   9 1531.18 264.022   7
   4  -6  -9 1329.31 215.880   6
   4  -6  -9 1859.74 279.079  11
  -4   6   9 1205.22 197.883  10
  -4   6   9 1510.69 199.595   2
   4  -6  -8 469.114 151.442   6
  -4   6   8 371.224 129.776  10
  -4   6   8 413.023 113.769   2
   4  -6  -7 26063.9 799.416   6
   4  -6  -7 27538.1 768.464   1
   4  -6  -7 26342.6 898.143  11
  -4   6   7 26213.6 786.072  10
  -4   6   7 26086.6 762.867   2
   4  -6  -6 62.3922 98.0127   6
  -4   6   6 94.6291 106.344  10
   4  -6  -6 8.52644 97.0619  11
   4  -6  -6 200.546 87.1609   1
  -4   6   6 52.5079 65.6184   2
   4  -6  -5 4000.01 284.430   6
   4  -6  -5 4121.06 320.998  11
  -4   6   5 3361.11 268.020   2
   4  -6  -5 3829.65 270.680   1
  -4   6   4 44013.2 925.064   2
   4  -6  -4 42893.5 972.579  11
   4  -6  -3 34154.5 824.079  11
  -4   6   3 34223.0 798.093   2
   4  -6  -2 311.700 97.2743  11
  -4   6   2 475.054 118.035   2
   4  -6  -2 443.620 82.0058   8
  -4   6   1 74538.6 1151.59  12
   4  -6  -1 71076.8 1100.97  11
  -4   6   1 72418.9 1124.99   2
   4  -6  -1 72099.5 897.741   8
  -4   6   0 5610.84 327.211  12
   4  -6   0 5781.34 316.300  11
  -4   6   0 6046.88 323.046   2
   4  -6   0 5215.25 302.856   3
   4  -6   0 6055.23 258.760   8
   4  -6   1 102033. 1296.62   3
  -4   6  -1 101903. 1394.95  12
   4  -6   1 101034. 1295.92  11
  -4   6  -1 98468.6 1277.51   2
   4  -6   1 101172. 1076.20   8
   4  -6   2 1850.42 181.006  11
  -4   6  -2 1902.10 185.918   2
  -4   6  -2 1757.44 198.822  12
   4  -6   2 1851.86 162.068   8
   4  -6   2 1690.49 176.932   3
   4  -6   3 119.268 92.5228   3
   4  -6   3 66.5280 66.0014  11
  -4   6  -3 23.1002 54.7963   2
   4  -6   3 45.4140 57.6020   8
  -4   6  -3 18.0958 77.7859  12
  -4   6  -4 33851.6 740.144   2
  -4   6  -4 32392.0 858.632  12
   4  -6   4 33668.9 765.673   8
   4  -6   4 32831.0 770.764   3
  -4   6  -5 2247.80 197.039   2
   4  -6   5 2027.24 211.704   8
  -4   6  -5 1825.08 225.266  12
  -4   6  -6 432.308 124.922  12
   4  -6   6 478.219 129.260   8
  -4   6  -6 495.057 150.139   1
  -4   6  -6 475.115 103.977   2
  -4   6  -7 17938.9 711.157  12
  -4   6  -7 18208.0 740.841   1
   4  -6   7 17003.3 670.331   8
  -4   6  -7 17332.3 679.091   4
  -4   6  -8 6758.23 454.801  12
  -4   6  -8 6731.42 470.967   1
   4  -6   8 6521.62 443.089   8
  -4   6  -8 6433.40 428.555   4
  -4   6  -9 7249.62 482.949  12
  -4   6  -9 7693.52 531.321   1
   4  -6   9 7719.31 513.192   8
  -4   6  -9 8281.28 500.397   4
  -4   6 -10 10298.3 594.925  12
  -4   6 -10 9752.28 618.048   1
   4  -6  10 9144.32 586.806   8
  -4   6 -10 10707.6 581.605   4
  -4   6 -11 442.775 154.406  12
   4  -6  11 661.747 209.190   8
  -4   6 -11 690.096 195.634   1
   4  -5 -12 10402.1 646.292   6
   4  -5 -11 10181.8 607.900   6
   4  -5 -11 10440.4 673.812  11
  -4   5  11 9654.05 632.897   7
   4  -5 -10 10476.1 586.709   6
   4  -5 -10 11319.4 665.457  11
  -4   5  10 10741.1 558.109  10
  -4   5  10 9276.78 584.796   7
  -4   5   9 124.983 111.079   7
   4  -5  -9 379.024 146.352   6
  -4   5   9 73.7036 108.875  10
  -4   5   9 171.575 80.5983   2
   4  -5  -9 28.2743 126.270  11
   4  -5  -9 70.2166 83.1095   1
   4  -5  -8 2948.17 265.787   1
  -4   5   8 2232.80 246.157  10
   4  -5  -8 3153.04 321.525  11
  -4   5   8 2946.57 253.314   2
   4  -5  -8 2885.38 280.206   6
   4  -5  -7 177.341 97.4087   6
  -4   5   7 4.26191 80.9193  10
   4  -5  -7 52.4209 86.2790  11
   4  -5  -7 215.956 85.1860   1
  -4   5   7 22.4782 65.9562   2
   4  -5  -6 3828.80 273.969   1
   4  -5  -6 3840.74 278.902   6
   4  -5  -6 3819.37 308.290  11
  -4   5   6 3720.02 268.849   2
  -4   5   6 3464.22 272.397  10
   4  -5  -5 195.398 86.1266   6
   4  -5  -5 40.2831 75.2865  11
   4  -5  -5 99.3742 73.1991   1
  -4   5   5 143.540 90.4800   2
   4  -5  -4 6468.41 352.648  11
  -4   5   4 6317.04 332.077   2
   4  -5  -4 6743.89 316.652   6
   4  -5  -3 82969.4 1176.17  11
  -4   5   3 85334.6 1178.73   2
   4  -5  -2 15922.4 492.310  11
  -4   5   2 15408.7 496.494   2
   4  -5  -2 15814.0 426.181   8
   4  -5  -1 31068.8 667.694  11
  -4   5   1 30623.7 684.474   2
   4  -5  -1 30039.5 568.254   8
   4  -5   0 223.267 69.4874  11
   4  -5   0 223.256 74.9295   3
  -4   5   0 317.989 79.6275   2
   4  -5   0 293.532 67.8902   8
  -4   5   0 160.004 84.8426  12
   4  -5   1 2394.82 187.083   3
   4  -5   1 2626.97 199.197  11
   4  -5   1 2452.51 89.3269   5
  -4   5  -1 2723.45 205.984   2
   4  -5   1 2667.14 183.971   8
  -4   5  -1 2420.16 215.125  12
  -4   5  -2 3306.93 251.452  12
   4  -5   2 3395.78 233.268  11
  -4   5  -2 3265.93 223.047   2
   4  -5   2 3087.03 210.165   8
   4  -5   2 3366.30 221.797   3
   4  -5   3-4.52260 58.0986   8
   4  -5   3 21.0684 59.0656   3
  -4   5  -3 80.0235 67.6533   2
  -4   5  -3-54.9782 85.6015  12
  -4   5  -4 10920.4 477.393  12
  -4   5  -4 10700.0 397.412   2
   4  -5   4 10793.4 442.955   8
  -4   5  -5 453.142 120.024   1
  -4   5  -5 461.931 121.111  12
   4  -5   5 604.417 129.826   8
  -4   5  -5 574.375 106.544   2
  -4   5  -6 22642.9 734.009  12
  -4   5  -6 23476.0 779.322   1
   4  -5   6 21829.1 715.250   8
  -4   5  -6 21245.4 712.212   4
   4  -5   7 783.463 160.346   8
  -4   5  -7 847.954 181.214   1
  -4   5  -7 556.670 126.622  12
  -4   5  -7 771.751 148.849   4
  -4   5  -8-150.303 109.943  12
   4  -5   8-65.5903 112.556   8
  -4   5  -8 43.7898 113.899   1
  -4   5  -8-96.7044 99.4393   4
  -4   5  -9 5614.41 413.717  12
  -4   5  -9 5423.79 444.121   1
   4  -5   9 5287.95 428.548   8
  -4   5  -9 4971.08 391.020   4
  -4   5 -10 1653.62 239.052  12
   4  -5  10 1039.64 218.623   8
  -4   5 -10 1257.36 212.126   4
  -4   5 -10 1109.34 219.811   1
  -4   5 -11 9060.33 610.629   1
   4  -5  11 7985.79 583.617   8
  -4   5 -12 1643.98 285.233   1
   4  -4 -12 5859.52 479.491   6
  -4   4  12 5838.09 509.033   7
  -4   4  11 8899.93 523.582  10
   4  -4 -11 8873.31 550.012   6
  -4   4  11 9054.38 590.613   7
   4  -4 -10 15420.4 676.009   6
   4  -4 -10 16231.7 756.035  11
  -4   4  10 16692.2 680.629  10
   4  -4 -10 16880.2 673.239   1
  -4   4  10 17335.5 769.086   7
   4  -4  -9 5128.08 409.066  11
   4  -4  -9 4179.78 319.757   1
  -4   4   9 4685.46 298.983   2
   4  -4  -9 3986.12 329.707   6
  -4   4   9 4733.63 354.079  10
  -4   4   9 4794.16 392.440   7
   4  -4  -8 23284.1 731.302   6
   4  -4  -8 23932.6 810.672  11
   4  -4  -8 22528.5 706.307   1
  -4   4   8 22434.1 722.087  10
  -4   4   8 23114.3 639.655   2
   4  -4  -7 10663.2 464.960   1
   4  -4  -7 10631.7 463.208   6
  -4   4   7 10645.2 425.716   2
   4  -4  -7 9942.07 491.415  11
  -4   4   7 10202.7 464.764  10
   4  -4  -6 23900.4 658.578   1
   4  -4  -6 24359.7 714.282  11
  -4   4   6 23452.1 676.239  10
  -4   4   6 23810.7 620.675   2
   4  -4  -6 24304.1 646.101   6
   4  -4  -5 56758.8 898.663   6
  -4   4   5 56434.6 931.042   2
   4  -4  -5 55096.9 997.264  11
   4  -4  -5 56571.8 970.606   1
   4  -4  -4 1504.24 140.574   6
   4  -4  -4 1294.14 150.570  11
  -4   4   4 1248.52 146.761   2
  -4   4   3 15860.5 220.903   5
  -4   4   3 16072.5 480.667   2
   4  -4  -3 16773.7 482.478  11
   4  -4  -3 16265.2 442.661   8
  -4   4   2 98370.4 1169.69   2
   4  -4  -2 97714.8 1107.41  11
   4  -4  -2 98455.8 1030.05   8
   4  -4  -1 10650.2 356.097  11
  -4   4   1 10520.8 378.225   2
   4  -4  -1 10756.6 333.915   8
   4  -4   0 5074.01 246.628  11
   4  -4   0 5070.20 233.350   8
  -4   4   0 4910.33 262.030   2
  -4   4   0 5019.12 277.998  12
   4  -4   0 4988.08 244.182   3
   4  -4   1 39825.2 676.540   3
  -4   4  -1 38242.7 774.807  12
   4  -4   1 40197.9 701.017  11
  -4   4  -1 40110.5 732.974   2
   4  -4   1 39155.7 680.427   8
  -4   4  -2 89369.5 1210.44  12
  -4   4  -2 93424.7 1114.22   2
   4  -4   2 91289.5 1111.12   8
   4  -4   2 90234.7 1036.50   3
  -4   4  -3 6455.40 337.436  12
  -4   4  -3 6731.77 306.525   2
   4  -4   3 6366.18 322.446   8
  -4   4  -4 2633.85 229.563  12
  -4   4  -4 3316.77 217.639   2
   4  -4   4 2507.63 217.947   8
  -4   4  -4 3053.61 255.399   4
  -4   4  -5 667.940 125.886  12
  -4   4  -5 758.604 138.504   1
   4  -4   5 536.500 120.043   8
  -4   4  -5 775.727 143.318   4
  -4   4  -6 2989.62 266.142  12
  -4   4  -6 2869.80 274.009   1
   4  -4   6 2917.86 278.211   8
  -4   4  -6 2852.96 265.118   4
  -4   4  -7 13695.0 605.071   1
   4  -4   7 14207.2 624.081   8
  -4   4  -7 13136.7 577.154   4
  -4   4  -7 14352.9 577.418  12
  -4   4  -8 15412.5 627.498  12
   4  -4   8 14800.1 636.261  10
   4  -4   8 14868.5 677.430   8
  -4   4  -8 15324.1 649.939   4
  -4   4  -8 15023.0 671.156   1
  -4   4  -9 21052.4 752.937  12
  -4   4  -9 20935.4 823.943   1
   4  -4   9 20762.3 781.687  10
   4  -4   9 20811.9 844.758   8
  -4   4  -9 20543.2 771.663   4
  -4   4 -10 15467.6 742.411   1
   4  -4  10 15675.1 779.129   8
  -4   4 -10 14874.7 684.855   4
  -4   4 -11 3769.72 394.398   1
   4  -4  11 4461.52 444.185   8
  -4   4 -12 1094.88 226.227   1
   4  -3 -13 317.250 131.233   6
  -4   3  13 518.852 208.327   7
  -4   3  12 3558.02 387.905   7
   4  -3 -12 3507.43 365.057   6
  -4   3  12 3806.58 358.021  10
   4  -3 -12 3517.11 341.044   1
  -4   3  11 399.813 173.082   7
   4  -3 -11 408.038 153.553   6
  -4   3  11 335.007 146.856  10
   4  -3 -11 263.112 90.7443   1
   4  -3 -10 1705.02 220.739   1
  -4   3  10 1730.52 257.212   7
   4  -3 -10 1302.38 205.773   6
   4  -3 -10 1709.62 256.868  11
  -4   3  10 1838.55 230.765  10
  -4   3   9-45.0992 91.6872  10
  -4   3   9-43.7240 120.431   7
   4  -3  -9 57.8819 87.8773   6
  -4   3   9 82.2640 56.8670   2
   4  -3  -9 102.339 73.7856   1
   4  -3  -9-45.1068 86.8379  11
   4  -3  -8 5039.31 354.330  11
  -4   3   8 5448.19 352.120  10
   4  -3  -8 5699.99 354.190   1
   4  -3  -8 4985.17 326.584   6
  -4   3   8 5802.36 303.131   2
  -4   3   8 5082.05 367.394   7
   4  -3  -7 239.946 89.6718   6
   4  -3  -7 366.795 118.985  11
  -4   3   7 262.658 100.036  10
   4  -3  -7 203.849 89.3133   1
  -4   3   7 239.239 87.4614   2
  -4   3   6 20613.9 542.009   2
   4  -3  -6 20381.2 551.309   6
  -4   3   6 20321.2 609.758  10
   4  -3  -6 20253.1 594.801   1
   4  -3  -6 20792.7 612.546  11
   4  -3  -5 61460.5 869.097   6
   4  -3  -5 61873.9 976.470  11
  -4   3   5 60620.0 908.186   2
   4  -3  -5 62437.8 995.506   1
   4  -3  -4 1428.34 125.813   6
   4  -3  -4 1673.15 155.190  11
  -4   3   4 1274.07 135.384   2
   4  -3  -3 2177.44 131.159   6
   4  -3  -3 2156.14 159.373  11
   4  -3  -3 1779.33 54.7126   9
  -4   3   3 2469.04 182.849   2
   4  -3  -3 2060.07 156.727   8
   4  -3  -2 99016.7 993.641  11
  -4   3   2 95217.0 499.724   5
  -4   3   2 97090.8 1106.30   2
   4  -3  -2 98817.9 1012.14   8
   4  -3  -1 46.5551 41.3597  11
  -4   3   1 83.5817 22.0481   5
   4  -3  -1 66.3416 48.3898   8
   4  -3   0 14394.5 361.363   3
   4  -3   0 15056.8 252.874   5
  -4   3   0 15283.8 437.511   2
   4  -3   0 14364.9 371.847  11
   4  -3   0 14630.7 394.477   8
  -4   3   0 13923.8 437.503  12
   4  -3   1 11040.2 319.170   3
  -4   3  -1 11230.0 375.416   2
   4  -3   1 11225.5 368.952   8
  -4   3  -1 11456.6 399.313  12
  -4   3  -2 68144.1 989.865  12
  -4   3  -2 68735.8 933.383   2
   4  -3   2 69585.7 976.971   8
   4  -3   2 69317.8 813.067   3
  -4   3  -3 30516.7 623.198   2
  -4   3  -3 29696.8 676.809  12
  -4   3  -3 28993.5 712.600   4
  -4   3  -4 368.284 93.6434  12
   4  -3   4 173.887 86.3896   8
  -4   3  -4 250.762 101.777   4
  -4   3  -5 14853.7 516.734  12
  -4   3  -5 15760.4 572.267   1
   4  -3   5 14779.0 562.196   8
  -4   3  -5 15005.0 563.102   4
  -4   3  -6 76547.1 1314.53   1
   4  -3   6 75634.7 1345.23   8
  -4   3  -6 73807.2 1311.39   4
  -4   3  -7 20444.8 655.498  12
   4  -3   7 19567.5 668.262  10
  -4   3  -7 19929.4 708.152   1
   4  -3   7 20269.4 748.863   8
  -4   3  -7 19141.5 695.522   4
  -4   3  -8 4591.97 324.257  12
  -4   3  -8 4443.82 360.356   1
   4  -3   8 4769.63 351.865  10
   4  -3   8 5030.06 407.902   8
  -4   3  -8 4484.46 351.130   4
   4  -3   9 1244.99 197.599  10
  -4   3  -9 967.819 190.215   1
   4  -3   9 1097.07 211.680   8
  -4   3  -9 773.273 182.301   4
  -4   3 -10 16314.3 745.237   1
  -4   3 -10 16556.0 728.994   4
   4  -3  10 15514.0 780.973   8
  -4   3 -11 175.841 105.805   1
   4  -3  11 255.672 140.997   8
   4  -2 -14-13.2941 166.063   6
  -4   2  14-19.7255 147.558  10
  -4   2  13 219.901 166.260   7
   4  -2 -13 100.851 121.742   6
   4  -2 -13 148.594 108.392   1
  -4   2  13 33.7260 122.977  10
   4  -2 -12 1610.22 237.384   1
   4  -2 -12 1544.54 248.805   6
  -4   2  12 1378.00 225.997  10
  -4   2  12 2132.82 307.519   7
   4  -2 -11 5670.43 410.613   1
   4  -2 -11 4923.89 394.052   6
  -4   2  11 5128.12 398.564  10
  -4   2  11 5100.97 424.874   7
   4  -2 -10 57544.4 1219.93   6
   4  -2 -10 55896.1 1204.84   1
  -4   2  10 56919.1 1219.21  10
  -4   2  10 56248.6 1283.22   7
   4  -2  -9 35253.0 895.436   6
   4  -2  -9 36821.0 970.186  11
  -4   2   9 36272.9 929.507  10
   4  -2  -9 36934.2 930.406   1
  -4   2   9 37524.1 727.073   2
  -4   2   9 36248.3 972.083   7
  -4   2   8 111.839 92.6898   7
   4  -2  -8 90.7850 70.8653   6
  -4   2   8 185.595 106.603  10
   4  -2  -8 25.7860 64.8557   1
  -4   2   8 132.667 69.7249   2
   4  -2  -8 151.818 82.8808  11
   4  -2  -7 9698.31 431.151   1
   4  -2  -7 9405.64 419.822  11
   4  -2  -7 9026.94 385.180   6
  -4   2   7 9116.92 420.237  10
  -4   2   7 9813.68 363.117   2
  -4   2   7 8244.93 409.855   7
   4  -2  -6 23146.3 602.759  11
   4  -2  -6 22678.1 547.595   6
  -4   2   6 23145.4 629.114  10
  -4   2   6 21391.4 523.314   2
   4  -2  -6 22445.9 616.162   1
  -4   2   5 6016.01 155.457   9
   4  -2  -5 6443.39 292.021  11
  -4   2   5 5984.70 309.633  10
   4  -2  -5 6172.39 256.826   6
  -4   2   5 5879.05 273.004   2
   4  -2  -5 6757.25 322.223   1
   4  -2  -4 27248.3 459.640   6
   4  -2  -4 29356.0 563.303  11
  -4   2   4 28087.8 581.546   2
   4  -2  -4 29376.9 326.490   9
   4  -2  -4 27722.6 580.663   8
   4  -2  -3 451.947 54.4345   6
   4  -2  -3 466.949 75.2730  11
   4  -2  -3 538.705 49.0598   9
  -4   2   3 391.380 80.4610   2
   4  -2  -3 413.517 77.8479   8
  -4   2   2 119188. 680.506   6
  -4   2   2 121201. 1187.89   2
   4  -2  -2 117302. 950.143  11
  -4   2   2 118259. 736.408   5
   4  -2  -2 120037. 1083.80   8
   4  -2  -1 92883.0 819.356  11
  -4   2   1 92109.2 520.364   6
  -4   2   1 93287.0 706.467   5
  -4   2   1 90322.0 1038.01   2
   4  -2  -1 90580.5 944.699   8
  -4   2   0 5354.96 196.034   5
   4  -2   0 5949.71 216.856  11
  -4   2   0 5725.04 267.236   2
   4  -2   0 5567.05 194.686   3
   4  -2   0 5257.49 240.561   8
  -4   2  -1 6855.44 291.001  12
  -4   2  -1 7147.49 295.591   2
   4  -2   1 6703.12 288.025   8
  -4   2  -1 6636.22 305.088   4
  -4   2  -1 7048.25 249.493   5
   4  -2   1 6774.53 217.827   3
  -4   2  -2 10516.4 368.286  12
   4  -2   2 10615.9 389.027   8
  -4   2  -2 10404.7 405.735   4
  -4   2  -3 64936.1 939.174  12
   4  -2   3 64826.6 1032.41   8
  -4   2  -4 10089.2 386.845  12
   4  -2   4 10249.6 444.039   8
  -4   2  -4 10125.4 444.346   4
  -4   2  -5 17416.4 526.478  12
  -4   2  -5 17579.4 579.687   1
   4  -2   5 16734.0 606.027   8
  -4   2  -5 17561.1 615.123   4
  -4   2  -6 6085.66 328.196  12
  -4   2  -6 5749.32 357.461   1
   4  -2   6 6140.30 395.109   8
  -4   2  -6 5664.37 365.375   4
  -4   2  -7 3810.19 270.793  12
  -4   2  -7 4328.37 325.594   1
   4  -2   7 4224.07 347.075   8
  -4   2  -7 4080.33 328.406   4
   4  -2   8 1940.05 223.127  10
   4  -2   8 2037.15 271.040   8
  -4   2  -8 2376.18 264.126   4
  -4   2  -8 1900.23 230.675   1
  -4   2  -9 7642.93 476.257   1
  -4   2  -9 8345.72 510.543   4
   4  -2   9 6688.58 493.928   8
  -4   2 -10 108.485 103.942   1
   4  -2  10 225.619 157.354   8
  -4   2 -10-55.8834 106.866   4
  -4   2 -11 7951.03 584.843   6
   4  -1 -14 13475.7 745.396   6
   4  -1 -14 14315.3 747.925   1
  -4   1  14 14216.8 746.447  10
  -4   1  14 15452.5 825.784   7
   4  -1 -13 35692.8 1143.90   6
   4  -1 -13 36027.4 1121.84   1
  -4   1  13 35953.7 1183.96   7
  -4   1  13 36418.8 1136.67  10
  -4   1  12-67.8084 128.015   7
   4  -1 -12 31.4266 88.7748   1
   4  -1 -12 146.654 110.434   6
  -4   1  12 116.838 103.598  10
  -4   1  11 20730.8 775.822  10
   4  -1 -11 22505.0 801.798   1
   4  -1 -11 21048.0 778.794   6
  -4   1  11 22396.5 834.581   7
   4  -1 -10 1527.57 214.276   1
   4  -1 -10 1511.08 208.166   6
  -4   1  10 1690.12 221.752  10
  -4   1  10 1731.45 234.377   7
   4  -1  -9 18727.1 663.249   1
  -4   1   9 19467.0 496.317   2
  -4   1   9 19873.0 679.046  10
  -4   1   9 18886.9 677.005   7
   4  -1  -8 5050.41 318.436  11
   4  -1  -8 4567.90 310.875   1
  -4   1   8 4540.94 312.571  10
  -4   1   8 4705.02 243.657   2
  -4   1   8 4725.43 322.699   7
   4  -1  -7 9179.55 417.634   1
   4  -1  -7 8783.53 382.443  11
  -4   1   7 8792.93 407.705  10
  -4   1   7 8836.85 330.724   2
  -4   1   7 8641.85 399.329   7
   4  -1  -6 95101.6 1249.47   1
  -4   1   6 93754.0 1055.95   2
  -4   1   6 93933.2 1233.04  10
   4  -1  -6 93839.4 1123.69  11
  -4   1   6 93429.2 1205.06   7
   4  -1  -5 755.985 95.8832  11
   4  -1  -5 652.207 84.4458   6
   4  -1  -5 833.930 124.163   1
   4  -1  -5 851.581 76.7051   9
  -4   1   5 1009.58 128.935  10
  -4   1   5 739.361 99.2203   2
   4  -1  -4 699.694 70.5563   6
   4  -1  -4 802.024 71.1063   9
   4  -1  -4 655.472 81.7061  11
   4  -1  -4 676.597 99.9618   8
  -4   1   4 546.134 90.8710   2
   4  -1  -4 720.701 107.808   1
   4  -1  -3 52320.2 416.010   6
   4  -1  -3 53718.6 555.549   9
   4  -1  -3 53608.6 595.171  11
  -4   1   3 52708.0 780.283   2
   4  -1  -3 52685.2 737.031   8
  -4   1   2 10230.2 257.929   5
   4  -1  -2 9789.74 255.309   9
  -4   1   2 10109.1 345.847   2
   4  -1  -2 10113.2 311.287   8
   4  -1  -1 5.28155 25.6512  11
  -4   1   1 57.8866 33.6262   5
   4  -1  -1-46.7356 50.5471   8
  -4   1   1 93.0397 51.8104   4
   4  -1   0 1574.83 85.4184   3
   4  -1   0 1432.25 130.131   8
  -4   1   0 1567.86 143.472   4
  -4   1   0 1529.53 119.582   5
  -4   1  -1 8953.72 311.267   5
   4  -1   1 9256.17 339.880   8
  -4   1  -1 9829.05 371.447   4
   4  -1   1 9596.24 211.800   3
  -4   1  -2 21531.5 495.248  12
  -4   1  -2 20839.5 570.779   4
  -4   1  -2 21910.8 534.345   5
   4  -1   3 14643.9 494.117   8
  -4   1  -3 14751.4 519.500   4
  -4   1  -3 14956.9 424.152  12
  -4   1  -4 16220.5 458.306  12
   4  -1   4 16211.6 560.581   8
  -4   1  -4 16436.5 575.348   4
  -4   1  -5 14645.9 452.543  12
  -4   1  -5 15094.4 521.790   1
   4  -1   5 14250.5 559.618   8
  -4   1  -5 13836.3 556.303   4
  -4   1  -6 27294.1 637.397  12
  -4   1  -6 26043.8 715.953   1
   4  -1   6 26441.1 815.481   8
  -4   1  -6 26380.5 801.351   4
   4  -1   7 1255.81 171.650   7
   4  -1   7 1500.26 224.462   8
  -4   1  -7 1048.01 191.123   4
  -4   1  -7 1180.77 171.420   1
   4  -1   8 14269.8 579.090   7
  -4   1  -8 14973.4 608.433   1
  -4   1  -8 15288.1 672.724   4
   4  -1   8 14249.5 678.013   8
  -4   1  -9 1494.72 235.027   6
   4  -1   9 1092.10 227.915   8
  -4   1 -10 5450.79 457.835   6
   4  -1  10 6194.69 501.445   8
  -4   1 -10 5219.43 427.522   4
  -4   1 -11 16321.5 836.414   6
  -4   0  15 13160.0 757.804  10
   4   0 -15 13536.6 761.979   1
  -4   0  14-86.4760 138.127   7
   4   0 -14-136.308 125.517   6
  -4   0  14 123.490 120.918  10
   4   0 -14 57.6958 144.427   1
   4   0 -13 19669.6 834.351   6
  -4   0  13 18446.7 811.453  10
   4   0 -13 18982.2 818.496   1
  -4   0  13 18878.5 845.976   7
   4   0 -12 13.5280 97.2530   1
  -4   0  12-45.3487 114.219   7
  -4   0  12-136.373 131.183  10
   4   0 -11 328.592 135.711   1
  -4   0  11 446.829 141.898  10
  -4   0  11 249.501 137.103   7
   4   0 -10 31427.0 900.369   1
  -4   0  10 31353.0 898.378  10
  -4   0  10 30692.9 891.586   7
  -4   0   9 1208.33 180.165   7
  -4   0   9 1496.50 202.461  10
   4   0  -9 1621.33 212.843   1
  -4   0   8 1140.98 164.793   7
  -4   0   8 1458.51 185.999  10
   4   0  -8 1244.53 172.916   1
   4   0  -7 19287.2 596.581   1
  -4   0   7 20060.7 599.760  10
  -4   0   7 18692.0 258.932   4
  -4   0   7 19502.7 570.596   7
   4   0  -6 32700.1 725.209   1
   4   0  -6 33684.7 624.262  11
  -4   0   6 32812.1 719.144  10
  -4   0   6 31995.0 667.077   7
   4   0  -5 4224.44 249.603   1
   4   0  -5 4446.74 201.142  11
  -4   0   5 4543.29 254.631  10
   4   0  -5 4876.80 200.025   9
  -4   0   5 4636.62 233.885   7
   4   0  -4 40060.3 510.121  11
  -4   0   4 40023.7 693.425  10
   4   0  -4 40604.1 549.754   9
  -4   0   4 40836.2 506.769   4
   4   0  -4 38823.4 661.064   8
  -4   0   4 39347.9 595.681   7
   4   0  -4 39790.8 700.671   1
  -4   0   3 26469.6 321.208  11
   4   0  -3 26277.0 337.013  11
   4   0  -3 26319.7 443.821   9
  -4   0   3 26575.8 449.551   4
   4   0  -3 25405.0 502.355   8
   4   0  -2 2120.84 83.1028  11
  -4   0   2 1955.63 131.060   5
   4   0  -2 2007.98 135.311   9
   4   0  -2 2090.52 143.008   8
  -4   0   2 1721.80 130.839   4
  -4   0   1 53009.7 698.276   5
   4   0  -1 52799.9 440.430  11
   4   0  -1 52864.5 704.488   8
  -4   0   1 53201.4 757.101   4
  -4   0   0 4026.45 208.974   5
   4   0   0 4261.87 218.798   8
  -4   0   0 4039.31 133.805   6
  -4   0   0 4240.98 234.080   4
  -4   0   0 4067.44 117.095   7
  -4   0  -1 1068.15 93.1711   6
  -4   0  -1 987.792 120.004   5
   4   0   1 1032.46 121.005   8
  -4   0  -1 943.301 127.555   4
   4   0   1 1082.43 55.4247   3
  -4   0  -2 2799.61 172.855   6
  -4   0  -2 2704.58 204.024   5
   4   0   2 2538.55 200.838   8
  -4   0  -2 2831.53 225.976   4
  -4   0  -3 17585.5 477.956   6
  -4   0  -3 17274.1 547.804   5
   4   0   3 16619.6 531.919   8
  -4   0  -3 17038.5 564.551   4
   4   0   4 85751.3 997.516   7
  -4   0  -4 89030.2 1190.76   6
   4   0   4 90072.6 1328.47   8
  -4   0  -4 83388.1 1322.11   4
  -4   0  -4 83483.4 956.614  12
   4   0   5 3884.21 236.211   7
  -4   0  -5 4030.77 285.278   6
   4   0   5 4619.79 324.530   8
  -4   0  -5 3987.36 314.993   4
  -4   0  -5 4032.22 218.301  12
   4   0   6 13057.8 471.699   7
  -4   0  -6 13275.0 553.625   6
  -4   0  -6 13129.1 586.915   4
   4   0   6 13793.9 597.201   8
   4   0   7 43567.0 930.152   7
  -4   0  -7 44778.2 947.849   1
  -4   0  -7 44844.5 1090.91   6
  -4   0  -7 45289.2 1127.91   4
   4   0   7 43001.9 1122.71   8
  -4   0  -8 587.278 156.910   6
   4   0   8 414.650 129.455   8
  -4   0  -8 631.702 155.733   4
  -4   0  -9 968.409 207.040   6
   4   0   9 328.105 116.609   8
  -4   0  -9 810.372 179.103   4
  -4   0 -10-39.3823 150.344   6
   4   0  10 59.5473 148.585   8
  -4   0 -10 98.5831 129.996   4
  -4  -1  15 259.984 177.184  10
   4   1 -15 629.719 190.402   1
  -4  -1  14-175.309 160.495   7
  -4  -1  14 118.580 137.804  10
   4   1 -14-2.78430 103.084   1
  -4  -1  13 2502.28 315.756   7
  -4  -1  13 2653.09 321.588  10
   4   1 -13 2975.29 334.748   1
  -4  -1  12 194.111 132.490  10
  -4  -1  12 105.423 123.504   7
  -4  -1  11 5006.17 386.684  10
   4   1 -11 5007.97 381.560   1
  -4  -1  11 5887.43 415.269   7
  -4  -1  10 592.083 149.527   7
  -4  -1  10 459.512 139.491  10
   4   1 -10 567.217 147.154   1
  -4  -1   9 26298.1 777.502  10
   4   1  -9 26262.3 773.079   1
  -4  -1   9 26020.6 748.381   7
   4   1  -8 8895.88 431.844   1
  -4  -1   8 8651.24 420.726  10
  -4  -1   8 8342.78 397.264   7
  -4  -1   7 92690.4 1278.18  10
   4   1  -7 92772.3 1295.32   1
  -4  -1   7 95726.5 1214.61   7
  -4  -1   6 1055.00 128.395   7
  -4  -1   6 938.545 135.396  10
   4   1  -6 1050.94 114.011   9
  -4  -1   6 687.657 42.2763   4
   4   1  -6 821.067 127.623   1
  -4  -1   5 116.986 73.7282  10
  -4  -1   5 148.948 54.3908   7
   4   1  -5 244.620 61.7542   9
   4   1  -5 78.4420 59.6063   1
  -4  -1   5 192.411 34.4248   4
   4   1  -4 95116.3 1068.29   1
  -4  -1   4 96670.3 606.441  11
  -4  -1   4 96110.7 1044.10  10
   4   1  -4 94552.4 937.236   9
  -4  -1   4 96331.4 779.304   4
   4   1  -4 95522.3 1013.72   8
  -4  -1   4 96221.2 855.977   7
  -4  -1   3 18310.2 422.875  10
   4   1  -3 17824.5 408.590   9
   4   1  -3 17809.4 412.760   8
  -4  -1   3 17216.7 409.188   5
  -4  -1   3 17457.6 295.471   7
   4   1  -3 17706.2 432.442   1
   4   1  -2 5463.55 134.778   6
  -4  -1   2 5396.27 213.047  10
  -4  -1   2 5467.42 236.949   5
   4   1  -2 5381.83 233.637   9
  -4  -1   2 5169.98 228.527   4
   4   1  -2 4865.26 211.843   8
  -4  -1   2 5075.16 107.976   7
   4   1  -1 84901.5 515.980  11
  -4  -1   1 85342.9 976.263   5
   4   1  -1 86377.6 962.257   9
  -4  -1   1 82868.4 987.610   4
   4   1  -1 87819.0 910.138   8
  -4  -1   0 78812.6 1005.42   5
  -4  -1   0 78876.1 696.210   6
   4   1   0 79165.0 919.144   8
  -4  -1   0 77319.2 1026.07   4
  -4  -1  -1 90.3939 48.5768   6
  -4  -1  -1-5.94599 50.6118   5
   4   1   1-18.6414 49.0540   8
  -4  -1  -1 41.1183 56.4500   4
   4   1   2 14470.0 297.970   7
  -4  -1  -2 14613.7 410.049   6
  -4  -1  -2 13871.6 485.632   5
  -4  -1  -2 13550.5 497.860   4
   4   1   2 14917.6 471.902   8
  -4  -1  -3 50631.6 848.404   6
  -4  -1  -3 50311.0 986.133   5
  -4  -1  -3 49380.0 996.739   4
   4   1   3 51875.1 944.495   8
   4   1   3 50803.5 657.283   7
  -4  -1  -4 1543.47 173.608   6
  -4  -1  -4 1482.55 192.234   5
   4   1   4 1618.95 190.186   8
  -4  -1  -4 1379.29 191.833   4
   4   1   4 1462.20 132.167   7
   4   1   5 821.405 117.234   7
  -4  -1  -5 883.152 148.586   6
   4   1   5 711.325 136.086   8
  -4  -1  -5 532.877 140.993   4
   4   1   6 1515.74 169.501   7
  -4  -1  -6 1983.37 231.281   6
   4   1   6 1564.94 217.685   8
  -4  -1  -6 1757.83 232.775   4
  -4  -1  -7 2154.42 254.174   6
   4   1   7 1952.14 267.171   8
  -4  -1  -7 2175.95 266.436   4
  -4  -1  -8 7878.34 499.035   6
  -4  -1  -8 7741.66 503.942   4
   4   1   8 7393.62 501.797   8
  -4  -1  -9 7397.50 522.004   6
  -4  -1  -9 7517.50 520.761   4
   4   1   9 7861.93 546.196   8
  -4  -1 -10 1157.31 227.102   6
  -4  -1 -10 1439.83 245.015   4
   4   1  10 1171.81 242.335   8
  -4  -2  15 10742.9 695.038  10
   4   2 -15 10554.6 682.179   1
  -4  -2  15 10117.3 670.860   7
  -4  -2  14-112.443 167.720  10
   4   2 -14 67.7513 122.097   1
  -4  -2  14 183.189 131.732   7
  -4  -2  13 9379.87 592.473  10
   4   2 -13 9551.06 583.897   1
  -4  -2  13 8911.96 564.364   7
  -4  -2  12 33462.6 1037.42  10
   4   2 -12 32948.9 1022.51   1
  -4  -2  12 33252.6 1013.25   7
  -4  -2  11 17092.8 704.203  10
   4   2 -11 17450.4 706.633   1
  -4  -2  11 18096.5 704.115   7
  -4  -2  10 12171.8 564.368  10
   4   2 -10 12053.7 559.195   1
  -4  -2  10 11689.4 531.988   7
   4   2  -9 2042.35 232.727   1
  -4  -2   9 1754.96 220.394  10
  -4  -2   9 1696.45 203.301   7
   4   2  -8 49059.8 998.985   1
  -4  -2   8 49074.4 990.980  10
  -4  -2   8 50478.7 949.596   7
   4   2  -7 16013.5 536.445   1
  -4  -2   7 15845.5 531.152  10
   4   2  -7 15337.9 452.055   9
  -4  -2   7 16631.9 500.620   7
   4   2  -6 14434.0 478.969   1
  -4  -2   6 15436.4 487.126  10
   4   2  -6 15216.6 435.715   9
  -4  -2   6 14994.4 427.746   7
   4   2  -5 123138. 1296.05   1
  -4  -2   5 119767. 1249.03  10
   4   2  -5 120043. 1176.61   9
  -4  -2   5 121752. 797.238   4
  -4  -2   5 119974. 1062.45   7
   4   2  -4 32221.9 616.662   1
  -4  -2   4 31026.4 271.589  11
  -4  -2   4 32594.3 599.642  10
   4   2  -4 32970.4 604.389   9
  -4  -2   4 32988.7 493.762   4
   4   2  -4 33379.6 588.682   8
  -4  -2   4 32680.7 469.954   7
  -4  -2   3 1790.15 86.9513   7
  -4  -2   3 1854.12 135.532  10
  -4  -2   3 1684.69 144.681   5
   4   2  -3 1897.38 150.988   9
  -4  -2   3 1576.20 127.414   4
   4   2  -3 1841.48 133.259   8
  -4  -2   2 1259.39 101.701  10
  -4  -2   2 1337.46 134.651   5
   4   2  -2 1481.20 133.343   9
  -4  -2   2 1492.54 133.922   4
   4   2  -2 1390.14 115.505   8
   4   2  -2 1440.59 118.489   1
   4   2  -1 14635.6 213.986  11
  -4  -2   1 14114.0 282.878  10
  -4  -2   1 14286.1 440.557   5
   4   2  -1 14705.1 426.742   9
  -4  -2   1 14252.7 436.351   4
   4   2  -1 14835.4 374.650   8
  -4  -2   0 9060.49 273.397   6
  -4  -2   0 8984.15 193.719  10
  -4  -2   0 8993.01 370.841   5
  -4  -2   0 9007.53 376.564   4
   4   2   0 9717.23 324.676   8
  -4  -2  -1 4934.87 231.121   6
  -4  -2  -1 4694.76 285.436   5
  -4  -2  -1 4404.42 118.795  10
  -4  -2  -1 4773.90 291.274   4
   4   2   1 4602.72 245.135   8
   4   2   1 4002.79 92.9732   3
   4   2   1 4576.60 125.313   7
  -4  -2  -2 7578.74 317.417   6
  -4  -2  -2 6571.24 134.125  10
  -4  -2  -2 7160.08 375.158   5
  -4  -2  -2 7446.58 386.011   4
   4   2   2 7894.27 345.143   8
   4   2   2 7785.79 220.306   7
  -4  -2  -3 6505.28 325.636   6
  -4  -2  -3 6478.10 377.996   5
  -4  -2  -3 6690.97 390.710   4
   4   2   3 6532.04 340.231   8
   4   2   3 6312.36 236.387   7
  -4  -2  -4 5191.26 320.068   6
  -4  -2  -4 4519.17 338.266   5
  -4  -2  -4 4876.66 350.922   4
   4   2   4 5008.36 323.972   8
   4   2   4 5314.18 246.480   7
  -4  -2  -5 16537.0 607.441   6
  -4  -2  -5 16714.6 681.276   4
   4   2   5 16195.2 615.850   8
  -4  -2  -6 1578.78 210.625   6
   4   2   6 1912.90 235.466   8
  -4  -2  -7 1466.15 226.481   6
  -4  -2  -7 1204.26 218.623   4
   4   2   7 979.878 193.447   8
  -4  -2  -8 5023.90 424.990   6
  -4  -2  -8 5412.06 442.405   4
   4   2   8 5229.36 425.927   8
  -4  -2  -9 5468.74 463.765   6
  -4  -2  -9 4874.29 442.951   4
   4   2   9 4145.26 407.324   8
  -4  -3  15 112.748 148.429   7
  -4  -3  15-91.6580 158.006  10
   4   3 -15 1.87101 128.134   1
  -4  -3  14 560.712 204.884  10
   4   3 -14 457.900 149.086   1
  -4  -3  14 247.196 152.757   7
  -4  -3  13 7218.07 519.804  10
   4   3 -13 7723.22 529.798   1
  -4  -3  13 6762.86 489.562   7
  -4  -3  12 19131.5 793.519  10
   4   3 -12 19083.2 783.087   1
  -4  -3  12 19455.8 770.907   7
  -4  -3  11 8130.34 494.667  10
   4   3 -11 8556.00 501.788   1
  -4  -3  11 8796.61 491.927   7
   4   3 -10 1762.39 225.389   1
  -4  -3  10 1631.54 216.551   7
  -4  -3  10 1899.28 241.995  10
   4   3  -9 92960.8 1458.17   1
  -4  -3   9 90769.3 1444.07  10
  -4  -3   9 90188.1 1347.19   7
  -4  -3   8 14599.0 549.541  10
   4   3  -8 14670.4 550.016   1
  -4  -3   8 13426.6 483.734   7
   4   3  -7 264.768 90.9819   1
  -4  -3   7 303.242 105.016  10
  -4  -3   7 345.794 94.3973   7
   4   3  -7 171.449 66.4682   9
   4   3  -6 5385.68 292.237   1
  -4  -3   6 5677.75 302.267  10
   4   3  -6 5190.39 273.919   9
  -4  -3   6 5353.07 255.630   7
  -4  -3   5 4681.03 210.667   7
   4   3  -5 4889.68 259.001   9
  -4  -3   5 4803.11 256.104  10
   4   3  -5 4871.15 259.385   1
  -4  -3   4 1861.96 66.2482  11
  -4  -3   4 1737.44 68.6708  11
  -4  -3   4 1940.41 153.614  10
  -4  -3   4 1931.21 165.481   5
   4   3  -4 2326.03 179.122   9
  -4  -3   4 2002.92 139.468   4
   4   3  -4 2054.81 147.279   8
   4   3  -3 3111.49 176.309   1
   4   3  -3 2847.39 197.331   9
  -4  -3   3 3061.34 207.971   5
  -4  -3   3 2761.36 179.901   4
   4   3  -3 3042.60 168.224   8
  -4  -3   3 3227.46 174.148  10
   4   3  -3 2974.28 115.779   7
  -4  -3   2 45196.0 417.356   3
   4   3  -2 44776.2 607.316   1
  -4  -3   2 45432.1 548.491  10
  -4  -3   2 43973.5 797.047   5
   4   3  -2 46103.1 778.039   9
  -4  -3   2 44204.3 769.666   4
   4   3  -2 44826.9 628.883   8
   4   3  -1 1744.06 109.848   1
  -4  -3   1 1872.26 178.857   5
   4   3  -1 1698.43 159.511   9
  -4  -3   1 1835.68 89.9118  10
  -4  -3   1 1676.00 168.082   4
   4   3  -1 1646.00 128.763   8
  -4  -3   0 28818.0 708.306   5
   4   3   0 27448.1 646.737   9
  -4  -3   0 30584.6 729.137   4
   4   3   0 29136.5 560.076   8
   4   3   0 27438.4 245.877   7
   4   3   0 29130.1 401.028   1
  -4  -3  -1 6110.49 280.406   6
  -4  -3  -1 6161.86 349.625   5
  -4  -3  -1 5659.78 340.133   4
   4   3   1 6655.42 292.981   8
   4   3   1 6818.89 177.128   7
   4   3   2 36.7597 35.4865   7
  -4  -3  -2 28.5764 70.8910   5
  -4  -3  -2 45.4234 88.1795   4
   4   3   2 71.1457 57.4547   8
  -4  -3  -2-38.9073 68.9268   6
  -4  -3  -3 2809.52 267.983   5
  -4  -3  -3 2496.27 254.874   4
   4   3   3 2609.01 218.874   8
  -4  -3  -3 2502.07 220.299   6
  -4  -3  -4 211.166 93.4465   6
  -4  -3  -4 226.722 119.303   5
  -4  -3  -4 40.6753 81.1831   4
   4   3   4 79.5755 79.9304   8
  -4  -3  -5 15364.2 610.300   6
  -4  -3  -5 16287.0 693.760   4
   4   3   5 17362.3 643.269   8
  -4  -3  -6 17022.2 687.968   6
  -4  -3  -6 19016.4 779.394   4
   4   3   6 18655.1 707.781   8
  -4  -3  -7 2097.98 274.881   6
  -4  -3  -7 1719.28 259.311   4
   4   3   7 1813.98 242.881   8
  -4  -3  -8 5498.62 448.847   6
   4   3   8 5502.90 440.013   8
  -4  -3  -9 11473.6 677.210   6
   4   3   9 10277.5 623.928   8
  -4  -4  15 288.365 192.750   7
  -4  -4  15 92.5587 141.358  10
   4   4 -15-41.0216 109.003   1
  -4  -4  14 2053.29 318.083  10
   4   4 -14 2697.86 347.352   1
  -4  -4  14 2649.45 336.046   7
  -4  -4  13 19258.0 855.099  10
   4   4 -13 19538.7 842.122   1
  -4  -4  13 18590.6 794.994   7
  -4  -4  12 1923.08 254.233   7
  -4  -4  12 1600.54 251.108  10
   4   4 -12 1469.39 240.302   1
  -4  -4  11 6059.73 431.794  10
   4   4 -11 6060.29 428.639   1
  -4  -4  11 6801.19 433.144   7
  -4  -4  10 14164.8 623.947  10
   4   4 -10 15434.4 634.723   1
  -4  -4  10 14544.7 587.035   7
   4   4  -9-22.1537 69.2954   1
  -4  -4   9-59.7151 80.8856  10
  -4  -4   8 6466.76 376.798  10
   4   4  -8 7092.45 386.148   1
   4   4  -8 6607.25 346.845   9
  -4  -4   8 6825.33 349.706   7
  -4  -4   7 13661.3 451.596   7
  -4  -4   7 13388.5 498.028  10
   4   4  -7 12988.8 486.323   1
   4   4  -7 13115.2 470.614   9
  -4  -4   6 42279.4 821.258  10
   4   4  -6 44117.7 834.525   1
   4   4  -6 43186.3 828.640   9
   4   4  -5 935.098 116.595   1
  -4  -4   5 1254.34 82.1220  11
  -4  -4   5 1336.05 145.767  10
   4   4  -5 1112.96 141.770   9
  -4  -4   4 72510.2 1064.46   5
  -4  -4   4 71520.9 893.232  10
   4   4  -4 73845.0 1043.20   9
  -4  -4   4 72183.8 532.216  11
   4   4  -4 72925.1 909.953   1
   4   4  -4 74139.8 847.377   8
  -4  -4   3 6252.25 158.107  11
  -4  -4   3 6468.96 241.236  10
  -4  -4   3 6562.13 328.432   5
   4   4  -3 6540.99 316.206   9
   4   4  -3 6484.10 246.462   1
   4   4  -3 6451.22 240.875   8
  -4  -4   3 6421.72 213.495   3
  -4  -4   2 1291.85 90.7208   3
  -4  -4   2 1037.12 77.8966  11
   4   4  -2 1120.07 93.6779   1
  -4  -4   2 1095.16 88.0342  10
  -4  -4   2 1301.94 156.978   5
   4   4  -2 1081.11 134.936   9
  -4  -4   2 1023.69 138.972   4
   4   4  -2 873.361 90.3043   8
   4   4  -2 1049.86 68.4427   7
  -4  -4   1 4051.74 178.255  11
   4   4  -1 4116.28 144.789   1
  -4  -4   1 3952.75 272.203   5
   4   4  -1 4165.40 260.924   9
  -4  -4   1 4294.25 281.309   4
   4   4  -1 4456.35 206.011   8
   4   4   0 2069.80 72.7840   1
  -4  -4   0 2066.82 210.676   5
   4   4   0 2335.42 207.022   9
  -4  -4   0 2437.66 231.109   4
   4   4   0 2206.54 159.051   8
   4   4   0 2322.95 106.969   7
  -4  -4  -1 124407. 1378.01   6
  -4  -4  -1 124669. 1657.32   5
   4   4   1 123998. 1497.63   9
   4   4   1 128681. 1265.54   8
   4   4   1 126856. 899.523   7
  -4  -4  -2 29382.5 845.465   5
   4   4   2 27806.8 740.295   9
  -4  -4  -2 28736.6 836.791   4
   4   4   2 28986.9 655.507   8
  -4  -4  -2 28829.2 708.523   6
  -4  -4  -3 7763.97 394.674   6
  -4  -4  -3 7567.00 452.606   5
  -4  -4  -3 7630.38 462.010   4
   4   4   3 8393.16 387.196   8
  -4  -4  -4 20453.3 690.143   6
  -4  -4  -4 20407.5 785.893   5
  -4  -4  -4 20015.6 768.953   4
   4   4   4 21927.2 669.636   8
  -4  -4  -5 4048.37 336.356   6
   4   4   5 4282.15 323.483   8
  -4  -4  -6-121.822 119.332   6
   4   4   6 182.572 112.880   8
  -4  -4  -7 264.542 123.691   6
   4   4   7 495.891 148.818   8
  -4  -4  -8 484.199 158.998   6
  -4  -5  15 6284.98 526.794   7
  -4  -5  15 5974.83 541.952  10
   4   5 -15 4946.14 478.151   1
  -4  -5  14 1001.24 227.968   7
  -4  -5  14 1055.17 250.159  10
   4   5 -14 1009.18 208.514   1
  -4  -5  13 9607.60 578.020   7
  -4  -5  13 10018.4 627.575  10
   4   5 -13 10189.5 618.532   1
  -4  -5  12 1090.88 209.457  10
   4   5 -12 978.928 197.904   1
  -4  -5  12 1009.98 197.300   7
  -4  -5  11 16373.9 667.913   7
  -4  -5  11 15860.7 707.351  10
   4   5 -11 15576.9 686.628   1
  -4  -5  10 31269.6 867.223   7
  -4  -5  10 31067.5 934.585  10
   4   5 -10 30949.6 909.987   1
  -4  -5   9 18.6862 76.3520   7
   4   5  -9-21.6773 70.6389   1
  -4  -5   9 90.3639 84.5905  10
  -4  -5   8 15907.9 593.971  10
   4   5  -8 15595.8 575.396   1
   4   5  -8 15736.9 557.077   9
  -4  -5   7 26.0246 75.1773  10
   4   5  -7 98.7893 65.9441   1
   4   5  -7 187.851 92.0011   9
   4   5  -6 12454.1 447.235   1
  -4  -5   6 12466.5 321.116  11
  -4  -5   6 12034.7 450.693  10
   4   5  -6 13468.6 491.759   9
  -4  -5   5 3620.79 156.429  11
  -4  -5   5 3392.16 228.182  10
   4   5  -5 3619.61 223.657   1
  -4  -5   5 3374.54 245.393   5
   4   5  -5 3124.41 239.831   9
  -4  -5   4 2420.77 124.641  11
  -4  -5   4 2630.30 185.830  10
   4   5  -4 2465.38 166.528   1
  -4  -5   4 2851.63 231.881   5
   4   5  -4 2218.18 200.741   9
  -4  -5   3 66302.7 664.236  11
  -4  -5   3 68411.8 793.125  10
  -4  -5   3 67318.4 1112.66   5
   4   5  -3 67156.7 768.236   1
   4   5  -3 68733.6 1074.98   9
   4   5  -3 65711.2 749.543   8
  -4  -5   3 68564.9 785.787   3
  -4  -5   2 105464. 923.836  11
  -4  -5   2 105724. 793.974  10
  -4  -5   2 109114. 1438.85   5
   4   5  -2 107084. 800.171   1
   4   5  -2 107439. 1356.37   9
   4   5  -2 109799. 955.862   8
  -4  -5   1 705.222 91.6875  11
  -4  -5   1 533.961 115.286   5
   4   5  -1 669.273 120.730   9
   4   5  -1 674.006 84.9744   8
  -4  -5   0 12884.5 409.786  11
  -4  -5   0 13273.1 547.068   5
   4   5   0 12882.7 496.024   9
   4   5   0 13767.7 375.995   8
  -4  -5  -1 17894.2 664.204   5
   4   5   1 18814.4 613.760   9
   4   5   1 17602.0 465.105   8
  -4  -5  -2 1774.76 204.550   6
  -4  -5  -2 2017.20 246.946   5
   4   5   2 1940.25 211.030   9
   4   5   2 1698.38 160.333   8
  -4  -5  -3 7509.60 413.892   6
  -4  -5  -3 6490.24 443.127   5
   4   5   3 7119.29 410.915   9
   4   5   3 7508.39 361.088   8
  -4  -5  -4-84.5040 106.270   6
  -4  -5  -4 7.53942 89.8377   5
   4   5   4-46.7884 86.7909   9
  -4  -5  -5 684.749 165.542   6
   4   5   5 416.910 121.460   9
  -4  -5  -6 7249.00 488.681   6
   4   5   6 6720.60 451.033   9
  -4  -5  -7 184.620 133.192   6
   4   5   7 132.227 105.706   9
  -4  -6  14 7567.46 590.500  10
   4   6 -14 7537.51 563.149   1
  -4  -6  13 1194.60 252.944  10
   4   6 -13 1019.23 212.063   1
  -4  -6  12 7785.29 538.084  10
   4   6 -12 7208.50 501.285   1
  -4  -6  11 8531.56 537.492  10
   4   6 -11 8907.61 526.668   1
  -4  -6  10 37968.4 1052.54  10
   4   6 -10 38716.3 1032.40   1
  -4  -6   9 127.223 108.181  10
   4   6  -9 95.5379 87.2998   1
  -4  -6   8 9313.96 471.420  10
   4   6  -8 9243.77 447.666   1
   4   6  -8 8798.57 439.163   9
  -4  -6   7 11507.9 358.673  11
  -4  -6   7 11373.3 487.536  10
   4   6  -7 11456.4 465.682   1
   4   6  -7 12587.8 514.382   9
  -4  -6   6 775.040 90.4104  11
   4   6  -6 517.603 105.981   1
  -4  -6   6 823.535 138.228  10
  -4  -6   6 727.048 138.517   5
   4   6  -6 681.421 134.627   9
  -4  -6   5 1041.53 135.125  10
   4   6  -5 1031.93 124.924   1
  -4  -6   5 1119.99 102.360  11
  -4  -6   5 1053.20 153.978   5
   4   6  -5 827.892 138.715   9
  -4  -6   4 14668.9 358.013  11
  -4  -6   4 15634.3 445.800  10
   4   6  -4 14937.9 534.332   9
   4   6  -4 15024.9 409.970   1
  -4  -6   4 15115.3 559.974   5
  -4  -6   4 15398.3 437.784   3
  -4  -6   3 278.723 65.7250   3
  -4  -6   3 173.089 52.2845  11
  -4  -6   3 240.500 60.3676  10
  -4  -6   3 172.259 70.0195   5
   4   6  -3 146.802 83.5876   9
   4   6  -3 229.862 51.4376   1
   4   6  -3 308.486 54.2837   8
  -4  -6   2 1572.53 138.304  11
  -4  -6   2 1369.69 187.397   5
   4   6  -2 1448.68 176.981   9
  -4  -6   1 6723.70 300.137  11
   4   6  -1 6909.48 372.844   9
  -4  -6   1 6583.26 396.956   5
  -4  -6   0 2949.97 216.670  11
  -4  -6   0 3113.18 284.633   5
   4   6   0 3314.58 274.205   9
  -4  -6  -1-4.17121 75.8203  11
  -4  -6  -1-26.8608 80.1045   5
   4   6   1 3.60791 75.0991   9
  -4  -6  -2 14337.4 661.594   5
   4   6   2 14874.4 593.946   9
  -4  -6  -3 9684.86 564.318   5
   4   6   3 10276.3 510.264   9
  -4  -6  -4 6466.37 437.682   6
  -4  -6  -4 7434.20 513.303   5
   4   6   4 7104.14 439.192   9
  -4  -6  -5 3442.12 347.265   6
   4   6   5 3599.12 330.702   9
   4   6   6 7125.25 479.792   9
  -4  -6  -6 7742.53 525.182   6
  -4  -7  14 18668.5 915.152  10
   4   7 -14 19216.3 905.023   1
  -4  -7  13 87.7285 124.449  10
   4   7 -13 235.318 127.609   1
  -4  -7  12 6422.81 498.639  10
   4   7 -12 6697.03 490.128   1
  -4  -7  11 180.891 121.820  10
   4   7 -11 517.425 153.235   1
  -4  -7  10 5658.53 421.036  10
   4   7 -10 5858.86 416.327   1
  -4  -7   9 776.499 170.867  10
   4   7  -9 707.712 145.288   1
  -4  -7   8 480.429 89.4982  11
  -4  -7   8 644.432 156.463  10
   4   7  -8 717.697 153.314   9
   4   7  -8 481.201 125.867   1
  -4  -7   7 2713.15 187.571  11
  -4  -7   7 2482.45 245.571  10
   4   7  -7 2599.56 253.490   9
   4   7  -7 2329.70 218.816   1
   4   7  -6 31936.5 843.530   9
  -4  -7   6 34911.4 633.333  11
  -4  -7   6 31715.9 773.042  10
  -4  -7   6 31980.2 854.729   5
   4   7  -6 32752.3 742.053   1
  -4  -7   5 6171.07 318.013  10
  -4  -7   5 6306.00 382.180   5
   4   7  -5 6202.45 371.923   9
   4   7  -5 5989.85 291.497   1
  -4  -7   5 5665.94 302.997   3
  -4  -7   4 2120.07 179.521   3
  -4  -7   4 2857.83 201.897  10
  -4  -7   4 2272.74 234.734   5
   4   7  -4 2344.00 235.493   9
  -4  -7   3 11375.2 400.645   3
  -4  -7   3 10788.1 511.152   5
   4   7  -3 11627.4 501.430   9
  -4  -7   2 306.087 114.109   5
   4   7  -2 538.428 125.549   9
  -4  -7   1 381.836 135.160   5
   4   7  -1 371.440 117.377   9
  -4  -7   0 1533.82 225.754   5
   4   7   0 2046.39 226.562   9
  -4  -7  -1 1763.31 244.800   5
   4   7   1 1644.57 212.754   9
   4   7   2 15542.7 636.735   9
  -4  -7  -2 16715.6 747.081   5
  -4  -7  -3 16935.5 780.099   5
   4   7   3 17289.5 688.093   9
  -4  -7  -4 6363.43 504.869   5
   4   7   4 6397.53 436.579   9
   4   7   5 3549.86 336.223   9
  -4  -8  14 4096.74 457.921  10
   4   8 -14 4018.38 428.835   1
  -4  -8  13 1783.98 293.202  10
   4   8 -13 1638.16 265.355   1
  -4  -8  12 452.037 169.966  10
   4   8 -12 356.901 138.865   1
  -4  -8  11 1604.96 264.233  10
   4   8 -11 1755.81 251.335   1
  -4  -8  10 1694.89 246.373  10
   4   8 -10 1397.14 221.571   1
  -4  -8   9 41819.7 1095.80  10
   4   8  -9 39312.9 1015.33   1
  -4  -8   8 1705.32 225.990  10
   4   8  -8 1960.30 239.936   9
   4   8  -8 1751.05 209.951   1
  -4  -8   7 6153.52 383.133  10
  -4  -8   7 5280.56 372.803   5
   4   8  -7 5748.22 390.992   9
   4   8  -7 5376.76 334.258   1
  -4  -8   6 26209.9 721.127  10
  -4  -8   6 25329.6 805.647   5
   4   8  -6 26651.5 813.644   9
   4   8  -6 24992.8 654.786   1
  -4  -8   6 25895.2 708.054   3
  -4  -8   5 17889.0 679.977   5
   4   8  -5 17566.2 657.526   9
  -4  -8   5 17584.3 569.169   3
  -4  -8   4 14855.5 509.813   3
  -4  -8   4 15487.6 636.296   5
   4   8  -4 14887.2 597.076   9
  -4  -8   3 2837.14 282.401   5
   4   8  -3 2930.76 269.564   9
  -4  -8   2 32102.7 959.004   5
   4   8  -2 32387.3 886.314   9
  -4  -8   1 14148.2 653.391   5
   4   8  -1 13604.6 585.846   9
  -4  -8   0 1046.72 200.422   5
   4   8   0 1285.18 192.729   9
  -4  -8  -1 12820.1 660.894   5
   4   8   1 14039.5 613.082   9
  -4  -8  -2 3563.50 371.752   5
   4   8   2 2922.83 293.599   9
  -4  -8  -3 17440.8 824.991   5
   4   8   3 16685.0 698.727   9
   4   8   4 529.927 165.546   2
  -4  -8  -4 797.746 224.714   5
  -4  -9  13 6570.80 553.923  10
   4   9 -13 5814.62 495.211   1
   4   9 -12 1704.67 264.255   1
  -4  -9  12 1957.83 288.380  10
  -4  -9  11 15438.0 758.888  10
   4   9 -11 14618.2 704.748   1
   4   9 -10 2448.55 278.844   1
  -4  -9  10 2701.09 319.064  10
  -4  -9   9 16791.4 720.233  10
  -4  -9   9 18276.1 737.140   5
   4   9  -9 16116.1 661.757   1
  -4  -9   8 13497.5 609.901  10
  -4  -9   8 12516.7 605.181   5
   4   9  -8 12417.4 603.244   9
   4   9  -8 12664.0 550.957   1
  -4  -9   7 2958.70 282.145  10
  -4  -9   7 2520.34 277.412   5
   4   9  -7 2572.82 274.910   9
  -4  -9   7 2319.63 246.820   3
  -4  -9   6 7362.81 465.492   5
   4   9  -6 7307.20 453.411   9
  -4  -9   6 7329.43 410.193   3
  -4  -9   5 4327.13 307.320   3
  -4  -9   5 4180.25 350.587   5
   4   9  -5 4676.39 366.286   9
  -4  -9   4 1546.06 216.525   5
   4   9  -4 1487.21 212.061   9
  -4  -9   3 2550.33 287.660   5
   4   9  -3 3166.69 301.826   9
  -4  -9   2 756.958 172.990   5
   4   9  -2 455.632 142.588   9
  -4  -9   1 281.272 117.304   5
   4   9  -1 473.268 136.282   9
  -4  -9   0 840.930 185.236   5
   4   9   0 1121.73 188.366   9
  -4  -9  -1 2378.69 302.053   5
   4   9   1 2131.63 257.564   9
  -4  -9  -2 1803.44 284.963   5
   4   9   2 2252.58 272.879   9
  -4  -9  -3 4348.41 437.902   5
  -4 -10  13 5907.34 535.177  10
   4  10 -13 5110.55 472.702   1
   4  10 -12 269.319 121.934   1
  -4 -10  12 960.905 247.804  10
  -4 -10  11 15599.0 787.950  10
   4  10 -11 15615.4 742.381   1
  -4 -10  10 11627.5 645.782  10
  -4 -10  10 11490.9 620.016   5
   4  10 -10 10599.4 576.324   1
  -4 -10   9 1166.09 213.440  10
  -4 -10   9 1115.38 200.569   5
  -4 -10   9 959.654 196.221   3
  -4 -10   8 3140.15 327.349   5
   4  10  -8 2953.74 312.471   9
  -4 -10   8 3026.68 306.207   3
  -4 -10   7 7916.17 501.974   5
   4  10  -7 8150.53 506.739   9
  -4 -10   7 8437.20 474.595   3
  -4 -10   6 878.372 177.514   5
   4  10  -6 949.355 182.647   9
  -4 -10   5 2987.35 318.254   5
   4  10  -5 2955.70 304.700   9
  -4 -10   4 9957.64 572.337   5
   4  10  -4 9599.15 539.032   9
  -4 -10   3 5771.53 448.829   5
   4  10  -3 5779.80 416.340   9
  -4 -10   2 14.9042 82.4408   5
   4  10  -2-13.6120 83.2823   9
  -4 -10   1 362.661 148.333   5
   4  10  -1 167.213 118.020   9
  -4 -10   0 1493.68 268.374   5
   4  10   0 1617.62 245.473   9
  -4 -10  -1 711.665 198.406   5
  -4 -11  12 705.341 214.264  10
  -4 -11  11 454.231 170.555  10
  -4 -11  11 648.278 179.108   5
  -4 -11  11 375.162 161.229   3
  -4 -11  10-11.6765 103.793   5
  -4 -11  10-75.5905 128.582   3
  -4 -11   9 87.6332 100.247   3
  -4 -11   9 234.319 139.823   5
  -4 -11   8 5857.80 460.791   5
   4  11  -8 6369.16 475.241   9
  -4 -11   7 3360.87 350.362   5
   4  11  -7 3209.90 332.299   9
  -4 -11   6 870.800 194.359   5
   4  11  -6 1041.65 210.187   9
  -4 -11   5 6709.27 497.737   5
   4  11  -5 6955.49 483.390   9
  -4 -11   4 1667.70 262.136   5
   4  11  -4 1894.11 263.862   9
  -4 -11   3 8209.21 564.871   5
   4  11  -3 8177.39 519.312   9
  -4 -11   2 387.163 148.323   5
   4  11  -2 94.9017 105.558   9
  -4 -11   1 1186.45 257.751   5
  -4 -12  10 95.0046 116.444   5
  -4 -12   9 583.524 189.698   5
   4  12  -9 442.059 166.060   2
  -4 -12   8 1832.45 283.843   5
   4  12  -8 1475.19 258.878   2
   4  12  -7 11338.9 667.248   2
  -4 -12   7 11408.2 667.817   5
   4  12  -7 10406.8 615.986   9
  -4 -12   6 1552.39 257.091   5
   4  12  -6 1430.24 229.604   9
  -4 -12   5 1685.19 274.568   5
   4  12  -5 1204.69 228.962   9
  -4 -12   4 5680.20 486.612   5
   4  12  -4 5836.74 461.031   9
  -4 -12   3 177.352 130.382   5
  -5  13  -2-41.4632 142.445  12
  -5  13  -4 410.357 151.707   2
   5 -12  -1-128.521 154.292  11
  -5  12   1-70.0452 116.775   2
   5 -12   0 15597.4 796.876  11
  -5  12   0 16909.6 792.965   2
   5 -12   1 7346.12 541.732  11
  -5  12  -1 7180.62 516.074   2
   5 -12   2 284.764 110.328  11
  -5  12  -2 451.481 180.833  12
  -5  12  -2 490.218 161.838   2
  -5  12  -3 14679.3 767.998  12
  -5  12  -3 14780.6 721.970   2
   5 -12   3 13376.9 717.517  11
  -5  12  -4 257.015 150.816  12
   5 -12   4 246.188 134.838  11
   5 -12   4 205.106 119.982   3
  -5  12  -4 139.379 100.369   2
  -5  12  -5 2.75845 142.714  12
   5 -12   5 28.9312 102.499  11
  -5  12  -5 181.260 126.419   2
   5 -12   5-184.744 173.626   3
   5 -11  -4 6496.09 537.223  11
  -5  11   4 7000.14 520.057   2
   5 -11  -3 2379.86 328.916  11
  -5  11   3 2449.48 314.601   2
   5 -11  -2 6986.87 522.547  11
  -5  11   2 6017.70 468.505   2
   5 -11  -1 2204.64 296.489  11
  -5  11   1 2257.31 290.848   2
   5 -11   0 233.081 137.310  11
  -5  11   0 55.7721 100.818   2
  -5  11  -1 207.103 114.004  12
   5 -11   1 238.428 134.208  11
  -5  11  -1 2.56416 89.7512   2
   5 -11   2 159.362 125.967  11
  -5  11  -2 37.3698 113.416   2
  -5  11  -2 281.348 141.742  12
  -5  11  -3 4660.39 427.450  12
   5 -11   3 4023.32 383.346   3
   5 -11   3 4112.53 390.079  11
  -5  11  -3 3906.99 363.070   2
  -5  11  -4 16358.1 793.109  12
   5 -11   4 16045.1 748.679  11
   5 -11   4 17387.0 778.924   3
  -5  11  -4 16160.2 715.947   2
  -5  11  -5 1040.77 220.747  12
   5 -11   5 1007.53 203.226  11
   5 -11   5 1124.19 213.806   3
  -5  11  -5 1455.74 237.274   2
   5 -11   6 4017.21 396.514   3
  -5  11  -6 5192.83 479.288  12
   5 -11   6 5165.09 446.154  11
  -5  11  -7 2029.43 334.118  12
   5 -11   7 1825.16 282.599   3
   5 -11   7 1728.41 280.883  11
   5 -10  -6 8996.43 629.146  11
  -5  10   6 8504.83 566.914   2
   5 -10  -5 3578.77 399.112  11
  -5  10   5 3898.53 386.638   2
   5 -10  -4 11224.3 660.165  11
  -5  10   4 12117.4 644.692   2
   5 -10  -3 19.9113 107.933  11
  -5  10   3 166.690 115.820   2
   5 -10  -2 642.293 171.331  11
  -5  10   2 817.418 186.555   2
   5 -10  -1 27070.8 929.890  11
  -5  10   1 26842.6 914.033   2
  -5  10   0 7342.00 474.133   2
   5 -10   0 7706.61 493.627  11
  -5  10  -1 247.787 132.289  12
   5 -10   1 0.64803 110.295  11
  -5  10  -1 75.1507 93.8144   2
  -5  10  -2 22897.8 869.828  12
   5 -10   2 21642.5 815.245  11
  -5  10  -2 22266.7 804.807   2
   5 -10   2 22716.0 836.223   3
  -5  10  -3-42.4854 122.602  12
   5 -10   3 64.5614 117.503   3
   5 -10   3 97.6594 108.753  11
  -5  10  -3 205.359 108.042   2
   5 -10   4 13.7452 96.3550  11
  -5  10  -4-4.02705 103.805  12
   5 -10   4-70.7296 120.539   3
  -5  10  -4-34.7446 86.5186   2
   5 -10   5 6022.76 442.756   3
  -5  10  -5 5436.93 457.216  12
   5 -10   5 6049.48 450.455  11
  -5  10  -5 5771.18 407.498   2
   5 -10   6 1004.60 201.883   3
   5 -10   6 1040.23 206.879  11
  -5  10  -7 7138.30 546.801  12
   5 -10   7 6927.70 509.298  11
   5 -10   7 7225.03 503.360   3
  -5  10  -8 3020.87 379.101  12
   5 -10   8 2593.19 315.038   3
   5 -10   8 2683.82 321.149  11
  -5  10  -9 1642.29 289.073   4
  -5   9   8 3174.97 343.254   2
   5  -9  -7 6218.70 527.278  11
  -5   9   7 6458.42 468.368   2
   5  -9  -6 180.912 152.360  11
  -5   9   6 133.520 126.951  10
  -5   9   6 59.5496 106.719   2
   5  -9  -5 20242.6 853.349  11
  -5   9   5 21424.1 825.433   2
   5  -9  -4 17392.1 770.414  11
  -5   9   4 17414.0 724.340   2
   5  -9  -3 309.120 135.285  11
  -5   9   3 66.3746 87.3210   2
   5  -9  -2 12950.0 621.536  11
  -5   9   2 13049.6 610.112   2
   5  -9  -1 4956.56 383.266  11
  -5   9   1 4628.00 366.085   2
   5  -9   0 1673.90 222.530  11
  -5   9   0 1186.56 191.064  12
  -5   9   0 1313.94 194.536   2
  -5   9  -1 5105.05 397.608  12
   5  -9   1 5409.18 389.352  11
  -5   9  -1 5203.54 375.865   2
  -5   9  -2 754.002 176.679  12
   5  -9   2 658.850 156.531  11
   5  -9   2 821.415 171.821   3
  -5   9  -2 1072.45 174.796   2
   5  -9   3 343.002 129.222   3
   5  -9   3 295.235 119.797  11
  -5   9  -3 254.465 97.0079   2
  -5   9  -3 47.7686 92.1480  12
   5  -9   4 2125.18 258.822   3
   5  -9   4 2098.77 257.343  11
  -5   9  -4 2683.37 311.172  12
   5  -9   4 2426.45 219.020   8
  -5   9  -4 2202.21 246.759   2
  -5   9  -5 547.599 157.323  12
   5  -9   5 477.130 148.293   3
   5  -9   5 450.790 151.377  11
  -5   9  -5 516.792 133.349   2
   5  -9   5 533.014 119.490   8
   5  -9   6 3571.73 340.109  11
   5  -9   6 3242.87 285.615   8
  -5   9  -6 3207.62 342.630  12
   5  -9   6 3455.31 326.296   3
  -5   9  -7 14475.1 742.260  12
   5  -9   7 14607.9 624.544   8
   5  -9   7 14872.4 707.813  11
   5  -9   7 15410.7 693.878   3
  -5   9  -8 5415.00 477.337  12
   5  -9   8 5446.99 452.402  11
   5  -9   8 5095.42 399.186   8
  -5   9  -8 5600.63 454.583   4
   5  -9   8 5730.87 443.864   3
  -5   9  -9 9531.45 637.531  12
   5  -9   9 9240.16 562.418   8
  -5   9  -9 9668.15 613.135   4
   5  -9   9 9788.62 581.892   3
   5  -9  10 681.883 191.373   8
   5  -8  -9 2085.47 342.851  11
  -5   8   9 2022.33 272.410   2
   5  -8  -8 2145.28 318.465  11
  -5   8   8 1692.81 234.143   2
   5  -8  -7 4302.61 412.272  11
  -5   8   7 4220.61 362.971  10
  -5   8   7 4142.92 356.135   2
   5  -8  -6 9861.74 588.880  11
  -5   8   6 10740.3 560.427   2
   5  -8  -5 1735.70 259.034  11
   5  -8  -5 1993.86 226.261   1
  -5   8   5 2109.83 251.264   2
   5  -8  -4 507.754 146.709  11
  -5   8   4 328.996 127.336   2
   5  -8  -3 10981.6 547.908  11
  -5   8   3 9553.41 503.125   2
   5  -8  -2 1528.36 212.032  11
  -5   8   2 1174.86 188.432   2
   5  -8  -1-46.8071 94.1081  11
  -5   8   1 36.3706 85.5875   2
   5  -8  -1-26.3433 60.1714   8
  -5   8   0 21513.5 748.986  12
   5  -8   0 21994.4 723.570  11
  -5   8   0 22137.4 730.596   2
   5  -8   0 23234.2 580.433   8
  -5   8  -1 8662.99 485.705  12
  -5   8  -1 9037.21 465.094   2
   5  -8   1 8189.55 445.500   3
   5  -8   1 8726.19 359.586   8
   5  -8   1 8603.92 454.302  11
  -5   8  -2 902.862 189.744  12
   5  -8   2 635.719 147.499   3
   5  -8   2 815.504 152.780  11
  -5   8  -2 884.366 164.832   2
   5  -8   2 654.622 111.019   8
  -5   8  -3 293.488 149.315  12
   5  -8   3 295.795 93.6670   3
   5  -8   3 294.869 111.414  11
  -5   8  -3 365.953 118.567   2
   5  -8   3 304.827 97.9648   8
   5  -8   4 18814.8 678.740   3
  -5   8  -4 18800.5 749.899  12
   5  -8   4 18596.9 693.449  11
  -5   8  -4 18564.0 657.574   2
   5  -8   4 18222.3 597.607   8
  -5   8  -5 9278.56 547.250  12
   5  -8   5 10010.5 530.725  11
  -5   8  -5 10553.7 492.257   2
   5  -8   5 10666.9 485.630   8
   5  -8   5 10482.3 519.404   3
  -5   8  -6 2725.31 312.536  12
   5  -8   6 2799.37 298.591  11
   5  -8   6 2441.16 268.035   3
   5  -8   6 2469.34 255.103   8
  -5   8  -7 4951.89 425.298  12
   5  -8   7 4939.16 378.615   8
  -5   8  -7 5014.57 422.582   4
   5  -8   7 4098.92 346.731   3
  -5   8  -8 18122.7 821.779  12
   5  -8   8 19419.1 772.224   8
  -5   8  -8 17131.1 774.644   4
   5  -8   8 18856.0 750.697   3
  -5   8  -9 2638.30 338.191  12
   5  -8   9 2099.04 296.973   8
  -5   8  -9 1784.62 267.038   4
   5  -8   9 2921.62 317.497   3
  -5   8 -10 1409.55 263.635  12
   5  -8  10 1379.77 244.998   8
  -5   7  10 3633.31 409.947   7
   5  -7 -10 2666.22 306.145   6
   5  -7 -10 2973.64 377.937  11
   5  -7  -9 703.472 153.555   6
   5  -7  -9 993.008 221.974  11
  -5   7   9 993.769 201.597  10
  -5   7   9 832.399 168.552   2
   5  -7  -8 371.983 135.756   6
   5  -7  -8 136.020 123.451  11
  -5   7   8 261.181 112.410   2
  -5   7   8 301.377 130.101  10
   5  -7  -7 20138.9 823.851  11
  -5   7   7 18476.6 716.751  10
  -5   7   7 19554.0 724.779   2
   5  -7  -7 19590.6 702.513   1
   5  -7  -6 1914.96 260.650  11
   5  -7  -6 1825.41 215.771   1
  -5   7   6 1692.98 222.682   2
   5  -7  -5 2600.56 279.875  11
  -5   7   5 1930.60 229.402   2
   5  -7  -4 13486.0 588.655  11
  -5   7   4 12699.2 555.727   2
  -5   7   3 12539.1 544.612   2
   5  -7  -3 12829.5 550.409  11
   5  -7  -2 62.4209 84.6055  11
  -5   7   2 264.106 119.175   2
   5  -7  -2 315.303 81.0054   8
   5  -7  -1 27410.3 759.597  11
  -5   7   1 26692.2 764.898   2
   5  -7  -1 29356.0 644.953   8
  -5   7   0 64458.1 1227.30  12
   5  -7   0 65699.5 1157.08  11
  -5   7   0 61745.8 1150.91   2
   5  -7   0 65389.5 954.960   8
   5  -7   1 24234.1 704.591   3
   5  -7   1 25613.4 725.518  11
  -5   7  -1 24637.7 725.713   2
   5  -7   1 24454.4 596.552   8
  -5   7  -1 24781.2 776.480  12
   5  -7   2 9908.56 454.190   3
  -5   7  -2 9096.48 481.999  12
   5  -7   2 10048.0 459.048  11
  -5   7  -2 9476.70 452.513   2
   5  -7   2 10569.7 409.183   8
   5  -7   3 31126.1 808.569   3
   5  -7   3 30899.3 822.995  11
  -5   7  -3 32185.5 825.152   2
  -5   7  -3 30247.8 887.350  12
   5  -7   3 30766.3 740.647   8
  -5   7  -4 2354.18 266.485  12
   5  -7   4 2744.75 263.818  11
  -5   7  -4 2388.21 240.376   2
   5  -7   4 1928.19 204.105   8
   5  -7   4 2339.81 239.219   3
   5  -7   5 185.247 127.797  11
  -5   7  -5 410.470 161.244  12
   5  -7   5 100.803 82.4460   8
   5  -7   5 74.7842 80.8879   3
  -5   7  -5 87.6984 66.0356   2
  -5   7  -6 185.974 107.186  12
   5  -7   6 207.303 99.2736   3
   5  -7   6 367.951 127.744   8
  -5   7  -7 4193.86 378.334  12
   5  -7   7 5139.71 390.146   8
  -5   7  -7 5143.35 409.529   4
   5  -7   7 4958.69 362.675   3
  -5   7  -8 9921.74 587.173  12
   5  -7   8 9275.96 549.728   8
  -5   7  -8 8455.02 538.800   4
  -5   7  -9 1431.50 249.890  12
   5  -7   9 1117.92 227.131   8
  -5   7 -10 14.2448 120.337  12
   5  -7  10 235.529 145.809   8
  -5   7 -11 447.946 150.217  12
   5  -6 -11 27564.4 992.459   6
   5  -6 -11 29560.2 1152.20  11
  -5   6  11 28267.6 1104.17   7
  -5   6  10 461.557 174.865   7
   5  -6 -10 359.023 181.733   6
   5  -6 -10 115.769 116.306  11
  -5   6  10 623.049 170.960  10
   5  -6  -9 1308.45 204.834   6
   5  -6  -9 1051.69 216.123  11
  -5   6   9 1190.75 212.354  10
  -5   6   9 1250.97 187.292   2
  -5   6   8 23674.9 763.758   2
   5  -6  -8 23218.0 771.183   6
   5  -6  -8 22714.9 867.228  11
   5  -6  -8 22595.4 768.281   1
  -5   6   8 23022.9 798.938  10
   5  -6  -7 5193.61 358.423   1
   5  -6  -7 5097.16 345.570   6
   5  -6  -7 4909.74 387.879  11
  -5   6   7 5007.48 369.916  10
  -5   6   7 4322.01 326.131   2
   5  -6  -6 23137.2 790.224  11
  -5   6   6 24849.0 753.601   2
   5  -6  -6 25199.8 717.359   6
   5  -6  -6 24641.8 747.906   1
   5  -6  -5 40.6833 79.2110  11
  -5   6   5 221.286 90.6470   2
   5  -6  -4 18137.1 629.424  11
  -5   6   4 16851.4 598.951   2
   5  -6  -3 38081.0 874.799  11
  -5   6   3 37584.4 879.663   2
   5  -6  -3 37918.0 762.018   8
   5  -6  -2 3256.79 250.492  11
  -5   6   2 2868.75 248.087   2
   5  -6  -2 2857.38 207.911   8
   5  -6  -1 40194.6 848.156  11
  -5   6   1 40291.2 884.736   2
   5  -6  -1 39400.8 733.963   8
   5  -6   0 30419.8 732.979  11
  -5   6   0 30658.4 771.686   2
  -5   6   0 30429.5 809.508  12
   5  -6   0 30389.6 645.159   8
   5  -6   1 34240.0 775.267   3
  -5   6  -1 33461.3 857.410  12
   5  -6   1 33051.1 767.473  11
  -5   6  -1 32348.0 791.349   2
   5  -6   1 34020.5 705.178   8
  -5   6  -2-57.2309 87.1627  12
   5  -6   2 39.4125 67.5330  11
  -5   6  -2 108.069 81.3731   2
   5  -6   2 20.5749 64.2869   8
   5  -6   2 15.6242 70.5751   3
  -5   6  -3 26917.9 800.441  12
   5  -6   3 27673.1 738.628  11
  -5   6  -3 28087.5 731.607   2
   5  -6   3 26991.2 696.739   8
   5  -6   3 26638.4 696.051   3
  -5   6  -4 22586.7 752.604  12
  -5   6  -4 21828.8 647.919   2
   5  -6   4 21300.3 661.839   8
   5  -6   4 22847.0 657.507   3
  -5   6  -5 933.877 169.067  12
   5  -6   5 1205.03 169.992   3
   5  -6   5 904.977 162.867   8
  -5   6  -5 1145.12 157.751   2
  -5   6  -6 2725.36 286.941  12
  -5   6  -6 2732.88 298.338   4
   5  -6   6 2655.10 267.570   8
  -5   6  -7 5729.75 424.246  12
   5  -6   7 5737.43 415.111   8
  -5   6  -7 5888.38 433.691   4
  -5   6  -8 307.177 116.951  12
   5  -6   8 434.017 137.641   8
  -5   6  -8 316.261 126.670   4
  -5   6  -9 4094.30 382.277  12
   5  -6   9 3689.15 388.107   8
  -5   6  -9 3882.52 380.723   4
  -5   6 -10 836.305 197.331  12
   5  -6  10 1199.07 241.365   8
  -5   6 -10 1095.32 218.384   4
  -5   5  12 1066.99 259.849   7
   5  -5 -12 978.725 211.947   6
   5  -5 -11 12708.7 657.598   6
   5  -5 -11 12319.6 718.544  11
  -5   5  11 12791.6 654.563  10
  -5   5  11 11741.8 693.011   7
  -5   5  10 887.851 206.367   7
   5  -5 -10 638.178 158.112   6
   5  -5 -10 854.307 204.374  11
  -5   5  10 1067.01 193.040  10
   5  -5 -10 978.683 177.772   1
   5  -5  -9 13533.8 600.968   6
   5  -5  -9 13655.4 672.957  11
   5  -5  -9 14744.6 634.456   1
  -5   5   9 13033.7 611.184  10
  -5   5   9 13806.0 566.187   2
  -5   5   9 12992.5 662.438   7
   5  -5  -8 11464.7 519.059   6
   5  -5  -8 11424.1 587.749  11
  -5   5   8 11913.9 562.462  10
  -5   5   8 11623.8 508.174   2
   5  -5  -8 11756.0 545.550   1
   5  -5  -7 11881.8 524.959   1
  -5   5   7 11363.8 530.746  10
   5  -5  -7 11531.0 486.825   6
   5  -5  -7 12386.7 573.032  11
  -5   5   7 12475.4 514.890   2
   5  -5  -6 657.565 128.691   6
   5  -5  -6 663.448 142.269  11
   5  -5  -6 523.192 120.172   1
  -5   5   6 533.978 123.633   2
   5  -5  -5 9096.03 374.790   6
   5  -5  -5 10152.6 459.219  11
  -5   5   5 9335.15 433.292   2
  -5   5   4 16717.2 563.701   2
   5  -5  -4 17471.1 574.972  11
   5  -5  -3 30694.1 721.303  11
  -5   5   3 29471.5 736.805   2
   5  -5  -3 30593.1 670.416   8
   5  -5  -2 75.7072 60.0168  11
  -5   5   2 109.460 69.8870   2
   5  -5  -2 172.182 80.3996   8
   5  -5  -1 15422.9 485.034  11
  -5   5   1 15927.8 536.026   2
   5  -5  -1 15927.4 459.198   8
   5  -5   0 381.377 84.7840  11
  -5   5   0 233.382 78.8173   2
  -5   5   0 351.088 108.395  12
   5  -5   0 398.531 91.1543   8
   5  -5   1 19942.4 542.651   3
   5  -5   1 20418.4 562.572  11
  -5   5  -1 20054.6 639.876  12
  -5   5  -1 20093.4 596.390   2
   5  -5   1 20123.2 544.736   8
   5  -5   2 2578.87 206.401   3
   5  -5   2 2250.86 199.786  11
  -5   5  -2 2456.89 231.779  12
   5  -5   2 2337.05 205.637   8
   5  -5   3 177.638 80.7024   3
  -5   5  -3 421.518 129.151  12
   5  -5   3 382.955 103.530   8
  -5   5  -3 238.355 84.2231   2
  -5   5  -4 2259.03 239.829  12
  -5   5  -4 2510.83 220.159   2
   5  -5   4 2503.00 237.003   8
   5  -5   4 2578.03 213.056   3
  -5   5  -5 15581.0 620.001  12
   5  -5   5 14976.9 597.885   8
  -5   5  -5 15670.2 641.454   4
  -5   5  -6 10457.9 526.151  12
   5  -5   6 10836.6 539.330   8
  -5   5  -6 11228.5 565.686   4
  -5   5  -7 6281.02 425.698  12
   5  -5   7 5811.64 416.955   8
  -5   5  -7 6678.35 449.536   4
  -5   5  -8 723.568 167.156  12
   5  -5   8 513.509 149.619   8
  -5   5  -8 711.532 165.256   4
  -5   5  -9 10025.3 567.091  12
   5  -5   9 9260.01 588.844   8
  -5   5  -9 8914.85 557.759   4
   5  -5  10 12296.7 706.257   8
  -5   5 -10 11441.3 646.570   4
   5  -4 -13 4055.11 415.936   6
   5  -4 -12 17764.9 791.977   6
  -5   4  12 16954.8 772.522  10
  -5   4  12 17340.7 849.258   7
   5  -4 -11 3476.42 342.467   6
   5  -4 -11 3816.37 388.079  11
  -5   4  11 4335.17 388.920  10
   5  -4 -11 3505.43 342.489   1
  -5   4  11 3922.24 398.883   7
   5  -4 -10 17220.5 692.311   6
   5  -4 -10 17931.5 779.831  11
   5  -4 -10 17076.5 702.155   1
  -5   4  10 16805.7 707.479  10
  -5   4  10 17335.5 772.181   7
   5  -4  -9 4926.35 352.649   6
   5  -4  -9 5124.05 395.839  11
   5  -4  -9 4883.16 368.954   1
  -5   4   9 4374.16 356.740  10
  -5   4   9 4947.93 319.892   2
  -5   4   9 5611.07 417.536   7
   5  -4  -8 6379.63 397.628   1
   5  -4  -8 5645.67 350.734   6
   5  -4  -8 5778.12 397.818  11
  -5   4   8 5940.80 392.234  10
  -5   4   8 4940.61 316.710   2
   5  -4  -7 5199.07 311.824   6
  -5   4   7 4342.87 324.334  10
  -5   4   7 4578.46 298.468   2
   5  -4  -7 4555.61 329.144  11
   5  -4  -7 4465.89 321.545   1
  -5   4   6 18821.1 591.664   2
   5  -4  -6 19157.7 541.647   6
   5  -4  -6 18863.5 620.810  11
  -5   4   6 18013.1 623.471  10
   5  -4  -6 18325.0 612.981   1
   5  -4  -5 2493.33 182.595   6
   5  -4  -5 2200.74 210.472  11
  -5   4   5 2241.28 203.587   2
   5  -4  -4 894.123 131.722  11
  -5   4   4 845.386 131.765   2
   5  -4  -4 975.777 125.389   8
   5  -4  -3 22619.9 567.912  11
  -5   4   3 23967.4 635.502   2
   5  -4  -3 20566.0 225.371   9
   5  -4  -3 23494.8 572.021   8
   5  -4  -2 21273.7 530.846  11
  -5   4   2 20940.8 594.358   2
   5  -4  -2 21037.4 524.204   8
   5  -4  -1 9142.59 341.078  11
  -5   4   1 8937.66 388.023   2
   5  -4  -1 9242.43 345.376   8
   5  -4   0 8322.81 323.541   3
   5  -4   0 8652.95 336.904  11
  -5   4   0 8804.79 382.592   2
   5  -4   0 8389.56 337.087   8
  -5   4  -1 378.069 103.050  12
   5  -4   1 135.161 64.5244   3
   5  -4   1 211.419 73.5277  11
   5  -4   1 180.201 86.0437   8
  -5   4  -1 82.5568 61.0499   2
  -5   4  -2 75812.6 1202.32  12
  -5   4  -2 75910.2 1125.31   2
   5  -4   2 76755.4 1119.39   8
   5  -4   2 77368.4 988.928   3
  -5   4  -3 68441.7 1164.47  12
  -5   4  -3 70321.0 1088.03   2
   5  -4   3 68692.2 1131.82   8
  -5   4  -3 68268.7 1228.05   4
   5  -4   3 69931.4 963.759   3
  -5   4  -4 19051.2 630.835  12
   5  -4   4 19398.2 637.138   8
  -5   4  -4 17897.7 653.100   4
  -5   4  -5 5610.69 360.659  12
   5  -4   5 4909.97 352.631   8
  -5   4  -5 4682.24 345.797   4
  -5   4  -6 1516.66 197.035  12
   5  -4   6 1390.85 211.891   8
  -5   4  -6 1337.77 209.250   4
  -5   4  -7-0.18184 80.2375  12
   5  -4   7-65.8985 129.998   8
  -5   4  -7-41.2206 90.6043   4
  -5   4  -8 4078.08 335.799  12
   5  -4   8 3776.19 368.602   8
  -5   4  -8 3885.89 356.663   4
   5  -4   9 650.958 188.824   8
  -5   4  -9 1027.78 205.314   4
  -5   4 -10 5289.77 443.494   4
   5  -4  10 3994.85 414.064   8
   5  -3 -13 4727.82 424.613   6
  -5   3  13 4387.41 415.134  10
   5  -3 -13 4508.72 413.105   1
  -5   3  13 4517.32 452.909   7
  -5   3  12 217.892 126.992   7
   5  -3 -12 298.793 121.879   1
   5  -3 -12 452.069 160.859   6
  -5   3  12 229.325 132.145  10
   5  -3 -11 4923.84 398.221   6
  -5   3  11 5051.61 404.508  10
   5  -3 -11 4447.91 377.574   1
  -5   3  11 4641.71 421.419   7
   5  -3 -10 24624.5 801.806   6
   5  -3 -10 24386.0 864.924  11
   5  -3 -10 24157.7 824.012   1
  -5   3  10 23078.2 811.848  10
  -5   3  10 24641.0 882.089   7
   5  -3  -9 9765.98 469.705   6
   5  -3  -9 9670.50 514.461  11
   5  -3  -9 10118.6 512.705   1
  -5   3   9 9794.59 515.859  10
  -5   3   9 10099.2 433.219   2
  -5   3   9 10212.6 538.337   7
   5  -3  -8 23721.9 749.858   1
   5  -3  -8 22606.6 658.691   6
   5  -3  -8 24180.3 752.440  11
  -5   3   8 24434.4 763.189  10
  -5   3   8 23739.8 649.649   2
  -5   3   8 23800.1 775.197   7
   5  -3  -7 5782.61 359.788   1
   5  -3  -7 5897.91 312.220   6
   5  -3  -7 5126.97 326.920  11
  -5   3   7 5616.47 358.359  10
  -5   3   7 5760.83 318.566   2
   5  -3  -6 803.400 113.662   6
   5  -3  -6 1132.37 153.695  11
  -5   3   6 1048.97 165.015  10
   5  -3  -6 750.763 138.651   1
  -5   3   6 880.080 136.861   2
   5  -3  -5 12211.6 358.703   6
   5  -3  -5 12453.4 435.519  11
  -5   3   5 12009.5 443.634   2
   5  -3  -4 1429.90 112.892   6
   5  -3  -4 1328.52 137.624  11
   5  -3  -4 1402.47 68.8175   9
  -5   3   4 1269.94 152.250   2
   5  -3  -3 13479.8 392.530  11
  -5   3   3 12849.8 247.457   5
   5  -3  -3 13620.1 252.433   9
   5  -3  -3 13801.4 428.938   8
   5  -3  -2 61706.6 809.958  11
  -5   3   2 62010.6 546.575   5
  -5   3   2 61711.6 980.648   2
   5  -3  -2 60456.3 872.781   8
   5  -3  -1 267.396 63.5987  11
  -5   3   1 376.769 51.7388   5
   5  -3  -1 422.498 87.5713   8
  -5   3   1 428.111 98.8257   2
   5  -3   0 62074.5 778.295   3
   5  -3   0 64031.8 826.066  11
  -5   3   0 63572.3 694.472   5
  -5   3   0 61606.8 984.791   2
   5  -3   0 62814.5 910.498   8
   5  -3   1 106275. 1017.29   3
  -5   3  -1 106037. 1307.15   2
   5  -3   1 104460. 1245.72   8
  -5   3  -2 1017.10 148.423  12
   5  -3   2 961.376 109.084   3
   5  -3   2 708.827 128.942   8
  -5   3  -2 995.728 159.594   4
  -5   3  -3 10442.5 436.409  12
   5  -3   3 11150.1 464.515   8
  -5   3  -3 10817.8 483.182   4
   5  -3   3 11237.4 355.835   3
  -5   3  -4 344.652 109.256  12
   5  -3   4 509.922 128.892   8
  -5   3  -4 469.625 131.243   4
  -5   3  -5 18294.3 609.809  12
   5  -3   5 17465.6 653.281   8
  -5   3  -5 17538.3 670.602   4
  -5   3  -6 891.848 156.192  12
   5  -3   6 1309.74 203.674   8
  -5   3  -6 1025.59 177.409   4
  -5   3  -7 6457.46 389.618  12
   5  -3   7 5786.34 427.392   8
  -5   3  -7 6883.48 460.567   4
   5  -3   8-11.0913 120.496   8
  -5   3  -8-101.256 116.218   4
   5  -3   9 550.075 170.747   8
  -5   3  -9 1032.38 199.621   4
  -5   3 -10 3686.58 379.877   4
   5  -3  10 3902.61 414.321   8
  -5   3 -11 3149.50 383.682   6
   5  -2 -14 9646.32 627.095   6
  -5   2  14 10020.9 640.074  10
   5  -2 -14 9861.48 632.520   1
  -5   2  13 1343.00 263.443   7
   5  -2 -13 1245.90 201.727   1
   5  -2 -13 1095.46 219.229   6
  -5   2  13 1438.24 256.543  10
  -5   2  12 236.148 150.886   7
   5  -2 -12 247.086 111.168   1
   5  -2 -12 625.484 185.329   6
  -5   2  12 267.314 127.863  10
   5  -2 -11 16605.2 683.084   6
  -5   2  11 17945.8 745.278  10
   5  -2 -11 17694.3 732.528   1
  -5   2  11 18053.3 773.088   7
  -5   2  10 2133.97 265.144   7
   5  -2 -10 1706.14 221.876   6
  -5   2  10 2500.41 279.176  10
   5  -2 -10 2208.68 262.162   1
  -5   2  10 1788.16 183.376   2
   5  -2  -9 43314.4 949.361   6
   5  -2  -9 42409.4 1011.86  11
   5  -2  -9 43642.9 1046.12   1
  -5   2   9 44785.8 1066.98  10
  -5   2   9 44345.7 865.396   2
  -5   2   9 45060.8 1081.82   7
  -5   2   8 1241.17 186.948   7
   5  -2  -8 1824.38 192.568   6
   5  -2  -8 1636.13 195.840  11
  -5   2   8 1229.33 191.399  10
   5  -2  -8 1710.07 211.513   1
  -5   2   8 1479.29 164.902   2
   5  -2  -7 16001.9 577.372   1
   5  -2  -7 15558.5 528.402  11
   5  -2  -7 15617.2 479.112   6
  -5   2   7 15184.5 565.553  10
  -5   2   7 16289.5 513.122   2
   5  -2  -6 88029.4 1279.80   1
   5  -2  -6 86222.7 994.377   6
   5  -2  -6 87406.0 1147.95  11
  -5   2   6 86223.5 1273.35  10
  -5   2   6 85360.5 1156.21   2
   5  -2  -5 4214.39 193.612   6
   5  -2  -5 4384.46 239.051  11
  -5   2   5 3973.93 250.565   2
   5  -2  -5 4306.24 155.099   9
   5  -2  -5 4341.84 275.942   1
   5  -2  -4 16493.4 311.902   6
   5  -2  -4 16039.8 415.018  11
  -5   2   4 16391.6 499.998   2
   5  -2  -4 16398.0 305.208   9
   5  -2  -4 16149.2 474.483   8
   5  -2  -3 23184.0 457.129  11
  -5   2   3 22221.4 387.720   5
   5  -2  -3 22992.8 388.398   9
  -5   2   3 22691.2 585.062   2
   5  -2  -3 22220.4 538.289   8
   5  -2  -2 345.417 58.7677  11
   5  -2  -2-2.32429 48.7198   8
  -5   2   2 318.908 92.3655   2
   5  -2  -1 4162.89 185.870  11
  -5   2   1 3857.83 94.3668   6
  -5   2   1 4335.91 190.155   5
   5  -2  -1 4529.70 238.547   8
   5  -2   0 33354.7 552.534  11
  -5   2   0 31712.8 559.617   5
   5  -2   0 32608.3 662.131   8
  -5   2   0 31381.2 707.805   4
   5  -2   1 36605.2 516.286   3
  -5   2  -1 35395.7 643.713   5
   5  -2   1 34924.3 723.639   8
  -5   2  -1 35298.4 786.053   4
  -5   2  -2 688.239 115.879  12
   5  -2   2 694.971 83.3403   3
  -5   2  -2 584.060 94.8073   5
   5  -2   2 679.567 121.951   8
  -5   2  -2 539.326 123.239   4
  -5   2  -3 39277.7 801.349  12
   5  -2   3 39263.9 865.853   8
  -5   2  -3 39910.5 920.134   4
  -5   2  -4 14938.1 506.542  12
   5  -2   4 13937.9 552.926   8
  -5   2  -4 14179.8 587.345   4
  -5   2  -5 2542.77 221.650  12
   5  -2   5 2549.18 261.729   8
  -5   2  -5 2784.78 278.261   4
  -5   2  -6 21643.8 646.744  12
   5  -2   6 21381.8 779.965   8
  -5   2  -6 20614.1 763.381   4
   5  -2   7 7336.73 490.137   8
  -5   2  -7 7821.05 490.572   4
  -5   2  -8 15318.8 715.309   4
   5  -2   8 13710.3 690.285   8
  -5   2  -9 6523.91 481.370   6
  -5   2  -9 6478.47 485.474   4
   5  -2   9 7063.77 528.775   8
  -5   2 -10 2447.81 325.492   6
  -5   2 -10 1902.53 287.064   4
   5  -1 -15 2037.76 301.590   1
  -5   1  14 513.679 203.592   7
   5  -1 -14 197.174 137.464   6
   5  -1 -14 427.773 154.732   1
  -5   1  14 407.827 176.653  10
  -5   1  13 1521.60 272.826   7
   5  -1 -13 2131.70 289.981   1
   5  -1 -13 1675.72 264.192   6
  -5   1  13 1528.89 261.611  10
   5  -1 -12 3416.81 333.978   6
  -5   1  12 4113.85 381.876  10
   5  -1 -12 4000.67 370.298   1
  -5   1  12 3644.59 368.414   7
   5  -1 -11 20298.1 736.664   6
  -5   1  11 19849.5 775.189  10
   5  -1 -11 19455.3 762.774   1
  -5   1  11 19803.4 783.698   7
   5  -1 -10 27858.4 795.316   6
   5  -1 -10 28570.7 879.295   1
  -5   1  10 27831.0 867.587  10
  -5   1  10 27664.0 871.028   7
   5  -1  -9 12222.0 492.407   6
   5  -1  -9 12810.2 564.384   1
  -5   1   9 12095.9 548.091  10
  -5   1   9 11978.0 435.871   2
  -5   1   9 12069.2 541.128   7
  -5   1   8 1070.34 173.529   7
   5  -1  -8 899.172 145.299  11
   5  -1  -8 905.683 136.090   6
  -5   1   8 961.868 164.859  10
   5  -1  -8 808.514 158.407   1
  -5   1   8 687.451 115.882   2
  -5   1   7 153.302 95.1835   7
   5  -1  -7 196.748 78.7760  11
   5  -1  -7-49.9790 61.0752   6
  -5   1   7 138.320 99.4117  10
   5  -1  -7 16.3661 69.1714   1
  -5   1   7 345.150 84.6932   2
   5  -1  -6 217.412 63.9028  11
   5  -1  -6 112.294 49.4639   6
  -5   1   6 144.688 89.9516  10
   5  -1  -6 236.840 100.035   1
   5  -1  -6 190.816 45.3889   9
  -5   1   6 157.519 80.8164   7
  -5   1   6 283.417 80.8603   2
   5  -1  -5 2981.24 177.180  11
   5  -1  -5 3052.43 153.743   6
  -5   1   5 3643.74 250.451  10
  -5   1   5 2912.48 212.824   2
   5  -1  -5 2944.37 215.173   8
   5  -1  -5 3643.15 250.757   1
   5  -1  -4 23638.3 311.972   6
   5  -1  -4 23276.3 441.121  11
   5  -1  -4 23484.5 425.372   9
  -5   1   4 22928.2 587.841   2
   5  -1  -4 24258.5 571.865   8
   5  -1  -3 1989.28 118.140  11
  -5   1   3 2157.69 138.193   5
   5  -1  -3 2282.96 140.126   9
   5  -1  -3 2184.29 172.282   8
   5  -1  -2 6340.45 195.856  11
  -5   1   2 6412.40 241.385   5
   5  -1  -2 5791.85 235.727   9
   5  -1  -2 5764.18 264.025   8
  -5   1   2 6102.69 280.711   4
   5  -1  -1 72733.7 682.616  11
  -5   1   1 70816.8 854.221   5
   5  -1  -1 69943.4 929.936   8
  -5   1   1 72393.8 1007.44   4
  -5   1   0 21166.5 298.130   6
  -5   1   0 19972.9 488.807   5
   5  -1   0 21618.8 540.836   8
  -5   1   0 21022.6 575.658   4
   5  -1   1 766.172 63.9770   3
  -5   1  -1 685.857 104.965   5
   5  -1   1 833.281 118.681   8
  -5   1  -1 810.912 130.142   4
  -5   1  -2 1318.68 154.813   5
   5  -1   2 1119.31 151.988   8
  -5   1  -2 1251.43 172.489   4
   5  -1   2 1299.24 92.3884   3
  -5   1  -3 6824.81 359.108   5
   5  -1   3 7004.69 374.226   8
  -5   1  -3 6564.58 381.055   4
   5  -1   4 27122.6 774.001   8
  -5   1  -4 27930.9 820.877   4
  -5   1  -5 9852.72 398.636  12
   5  -1   5 9173.33 482.049   8
  -5   1  -5 10311.9 528.576   4
  -5   1  -6 28005.5 808.544   6
  -5   1  -6 27688.7 900.183   4
   5  -1   6 27684.3 879.405   8
  -5   1  -7 9207.90 504.602   6
  -5   1  -7 8925.77 539.518   4
   5  -1   7 9586.48 560.664   8
  -5   1  -8 161.253 123.458   6
   5  -1   8 173.454 120.638   8
  -5   1  -8 444.271 151.357   4
  -5   1  -9 154.823 132.138   6
   5  -1   9 406.848 176.883   8
  -5   1  -9 289.428 139.970   4
  -5   1 -10 10422.9 654.455   6
  -5   1 -10 10094.9 637.262   4
   5   0 -15 2043.86 308.114   1
  -5   0  15 2678.90 357.442  10
   5   0 -15 1851.32 302.004   6
   5   0 -14 5343.24 469.742   6
  -5   0  14 6478.75 523.893  10
   5   0 -14 5918.48 491.016   1
  -5   0  13 874.733 206.495   7
   5   0 -13 1006.49 205.700   1
   5   0 -13 757.974 177.576   6
  -5   0  13 665.488 190.146  10
   5   0 -12-73.5676 91.4489   1
  -5   0  12 111.217 128.098  10
  -5   0  12 223.451 121.922   7
   5   0 -11 16.9242 95.1423   1
  -5   0  11 216.001 97.0494   7
  -5   0  11 126.591 108.257  10
   5   0 -10 5361.43 386.385   1
  -5   0  10 5192.67 379.097  10
  -5   0  10 6029.22 400.756   7
  -5   0   9 7379.56 429.422  10
   5   0  -9 7046.04 422.048   1
  -5   0   9 6898.07 399.873   7
   5   0  -8 40409.9 942.513   1
  -5   0   8 41808.2 949.248  10
  -5   0   8 40504.5 883.673   7
  -5   0   7 1615.11 171.676   7
  -5   0   7 1444.52 183.868  10
   5   0  -7 1673.35 193.304   1
  -5   0   7 1618.86 93.1170   4
   5   0  -6 60134.9 802.628  11
  -5   0   6 59467.5 1012.01  10
   5   0  -6 59550.5 1028.58   1
   5   0  -6 61929.7 786.290   9
  -5   0   6 62491.7 632.728   4
  -5   0   6 60042.0 912.674   7
   5   0  -5 45137.6 851.335   1
   5   0  -5 43105.9 587.179  11
  -5   0   5 42527.6 805.672  10
   5   0  -5 44911.9 653.258   9
  -5   0   5 43640.5 585.393   4
   5   0  -5 42747.3 782.338   8
  -5   0   5 41824.5 689.004   7
   5   0  -4 72251.6 647.991  11
  -5   0   4 70696.3 982.748  10
   5   0  -4 70887.0 819.339   9
  -5   0   4 72891.0 821.481   4
   5   0  -4 70565.6 956.365   8
  -5   0   4 70012.3 792.315   7
   5   0  -4 71760.2 1018.87   1
   5   0  -3 1713.22 86.3595  11
  -5   0   3 1774.05 137.969   5
   5   0  -3 1696.12 133.500   9
  -5   0   3 1894.74 148.407   4
   5   0  -3 1732.49 148.308   8
  -5   0   2 18454.4 273.136   3
   5   0  -2 18409.6 262.747  11
   5   0  -2 18668.3 451.131   9
  -5   0   2 18446.4 450.943   5
  -5   0   2 18704.4 484.014   4
   5   0  -2 17957.8 460.336   8
   5   0  -1 5206.62 157.843  11
  -5   0   1 4748.97 243.508   5
   5   0  -1 4736.86 245.424   8
  -5   0   1 4929.23 269.357   4
  -5   0   0 123852. 1309.24   5
   5   0   0 123198. 1289.00   8
  -5   0   0 119974. 1410.81   4
  -5   0   0 120876. 679.592   7
   5   0   1 4821.96 105.494   3
  -5   0  -1 5702.68 217.656   6
  -5   0  -1 5561.46 300.820   5
   5   0   1 5218.03 288.285   8
  -5   0  -1 6300.75 344.325   4
  -5   0  -2 8328.74 305.355   6
  -5   0  -2 8781.20 400.540   5
   5   0   2 8147.18 380.297   8
  -5   0  -2 8932.61 431.428   4
  -5   0  -3 46266.3 809.000   6
  -5   0  -3 47171.8 990.327   5
   5   0   3 48540.9 981.887   8
  -5   0  -3 44698.9 1016.17   4
  -5   0  -4 7436.58 363.141   6
  -5   0  -4 7275.58 432.621   4
   5   0   4 7612.88 417.262   8
  -5   0  -5 254.221 95.5009   6
   5   0   5 356.695 120.832   8
  -5   0  -5 408.145 146.537   4
  -5   0  -6 201.953 99.7162   6
   5   0   6 122.923 108.692   8
  -5   0  -6 336.289 145.462   4
  -5   0  -7 4289.85 355.514   6
  -5   0  -7 4375.34 387.474   4
   5   0   7 3903.91 366.142   8
  -5   0  -8 150.288 126.677   6
   5   0   8 117.736 116.461   8
  -5   0  -8 28.2517 113.341   4
  -5   0  -9 1695.74 271.719   6
   5   0   9 1493.81 257.093   8
  -5   0  -9 1562.91 260.348   4
  -5   0 -10 4207.27 428.386   6
  -5   0 -10 4202.15 429.511   4
  -5  -1  15 3959.02 434.028   7
  -5  -1  15 3949.40 432.186  10
   5   1 -15 3189.30 380.173   1
  -5  -1  14-3.09123 148.937   7
  -5  -1  14 55.5011 139.737  10
   5   1 -14-77.2276 107.925   1
  -5  -1  13 12235.4 670.322  10
   5   1 -13 11855.7 660.535   1
  -5  -1  13 12200.2 660.969   7
   5   1 -12 15896.1 721.825   1
  -5  -1  12 14262.5 686.992  10
  -5  -1  12 15503.1 704.530   7
  -5  -1  11 3793.58 349.656  10
   5   1 -11 3582.62 337.683   1
  -5  -1  11 3114.55 306.510   7
   5   1 -10 16573.9 665.432   1
  -5  -1  10 16892.3 673.336  10
  -5  -1  10 16686.9 640.134   7
   5   1  -9 80857.7 1396.87   1
  -5  -1   9 81261.9 1381.74  10
  -5  -1   9 79465.9 1292.55   7
   5   1  -8 24345.0 732.290   1
  -5  -1   8 23927.7 713.701  10
  -5  -1   8 24259.6 662.842   7
   5   1  -7 6480.39 359.603   1
  -5  -1   7 6396.58 350.900  10
   5   1  -7 6217.17 281.921   9
  -5  -1   7 5203.47 132.605   4
  -5  -1   7 6073.38 309.793   7
   5   1  -6 47960.9 912.717   1
  -5  -1   6 46675.0 881.691  10
   5   1  -6 47061.0 745.373   9
  -5  -1   6 47647.2 519.366   4
  -5  -1   6 46177.6 760.358   7
   5   1  -5 136707. 1452.23   1
  -5  -1   5 131293. 1385.19  10
   5   1  -5 130782. 1218.22   9
  -5  -1   5 135888. 1026.91   4
   5   1  -5 131834. 1348.96   8
  -5  -1   5 133653. 1147.21   7
  -5  -1   4 11691.3 164.824  11
  -5  -1   4 13148.9 413.995  10
  -5  -1   4 12824.8 396.335   5
   5   1  -4 12606.6 379.566   9
  -5  -1   4 12804.0 353.059   4
   5   1  -4 13302.5 411.406   8
  -5  -1   4 12610.3 302.385   7
   5   1  -4 13526.9 434.738   1
   5   1  -3 767.420 50.5128   6
  -5  -1   3 821.439 105.987  10
  -5  -1   3 900.603 110.389   5
   5   1  -3 695.600 97.8940   9
   5   1  -3 910.226 114.375   8
  -5  -1   3 1063.43 118.816   4
  -5  -1   3 1201.57 74.4125   7
  -5  -1   2 61202.5 895.376   5
   5   1  -2 62164.7 874.748   9
  -5  -1   2 61099.0 902.390   4
   5   1  -2 60952.5 845.208   8
   5   1  -1 22.2259 23.4475  11
   5   1  -1 6.81531 52.0427   9
  -5  -1   1-61.3950 58.1977   5
   5   1  -1 113.478 60.0481   8
  -5  -1   1 10.8925 55.0255   4
  -5  -1   0 41688.8 539.038   6
  -5  -1   0 39164.6 804.115   5
  -5  -1   0 41489.3 846.904   4
   5   1   0 40800.6 742.383   8
  -5  -1  -1 40935.0 862.154   5
  -5  -1  -1 42025.2 904.752   4
   5   1   1 42272.1 805.756   8
  -5  -1  -2 13191.8 402.916   6
  -5  -1  -2 13108.4 517.153   5
  -5  -1  -2 13589.4 545.634   4
   5   1   2 12456.1 470.521   8
  -5  -1  -3 3621.38 240.885   6
  -5  -1  -3 3933.61 305.507   5
  -5  -1  -3 3749.72 311.397   4
   5   1   3 3813.91 285.149   8
  -5  -1  -4 7155.92 366.318   6
  -5  -1  -4 7195.76 436.379   5
  -5  -1  -4 7361.64 452.156   4
   5   1   4 6289.86 382.310   8
  -5  -1  -5-59.5790 98.9967   6
   5   1   5-140.711 93.8667   8
  -5  -1  -5 51.6752 85.7022   4
  -5  -1  -6 166.743 104.638   6
   5   1   6-10.1066 92.8483   8
  -5  -1  -6-15.2781 103.170   4
  -5  -1  -7 5525.46 408.730   6
  -5  -1  -7 6082.65 467.783   4
   5   1   7 6582.33 464.359   8
  -5  -1  -8 3359.07 340.827   6
   5   1   8 3540.12 367.161   8
  -5  -1  -8 2996.53 342.541   4
  -5  -1  -9 2010.31 296.165   6
  -5  -1  -9 2534.76 339.037   4
   5   1   9 2066.33 296.144   8
  -5  -2  15 915.201 220.463   7
  -5  -2  15 496.509 187.201  10
   5   2 -15 663.902 204.574   1
  -5  -2  14 370.596 170.374   7
   5   2 -14 247.444 127.161   1
  -5  -2  14 37.6460 169.609  10
  -5  -2  13 11.7030 109.221   7
   5   2 -13 188.368 138.226   1
  -5  -2  13 34.3412 125.519  10
  -5  -2  12 11338.9 618.259  10
   5   2 -12 12172.2 633.168   1
  -5  -2  12 10944.0 578.656   7
  -5  -2  11 5106.19 395.714  10
   5   2 -11 5624.54 416.153   1
  -5  -2  11 5919.54 407.872   7
  -5  -2  10 9949.94 520.563  10
   5   2 -10 10242.7 525.417   1
  -5  -2  10 10299.5 500.322   7
   5   2  -9 76063.7 1349.71   1
  -5  -2   9 76026.3 1342.03  10
  -5  -2   9 78414.4 1262.54   7
   5   2  -8 64974.1 1185.78   1
  -5  -2   8 66311.1 1182.95  10
   5   2  -8 63105.7 980.384   9
  -5  -2   8 66519.6 1071.22   7
   5   2  -7 22094.6 654.623   1
  -5  -2   7 22527.1 647.485  10
   5   2  -7 21551.2 557.665   9
  -5  -2   7 21951.3 565.127   7
   5   2  -6 14872.7 507.987   1
  -5  -2   6 14898.9 493.184  10
   5   2  -6 15000.0 454.999   9
  -5  -2   6 15466.5 308.110   4
  -5  -2   6 15211.6 419.982   7
   5   2  -5 1943.96 179.663   1
  -5  -2   5 1845.33 72.1443  11
  -5  -2   5 2059.66 178.617  10
   5   2  -5 2010.27 165.311   9
  -5  -2   5 2082.23 135.781   4
   5   2  -5 2018.15 168.740   8
  -5  -2   5 2199.51 142.681   7
  -5  -2   4 41727.1 766.040   5
   5   2  -4 43853.0 771.084   1
  -5  -2   4 44544.2 743.738  10
   5   2  -4 44275.7 768.088   9
  -5  -2   4 42016.2 675.187   4
   5   2  -4 43825.9 735.215   8
  -5  -2   4 44249.0 507.817   7
   5   2  -3 25978.8 559.898   1
  -5  -2   3 26159.3 524.138  10
  -5  -2   3 25349.1 611.262   5
   5   2  -3 25871.3 587.105   9
  -5  -2   3 26238.3 577.937   4
   5   2  -3 26598.8 554.954   8
  -5  -2   2 10200.9 303.397  10
  -5  -2   2 9756.39 385.881   5
   5   2  -2 9575.85 369.620   9
  -5  -2   2 9932.88 384.837   4
   5   2  -2 10318.3 345.564   8
   5   2  -2 9922.92 329.948   1
   5   2  -1 404.369 40.7330  11
  -5  -2   1 638.114 75.9616  10
  -5  -2   1 590.105 115.193   5
   5   2  -1 490.128 95.2247   9
  -5  -2   1 382.737 99.4631   4
   5   2  -1 433.212 81.2546   8
  -5  -2   0 23856.0 464.268   6
  -5  -2   0 23418.7 367.840  10
  -5  -2   0 23711.7 664.391   5
  -5  -2   0 23095.6 667.930   4
   5   2   0 23783.1 571.066   8
  -5  -2  -1 20098.6 481.634   6
  -5  -2  -1 19492.2 297.843  10
  -5  -2  -1 19433.9 638.826   5
  -5  -2  -1 19002.3 636.675   4
   5   2   1 20106.5 558.157   8
  -5  -2  -2 4665.45 334.241   5
  -5  -2  -2 5156.55 273.593   6
  -5  -2  -2 5404.96 360.021   4
   5   2   2 5475.65 315.635   8
  -5  -2  -3 67.4343 66.2596   6
  -5  -2  -3 154.053 98.2391   5
   5   2   3 222.420 86.7806   8
  -5  -2  -3 330.776 123.335   4
  -5  -2  -4 95.8964 92.0836   6
  -5  -2  -4 237.975 112.146   5
   5   2   4 37.6655 88.6239   8
  -5  -2  -4 77.1417 85.0550   4
  -5  -2  -5 22774.5 732.694   6
  -5  -2  -5 22177.0 837.482   4
   5   2   5 22992.6 771.938   8
  -5  -2  -6 632.317 157.502   6
  -5  -2  -6 648.007 168.086   4
   5   2   6 557.147 145.608   8
  -5  -2  -7 14882.0 680.474   6
  -5  -2  -7 15752.7 767.218   4
   5   2   7 15469.3 713.753   8
  -5  -2  -8 19045.7 816.531   6
  -5  -2  -8 20512.2 906.351   4
   5   2   8 21321.8 886.142   8
  -5  -2  -9 1458.05 267.732   6
  -5  -3  15 5546.59 510.233  10
   5   3 -15 5256.86 492.903   1
  -5  -3  15 6145.02 518.583   7
  -5  -3  14 1356.76 266.861   7
   5   3 -14 869.081 204.037   1
  -5  -3  14 838.226 205.084  10
   5   3 -13 941.737 202.781   1
  -5  -3  13 1250.74 232.505  10
  -5  -3  12 787.494 178.415   7
   5   3 -12 1118.57 207.668   1
  -5  -3  12 1277.06 228.629  10
  -5  -3  11 741.315 158.819   7
   5   3 -11 796.560 183.756   1
  -5  -3  11 1015.82 193.126  10
   5   3 -10 21.8202 88.6055   1
  -5  -3  10-79.1266 107.395  10
  -5  -3  10-92.6557 89.6412   7
   5   3  -9 1390.98 199.841   1
  -5  -3   9 1397.86 173.384   7
  -5  -3   9 1556.46 206.000  10
   5   3  -8 4943.91 330.043   1
  -5  -3   8 4514.08 317.467  10
   5   3  -8 4585.33 285.897   9
  -5  -3   8 4154.30 271.514   7
   5   3  -7 27508.8 727.965   1
  -5  -3   7 26824.7 709.536  10
   5   3  -7 27872.7 670.417   9
  -5  -3   7 27549.4 620.212   7
  -5  -3   6 574.398 106.411  10
  -5  -3   6 821.096 105.422   7
   5   3  -6 795.650 122.548   9
   5   3  -6 799.377 132.140   1
  -5  -3   5 5715.21 221.018   7
   5   3  -5 5328.10 287.666   1
  -5  -3   5 5674.17 286.232  10
  -5  -3   5 5423.14 297.836   5
   5   3  -5 5615.20 292.932   9
  -5  -3   5 5638.79 240.774   4
   5   3  -5 5685.72 278.319   8
   5   3  -4 9795.57 362.154   1
  -5  -3   4 10006.8 347.510  10
  -5  -3   4 10043.6 408.742   5
   5   3  -4 10301.0 394.470   9
  -5  -3   4 10049.1 354.591   4
   5   3  -4 10294.4 355.200   8
   5   3  -3 6535.37 276.304   1
  -5  -3   3 6391.32 251.603  10
  -5  -3   3 6544.41 334.096   5
   5   3  -3 6312.86 312.184   9
  -5  -3   3 6128.28 301.116   4
   5   3  -3 6760.10 281.892   8
   5   3  -2 2398.33 160.555   1
  -5  -3   2 2649.38 144.503  10
  -5  -3   2 3017.43 237.044   5
   5   3  -2 2489.67 204.180   9
  -5  -3   2 2518.92 215.039   4
   5   3  -2 2338.27 168.521   8
  -5  -3   1 7569.61 198.387  10
  -5  -3   1 7331.19 378.662   5
   5   3  -1 7034.07 347.292   9
  -5  -3   1 7404.51 378.389   4
   5   3  -1 7554.69 304.437   8
   5   3  -1 7487.14 258.561   1
   5   3   0 5708.14 328.234   9
  -5  -3   0 6075.27 361.596   5
  -5  -3   0 6363.18 371.563   4
   5   3   0 6445.97 300.876   8
  -5  -3  -1 31105.3 650.148   6
  -5  -3  -1 30771.4 840.942   5
   5   3   1 30392.7 771.564   9
  -5  -3  -1 29542.0 825.079   4
   5   3   1 30708.4 688.393   8
  -5  -3  -2 17236.5 528.974   6
  -5  -3  -2 17098.5 660.672   5
  -5  -3  -2 17043.6 667.374   4
   5   3   2 17542.2 555.425   8
  -5  -3  -3 32359.6 785.101   6
  -5  -3  -3 31744.7 938.579   5
  -5  -3  -3 30448.6 924.801   4
   5   3   3 32033.5 807.409   8
  -5  -3  -4 11862.5 516.356   6
  -5  -3  -4 11488.0 600.243   4
   5   3   4 12073.0 531.824   8
  -5  -3  -4 11572.3 605.257   5
  -5  -3  -5 391.978 122.213   6
  -5  -3  -5 304.871 130.819   4
   5   3   5 246.561 112.986   8
  -5  -3  -6 3110.76 316.055   6
  -5  -3  -6 3018.19 346.433   4
   5   3   6 2890.14 298.191   8
  -5  -3  -7 7348.96 501.935   6
  -5  -3  -7 7254.04 549.676   4
   5   3   7 7534.28 502.666   8
  -5  -3  -8 2465.17 308.415   6
   5   3   8 2611.61 323.234   8
  -5  -4  15 367.551 160.483   7
  -5  -4  15 75.4297 175.273  10
   5   4 -15 312.604 140.012   1
  -5  -4  14 361.142 180.875   7
  -5  -4  14 549.726 182.924  10
   5   4 -14 538.121 164.036   1
  -5  -4  13 1359.06 230.353   7
   5   4 -13 1219.69 228.869   1
  -5  -4  13 1143.66 228.048  10
  -5  -4  12 2168.64 263.285   7
   5   4 -12 2489.22 289.657   1
  -5  -4  12 2274.13 293.860  10
  -5  -4  11 34677.1 1030.93  10
   5   4 -11 34120.7 1008.07   1
  -5  -4  11 34357.7 938.693   7
  -5  -4  10 17955.1 703.609  10
   5   4 -10 19419.1 723.943   1
  -5  -4  10 19671.1 669.897   7
  -5  -4   9 174.080 102.380   7
   5   4  -9 149.078 90.9720   1
  -5  -4   9 309.247 127.631  10
   5   4  -9 58.2898 68.3963   9
  -5  -4   8 25197.7 649.621   7
  -5  -4   8 24835.7 732.960  10
   5   4  -8 25624.3 749.447   1
   5   4  -8 26244.6 707.332   9
   5   4  -7 969.940 148.327   1
  -5  -4   7 941.327 121.963   7
  -5  -4   7 797.099 144.895  10
   5   4  -7 918.423 140.732   9
  -5  -4   6 13138.0 244.414  11
   5   4  -6 13464.8 477.024   1
  -5  -4   6 12581.1 456.528  10
   5   4  -6 13620.0 487.868   9
  -5  -4   5 1212.12 144.105  10
  -5  -4   5 1282.23 161.277   5
   5   4  -5 1100.35 144.774   9
   5   4  -5 1125.13 136.677   1
   5   4  -4 63209.3 898.699   1
  -5  -4   4 62993.1 860.573  10
  -5  -4   4 62114.6 1076.69   5
   5   4  -4 64637.0 1050.59   9
  -5  -4   4 62878.6 955.620   4
   5   4  -4 63989.5 874.984   8
  -5  -4   3 39385.8 470.103   3
   5   4  -3 40033.1 653.967   1
  -5  -4   3 39883.4 606.385  10
  -5  -4   3 39026.3 869.021   5
   5   4  -3 40066.6 830.532   9
  -5  -4   3 39434.9 805.687   4
   5   4  -3 40044.8 672.710   8
   5   4  -2 14633.6 361.049   1
  -5  -4   2 14174.4 300.630  10
  -5  -4   2 14125.8 538.199   5
   5   4  -2 13806.3 498.479   9
  -5  -4   2 13497.8 507.073   4
   5   4  -2 14663.2 407.314   8
   5   4  -1 45635.1 560.157   1
  -5  -4   1 45441.8 1000.95   5
   5   4  -1 46868.9 937.340   9
  -5  -4   1 45355.6 968.664   4
   5   4  -1 47462.5 754.004   8
  -5  -4   0 32562.1 877.600   5
   5   4   0 30413.0 779.859   9
  -5  -4   0 29839.4 834.309   4
   5   4   0 31405.4 647.564   8
  -5  -4  -1 45.7353 74.3229   5
   5   4   1 5.45935 76.0915   9
  -5  -4  -1 33.2414 89.7557   4
   5   4   1 240.967 88.4400   8
  -5  -4  -2 2558.77 225.886   6
  -5  -4  -2 2821.19 292.511   5
   5   4   2 2776.63 259.516   9
  -5  -4  -2 2612.37 279.763   4
   5   4   2 3008.21 236.189   8
  -5  -4  -3 61.8632 80.4900   6
  -5  -4  -3 62.1985 88.0049   5
   5   4   3-163.503 115.787   9
  -5  -4  -3-0.43433 105.043   4
   5   4   3-17.8487 75.7449   8
  -5  -4  -4 3465.68 298.794   6
  -5  -4  -4 3517.84 353.142   5
  -5  -4  -4 3174.94 335.431   4
   5   4   4 3155.66 280.315   8
  -5  -4  -5 1140.51 188.021   6
  -5  -4  -5 1060.93 220.623   4
   5   4   5 1099.36 184.723   8
  -5  -4  -6 4206.73 356.610   6
   5   4   6 4781.63 378.045   8
  -5  -4  -7 5413.30 442.261   6
  -5  -5  15 10640.3 666.905   7
  -5  -5  15 10008.5 698.745  10
   5   5 -15 9140.10 645.895   1
  -5  -5  14 6598.61 503.069   7
  -5  -5  14 6745.05 546.588  10
   5   5 -14 6525.10 525.029   1
  -5  -5  13 224.535 123.239   7
  -5  -5  13 408.970 169.644  10
   5   5 -13 228.812 106.909   1
  -5  -5  12 15154.9 674.671   7
  -5  -5  12 14544.0 718.439  10
   5   5 -12 14620.4 702.239   1
  -5  -5  11 7352.94 447.151   7
  -5  -5  11 7515.19 494.839  10
   5   5 -11 7533.51 478.844   1
  -5  -5  10 20338.5 684.567   7
  -5  -5  10 19102.4 735.515  10
   5   5 -10 17902.3 703.229   1
   5   5  -9 1099.68 175.272   1
  -5  -5   9 873.170 167.476  10
   5   5  -9 1022.59 167.798   9
  -5  -5   9 994.608 159.046   7
  -5  -5   8 31710.9 841.788  10
   5   5  -8 32552.1 839.847   1
   5   5  -8 32624.6 832.264   9
  -5  -5   7 47032.8 957.437  10
   5   5  -7 46507.1 945.929   1
   5   5  -7 47032.3 972.514   9
   5   5  -6 1532.10 164.227   1
  -5  -5   6 1603.53 174.574  10
  -5  -5   6 1559.42 189.482   5
   5   5  -6 1549.13 181.827   9
  -5  -5   5 7582.17 338.220  10
   5   5  -5 7513.29 332.687   1
  -5  -5   5 7569.66 401.261   5
   5   5  -5 7189.57 373.155   9
   5   5  -4 1218.51 128.213   1
  -5  -5   4 1175.44 126.010  10
  -5  -5   4 1218.99 174.243   5
   5   5  -4 1273.48 167.428   9
   5   5  -4 1257.19 125.835   8
  -5  -5   4 1491.83 123.778   3
  -5  -5   3 46606.5 592.703   3
  -5  -5   3 48057.0 652.195  10
   5   5  -3 47193.9 674.270   1
  -5  -5   3 46516.6 1004.30   5
   5   5  -3 49341.3 974.614   9
   5   5  -3 49734.0 741.546   8
  -5  -5   2 22758.8 723.723   5
   5   5  -2 22303.1 670.910   9
   5   5  -2 22321.2 498.202   8
  -5  -5   1 9406.36 483.154   5
   5   5  -1 10253.7 463.296   9
   5   5  -1 9978.23 345.009   8
  -5  -5   0 21590.9 756.730   5
   5   5   0 20899.8 679.012   9
   5   5   0 22360.4 541.491   8
  -5  -5  -1 4184.78 355.718   5
   5   5   1 4341.55 326.983   9
   5   5   1 4411.72 263.061   8
  -5  -5  -2 11609.4 606.731   5
   5   5   2 11499.6 538.039   9
   5   5   2 12469.7 466.241   8
  -5  -5  -3 3224.50 288.286   6
  -5  -5  -3 3297.02 342.597   5
   5   5   3 3450.57 306.203   9
  -5  -5  -4 851.565 169.874   6
  -5  -5  -4 1009.40 195.797   5
   5   5   4 1054.47 187.131   9
  -5  -5  -5 2811.21 306.823   6
   5   5   5 2036.87 263.910   9
  -5  -5  -6 1768.47 264.870   6
   5   5   6 2469.57 295.929   9
  -5  -6  14 1616.94 288.774  10
   5   6 -14 1772.70 290.733   1
  -5  -6  13 1523.33 276.485  10
   5   6 -13 1036.01 218.109   1
  -5  -6  12 26180.8 979.868  10
   5   6 -12 25554.0 934.488   1
  -5  -6  11 2331.70 302.124  10
   5   6 -11 1909.69 256.469   1
   5   6 -10 1599.55 221.042   1
  -5  -6  10 1926.62 265.325  10
   5   6  -9-32.9435 73.3942   1
  -5  -6   9-51.1040 90.0146  10
   5   6  -9 6.14771 74.6199   9
  -5  -6   8 5287.17 367.401  10
   5   6  -8 5533.56 352.951   1
   5   6  -8 5279.45 358.179   9
  -5  -6   7 25815.6 732.878  10
  -5  -6   7 25166.0 768.966   5
   5   6  -7 24997.3 696.116   1
   5   6  -7 25540.3 758.405   9
  -5  -6   6 1552.57 178.329  10
   5   6  -6 1895.45 183.752   1
  -5  -6   6 1923.59 223.549   5
   5   6  -6 1743.40 205.054   9
  -5  -6   5 21318.0 571.093  10
  -5  -6   5 21297.7 706.695   5
   5   6  -5 21445.4 553.753   1
   5   6  -5 20790.7 671.807   9
  -5  -6   5 20876.8 517.588   3
  -5  -6   4 273.180 67.4245   3
  -5  -6   4 277.407 98.4944   5
  -5  -6   3 3656.22 304.880   5
   5   6  -3 4173.45 307.989   9
  -5  -6   2 14927.7 628.638   5
   5   6  -2 14789.3 573.767   9
  -5  -6   1 177.545 102.996   5
   5   6  -1 357.476 115.583   9
  -5  -6   0 146.524 107.101   5
   5   6   0 154.085 89.1947   9
  -5  -6  -1 4133.79 371.541   5
   5   6   1 4047.02 330.423   9
  -5  -6  -2 12524.3 667.210   5
   5   6   2 12556.0 587.145   9
  -5  -6  -3 27063.0 1003.83   5
   5   6   3 26949.9 889.680   9
  -5  -6  -4 2330.48 319.435   5
   5   6   4 3064.68 315.130   9
   5   6   5 2593.76 303.865   9
  -5  -7  14 205.674 164.374  10
   5   7 -14 111.417 102.668   1
  -5  -7  13 3067.19 371.377  10
   5   7 -13 2558.47 324.773   1
  -5  -7  12 754.107 220.820  10
   5   7 -12 804.301 184.010   1
  -5  -7  11 13590.7 686.078  10
   5   7 -11 13148.2 649.817   1
  -5  -7  10 17994.2 751.940  10
   5   7 -10 17742.2 714.589   1
  -5  -7   9 12218.7 581.638  10
   5   7  -9 12148.4 557.035   1
   5   7  -9 12003.2 565.162   9
  -5  -7   8 3939.36 319.545  10
  -5  -7   8 3819.03 323.804   5
   5   7  -8 3687.02 293.780   1
   5   7  -8 4121.29 333.065   9
  -5  -7   7 8402.88 432.089  10
  -5  -7   7 8369.98 472.409   5
   5   7  -7 8695.59 416.832   1
   5   7  -7 8953.07 476.383   9
  -5  -7   6 1135.08 153.934  10
  -5  -7   6 1435.48 199.903   5
   5   7  -6 1137.08 145.568   1
   5   7  -6 902.693 163.112   9
  -5  -7   6 1088.39 146.462   3
  -5  -7   5 991.298 128.090   3
  -5  -7   5 927.366 171.949   5
   5   7  -5 923.911 165.849   9
  -5  -7   4 1445.89 205.406   5
   5   7  -4 1467.39 192.950   9
  -5  -7   3 0.19877 87.8432   5
   5   7  -3-85.8391 91.6566   9
  -5  -7   2 45114.4 1159.67   5
   5   7  -2 45123.9 1058.68   9
  -5  -7   1 10076.1 564.851   5
   5   7  -1 9630.44 501.001   9
  -5  -7   0 2263.81 284.648   5
   5   7   0 1857.34 233.428   9
  -5  -7  -1 23842.6 921.523   5
   5   7   1 25261.9 843.754   9
  -5  -7  -2 6491.81 498.022   5
   5   7   2 6755.80 450.242   9
  -5  -7  -3 998.221 219.552   5
   5   7   3 1200.82 209.666   9
  -5  -7  -4 1120.69 257.145   5
   5   7   4 852.231 197.841   9
  -5  -8  14 7516.74 600.556  10
   5   8 -14 6309.29 528.221   1
  -5  -8  13 8303.18 611.307  10
   5   8 -13 8697.22 592.071   1
  -5  -8  12 287.210 169.570  10
   5   8 -12 254.763 141.608   1
  -5  -8  11 8612.45 557.482  10
   5   8 -11 7593.81 502.812   1
  -5  -8  10 2467.01 297.570  10
   5   8 -10 1960.91 247.573   1
  -5  -8   9 3264.71 315.695  10
  -5  -8   9 3697.03 343.775   5
   5   8  -9 3263.81 316.902   9
   5   8  -9 2863.23 278.267   1
  -5  -8   8 11262.2 540.536  10
  -5  -8   8 10820.2 564.176   5
   5   8  -8 11709.2 580.066   9
   5   8  -8 11036.7 505.386   1
  -5  -8   7 2218.89 234.566  10
  -5  -8   7 2109.56 257.152   5
   5   8  -7 2349.71 258.658   9
  -5  -8   7 2161.17 219.771   3
  -5  -8   6 52364.4 1230.91   5
   5   8  -6 52841.7 1198.77   9
  -5  -8   5 619.987 151.864   5
   5   8  -5 1012.51 182.172   9
  -5  -8   4 291.993 116.182   5
   5   8  -4 414.958 137.227   9
  -5  -8   3 15022.9 692.580   5
   5   8  -3 15071.8 640.030   9
  -5  -8   2 623.090 160.078   5
   5   8  -2 414.659 135.788   9
  -5  -8   1 228.702 116.340   5
   5   8  -1 59.8483 93.7539   9
  -5  -8   0 6532.62 492.194   5
   5   8   0 7109.11 462.885   9
  -5  -8  -1 3580.81 380.608   5
   5   8   1 3447.16 332.205   9
  -5  -8  -2 3007.78 363.467   5
   5   8   2 2451.10 283.482   9
   5   8   3 426.764 151.958   9
  -5  -9  13 13026.4 762.081  10
   5   9 -13 12488.8 716.988   1
  -5  -9  12 202.960 135.984  10
   5   9 -12 432.048 154.178   1
  -5  -9  11 585.356 184.300  10
   5   9 -11 473.467 153.885   1
  -5  -9  10 38753.4 1133.34  10
  -5  -9  10 39565.8 1148.27   5
  -5  -9   9 885.967 176.870  10
  -5  -9   9 946.738 198.033   5
   5   9  -9 615.077 160.422   9
  -5  -9   8 864.435 167.960   3
  -5  -9   8 583.706 151.881   5
   5   9  -8 364.732 131.883   9
  -5  -9   7 1238.80 215.779   5
   5   9  -7 894.052 180.590   9
  -5  -9   6 10769.1 589.651   5
   5   9  -6 11241.1 583.740   9
  -5  -9   5 2426.30 296.469   5
   5   9  -5 2125.15 261.867   9
  -5  -9   4 1889.78 272.942   5
   5   9  -4 1511.59 222.388   9
  -5  -9   3-64.3345 107.078   5
   5   9  -3 217.261 118.616   9
  -5  -9   2 2691.29 319.409   5
   5   9  -2 2689.12 296.838   9
  -5  -9   1 8235.41 564.433   5
   5   9  -1 7271.23 483.072   9
  -5  -9   0 10130.0 646.629   5
   5   9   0 8732.75 530.295   9
  -5  -9  -1-3.03195 112.137   5
   5   9   1 144.254 118.852   9
  -5 -10  13 1985.28 314.549  10
   5  10 -12 114.700 92.3000   1
  -5 -10  12 66.6429 138.785  10
  -5 -10  11 2837.41 340.730  10
  -5 -10  11 2540.70 321.293   5
  -5 -10  10 4958.97 433.341   5
  -5 -10   9 224.020 125.300   5
   5  10  -9 107.942 119.261   9
  -5 -10   8 2184.54 293.101   5
   5  10  -8 3117.96 338.002   9
  -5 -10   7 12668.2 669.562   5
   5  10  -7 13762.6 678.650   9
  -5 -10   6 1166.93 230.113   5
   5  10  -6 872.746 185.405   9
  -5 -10   5 6065.75 477.163   5
   5  10  -5 6630.03 470.695   9
  -5 -10   4 152.012 97.5338   5
   5  10  -4 189.828 122.579   9
  -5 -10   3 4142.59 409.822   5
   5  10  -3 4516.80 389.062   9
  -5 -10   2 247.148 128.566   5
   5  10  -2 163.339 132.105   9
  -5 -10   1 7632.03 571.479   5
   5  10  -1 7205.55 494.075   9
   5  10   0 16871.8 761.567   9
  -5 -11  10 8735.69 593.230   5
  -5 -11   9 13731.1 739.564   5
   5  11  -9 12331.8 682.253   9
  -5 -11   8 5279.81 471.981   5
   5  11  -8 5530.89 457.273   9
  -5 -11   7 239.607 142.865   5
   5  11  -7 457.871 148.274   9
  -5 -11   6 295.542 132.447   5
   5  11  -6 547.600 170.311   9
  -5 -11   5 25437.6 1010.55   5
   5  11  -5 27091.8 976.884   9
  -5 -11   4 8183.90 584.104   5
   5  11  -4 8610.95 558.533   9
  -5 -11   3-51.1430 118.212   5
   5  11  -3 487.251 168.279   9
  -6  12   0 1181.48 234.335   2
   6 -12   1 1557.34 278.532  11
  -6  12  -1 1237.66 243.521   2
   6 -12   2 492.444 182.068  11
  -6  12  -2 767.225 190.458   2
  -6  12  -3 11752.2 717.759  12
  -6  12  -3 11783.4 676.450   2
  -6  12  -4 188.694 108.204   2
  -6  11   4 2208.46 310.926   2
   6 -11  -3 6.17394 119.065  11
  -6  11   3 22.8537 128.483   2
   6 -11  -2 4080.56 408.219  11
  -6  11   2 4492.41 418.921   2
   6 -11  -1 25774.4 983.069  11
  -6  11   1 27225.0 992.570   2
   6 -11   0-99.1970 156.701  11
  -6  11   0 375.062 141.155   2
   6 -11   1 7713.29 532.454  11
  -6  11  -1 7557.34 527.261   2
  -6  11  -2 20821.2 909.082  12
   6 -11   2 20162.8 848.757  11
  -6  11  -2 19830.4 834.160   2
  -6  11  -3-124.323 160.377  12
   6 -11   3-186.583 150.688  11
  -6  11  -3 160.589 122.357   2
   6 -11   4-114.159 137.524   3
   6 -11   4-41.6085 115.452  11
  -6  11  -4 155.724 164.603  12
  -6  11  -4 120.684 117.484   2
   6 -11   5 31.4393 110.859   3
   6 -11   5 204.532 137.740  11
   6 -11   6 3373.01 366.614   3
   6 -10  -6 15850.9 831.309  11
  -6  10   6 14217.4 736.951   2
   6 -10  -5 16089.7 809.160  11
  -6  10   5 15924.8 766.282   2
   6 -10  -4 115.569 126.471  11
  -6  10   4 220.660 133.901   2
   6 -10  -3 1853.55 273.114  11
  -6  10   3 1915.70 271.072   2
   6 -10  -2 16611.8 762.596  11
  -6  10   2 17123.5 758.834   2
   6 -10  -1 79.9361 101.446  11
  -6  10   1 78.3179 116.033   2
   6 -10   0-24.0734 93.5037  11
  -6  10   0 130.736 129.316   2
  -6  10  -1 1121.83 236.457  12
   6 -10   1 1036.93 200.938  11
  -6  10  -1 1345.62 217.122   2
  -6  10  -2 8405.74 559.959  12
   6 -10   2 8351.54 522.314  11
  -6  10  -2 8167.20 511.785   2
  -6  10  -3 2236.99 306.348  12
   6 -10   3 2383.51 290.985   3
   6 -10   3 2091.55 271.554  11
  -6  10  -3 1992.57 262.848   2
   6 -10   4 9447.04 557.470   3
  -6  10  -4 8839.34 588.599  12
   6 -10   4 9631.28 568.399  11
  -6  10  -4 8744.08 527.276   2
  -6  10  -5 715.700 212.039  12
   6 -10   5 814.504 195.385   3
   6 -10   5 1077.82 207.194  11
  -6  10  -6 1506.83 263.871  12
   6 -10   6 1016.90 197.899   3
   6 -10   6 1133.51 220.597  11
  -6  10  -7 315.056 168.839  12
   6 -10   7 323.428 123.764   3
   6 -10   7 403.311 160.174  11
  -6  10  -8 938.304 228.762   4
  -6   9   8 948.671 207.995   2
   6  -9  -7 2698.24 348.021  11
  -6   9   7 3069.65 338.452  10
  -6   9   7 2886.54 332.477   2
   6  -9  -6 391.209 145.947  11
  -6   9   6 161.160 112.426   2
   6  -9  -5 347.959 160.882  11
  -6   9   5 272.838 126.255   2
   6  -9  -5 191.954 93.4589   1
   6  -9  -4 747.379 183.395  11
  -6   9   4 649.967 173.696   2
   6  -9  -3 4187.30 373.992  11
  -6   9   3 4202.84 368.389   2
   6  -9  -2 170.003 116.109  11
  -6   9   2 160.061 90.8320   2
   6  -9  -1 94.0548 94.3165  11
  -6   9   1 239.020 115.516   2
   6  -9   0 2343.45 277.010  11
  -6   9   0 2472.78 280.708   2
  -6   9  -1 1990.38 268.522  12
   6  -9   1 1994.80 246.948  11
  -6   9  -1 1899.84 247.049   2
   6  -9   2 163.447 107.444   3
  -6   9  -2 111.211 102.756  12
   6  -9   2 253.252 119.710  11
  -6   9  -2 153.991 98.4892   2
   6  -9   3 5791.72 413.204   3
  -6   9  -3 5437.11 443.678  12
   6  -9   3 6176.51 431.989  11
  -6   9  -3 5832.65 420.303   2
   6  -9   3 5933.18 350.966   8
   6  -9   4 7397.34 469.298   3
  -6   9  -4 7941.41 542.449  12
   6  -9   4 7190.21 475.442  11
  -6   9  -4 7317.89 463.776   2
   6  -9   4 7623.30 412.712   8
   6  -9   5 11883.3 598.315   3
  -6   9  -5 11746.0 666.000  12
   6  -9   5 11416.0 600.878  11
  -6   9  -5 11191.6 564.902   2
   6  -9   5 10854.4 512.067   8
  -6   9  -6 102.928 118.339  12
   6  -9   6-47.4507 101.056   3
   6  -9   6-41.3232 111.161  11
   6  -9   6 99.3255 106.475   8
  -6   9  -7 6835.08 541.179  12
   6  -9   7 7050.85 506.010  11
   6  -9   7 7408.77 486.626   8
  -6   9  -7 6806.65 530.877   4
   6  -9   7 7339.28 489.109   3
  -6   9  -8 23381.4 996.583  12
   6  -9   8 20500.7 883.961  11
   6  -9   8 20564.5 827.114   8
  -6   9  -8 19880.3 906.767   4
   6  -9   8 20226.8 822.363   3
   6  -9   9 764.054 176.609   3
   6  -9   9 794.817 195.937   8
  -6   9  -9 599.772 194.325   4
   6  -8  -9 1591.36 288.048  11
  -6   8   9 1389.16 231.617   2
   6  -8  -8 700.164 201.311  11
  -6   8   8 783.003 179.754  10
  -6   8   8 441.349 152.705   2
   6  -8  -7 5745.31 470.563  11
  -6   8   7 6304.22 464.080  10
  -6   8   7 5983.71 444.243   2
   6  -8  -6-10.5588 99.8391  11
   6  -8  -6 20.0840 95.5165   1
  -6   8   6-101.284 133.327   2
   6  -8  -5 2744.04 306.037  11
  -6   8   5 2635.44 293.221   2
  -6   8   4 19845.4 761.198   2
   6  -8  -4 21458.2 799.750  11
   6  -8  -3 326.741 121.439  11
  -6   8   3 386.499 138.280   2
   6  -8  -2 27448.3 848.724  11
  -6   8   2 26816.5 856.459   2
   6  -8  -2 29340.3 729.338   8
   6  -8  -1 747.854 153.450  11
  -6   8   1 811.763 174.684   2
   6  -8  -1 649.166 129.305   8
   6  -8   0 18419.8 679.666  11
  -6   8   0 18039.1 696.720   2
   6  -8   0 18020.9 562.683   8
  -6   8  -1 28404.7 923.886  12
   6  -8   1 28475.7 845.280  11
  -6   8  -1 28090.0 872.309   2
   6  -8   1 29639.9 729.519   8
  -6   8  -2 469.245 150.133  12
   6  -8   2 670.655 141.156   3
   6  -8   2 474.103 132.618  11
  -6   8  -2 584.825 139.678   2
   6  -8   2 604.447 116.886   8
   6  -8   3 23899.4 777.672   3
  -6   8  -3 23374.0 871.816  12
   6  -8   3 23167.9 781.378  11
  -6   8  -3 23525.6 784.843   2
   6  -8   3 23570.8 695.702   8
   6  -8   4 8753.83 478.247   3
  -6   8  -4 8929.92 551.111  12
   6  -8   4 8855.80 497.929  11
  -6   8  -4 7858.34 459.554   2
   6  -8   4 9117.55 458.356   8
  -6   8  -5 1877.98 276.157  12
   6  -8   5 1713.04 234.977   3
   6  -8   5 1881.64 242.050  11
   6  -8   5 2210.89 246.685   8
  -6   8  -5 2132.05 248.905   2
  -6   8  -6 8672.43 568.111  12
   6  -8   6 9444.94 547.029  11
   6  -8   6 8718.96 496.348   8
  -6   8  -6 7874.39 543.373   4
   6  -8   6 9083.20 508.543   3
   6  -8   7 1978.87 284.725  11
   6  -8   7 1719.70 237.888   3
  -6   8  -7 1459.80 267.024  12
   6  -8   7 1729.08 259.240   8
  -6   8  -7 1967.13 294.184   4
  -6   8  -8 4400.64 427.900  12
   6  -8   8 3999.51 381.251   8
  -6   8  -8 3841.16 404.710   4
   6  -8   8 4001.65 359.013   3
  -6   8  -9 297.020 167.960  12
   6  -8   9 157.664 111.403   8
  -6   8  -9 109.928 123.795   4
   6  -7 -11 8891.71 567.076   6
  -6   7  10 502.647 203.181   7
   6  -7 -10 1079.09 211.680   6
   6  -7 -10 759.266 206.559  11
  -6   7  10 715.261 188.927  10
   6  -7  -9 6578.92 446.623   6
   6  -7  -9 6078.69 504.194  11
  -6   7   9 5792.83 447.844  10
  -6   7   9 5738.59 424.509   2
   6  -7  -8-10.7289 105.032  11
  -6   7   8-6.85157 100.003  10
   6  -7  -8 18.2850 73.6818   1
  -6   7   8 61.3796 108.812   2
   6  -7  -7 656.553 172.641  11
  -6   7   7 386.050 150.306  10
   6  -7  -7 766.908 164.562   1
  -6   7   7 477.663 141.364   2
   6  -7  -6 168.555 106.411  11
   6  -7  -6 123.420 82.5333   1
  -6   7   6-1.77284 85.3163   2
   6  -7  -5 145.492 110.649  11
  -6   7   5 113.294 107.651   2
   6  -7  -4 60226.5 1244.21  11
  -6   7   4 57436.0 1228.24   2
   6  -7  -3 35681.3 925.486  11
  -6   7   3 35085.2 943.174   2
   6  -7  -3 34466.9 796.069   8
   6  -7  -2 2804.51 256.799  11
  -6   7   2 2929.45 276.955   2
   6  -7  -2 2914.38 228.391   8
   6  -7  -1 15319.8 579.886  11
  -6   7   1 14601.7 602.687   2
   6  -7  -1 15166.3 508.467   8
   6  -7   0 1022.41 164.637  11
  -6   7   0 925.896 161.414   2
   6  -7   0 738.275 126.410   8
  -6   7  -1 958.671 187.660  12
   6  -7   1 909.218 148.824   3
   6  -7   1 1034.20 170.263  11
  -6   7  -1 1141.18 189.806   2
   6  -7   1 1080.90 152.027   8
  -6   7  -2 340.715 113.597  12
   6  -7   2 391.696 103.856   3
   6  -7   2 578.702 128.180  11
  -6   7  -2 428.630 116.902   2
   6  -7   2 430.476 108.337   8
   6  -7   3 3943.19 300.480   3
  -6   7  -3 4345.58 369.371  12
   6  -7   3 3660.18 302.354  11
  -6   7  -3 4094.65 319.748   2
   6  -7   3 4262.29 308.133   8
   6  -7   4 10661.3 495.761   3
  -6   7  -4 10784.1 582.326  12
   6  -7   4 8690.91 474.349  11
  -6   7  -4 10374.8 508.403   2
   6  -7   4 9768.10 480.384   8
  -6   7  -5 9870.47 565.953  12
   6  -7   5 9001.90 500.757  11
  -6   7  -5 10104.6 497.672   2
   6  -7   5 10140.2 514.452   8
  -6   7  -5 9200.52 561.071   4
   6  -7   5 9916.61 485.026   3
  -6   7  -6 431.288 141.938  12
   6  -7   6 518.782 129.142   3
   6  -7   6 569.679 150.069   8
  -6   7  -6 464.505 172.216   4
  -6   7  -7 5341.07 448.817  12
   6  -7   7 5981.00 444.451   8
  -6   7  -7 5866.29 467.824   4
   6  -7   7 6401.26 415.120   3
  -6   7  -8 16.3159 114.571  12
   6  -7   8-108.175 121.098   3
   6  -7   8 142.580 124.969   8
  -6   7  -8 9.02565 101.733   4
  -6   7  -9 124.104 135.167  12
   6  -7   9-35.6436 124.082   8
  -6   7  -9 40.0163 139.677   4
  -6   7 -10 3984.31 406.716  12
   6  -6 -12 878.207 194.606   6
   6  -6 -11 6873.19 486.283   6
   6  -6 -11 7828.06 594.605  11
  -6   6  11 6777.52 503.471  10
  -6   6  11 6918.94 565.548   7
  -6   6  10 3149.06 376.698   7
   6  -6 -10 2358.88 273.963   6
   6  -6 -10 2675.01 335.920  11
  -6   6  10 3017.87 340.114  10
   6  -6  -9 2921.81 287.531   6
   6  -6  -9 2802.94 308.841   1
   6  -6  -9 2444.97 306.110  11
  -6   6   9 2566.59 302.207  10
  -6   6   9 3162.56 299.705   2
   6  -6  -8 24058.2 830.009   1
   6  -6  -8 25684.8 782.080   6
   6  -6  -8 22934.2 869.741  11
  -6   6   8 23786.1 848.801  10
  -6   6   8 25215.8 824.571   2
   6  -6  -7 2197.10 263.222  11
  -6   6   7 2111.87 257.298  10
   6  -6  -7 1956.56 241.731   1
  -6   6   7 2075.24 248.044   2
   6  -6  -6 16296.2 660.566  11
  -6   6   6 16230.0 649.087   2
   6  -6  -6 16204.9 643.028   1
   6  -6  -5 5730.83 379.635  11
  -6   6   5 6297.07 398.728   2
   6  -6  -4 3855.61 298.678  11
  -6   6   4 3717.58 309.658   2
   6  -6  -3 14569.9 550.060  11
  -6   6   3 15466.1 602.858   2
   6  -6  -3 15475.1 524.154   8
   6  -6  -2 3117.59 251.889  11
  -6   6   2 3433.67 285.528   2
   6  -6  -2 3318.17 241.511   8
   6  -6  -1 876.918 138.784  11
  -6   6   1 986.223 157.561   2
   6  -6  -1 997.740 141.073   8
   6  -6   0 9170.81 419.780  11
  -6   6   0 10264.3 480.388   2
   6  -6   0 9207.65 396.076   8
   6  -6   1 759.739 135.250   3
   6  -6   1 629.797 131.750  11
  -6   6  -1 775.248 158.448  12
  -6   6  -1 739.438 147.167   2
   6  -6   1 892.594 135.446   8
   6  -6   2 10482.5 443.758   3
  -6   6  -2 10457.1 530.102  12
   6  -6   2 10948.4 473.188  11
  -6   6  -2 11398.1 509.570   2
   6  -6   2 10968.2 464.670   8
   6  -6   3 572.792 134.557  11
  -6   6  -3 520.515 143.905  12
   6  -6   3 646.515 125.662   3
   6  -6   3 543.263 120.808   8
  -6   6  -3 596.197 124.709   2
  -6   6  -4 5357.68 397.032  12
   6  -6   4 5113.02 352.935  11
  -6   6  -4 5017.03 342.231   2
   6  -6   4 5287.25 359.428   8
  -6   6  -4 4845.94 393.822   4
   6  -6   4 5157.94 323.678   3
  -6   6  -5-6.94144 105.346  12
   6  -6   5 221.069 119.329   3
   6  -6   5 98.7227 114.021   8
  -6   6  -5-66.8236 105.899   4
  -6   6  -6 27891.8 931.806  12
   6  -6   6 27768.8 897.167   8
  -6   6  -6 28624.4 980.431   4
   6  -6   6 28690.5 800.308   3
  -6   6  -7 5642.89 444.085  12
   6  -6   7 5931.14 447.425   8
  -6   6  -7 5463.42 454.665   4
   6  -6   7 6448.27 393.324   3
  -6   6  -8 3120.10 332.186  12
   6  -6   8 3667.35 374.990   8
  -6   6  -8 3972.09 399.078   4
  -6   6  -9 5666.87 462.439  12
   6  -6   9 5635.09 481.858   8
  -6   6  -9 5452.06 476.801   4
  -6   6 -10-27.3290 121.579   4
   6  -5 -12 6952.51 499.790   6
   6  -5 -12 7717.58 590.566  11
  -6   5  12 7985.62 555.281  10
  -6   5  12 8497.27 620.345   7
  -6   5  11 1523.99 266.059   7
   6  -5 -11 1338.94 204.367   6
   6  -5 -11 1176.72 240.689  11
  -6   5  11 1319.57 237.651  10
   6  -5 -11 1653.08 247.834   1
  -6   5  10 2417.47 319.511   7
   6  -5 -10 2897.68 291.486   6
   6  -5 -10 2489.71 305.304  11
  -6   5  10 2544.00 304.009  10
  -6   5  10 2850.08 279.119   2
   6  -5 -10 2632.49 299.190   1
   6  -5  -9 3405.21 294.642   6
   6  -5  -9 3663.50 337.926   1
   6  -5  -9 4169.04 376.099  11
  -6   5   9 4043.53 362.335  10
  -6   5   9 4424.69 340.215   2
   6  -5  -8 9890.00 524.319   1
   6  -5  -8 11063.9 486.445   6
   6  -5  -8 10297.5 550.743  11
  -6   5   8 10629.7 557.689  10
  -6   5   8 11845.2 540.625   2
   6  -5  -7 140.705 83.4519   6
   6  -5  -7 161.956 85.0856  11
  -6   5   7 448.274 150.352  10
   6  -5  -7 131.448 91.3373   1
  -6   5   7 132.644 80.7084   2
   6  -5  -6 11533.3 519.863  11
  -6   5   6 11320.0 512.719   2
   6  -5  -6 11909.3 539.610   1
   6  -5  -5 4127.31 303.607  11
  -6   5   5 3939.43 303.141   2
   6  -5  -4 5603.22 329.640  11
  -6   5   4 4986.92 333.385   2
   6  -5  -4 5604.52 321.049   8
   6  -5  -3 18441.8 565.877  11
  -6   5   3 18549.4 630.708   2
   6  -5  -3 19051.6 571.144   8
   6  -5  -2 21.6127 60.2972  11
  -6   5   2-10.8648 76.3422   2
   6  -5  -1 11826.9 440.412  11
  -6   5   1 12762.7 522.119   2
   6  -5  -1 11975.3 440.186   8
   6  -5   0 23372.8 620.432  11
  -6   5   0 23087.3 696.989   2
   6  -5   0 23012.2 621.906   8
   6  -5   1 10743.2 414.036   3
  -6   5  -1 11419.5 514.989  12
   6  -5   1 9925.61 416.126  11
  -6   5  -1 10962.0 484.334   2
   6  -5   1 10672.9 439.419   8
   6  -5   2 30208.1 696.261   3
  -6   5  -2 31223.6 865.318  12
   6  -5   2 30758.5 750.438  11
  -6   5  -2 29080.1 792.318   2
   6  -5   2 30632.2 771.600   8
  -6   5  -3 306.690 114.481  12
   6  -5   3 343.313 103.010  11
   6  -5   3 268.164 84.2642   3
   6  -5   3 198.311 97.9775   8
  -6   5  -3 382.551 111.545   2
  -6   5  -3 354.817 121.948   4
  -6   5  -4 31208.5 905.075  12
   6  -5   4 31156.5 858.519   8
  -6   5  -4 29418.5 919.531   4
   6  -5   4 31428.4 737.433   3
   6  -5   5 99279.7 1623.39   8
  -6   5  -5 95346.5 1700.99   4
  -6   5  -5 95858.5 1613.10  12
   6  -5   5 98935.9 1353.74   3
  -6   5  -6 6238.21 430.745  12
   6  -5   6 5319.05 404.042   8
  -6   5  -6 5148.96 412.429   4
   6  -5   6 4983.20 320.732   3
  -6   5  -7-45.0452 93.9679  12
   6  -5   7-34.7835 106.496   8
  -6   5  -7-39.5025 112.723   4
  -6   5  -8 1548.19 235.460  12
   6  -5   8 1389.84 244.789   8
  -6   5  -8 1579.34 257.419   4
   6  -5   9 14091.6 749.035   8
  -6   5  -9 13222.1 723.512   4
  -6   5 -10 439.612 143.819   4
   6  -4 -13-49.4904 110.431   6
  -6   4  13-4.86982 143.703  10
  -6   4  12 2278.22 314.687   7
   6  -4 -12 1971.38 270.096   6
  -6   4  12 1877.04 286.912  10
   6  -4 -12 1961.87 280.367   1
  -6   4  11-103.580 130.043   7
   6  -4 -11 73.9030 120.283  11
   6  -4 -11-85.8149 119.039   6
  -6   4  11 56.5539 112.531  10
   6  -4 -11 78.9489 118.367   1
  -6   4  10 2583.38 321.397   7
   6  -4 -10 1977.10 238.546   6
   6  -4 -10 2360.05 298.050  11
  -6   4  10 2528.25 298.364  10
   6  -4 -10 2437.45 290.459   1
  -6   4  10 1993.31 222.741   2
   6  -4  -9 10616.1 556.654   1
   6  -4  -9 10078.1 543.433  11
  -6   4   9 10526.2 560.585  10
  -6   4   9 10130.4 485.394   2
   6  -4  -9 10707.4 491.686   6
  -6   4   9 11220.0 593.585   7
   6  -4  -8 426.318 107.137   6
   6  -4  -8 318.886 104.206  11
  -6   4   8 188.582 111.405  10
   6  -4  -8 420.193 129.646   1
  -6   4   8 320.738 114.827   2
   6  -4  -7 39577.9 983.669   1
   6  -4  -7 40842.4 810.169   6
   6  -4  -7 40191.3 955.273  11
  -6   4   7 39760.2 1003.99  10
  -6   4   7 40232.3 933.494   2
   6  -4  -6 112.726 64.0400   6
   6  -4  -6 295.542 115.479  11
   6  -4  -6 213.071 96.5364   1
  -6   4   6 283.617 108.114   2
   6  -4  -5 41569.3 863.852  11
  -6   4   5 39787.5 903.922   2
   6  -4  -4 7736.62 352.511  11
  -6   4   4 7079.94 183.598   5
  -6   4   4 7091.66 380.519   2
   6  -4  -4 7589.30 363.979   8
   6  -4  -3 21405.9 559.851  11
  -6   4   3 21171.6 652.779   2
   6  -4  -3 21750.6 348.641   9
   6  -4  -3 21751.4 595.135   8
   6  -4  -2 61541.9 923.465  11
  -6   4   2 57258.5 487.593   5
  -6   4   2 56059.9 1056.73   2
   6  -4  -2 60603.6 969.630   8
   6  -4  -1 23565.3 570.550  11
  -6   4   1 23301.2 681.958   2
   6  -4  -1 22065.3 590.950   8
   6  -4   0-3.62232 54.8762  11
   6  -4   0-47.0252 75.2400   8
  -6   4   0 64.3581 77.7544   2
   6  -4   1 40857.2 729.346   3
   6  -4   1 41765.2 796.872  11
  -6   4  -1 40333.0 905.552   2
   6  -4   1 41150.8 856.977   8
  -6   4  -2 122.870 85.6616  12
   6  -4   2-8.33008 57.4599  11
   6  -4   2 19.1935 56.6940   3
   6  -4   2-3.45882 71.2087   8
  -6   4  -2-111.242 96.9891   4
  -6   4  -2 71.2854 86.8382   2
   6  -4   3 418.166 91.3720   3
  -6   4  -3 476.235 124.806  12
   6  -4   3 317.522 109.544   8
  -6   4  -3 405.478 119.430   4
  -6   4  -4 14499.7 597.330  12
   6  -4   4 12842.0 561.652   8
  -6   4  -4 13006.3 610.267   4
   6  -4   4 14028.8 457.521   3
  -6   4  -5 43826.0 1048.77  12
   6  -4   5 43534.9 1080.34   8
   6  -4   5 43245.3 844.070   3
  -6   4  -6 11766.1 563.311  12
   6  -4   6 11881.4 603.889   8
  -6   4  -6 11375.5 612.595   4
  -6   4  -7 4625.63 367.740  12
   6  -4   7 5009.64 419.673   8
  -6   4  -7 4351.55 403.760   4
   6  -4   8 1518.44 261.775   8
  -6   4  -8 1443.48 247.273   4
   6  -4   9 973.553 233.615   8
  -6   4  -9 1107.80 230.254   4
  -6   4 -10 494.913 199.156   4
   6  -3 -14 13855.2 745.349   6
   6  -3 -14 13515.6 750.815   1
  -6   3  13 806.172 206.612   7
   6  -3 -13 853.866 203.321   1
   6  -3 -13 765.553 201.718   6
  -6   3  13 653.833 205.670  10
   6  -3 -12 11191.9 591.251   6
  -6   3  12 11446.1 646.045  10
   6  -3 -12 11369.7 636.540   1
  -6   3  12 11632.8 677.699   7
   6  -3 -11 13374.8 608.825   6
   6  -3 -11 13520.7 673.649  11
   6  -3 -11 14063.1 684.397   1
  -6   3  11 13228.3 663.712  10
  -6   3  11 13048.6 680.660   7
   6  -3 -10 5640.78 370.451   6
   6  -3 -10 6227.08 432.365  11
   6  -3 -10 5077.25 398.800   1
  -6   3  10 5456.47 417.178  10
  -6   3  10 5360.43 346.859   2
  -6   3  10 5222.53 415.791   7
  -6   3   9 2579.98 279.306   7
   6  -3  -9 2504.18 231.893   6
   6  -3  -9 2236.81 249.079  11
  -6   3   9 2255.05 272.167  10
  -6   3   9 2225.03 231.034   2
   6  -3  -9 2056.40 253.218   1
   6  -3  -8 5315.55 375.006   1
   6  -3  -8 5724.00 319.298   6
   6  -3  -8 5558.30 362.250  11
  -6   3   8 5006.70 370.502  10
  -6   3   8 5092.42 329.304   2
   6  -3  -7 88749.2 1439.35   1
   6  -3  -7 90075.2 1132.69   6
   6  -3  -7 90793.3 1338.23  11
  -6   3   7 89134.8 1457.54  10
  -6   3   7 89956.9 1349.93   2
   6  -3  -6 5655.30 254.666   6
   6  -3  -6 5816.95 320.262  11
  -6   3   6 5440.87 332.382   2
  -6   3   6 5401.20 356.711  10
   6  -3  -6 6164.95 374.072   1
   6  -3  -5 7600.80 255.636   6
   6  -3  -5 7861.74 347.277  11
  -6   3   5 7172.13 378.828   2
   6  -3  -5 7258.00 186.074   9
   6  -3  -5 7676.51 372.480   8
   6  -3  -4 21780.5 537.319  11
  -6   3   4 22106.4 394.050   5
  -6   3   4 22061.0 652.670   2
   6  -3  -4 22496.9 369.286   9
   6  -3  -4 22634.7 614.265   8
   6  -3  -3 1541.87 142.535  11
  -6   3   3 1665.55 108.904   5
   6  -3  -3 1596.97 114.179   9
   6  -3  -3 1532.69 163.936   8
  -6   3   3 1495.31 180.029   2
   6  -3  -2 11543.3 363.887  11
  -6   3   2 11583.0 295.550   5
  -6   3   2 11000.2 462.861   2
   6  -3  -2 10990.7 411.438   8
   6  -3  -1 645.776 93.0195  11
  -6   3   1 516.146 71.1012   5
   6  -3  -1 479.824 99.7808   8
  -6   3   1 420.409 106.331   2
   6  -3   0 5582.93 263.516  11
  -6   3   0 5890.25 250.092   5
  -6   3   0 5512.28 333.167   2
   6  -3   0 5629.14 314.789   8
  -6   3   0 5444.16 332.787   4
   6  -3   1 7839.50 287.352   3
   6  -3   1 7786.78 322.572  11
   6  -3   1 7899.25 379.425   8
  -6   3  -1 7467.48 409.917   4
   6  -3   2 3785.09 206.669   3
   6  -3   2 3892.62 285.090   8
  -6   3  -2 3531.34 295.226   4
  -6   3  -3 145.722 85.1698  12
   6  -3   3 67.0447 52.4788   3
   6  -3   3 46.1643 81.1396   8
  -6   3  -3 95.4611 86.6482   4
  -6   3  -4 4154.52 311.938  12
   6  -3   4 4439.48 332.773   8
  -6   3  -4 4094.73 344.772   4
   6  -3   4 4898.63 250.964   3
  -6   3  -5 3377.11 288.288  12
   6  -3   5 3094.17 301.549   8
  -6   3  -5 2586.20 286.421   4
  -6   3  -6 3235.19 285.279  12
   6  -3   6 2852.35 309.676   8
  -6   3  -6 2339.79 286.643   4
   6  -3   7 8177.63 533.750   8
  -6   3  -7 7805.07 528.284   4
  -6   3  -8 5098.38 449.358   4
   6  -3   8 4477.07 422.271   8
   6  -3   9 69.6232 148.733   8
  -6   3  -9-180.491 146.575   4
   6  -2 -14 9080.55 586.871   6
  -6   2  14 8887.39 627.765  10
   6  -2 -14 9492.59 632.228   1
  -6   2  13 2511.04 340.817   7
   6  -2 -13 2174.91 307.126   1
   6  -2 -13 2164.91 285.278   6
  -6   2  13 2347.15 317.613  10
  -6   2  12 579.296 168.903   7
   6  -2 -12 929.592 191.803   6
  -6   2  12 939.267 230.596  10
   6  -2 -12 741.599 180.632   1
   6  -2 -11 15838.3 641.269   6
   6  -2 -11 16054.3 719.631   1
  -6   2  11 17598.2 757.502  10
  -6   2  11 15775.4 721.323   7
   6  -2 -10 26586.6 768.713   6
   6  -2 -10 27493.7 857.322  11
   6  -2 -10 26772.9 890.333   1
  -6   2  10 26581.6 886.119  10
  -6   2  10 26228.6 733.821   2
  -6   2  10 26552.7 887.080   7
   6  -2  -9 7489.40 452.386   1
   6  -2  -9 8111.73 393.535   6
   6  -2  -9 8322.67 445.021  11
  -6   2   9 8262.24 478.325  10
  -6   2   9 8738.87 421.358   2
  -6   2   9 8124.44 466.499   7
   6  -2  -8 3174.37 290.793   1
   6  -2  -8 3254.92 230.232   6
   6  -2  -8 3242.11 260.413  11
  -6   2   8 3364.32 295.255  10
  -6   2   8 3280.58 256.628   2
  -6   2   8 3238.06 284.401   7
   6  -2  -7 181.004 77.4594   6
   6  -2  -7 17.6370 52.2384  11
  -6   2   7-25.9588 86.0376  10
   6  -2  -7 175.405 99.6623   1
  -6   2   7-91.0628 78.0192   2
   6  -2  -6 42156.4 633.305   6
   6  -2  -6 43012.8 792.311  11
  -6   2   6 42460.4 944.906  10
  -6   2   6 41177.1 884.247   2
   6  -2  -6 42339.6 547.843   9
   6  -2  -6 42761.6 947.512   1
   6  -2  -5 965.447 82.6617   6
   6  -2  -5 885.181 114.414  11
   6  -2  -5 981.225 90.9197   9
   6  -2  -5 1101.92 144.066   8
   6  -2  -4 36667.2 632.358  11
  -6   2   4 35612.7 566.041   5
   6  -2  -4 37689.7 552.544   9
  -6   2   4 36336.3 824.834   2
   6  -2  -4 36941.2 771.349   8
   6  -2  -3 297.398 64.1264  11
  -6   2   3 308.667 57.6229   5
   6  -2  -3 340.962 67.4468   9
   6  -2  -3 173.640 70.5057   8
  -6   2   3 137.768 78.0814   2
   6  -2  -2 8419.30 277.178  11
  -6   2   2 8251.65 288.863   5
  -6   2   2 8227.66 394.874   2
   6  -2  -2 8356.82 356.548   8
   6  -2  -1 48.5172 50.5910  11
  -6   2   1 58.6632 41.3696   5
   6  -2  -1 166.707 80.1931   8
  -6   2   1-1.26948 85.0389   4
   6  -2   0 1374.83 125.867  11
  -6   2   0 1403.16 139.080   5
   6  -2   0 1294.67 156.349   8
   6  -2   1 195.850 47.9536   3
  -6   2  -1 95.4918 59.3830   5
   6  -2   1 227.053 77.2681   8
  -6   2  -1 165.287 89.3228   4
   6  -2   2 4115.72 185.043   3
  -6   2  -2 4209.78 275.332   5
   6  -2   2 4186.31 295.932   8
  -6   2  -2 3496.09 296.463   4
   6  -2   3 25505.7 750.540   8
  -6   2  -3 26297.8 823.515   4
   6  -2   4 14358.8 595.876   8
  -6   2  -4 14423.3 640.953   4
   6  -2   5 939.199 185.702   8
  -6   2  -5 1513.75 231.488   4
   6  -2   6 50021.6 1240.90   8
  -6   2  -6 46143.4 1236.26   4
  -6   2  -7 3499.87 318.651   6
   6  -2   7 2729.25 317.087   8
  -6   2  -7 3014.79 341.093   4
   6  -2   8-61.9869 139.756   8
  -6   2  -8 21.8192 102.117   4
  -6   2  -9 31.4040 112.043   4
   6  -1 -15 1414.45 269.701   6
   6  -1 -15 1169.69 240.521   1
  -6   1  14 291.799 165.288   7
   6  -1 -14 288.986 158.240   1
   6  -1 -14 62.8687 118.062   6
  -6   1  14 110.289 128.718  10
  -6   1  13 90.1082 139.011   7
   6  -1 -13 49.8839 113.031   1
   6  -1 -13 209.847 119.243   6
  -6   1  13 287.903 167.615  10
   6  -1 -12 12496.6 599.450   6
  -6   1  12 12183.6 654.986  10
   6  -1 -12 11824.3 638.522   1
  -6   1  12 11465.0 629.038   7
   6  -1 -11 2918.94 286.342   6
   6  -1 -11 3475.48 340.735   1
  -6   1  11 3187.81 332.182  10
  -6   1  11 3189.42 325.781   7
  -6   1  10 2112.80 247.493   7
   6  -1 -10 2322.55 232.246   6
  -6   1  10 2082.86 271.475  10
   6  -1 -10 1840.24 241.856   1
   6  -1  -9 5802.69 398.667   1
   6  -1  -9 6088.15 332.995   6
   6  -1  -9 6028.90 355.917  11
  -6   1   9 5593.28 392.369  10
  -6   1   9 5578.02 378.348   7
   6  -1  -8 10223.9 425.270  11
   6  -1  -8 9617.31 377.884   6
  -6   1   8 10208.5 497.490  10
   6  -1  -8 9817.17 491.487   1
  -6   1   8 9928.82 462.584   7
  -6   1   7 502.111 112.370   7
   6  -1  -7 283.698 72.1328   6
   6  -1  -7 625.402 111.262  11
  -6   1   7 386.101 115.921  10
   6  -1  -7 611.684 140.039   1
   6  -1  -7 469.960 75.0463   9
   6  -1  -6 23383.3 686.739   1
   6  -1  -6 23073.1 531.843  11
   6  -1  -6 22741.0 428.758   6
  -6   1   6 22919.2 676.435  10
   6  -1  -6 22383.7 466.085   9
  -6   1   6 22785.3 600.720   7
   6  -1  -5 78907.8 606.903   6
  -6   1   5 80813.1 1211.71  10
   6  -1  -5 81536.3 879.165   9
   6  -1  -5 79891.9 1154.99   8
   6  -1  -5 81192.9 1234.08   1
   6  -1  -4 11557.4 310.002  11
  -6   1   4 11725.9 359.002   5
   6  -1  -4 11348.7 337.840   9
   6  -1  -4 11651.1 428.451   8
  -6   1   4 11758.8 391.499   4
   6  -1  -3 5417.90 196.956  11
  -6   1   3 5248.83 244.514   5
   6  -1  -3 5186.43 241.091   9
   6  -1  -3 5385.61 286.409   8
  -6   1   3 5537.87 288.703   4
   6  -1  -2 40.7435 37.3145  11
   6  -1  -2 89.1705 47.2323   9
  -6   1   2 4.87895 49.4709   5
   6  -1  -2 0.20769 58.8428   8
   6  -1  -1 105439. 889.936  11
  -6   1   1 104309. 1184.60   5
   6  -1  -1 106159. 1272.53   8
  -6   1   1 107036. 1374.83   4
  -6   1   0 5271.54 151.085   6
  -6   1   0 5658.92 296.554   5
   6  -1   0 5572.00 307.337   8
  -6   1   0 6111.80 351.592   4
  -6   1  -1 4833.66 195.432   6
  -6   1  -1 4764.63 289.681   5
   6  -1   1 4872.97 303.394   8
  -6   1  -1 4650.51 321.499   4
  -6   1  -2 105418. 1067.22   6
  -6   1  -2 101683. 1404.43   5
   6  -1   2 100452. 1420.43   8
  -6   1  -2 103853. 1580.48   4
  -6   1  -3 900.999 122.927   6
   6  -1   3 747.128 153.314   8
  -6   1  -3 932.020 181.645   4
  -6   1  -4 140.814 80.0311   6
   6  -1   4 9.30990 89.6156   8
  -6   1  -4 71.0843 83.2661   4
  -6   1  -5 9395.24 447.037   6
  -6   1  -5 9414.97 553.862   4
   6  -1   5 9534.20 524.534   8
  -6   1  -6 3551.07 360.751   4
   6  -1   6 3213.21 327.428   8
  -6   1  -7 46553.9 1149.81   6
  -6   1  -7 43570.5 1262.09   4
   6  -1   7 46556.6 1271.98   8
   6  -1   8 346.942 155.174   8
  -6   1  -8 398.790 190.992   4
  -6   1  -9-15.5713 135.731   4
   6   0 -15 155.126 115.849   6
   6   0 -15 288.244 141.175   1
  -6   0  14 2249.48 325.433   7
   6   0 -14 2941.99 360.052   1
   6   0 -14 2430.13 307.071   6
  -6   0  14 2506.25 345.773  10
   6   0 -13 13070.3 648.079   6
  -6   0  13 13309.0 719.113  10
   6   0 -13 14306.5 734.086   1
  -6   0  13 14966.0 742.676   7
  -6   0  12 5739.07 450.385  10
   6   0 -12 6138.87 462.816   1
  -6   0  12 5809.28 444.857   7
  -6   0  11 1651.44 236.928   7
  -6   0  11 1413.69 226.959  10
   6   0 -11 1722.01 248.674   1
  -6   0  10 310.577 135.353   7
  -6   0  10 214.241 101.971  10
   6   0 -10 225.821 112.507   1
  -6   0   9 853.894 148.790   7
  -6   0   9 1202.24 204.172  10
   6   0  -9 919.855 178.729   1
  -6   0   8 676.845 142.316   7
  -6   0   8 792.247 168.255  10
   6   0  -8 562.081 139.720   1
  -6   0   7 145.365 63.5381   7
   6   0  -7 307.578 75.3555  11
  -6   0   7 272.557 106.238  10
   6   0  -7 403.007 114.410   1
   6   0  -7 391.696 79.2606   9
  -6   0   7 510.026 68.8242   4
   6   0  -6 15794.6 560.345   1
   6   0  -6 15327.8 386.327  11
  -6   0   6 15152.8 538.638  10
   6   0  -6 15087.8 421.676   9
  -6   0   6 15466.8 381.417   4
  -6   0   6 15117.7 459.756   7
   6   0  -5 86184.7 788.741  11
   6   0  -5 79218.1 570.198   6
  -6   0   5 82376.7 1186.23  10
  -6   0   5 81014.4 1021.53   5
   6   0  -5 85340.9 986.953   9
  -6   0   5 83009.3 954.389   4
   6   0  -5 83389.6 1167.04   8
  -6   0   5 82524.6 965.067   7
   6   0  -5 82756.9 1220.91   1
   6   0  -4 36495.3 441.198  11
  -6   0   4 36714.3 760.467  10
  -6   0   4 35370.6 674.478   5
   6   0  -4 35580.6 648.288   9
  -6   0   4 36016.9 674.685   4
   6   0  -4 35292.6 734.623   8
  -6   0   4 35621.6 563.080   7
   6   0  -3 15437.0 258.195  11
  -6   0   3 14866.5 445.676   5
   6   0  -3 15382.4 441.918   9
  -6   0   3 15250.1 471.747   4
   6   0  -3 15411.5 474.117   8
   6   0  -2 35110.1 393.884  11
  -6   0   2 34269.2 700.519   5
   6   0  -2 34885.0 693.568   9
  -6   0   2 35896.0 764.195   4
   6   0  -2 34394.0 710.357   8
   6   0  -1 2789.58 128.335  11
  -6   0   1 2753.91 210.885   5
  -6   0   1 3094.99 250.847   4
   6   0  -1 2737.23 212.522   8
  -6   0   1 2539.36 94.2584   7
  -6   0   0 175.593 40.7341   6
  -6   0   0 212.807 80.8274   5
   6   0   0 141.393 63.5268   8
  -6   0   0 173.565 87.9187   4
  -6   0  -1 1096.30 104.424   6
  -6   0  -1 742.562 132.554   5
   6   0   1 997.768 142.761   8
  -6   0  -1 1217.33 177.542   4
  -6   0  -2 49.3361 50.8916   6
  -6   0  -2-48.0438 72.3607   5
  -6   0  -2 12.9136 81.2943   4
  -6   0  -3 8343.94 354.467   6
  -6   0  -3 7803.98 438.657   5
  -6   0  -3 8049.71 473.703   4
   6   0   3 7761.32 428.867   8
  -6   0  -4 262.752 81.7282   6
   6   0   4 546.231 152.783   8
  -6   0  -4 356.696 117.255   4
  -6   0  -5 1328.50 180.863   6
   6   0   5 1502.74 218.026   8
  -6   0  -5 1267.92 212.670   4
  -6   0  -6 5887.99 390.197   6
  -6   0  -6 5241.60 440.687   4
   6   0   6 6131.41 442.573   8
  -6   0  -7 15123.1 765.174   4
   6   0   7 16169.8 757.588   8
   6   0   8-96.5948 135.786   8
  -6   0  -8 95.6808 113.127   4
  -6  -1  15 1268.04 264.414   7
   6   1 -15 809.163 204.521   6
   6   1 -15 1073.96 230.182   1
  -6  -1  15 1059.67 247.815  10
  -6  -1  14 10553.7 669.505  10
   6   1 -14 11583.2 688.266   1
  -6  -1  14 11423.7 674.110   7
   6   1 -13 3598.39 370.455   1
  -6  -1  13 3114.88 368.065  10
  -6  -1  13 3428.68 363.336   7
  -6  -1  12 19709.5 819.988  10
  -6  -1  12 18856.7 767.635   7
  -6  -1  11 1235.39 223.824  10
  -6  -1  11 1196.87 203.994   7
   6   1 -11 1576.06 229.709   1
   6   1 -10 63828.0 1338.66   1
  -6  -1  10 64385.6 1337.47  10
  -6  -1  10 64618.9 1237.83   7
  -6  -1   9 1508.40 184.153   7
  -6  -1   9 1152.03 181.708  10
   6   1  -9 1474.09 209.265   1
  -6  -1   8 202.383 78.3179   7
  -6  -1   8 137.292 109.520  10
   6   1  -8 227.255 71.9524   9
   6   1  -8 241.919 94.3719   1
   6   1  -7 36995.6 883.887   1
  -6  -1   7 38039.7 878.990  10
   6   1  -7 36387.6 712.026   9
  -6  -1   7 37812.5 506.971   4
  -6  -1   7 37664.8 749.459   7
   6   1  -6 10056.4 443.623   1
  -6  -1   6 9551.22 422.061  10
   6   1  -6 10239.5 373.811   9
  -6  -1   6 10110.1 305.816   4
   6   1  -6 10084.2 418.205   8
  -6  -1   6 10083.4 352.747   7
   6   1  -5 9391.18 408.439   1
  -6  -1   5 8987.83 171.339  11
  -6  -1   5 9905.99 405.910  10
  -6  -1   5 9220.32 371.497   5
   6   1  -5 9469.18 357.790   9
  -6  -1   5 9032.47 320.352   4
   6   1  -5 9969.91 403.762   8
  -6  -1   5 9672.91 303.111   7
  -6  -1   4 15126.8 473.357  10
  -6  -1   4 15092.1 475.692   5
   6   1  -4 14856.3 451.187   9
  -6  -1   4 14485.3 438.779   4
   6   1  -4 14935.9 474.114   8
  -6  -1   4 15126.5 314.458   7
   6   1  -4 14893.5 491.538   1
  -6  -1   3 8234.42 178.457   3
  -6  -1   3 9372.35 354.093  10
  -6  -1   3 8913.72 373.416   5
   6   1  -3 8691.51 354.793   9
  -6  -1   3 9161.40 374.674   4
   6   1  -3 8793.22 357.579   8
  -6  -1   3 8578.58 167.432   7
  -6  -1   2 22.7263 56.2697   5
   6   1  -2-2.46578 64.0011   9
   6   1  -2 161.116 78.4608   8
  -6  -1   2 67.5244 75.9411   4
  -6  -1   1 2903.17 234.461   5
   6   1  -1 2703.90 218.068   9
  -6  -1   1 2538.81 228.134   4
   6   1  -1 3092.54 223.795   8
  -6  -1   0 12106.5 302.525   6
  -6  -1   0 10654.2 461.733   5
  -6  -1   0 11615.2 502.095   4
   6   1   0 11440.5 437.622   8
  -6  -1  -1 3195.14 183.156   6
  -6  -1  -1 2966.82 259.271   5
  -6  -1  -1 3403.93 290.990   4
   6   1   1 3084.79 244.518   8
  -6  -1  -2 4035.81 234.829   6
  -6  -1  -2 3584.30 300.358   5
  -6  -1  -2 3891.44 326.300   4
   6   1   2 4148.74 299.383   8
  -6  -1  -3 23646.1 623.288   6
  -6  -1  -3 23503.7 789.024   5
  -6  -1  -3 23101.0 823.665   4
   6   1   3 24338.1 746.714   8
  -6  -1  -4 8484.34 411.195   6
  -6  -1  -4 8930.71 534.844   4
   6   1   4 9113.20 491.977   8
  -6  -1  -5 12310.7 535.267   6
  -6  -1  -5 11642.8 635.879   4
   6   1   5 13385.7 623.995   8
  -6  -1  -6 917.507 175.816   6
   6   1   6 817.608 183.960   8
  -6  -1  -6 1060.72 217.809   4
  -6  -1  -7 1693.68 275.933   4
   6   1   7 2086.97 285.560   8
  -6  -1  -8 19219.6 906.859   4
  -6  -2  15 81.5191 130.242   7
   6   2 -15-174.943 157.975   1
  -6  -2  15-177.406 165.975  10
  -6  -2  14 33502.0 1174.24  10
   6   2 -14 32425.6 1147.80   1
  -6  -2  14 34172.5 1131.48   7
  -6  -2  13 4882.03 438.650  10
   6   2 -13 5351.56 453.230   1
  -6  -2  13 4518.66 396.808   7
  -6  -2  12 1906.92 261.433   7
   6   2 -12 2013.19 270.049   1
  -6  -2  12 1972.28 278.435  10
   6   2 -11 289.684 136.981   1
  -6  -2  11 83.0761 100.944   7
  -6  -2  11 99.4651 105.979  10
  -6  -2  10 558.176 132.303   7
  -6  -2  10 508.749 149.460  10
   6   2 -10 275.731 105.522   1
  -6  -2   9 614.199 130.836   7
  -6  -2   9 566.356 146.944  10
   6   2  -9 657.384 119.788   9
   6   2  -9 694.190 154.851   1
   6   2  -8 16663.3 622.846   1
  -6  -2   8 17605.0 626.022  10
   6   2  -8 18448.3 556.332   9
  -6  -2   8 16545.3 531.291   7
   6   2  -7 3844.44 295.535   1
  -6  -2   7 3769.18 281.731  10
   6   2  -7 4043.18 258.326   9
  -6  -2   7 4015.54 169.376   4
  -6  -2   7 4215.82 248.161   7
  -6  -2   6 210.817 70.1168   7
  -6  -2   6 64.1939 68.8969  10
   6   2  -6 213.465 80.4103   9
   6   2  -6 204.224 82.7001   1
  -6  -2   6 145.499 52.4296   4
   6   2  -6 100.893 79.4709   8
   6   2  -5 9506.51 406.660   1
  -6  -2   5 9242.13 384.774  10
  -6  -2   5 9382.12 398.340   5
   6   2  -5 9745.99 389.117   9
  -6  -2   5 9570.39 340.884   4
   6   2  -5 10063.4 397.884   8
  -6  -2   5 9422.48 273.355   7
  -6  -2   4 51068.8 470.536   7
   6   2  -4 53752.8 911.146   1
  -6  -2   4 53351.0 860.334  10
  -6  -2   4 53926.6 957.132   5
   6   2  -4 53251.2 904.585   9
  -6  -2   4 52441.1 860.073   4
   6   2  -4 53182.4 881.587   8
  -6  -2   3 962.578 123.325  10
   6   2  -3 872.388 120.050   1
  -6  -2   3 753.786 123.491   5
   6   2  -3 948.129 137.998   9
  -6  -2   3 952.794 133.444   4
   6   2  -3 971.559 129.496   8
  -6  -2   2 14844.1 394.286  10
  -6  -2   2 14079.7 519.124   5
   6   2  -2 14121.2 491.232   9
  -6  -2   2 15137.3 528.620   4
   6   2  -2 14734.1 462.978   8
  -6  -2   1 5304.94 219.831  10
  -6  -2   1 5742.06 347.196   5
   6   2  -1 5024.01 307.379   9
  -6  -2   1 4871.14 321.880   4
   6   2  -1 4544.14 269.994   8
  -6  -2   0 35742.5 889.402   5
   6   2   0 35300.8 832.547   9
  -6  -2   0 33823.6 885.693   4
   6   2   0 35389.4 766.731   8
  -6  -2  -1 27718.5 583.110   6
  -6  -2  -1 25795.8 795.064   5
  -6  -2  -1 27303.8 831.444   4
   6   2   1 28094.9 721.009   8
  -6  -2  -2 651.432 97.1513   6
  -6  -2  -2 608.448 138.903   5
   6   2   2 655.305 138.377   8
  -6  -2  -2 784.416 165.209   4
  -6  -2  -3 14817.0 521.481   6
  -6  -2  -3 13723.6 638.189   5
  -6  -2  -3 14604.7 672.391   4
   6   2   3 14749.5 587.200   8
  -6  -2  -4 22042.7 686.871   6
  -6  -2  -4 20842.2 822.271   5
  -6  -2  -4 19738.6 815.661   4
   6   2   4 20026.2 721.380   8
  -6  -2  -5 229.269 110.299   6
  -6  -2  -5 446.257 174.022   4
   6   2   5 457.320 149.766   8
  -6  -2  -6-73.2692 141.599   4
   6   2   6-62.2632 116.154   8
  -6  -2  -7 1382.26 252.069   4
   6   2   7 1249.41 232.987   8
  -6  -3  15 379.844 181.827   7
   6   3 -15 493.543 183.352   1
  -6  -3  15 141.406 161.637  10
  -6  -3  14 503.968 173.837   7
   6   3 -14 947.348 219.302   1
  -6  -3  14 695.956 216.205  10
   6   3 -13 1462.70 253.632   1
  -6  -3  13 1580.43 266.531  10
  -6  -3  13 1820.57 259.240   7
  -6  -3  12 350.348 154.512   7
   6   3 -12 298.911 122.941   1
  -6  -3  12 310.968 130.307  10
  -6  -3  11 33840.5 1021.13  10
   6   3 -11 33650.8 1018.12   1
  -6  -3  11 33845.8 929.014   7
  -6  -3  10 8093.13 481.312  10
   6   3 -10 8126.91 481.975   1
  -6  -3  10 8067.28 426.426   7
   6   3  -9 13723.5 592.422   1
  -6  -3   9 13731.5 588.704  10
   6   3  -9 13943.1 518.033   9
  -6  -3   9 14183.7 520.447   7
   6   3  -8 34387.2 891.783   1
  -6  -3   8 32910.6 859.570  10
   6   3  -8 34160.8 796.445   9
  -6  -3   8 33073.1 727.296   7
   6   3  -7 4588.10 311.990   1
  -6  -3   7 4600.35 306.792  10
   6   3  -7 4144.62 277.027   9
  -6  -3   7 4142.42 238.617   7
  -6  -3   6 1849.52 141.113   7
  -6  -3   6 1545.70 180.460  10
  -6  -3   6 1357.74 172.171   5
  -6  -3   6 1668.67 141.701   4
   6   3  -6 1586.44 174.790   9
   6   3  -6 1561.77 180.464   1
   6   3  -5 1809.80 180.426   1
  -6  -3   5 2197.74 197.065  10
   6   3  -5 1946.55 193.895   9
  -6  -3   5 1698.96 186.775   5
  -6  -3   5 1677.63 158.449   4
   6   3  -5 1734.83 169.571   8
   6   3  -4 53439.7 895.906   1
  -6  -3   4 53278.9 839.334  10
  -6  -3   4 51264.7 999.775   5
   6   3  -4 53639.0 971.426   9
  -6  -3   4 54282.3 921.739   4
   6   3  -4 55739.4 901.917   8
   6   3  -3 135250. 1342.91   1
  -6  -3   3 135219. 1217.62  10
  -6  -3   3 130994. 1629.69   5
   6   3  -3 131847. 1531.76   9
  -6  -3   3 132929. 1537.32   4
   6   3  -3 134809. 1373.92   8
  -6  -3   2 666.463 83.0540  10
   6   3  -2 617.982 99.6110   1
  -6  -3   2 640.173 135.996   5
   6   3  -2 568.963 118.744   9
  -6  -3   2 756.941 137.865   4
   6   3  -2 702.511 112.161   8
  -6  -3   1 29373.3 822.408   5
   6   3  -1 27072.1 738.623   9
  -6  -3   1 28097.1 800.103   4
   6   3  -1 27306.3 645.047   8
   6   3  -1 28379.4 558.503   1
  -6  -3   0 3934.55 316.197   5
   6   3   0 4264.41 308.430   9
  -6  -3   0 3967.58 323.236   4
   6   3   0 4386.73 277.185   8
  -6  -3  -1 16767.6 674.550   5
   6   3   1 16078.8 612.599   9
  -6  -3  -1 16252.5 671.644   4
   6   3   1 16395.7 554.078   8
  -6  -3  -2 3779.44 259.040   6
  -6  -3  -2 4153.03 356.216   5
  -6  -3  -2 4526.06 376.824   4
   6   3   2 4243.22 300.967   8
  -6  -3  -3 142.575 88.1658   6
  -6  -3  -3 163.955 94.0515   5
  -6  -3  -3 58.3648 104.674   4
   6   3   3 123.535 80.4133   8
  -6  -3  -4 17891.0 646.027   6
  -6  -3  -4 16355.6 770.441   5
  -6  -3  -4 15979.1 759.082   4
   6   3   4 18113.0 686.756   8
  -6  -3  -5 1676.40 265.548   4
   6   3   5 1885.95 247.824   8
  -6  -3  -6 525.963 162.379   4
   6   3   6 353.761 134.956   8
   6   3   7 4438.30 405.421   8
  -6  -4  15 17681.9 909.069  10
   6   4 -15 17326.6 884.494   1
  -6  -4  15 17337.4 836.008   7
  -6  -4  14 350.864 148.992   7
   6   4 -14 411.307 167.941   1
  -6  -4  14 45.7711 132.108  10
  -6  -4  13 7836.52 556.994  10
   6   4 -13 7930.70 548.147   1
  -6  -4  13 7275.98 494.596   7
  -6  -4  12 777.877 165.874   7
   6   4 -12 1005.19 203.447   1
  -6  -4  12 872.547 221.981  10
  -6  -4  11 4347.85 380.331  10
   6   4 -11 4327.08 369.957   1
  -6  -4  11 3656.16 314.058   7
  -6  -4  10 2069.46 226.324   7
   6   4 -10 1789.97 235.720   1
  -6  -4  10 1994.30 252.690  10
  -6  -4   9 22618.3 759.087  10
   6   4  -9 22816.2 761.694   1
   6   4  -9 24378.3 725.599   9
  -6  -4   9 23006.1 657.652   7
  -6  -4   8 13760.6 470.057   7
   6   4  -8 13322.5 550.678   1
  -6  -4   8 14087.2 564.774  10
   6   4  -8 13800.1 544.273   9
   6   4  -7 27574.0 752.071   1
  -6  -4   7 29676.2 767.089  10
   6   4  -7 29540.2 773.281   9
  -6  -4   6 970.188 145.110  10
  -6  -4   6 717.450 143.384   5
   6   4  -6 755.000 135.086   9
   6   4  -6 759.422 132.546   1
   6   4  -5 19753.7 568.271   1
  -6  -4   5 19730.9 545.393  10
  -6  -4   5 18787.5 633.710   5
   6   4  -5 20166.6 623.150   9
  -6  -4   5 19897.3 555.817   4
   6   4  -5 19316.3 541.380   8
   6   4  -4 23327.7 577.089   1
  -6  -4   4 23087.5 539.088  10
  -6  -4   4 22472.6 702.330   5
   6   4  -4 22747.4 670.267   9
  -6  -4   4 23203.8 638.408   4
   6   4  -4 23661.2 583.859   8
   6   4  -3 6484.29 288.988   1
  -6  -4   3 6431.51 253.919  10
  -6  -4   3 6495.96 389.205   5
   6   4  -3 6627.20 366.040   9
  -6  -4   3 6385.36 361.360   4
   6   4  -3 6361.10 301.943   8
  -6  -4   2 32026.3 889.945   5
   6   4  -2 32173.2 817.885   9
  -6  -4   2 30409.2 823.988   4
   6   4  -2 31736.3 674.923   8
  -6  -4   1-30.7497 95.9921   5
   6   4  -1 93.5617 80.3681   9
  -6  -4   1 254.698 120.173   4
   6   4  -1-9.45159 54.6025   8
  -6  -4   0 2716.54 285.627   5
   6   4   0 2164.16 230.533   9
  -6  -4   0 2780.24 281.234   4
   6   4   0 2568.01 210.574   8
  -6  -4  -1 205.223 99.6781   5
   6   4   1 196.905 92.2285   9
  -6  -4  -1 60.8648 110.533   4
   6   4   1 268.221 94.2517   8
  -6  -4  -2 2439.74 293.520   5
   6   4   2 2955.78 285.563   9
   6   4   2 2727.49 240.777   8
  -6  -4  -2 2568.84 303.601   4
  -6  -4  -3 3061.41 267.305   6
  -6  -4  -3 2424.24 296.561   5
   6   4   3 2408.29 273.664   9
   6   4   3 2856.69 260.248   8
  -6  -4  -3 2921.38 332.245   4
  -6  -4  -4 3168.61 298.973   6
  -6  -4  -4 3106.05 351.900   5
   6   4   4 2847.27 306.146   9
   6   4   4 3065.02 290.414   8
  -6  -4  -4 3060.32 357.899   4
   6   4   5 492.651 163.823   9
  -6  -4  -5 542.965 183.708   4
  -6  -5  15 13528.0 739.838   7
  -6  -5  15 13407.7 805.387  10
  -6  -5  14 159.115 146.729   7
  -6  -5  14-16.0281 129.972  10
   6   5 -14 16.0545 152.007   1
  -6  -5  13 5296.49 420.840   7
  -6  -5  13 5402.78 470.781  10
   6   5 -13 5017.56 439.968   1
  -6  -5  12 20782.6 779.108   7
  -6  -5  12 20381.4 852.878  10
   6   5 -12 20390.5 840.293   1
  -6  -5  11 8229.02 462.680   7
  -6  -5  11 8264.08 522.206  10
   6   5 -11 8688.96 525.725   1
  -6  -5  10 1072.01 168.608   7
   6   5 -10 977.292 175.191   1
  -6  -5  10 1003.95 197.806  10
   6   5 -10 1487.99 207.205   9
   6   5  -9 1402.19 198.221   1
  -6  -5   9 1253.17 197.506  10
   6   5  -9 1482.68 198.955   9
  -6  -5   8 4780.07 341.430  10
   6   5  -8 5077.46 344.060   1
   6   5  -8 5420.89 353.572   9
   6   5  -7 1669.96 193.028   1
  -6  -5   7 1632.75 192.326  10
   6   5  -7 1969.54 223.916   9
  -6  -5   7 1606.19 200.143   5
   6   5  -6 615.381 114.525   1
  -6  -5   6 854.157 132.046  10
  -6  -5   6 766.112 146.886   5
   6   5  -6 1006.31 165.599   9
   6   5  -5 5504.70 297.494   1
  -6  -5   5 6183.65 307.138  10
  -6  -5   5 5430.27 368.664   5
   6   5  -5 5548.26 349.895   9
   6   5  -5 6247.23 305.293   8
  -6  -5   4-65.2287 87.6074   5
   6   5  -4 17.1893 75.4098   9
   6   5  -4-64.3258 61.9281   8
   6   5  -4 87.1114 55.1378   1
  -6  -5   3 2636.60 268.224   5
   6   5  -3 2693.77 251.727   9
   6   5  -3 2858.38 204.315   8
  -6  -5   2 9128.23 503.734   5
   6   5  -2 9883.18 480.420   9
  -6  -5   2 8828.54 476.514   4
   6   5  -2 8775.49 352.802   8
  -6  -5   1 14820.5 658.823   5
   6   5  -1 14718.0 600.493   9
  -6  -5   1 13570.7 614.251   4
   6   5  -1 14392.2 462.178   8
  -6  -5   0 3602.39 341.908   5
   6   5   0 3613.48 312.731   9
  -6  -5   0 3517.68 334.143   4
   6   5   0 3564.26 247.516   8
  -6  -5  -1 1488.72 243.238   5
  -6  -5  -1 1099.00 214.559   4
   6   5   1 1314.52 203.422   9
  -6  -5  -2 11246.5 637.965   5
   6   5   2 11593.7 583.757   9
  -6  -5  -2 11948.0 661.230   4
  -6  -5  -3 3294.00 372.339   5
   6   5   3 3222.80 328.109   9
  -6  -5  -4 15961.4 819.799   5
   6   5   4 14872.3 705.106   9
   6   5   5 22437.2 887.866   9
  -6  -6  14 8167.21 610.061  10
   6   6 -14 8987.16 616.682   1
  -6  -6  13 640.333 200.656  10
   6   6 -13 330.121 150.507   1
   6   6 -12 1281.32 226.979   1
  -6  -6  12 1043.50 224.818  10
  -6  -6  11 3029.24 332.965  10
   6   6 -11 2813.86 313.488   1
  -6  -6  10 5533.22 409.071  10
   6   6 -10 5150.14 391.505   1
   6   6 -10 5830.11 401.653   9
   6   6  -9 415.655 120.085   1
  -6  -6   9 485.634 144.143  10
   6   6  -9 568.231 148.698   9
   6   6  -8 904.411 167.280   1
  -6  -6   8 1020.62 169.352  10
  -6  -6   8 775.769 147.353   5
   6   6  -8 1178.95 184.338   9
  -6  -6   7 20547.3 658.043  10
   6   6  -7 21108.9 654.023   1
  -6  -6   7 19836.9 732.196   5
   6   6  -7 19908.1 700.222   9
  -6  -6   6 5866.04 328.007  10
   6   6  -6 5203.08 305.627   1
  -6  -6   6 4997.10 369.298   5
   6   6  -6 5442.80 368.603   9
  -6  -6   5 18555.7 710.985   5
   6   6  -5 17641.4 652.239   9
  -6  -6   4 1112.14 190.598   5
   6   6  -4 1146.91 187.925   9
  -6  -6   3 17370.9 717.795   5
   6   6  -3 16948.3 650.955   9
  -6  -6   2 21730.7 819.224   5
   6   6  -2 22533.6 758.215   9
  -6  -6   1 38.8017 108.923   5
   6   6  -1 48.8891 89.6865   9
  -6  -6   0 13884.5 700.727   5
   6   6   0 13505.5 621.481   9
  -6  -6  -1 17140.7 798.405   5
   6   6   1 16826.1 703.773   9
  -6  -6  -2 282.296 145.637   5
   6   6   2 381.119 140.954   9
  -6  -6  -3 809.845 206.288   5
   6   6   3 705.081 171.728   9
   6   6   4 8888.97 562.124   9
  -6  -7  14 11348.8 734.918  10
   6   7 -14 10778.4 683.916   1
  -6  -7  13 2502.99 334.252  10
   6   7 -13 2866.96 343.703   1
  -6  -7  12 1010.05 224.818  10
   6   7 -12 1113.78 215.027   1
  -6  -7  11 9304.83 578.054  10
   6   7 -11 9336.73 553.137   1
  -6  -7  10 49.6552 119.210  10
   6   7 -10 278.390 114.194   1
   6   7 -10 446.953 146.968   9
  -6  -7   9 11501.1 565.895  10
  -6  -7   9 10769.7 576.081   5
   6   7  -9 12296.1 569.368   1
   6   7  -9 12755.2 609.051   9
   6   7  -8 285.656 94.2689   1
  -6  -7   8 755.563 158.698  10
  -6  -7   8 747.495 157.815   5
   6   7  -8 872.407 173.155   9
  -6  -7   7 25612.2 740.649  10
  -6  -7   7 25311.1 868.303   5
   6   7  -7 25843.5 839.505   9
  -6  -7   6 42583.9 1128.65   5
   6   7  -6 44835.2 1095.84   9
  -6  -7   5 1536.24 223.090   5
   6   7  -5 1532.92 211.106   9
  -6  -7   4 3481.83 334.376   5
   6   7  -4 3525.81 311.501   9
  -6  -7   3 6953.17 477.096   5
   6   7  -3 6740.06 437.786   9
  -6  -7   2 109.608 101.847   5
   6   7  -2 2.20893 104.900   9
  -6  -7   1 11890.9 658.666   5
   6   7  -1 11171.8 575.221   9
  -6  -7   0 9262.07 593.016   5
   6   7   0 9247.06 530.836   9
  -6  -7  -1 8049.83 577.432   5
   6   7   1 7959.89 509.150   9
  -6  -7  -2 985.652 225.381   5
   6   7   2 1041.09 212.073   9
  -6  -8  14 3145.84 403.167  10
  -6  -8  13 146.613 173.873  10
   6   8 -13 499.766 151.488   1
  -6  -8  12 7650.02 557.074  10
   6   8 -12 6645.90 501.354   1
  -6  -8  11 13506.7 697.444  10
   6   8 -11 12818.1 650.746   1
  -6  -8  10 6582.48 463.980  10
  -6  -8  10 6951.38 490.253   5
   6   8 -10 7189.76 484.025   9
   6   8 -10 7031.99 460.980   1
  -6  -8   9 5290.58 403.697  10
  -6  -8   9 4512.70 392.884   5
   6   8  -9 5097.68 411.822   9
   6   8  -9 4913.48 364.629   1
  -6  -8   8 4959.80 412.279   5
   6   8  -8 5141.66 402.724   9
  -6  -8   7 1031.68 207.541   5
   6   8  -7 1187.93 213.505   9
  -6  -8   6 3263.13 337.843   5
   6   8  -6 3328.98 321.160   9
  -6  -8   5 2196.85 278.053   5
   6   8  -5 1807.55 252.163   9
  -6  -8   4 3606.71 366.418   5
   6   8  -4 3598.28 335.338   9
  -6  -8   3 4226.01 397.418   5
   6   8  -3 3462.28 337.704   9
  -6  -8   2 299.401 143.206   5
   6   8  -2 36.0709 91.2172   9
  -6  -8   1 7111.54 535.567   5
   6   8  -1 6941.59 477.080   9
  -6  -8   0 871.674 217.159   5
   6   8   0 734.130 183.094   9
  -6  -8  -1 2172.48 327.328   5
   6   8   1 1328.41 227.321   9
  -6  -9  13 921.733 232.325  10
   6   9 -13 652.343 174.096   1
  -6  -9  12-129.673 143.168  10
   6   9 -12-26.2710 84.3429   1
  -6  -9  11 2623.92 327.109  10
  -6  -9  11 2842.24 335.878   5
  -6  -9  10 5141.34 436.906   5
   6   9 -10 5460.91 444.304   9
  -6  -9   9 0.25993 102.977   5
   6   9  -9 178.228 131.251   9
  -6  -9   8 2582.01 313.829   5
   6   9  -8 2809.23 315.515   9
  -6  -9   7 13587.3 704.474   5
   6   9  -7 13935.7 680.613   9
  -6  -9   6 8329.24 558.211   5
   6   9  -6 9114.70 553.233   9
  -6  -9   5 24795.2 970.069   5
   6   9  -5 25634.0 914.397   9
  -6  -9   4 2436.29 315.248   5
   6   9  -4 2654.01 310.413   9
  -6  -9   3-7.13104 128.456   5
   6   9  -3 114.293 112.816   9
  -6  -9   2 2177.27 311.373   5
   6   9  -2 1449.89 241.365   9
  -6  -9   1 7212.74 573.285   5
   6   9  -1 7131.74 511.625   9
  -6 -10  10 3126.37 376.143   5
   6  10 -10 3515.26 380.805   9
  -6 -10   9 5371.20 472.899   5
   6  10  -9 5932.04 474.659   9
  -6 -10   8 51.8345 97.7752   5
   6  10  -8 168.964 121.529   9
  -6 -10   7-20.6949 101.415   5
   6  10  -7-4.82466 119.450   9
  -6 -10   6 76.4582 117.872   5
   6  10  -6 171.859 122.226   9
  -6 -10   5 16495.9 825.939   5
   6  10  -5 16748.4 776.770   9
  -6 -10   4 13250.2 751.822   5
   6  10  -4 13688.3 706.910   9
  -6 -10   3 1677.60 282.728   5
   6  10  -3 1629.38 249.673   9
  -7  12  -2 5241.43 472.939   2
  -7  12  -3 263.971 161.870   2
   7 -11  -3 11312.3 688.471  11
   7 -11  -2 1718.81 288.199  11
  -7  11   2 1413.53 276.980   2
   7 -11  -1 5937.26 486.154  11
  -7  11   1 7063.43 536.593   2
   7 -11   0 2058.72 292.836  11
  -7  11   0 1958.00 291.293   2
   7 -11   1 2787.94 335.269  11
  -7  11  -1 3075.86 349.353   2
   7 -11   2 2663.23 330.390  11
  -7  11  -2 2220.07 299.255   2
  -7  11  -3 125.605 134.024  12
   7 -11   3 9.70577 140.757  11
  -7  11  -3 369.961 150.628   2
   7 -11   4 573.997 161.579   3
  -7  11  -4 446.348 142.458   2
  -7  10   7 12459.3 718.323  10
   7 -10  -5 1883.61 293.267  11
  -7  10   5 1500.17 264.696   2
   7 -10  -4 235.027 120.401  11
  -7  10   4 77.8491 137.043   2
   7 -10  -3 7392.88 529.058  11
  -7  10   3 6703.75 504.256   2
   7 -10  -2 200.255 136.195  11
  -7  10   2 217.407 122.948   2
   7 -10  -1 2644.66 311.949  11
  -7  10   1 2578.78 324.095   2
   7 -10   0 2795.57 318.323  11
  -7  10   0 2903.00 327.295   2
   7 -10   1 1306.27 226.655  11
  -7  10  -1 1523.83 244.049   2
   7 -10   2 4857.53 417.219  11
  -7  10  -2 4853.82 419.873   2
   7 -10   3 233.078 135.920  11
  -7  10  -3 113.374 122.394   2
  -7  10  -3 275.564 185.400  12
  -7  10  -4 463.976 172.046  12
   7 -10   4 368.640 142.617   3
   7 -10   4 600.278 174.020  11
  -7  10  -4 362.814 147.630   2
  -7  10  -5 2552.37 361.073  12
   7 -10   5 3076.29 333.174   3
   7 -10   5 2392.81 309.509  11
   7 -10   6 598.564 179.134   3
  -7   9   8 7636.69 552.708  10
  -7   9   8 7747.19 556.440   2
   7  -9  -7 1944.15 303.382  11
  -7   9   7 1515.42 272.321  10
  -7   9   7 1833.09 275.167   2
   7  -9  -6 3877.18 394.410  11
  -7   9   6 3583.96 370.823   2
   7  -9  -6 4192.88 376.372   1
   7  -9  -5 2867.96 325.897  11
  -7   9   5 2753.05 322.836   2
   7  -9  -4 531.091 152.232  11
  -7   9   4 674.536 175.561   2
   7  -9  -3-37.4364 95.0616  11
  -7   9   3 146.250 130.693   2
   7  -9  -2 10248.7 569.695  11
  -7   9   2 11250.6 617.512   2
   7  -9  -1 8194.72 507.071  11
  -7   9   1 7901.08 516.830   2
   7  -9   0 21244.9 796.098  11
  -7   9   0 20799.0 820.753   2
   7  -9   1 685.258 151.096  11
  -7   9  -1 984.421 202.806   2
   7  -9   1 996.564 149.933   8
  -7   9  -2 10292.8 626.097  12
   7  -9   2 9364.50 541.147  11
  -7   9  -2 10802.7 590.190   2
   7  -9   2 10411.3 486.057   8
  -7   9  -3 17321.8 828.326  12
   7  -9   3 16321.0 697.905   3
   7  -9   3 16486.8 718.292  11
  -7   9  -3 17148.2 747.444   2
   7  -9   3 17055.7 637.210   8
   7  -9   4 3972.03 358.880   3
  -7   9  -4 4546.14 444.609  12
   7  -9   4 3669.67 359.233  11
  -7   9  -4 3768.51 360.141   2
   7  -9   4 3652.07 321.682   8
   7  -9   5 4912.48 394.601   3
  -7   9  -5 5544.10 484.734  12
   7  -9   5 4430.62 394.923  11
   7  -9   5 5233.92 389.825   8
   7  -9   6 3889.82 363.646   3
  -7   9  -6 3598.07 400.126  12
   7  -9   6 3041.02 349.588  11
   7  -9   6 3541.71 343.464   8
  -7   9  -6 3393.29 395.372   4
   7  -9   7 173.772 121.731   8
  -7   9  -7 317.278 178.087   4
   7  -8  -9 4194.21 441.297  11
  -7   8   9 4111.18 408.611  10
  -7   8   9 3789.12 383.654   2
   7  -8  -8 2125.55 313.806  11
  -7   8   8 1422.69 247.410  10
  -7   8   8 2093.24 290.078   2
   7  -8  -7 11535.6 613.537   1
   7  -8  -7 11865.4 671.213  11
  -7   8   7 12232.6 664.745  10
  -7   8   7 13111.8 678.505   2
   7  -8  -6 367.142 133.135  11
   7  -8  -6 147.578 91.0750   1
  -7   8   6 194.111 120.331   2
   7  -8  -5 2373.57 285.813  11
  -7   8   5 2672.41 301.434   2
   7  -8  -4 20239.0 782.216  11
  -7   8   4 19376.1 784.636   2
   7  -8  -3-49.9759 114.198  11
  -7   8   3 128.942 100.238   2
   7  -8  -3-21.1455 112.415   8
   7  -8  -2 29576.8 898.286  11
  -7   8   2 30912.5 974.787   2
   7  -8  -2 31813.1 820.446   8
   7  -8  -1 27386.4 858.008  11
  -7   8   1 28553.5 926.512   2
   7  -8  -1 29205.6 782.761   8
   7  -8   0-18.9770 111.355  11
  -7   8   0-29.0124 92.6802   2
   7  -8   0 237.256 102.763   8
   7  -8   1 812.993 160.541  11
  -7   8  -1 1198.26 204.765   2
   7  -8   1 1292.51 175.236   8
  -7   8  -2 4715.79 416.504  12
   7  -8   2 4682.55 355.795   3
   7  -8   2 4661.63 364.279  11
  -7   8  -2 5179.23 398.265   2
   7  -8   2 4503.38 324.426   8
   7  -8   3 7699.73 455.267   3
  -7   8  -3 8261.10 545.174  12
   7  -8   3 8340.65 491.159  11
  -7   8  -3 8273.12 502.217   2
   7  -8   3 8313.42 453.397   8
   7  -8   4 7071.93 438.025   3
  -7   8  -4 7543.43 540.308  12
   7  -8   4 7565.06 479.710  11
  -7   8  -4 6666.59 449.947   2
   7  -8   4 7671.76 447.805   8
  -7   8  -5 132.680 131.795  12
   7  -8   5-27.1353 84.8194   3
   7  -8   5-141.695 124.175  11
   7  -8   5 74.8467 98.0028   8
  -7   8  -5 98.4069 121.853   4
   7  -8   6 6439.68 436.351   3
  -7   8  -6 6753.02 529.935  12
   7  -8   6 6304.28 463.657  11
   7  -8   6 6573.04 463.365   8
  -7   8  -6 6783.30 537.068   4
  -7   8  -7 483.850 197.162  12
   7  -8   7 97.5145 108.964  11
   7  -8   7 486.794 179.387   8
  -7   8  -7 423.857 179.132   4
  -7   8  -8 3175.56 385.414  12
   7  -8   8 3471.87 377.600   8
   7  -7 -10 56.2883 131.725  11
  -7   7  10-178.137 146.184  10
  -7   7  10-119.114 113.388   2
  -7   7  10 298.124 174.790   7
   7  -7  -9 15983.8 741.508   1
   7  -7  -9 15942.4 802.947  11
  -7   7   9 16371.2 778.047  10
  -7   7   9 15699.4 731.678   2
   7  -7  -8 29642.9 979.169   1
   7  -7  -8 30268.6 1046.30  11
  -7   7   8 28960.3 1008.15  10
  -7   7   8 29161.9 969.661   2
   7  -7  -7 41.5720 102.303  11
  -7   7   7 216.422 129.699  10
   7  -7  -7 214.210 114.072   1
  -7   7   7 82.3178 107.236   2
   7  -7  -6 3458.98 331.479  11
  -7   7   6 3613.98 341.708   2
   7  -7  -6 3464.92 333.571   1
   7  -7  -5 25277.1 852.594  11
  -7   7   5 26485.9 888.437   2
   7  -7  -4 338.252 129.801  11
  -7   7   4 168.084 118.084   2
   7  -7  -3 5121.48 358.578  11
  -7   7   3 5063.87 388.391   2
   7  -7  -3 4928.83 328.831   8
   7  -7  -2 6638.57 403.442  11
  -7   7   2 5802.64 407.244   2
   7  -7  -2 6762.87 372.589   8
   7  -7  -1 10128.4 491.439  11
  -7   7   1 9590.17 519.450   2
   7  -7  -1 10132.4 455.119   8
   7  -7   0 864.819 155.877  11
  -7   7   0 1133.43 189.895   2
   7  -7   0 1358.70 185.352   8
   7  -7   1 2327.90 240.770  11
   7  -7   1 2211.04 221.904   8
  -7   7  -1 2555.16 275.896   2
  -7   7  -2 3301.84 338.586  12
   7  -7   2 3965.71 307.859   3
   7  -7   2 3505.29 301.012  11
  -7   7  -2 3834.60 334.538   2
   7  -7   2 3537.38 292.453   8
  -7   7  -3 2687.28 306.390  12
   7  -7   3 2683.66 271.813  11
   7  -7   3 2204.97 236.648   3
   7  -7   3 2022.83 235.058   8
  -7   7  -3 2420.17 269.258   2
  -7   7  -4 138.285 113.333  12
   7  -7   4 302.481 105.212   3
   7  -7   4 202.378 110.064  11
   7  -7   4 212.362 101.258   8
  -7   7  -4 427.715 129.947   2
  -7   7  -4 329.497 134.579   4
   7  -7   5 4153.88 330.784   3
  -7   7  -5 4044.18 398.560  12
   7  -7   5 4188.17 363.445  11
   7  -7   5 3946.64 348.929   8
  -7   7  -5 4413.53 416.478   4
  -7   7  -6 6492.43 495.572  12
   7  -7   6 6594.58 468.745  11
   7  -7   6 6062.63 449.555   8
  -7   7  -6 6066.79 500.099   4
  -7   7  -7 151.501 115.188  12
   7  -7   7-3.50224 132.031   8
  -7   7  -7 193.768 136.117   4
  -7   7  -8 2060.67 306.360  12
   7  -7   8 2862.13 347.313   8
  -7   7  -8 2122.67 316.550   4
  -7   6  11-76.1842 159.784   7
   7  -6 -11 311.139 184.689  11
  -7   6  11-52.7907 124.636  10
   7  -6 -10 2343.24 315.511  11
  -7   6  10 2150.60 313.427  10
   7  -6 -10 2759.02 325.790   1
  -7   6  10 2654.39 298.714   2
  -7   6  10 2477.03 340.916   7
   7  -6  -9 2984.37 339.754  11
  -7   6   9 2161.59 290.063  10
   7  -6  -9 2322.26 286.979   1
  -7   6   9 2721.33 297.146   2
   7  -6  -8 1925.95 264.601  11
  -7   6   8 1840.42 258.697  10
   7  -6  -8 2168.03 277.344   1
  -7   6   8 2031.48 251.323   2
   7  -6  -7 99.1419 95.5178  11
  -7   6   7 270.798 144.978  10
   7  -6  -7 175.917 124.684   1
  -7   6   7 46.6950 106.108   2
   7  -6  -6 1379.22 204.522  11
  -7   6   6 996.656 180.750   2
   7  -6  -6 1332.98 215.835   1
   7  -6  -5 5752.38 385.158  11
  -7   6   5 5226.59 384.467   2
   7  -6  -4 883.540 155.523  11
  -7   6   4 631.626 160.427   2
   7  -6  -4 888.648 154.472   8
   7  -6  -3 5745.65 356.120  11
  -7   6   3 5828.20 401.112   2
   7  -6  -3 6269.96 360.122   8
   7  -6  -2 672.051 134.641  11
  -7   6   2 868.043 173.972   2
   7  -6  -2 691.455 134.704   8
   7  -6  -1 1889.23 202.575   8
   7  -6  -1 1859.75 204.959  11
  -7   6   1 2034.38 246.877   2
   7  -6   0 3479.69 276.348  11
  -7   6   0 3178.27 290.308   2
   7  -6   0 3489.97 271.339   8
   7  -6   1 2764.43 247.861  11
  -7   6  -1 3170.53 303.595   2
   7  -6   1 3511.27 280.342   8
   7  -6   2 21654.0 652.448   3
   7  -6   2 20005.9 665.557  11
  -7   6  -2 20358.2 738.600   2
   7  -6   2 20513.9 685.541   8
   7  -6   3 2113.20 217.540   3
  -7   6  -3 2294.73 280.081  12
   7  -6   3 2419.69 251.336  11
  -7   6  -3 2609.22 275.701   2
   7  -6   3 2456.86 256.323   8
  -7   6  -3 2327.86 283.324   4
  -7   6  -4 2353.97 289.693  12
   7  -6   4 2146.27 217.652   3
   7  -6   4 2167.27 252.078  11
   7  -6   4 2333.76 264.409   8
  -7   6  -4 2529.58 307.692   4
  -7   6  -5 13915.4 680.741  12
   7  -6   5 13886.6 650.296   8
  -7   6  -5 12415.8 678.878   4
  -7   6  -6 617.290 174.594  12
   7  -6   6 840.093 189.147   8
  -7   6  -6 933.269 205.054   4
  -7   6  -7 906.409 199.469  12
   7  -6   7 1206.32 230.278   8
  -7   6  -7 1128.22 235.829   4
  -7   6  -8 286.283 133.559  12
   7  -6   8 408.581 176.331   8
  -7   6  -8 370.937 183.663   4
   7  -5 -12 15944.8 838.578  11
   7  -5 -12 16123.5 798.933   1
  -7   5  12 17735.4 844.127  10
  -7   5  11 2730.58 358.492   7
   7  -5 -11 2638.36 334.498  11
  -7   5  11 2075.73 295.690  10
   7  -5 -11 2512.15 315.002   1
   7  -5 -10 8006.47 525.272   1
   7  -5 -10 7116.10 505.291  11
  -7   5  10 7328.21 516.642  10
  -7   5  10 7275.30 465.630   2
  -7   5  10 7463.19 537.553   7
   7  -5  -9 785.752 152.706   6
   7  -5  -9 527.661 154.305  11
  -7   5   9 396.900 140.058  10
   7  -5  -9 609.430 154.123   1
  -7   5   9 652.157 153.527   2
   7  -5  -8 930.531 149.996   6
   7  -5  -8 478.236 129.460  11
  -7   5   8 316.315 141.149  10
   7  -5  -8 494.284 142.571   1
  -7   5   8 711.557 160.055   2
   7  -5  -7 12357.3 565.444  11
  -7   5   7 11422.4 587.641  10
  -7   5   7 11919.8 566.612   2
   7  -5  -7 11957.9 584.908   1
   7  -5  -6 200.121 95.7208  11
  -7   5   6 97.2118 84.4530   2
   7  -5  -5 486.210 118.808  11
  -7   5   5 500.958 143.884   2
   7  -5  -5 663.716 144.056   8
   7  -5  -4 1308.22 178.900  11
  -7   5   4 1769.98 221.879   2
   7  -5  -4 1295.36 182.837   8
   7  -5  -3 35144.6 799.779  11
  -7   5   3 33399.4 912.001   2
   7  -5  -3 33446.0 811.982   8
   7  -5  -2 18747.3 575.511  11
  -7   5   2 18988.8 687.137   2
   7  -5  -2 18511.8 597.013   8
   7  -5  -1-136.630 90.4916  11
   7  -5  -1-67.4012 83.7223   8
  -7   5   1 103.498 101.125   2
   7  -5   0 73397.3 1145.11  11
  -7   5   0 72544.2 1346.59   2
   7  -5   0 72663.3 1208.29   8
   7  -5   1 16991.6 566.539  11
  -7   5  -1 17364.4 665.597   2
   7  -5   1 18077.1 620.327   8
   7  -5   2 7511.91 354.624   3
   7  -5   2 6985.18 377.928  11
  -7   5  -2 7252.10 432.228   2
   7  -5   2 6851.95 400.050   8
  -7   5  -2 6570.76 447.582   4
  -7   5  -3 940.769 191.597  12
   7  -5   3 847.315 125.417   3
   7  -5   3 966.080 158.368  11
   7  -5   3 540.871 123.278   8
  -7   5  -3 550.942 148.263   4
  -7   5  -4 4349.30 372.570  12
   7  -5   4 4247.75 352.963   8
  -7   5  -4 4111.98 381.737   4
  -7   5  -5 2160.49 279.049  12
   7  -5   5 1828.00 256.670   8
  -7   5  -5 1380.34 238.060   4
  -7   5  -6 1319.26 223.861  12
   7  -5   6 1796.64 262.775   8
  -7   5  -6 1379.85 245.889   4
  -7   5  -7 71.5191 91.0369  12
   7  -5   7 54.2313 108.420   8
  -7   5  -7 54.6720 123.359   4
   7  -5   8 7553.09 557.680   8
  -7   5  -8 7935.76 584.422   4
   7  -4 -13 380.261 158.926   1
  -7   4  13 0.30022 153.052  10
  -7   4  12 3446.13 396.889   7
   7  -4 -12 3538.46 381.998   1
  -7   4  12 3662.70 399.315  10
  -7   4  11 871.399 213.734   7
   7  -4 -11 623.460 180.604  11
  -7   4  11 872.401 199.558  10
   7  -4 -11 986.784 213.013   1
  -7   4  10 1919.79 323.647   7
   7  -4 -10 1729.45 217.605   6
   7  -4 -10 1344.12 219.183  11
  -7   4  10 1827.38 272.858  10
   7  -4 -10 1571.02 246.523   1
  -7   4  10 1916.30 235.801   2
   7  -4  -9 1033.78 154.012   6
   7  -4  -9 1172.66 196.304  11
  -7   4   9 780.222 187.524  10
   7  -4  -9 921.393 185.807   1
  -7   4   9 894.112 167.826   2
  -7   4   9 921.978 200.071   7
   7  -4  -8 561.297 115.160   6
   7  -4  -8 529.552 134.665  11
  -7   4   8 512.189 156.304  10
   7  -4  -8 887.316 176.747   1
  -7   4   8 404.848 123.183   2
   7  -4  -7 68237.9 976.094   6
   7  -4  -7 65004.7 1212.26  11
  -7   4   7 67827.0 1367.74  10
  -7   4   7 66142.4 1287.21   2
   7  -4  -7 66292.2 1337.03   1
   7  -4  -6 31989.5 801.177  11
  -7   4   6 31288.6 878.567   2
   7  -4  -6 32074.5 906.478   1
   7  -4  -5 8293.33 392.049  11
  -7   4   5 8665.86 462.994   2
   7  -4  -5 8760.17 430.852   8
   7  -4  -4 14384.5 490.641  11
  -7   4   4 14203.3 583.894   2
   7  -4  -4 14734.7 542.137   8
   7  -4  -3 516.862 99.8469  11
   7  -4  -3 605.529 83.2045   9
   7  -4  -3 448.556 115.746   8
  -7   4   3 424.433 132.042   2
   7  -4  -2 91.0772 67.7558  11
   7  -4  -2-2.11445 73.2718   8
  -7   4   2 20.0360 86.6652   2
   7  -4  -1 5506.48 289.389  11
  -7   4   1 5335.87 361.268   2
   7  -4  -1 5045.17 312.710   8
   7  -4   0 36831.3 757.855  11
  -7   4   0 35570.7 928.710   2
   7  -4   0 35896.5 845.811   8
   7  -4   1 3475.01 242.119  11
   7  -4   1 3314.71 276.806   8
  -7   4  -1 3385.17 310.406   4
   7  -4   2 561.966 98.6872   3
   7  -4   2 468.430 101.575  11
   7  -4   2 516.106 141.474   8
  -7   4  -2 314.824 111.152   4
   7  -4   3 4303.32 338.314   8
  -7   4  -3 5334.15 408.902   4
   7  -4   4 3918.98 337.486   8
  -7   4  -4 3532.12 349.366   4
   7  -4   5 2650.63 295.716   8
  -7   4  -5 3008.44 333.132   4
  -7   4  -6 1486.75 220.960  12
   7  -4   6 1817.58 260.319   8
  -7   4  -6 1622.02 268.755   4
   7  -4   7 910.965 212.931   8
  -7   4  -7 1146.62 219.004   4
  -7   4  -8 824.795 215.276   4
   7  -3 -14 7068.74 563.721   1
  -7   3  13 3259.72 377.416   7
  -7   3  13 2988.09 381.927  10
   7  -3 -13 3315.56 376.265   1
  -7   3  12 253.707 123.676   7
  -7   3  12-171.313 144.946  10
   7  -3 -12-68.6368 132.257   1
   7  -3 -11 37386.4 964.128   6
   7  -3 -11 37693.8 1104.96  11
   7  -3 -11 37890.1 1149.80   1
  -7   3  11 37051.2 1143.05  10
  -7   3  11 37261.2 1139.85   7
  -7   3  10-83.7537 99.8943   7
   7  -3 -10 44.6942 84.9791   6
   7  -3 -10 23.0196 95.8842  11
  -7   3  10 138.278 133.246  10
   7  -3 -10-68.9902 109.456   1
  -7   3  10 182.920 104.142   2
   7  -3  -9 8035.99 494.237   1
   7  -3  -9 8043.96 387.091   6
   7  -3  -9 7272.85 433.199  11
  -7   3   9 8216.31 505.201  10
  -7   3   9 8411.66 457.209   2
  -7   3   9 8414.67 494.221   7
   7  -3  -8 27681.1 877.135   1
   7  -3  -8 28283.7 651.647   6
   7  -3  -8 27260.9 781.955  11
  -7   3   8 27975.2 887.817  10
  -7   3   8 27217.6 813.948   2
   7  -3  -7 77.9213 50.5855   6
   7  -3  -7 10.8226 65.8353  11
  -7   3   7 264.272 134.593  10
   7  -3  -7 165.934 107.300   1
  -7   3   7 88.6574 90.7054   2
   7  -3  -6 3944.97 265.393  11
  -7   3   6 3384.80 288.780   2
   7  -3  -6 3323.28 292.324   1
   7  -3  -5 113.824 58.8689  11
  -7   3   5 225.026 54.4104   5
   7  -3  -5 123.804 43.9145   9
  -7   3   5 58.3819 75.1440   2
   7  -3  -4 5887.06 287.205  11
  -7   3   4 5693.51 229.318   5
   7  -3  -4 5827.35 230.312   9
  -7   3   4 5533.47 365.190   2
   7  -3  -4 5918.93 339.226   8
   7  -3  -3 13194.6 408.992  11
  -7   3   3 12532.7 345.330   5
   7  -3  -3 12841.0 370.002   9
  -7   3   3 11832.9 522.539   2
   7  -3  -3 12697.2 483.917   8
   7  -3  -2 10201.6 356.493  11
  -7   3   2 9628.21 316.449   5
  -7   3   2 9774.57 478.266   2
   7  -3  -2 9766.49 425.014   8
   7  -3  -1 3595.41 217.450  11
  -7   3   1 3778.91 213.937   5
   7  -3  -1 3817.45 270.359   8
  -7   3   1 3956.71 300.851   4
   7  -3   0 15336.5 454.167  11
  -7   3   0 16078.1 466.591   5
   7  -3   0 16502.0 569.472   8
  -7   3   0 15048.9 603.699   4
   7  -3   1 1651.03 164.980  11
   7  -3   1 1439.68 193.588   8
  -7   3  -1 1564.61 215.637   4
   7  -3   2 194.675 83.7822   8
  -7   3  -2 265.536 107.165   4
   7  -3   3 17217.0 665.996   8
  -7   3  -3 16391.4 708.547   4
   7  -3   4 257.411 114.033   8
  -7   3  -4 435.105 138.812   4
   7  -3   5 1897.26 249.296   8
  -7   3  -5 1534.06 255.369   4
   7  -3   6 25562.6 931.063   8
  -7   3  -6 24173.6 956.080   4
  -7   3  -7 12838.1 724.180   4
   7  -3   7 13015.3 698.883   8
  -7   3  -8 1127.92 237.778   4
   7  -2 -14-187.361 131.767   1
  -7   2  14 36.6263 155.818  10
  -7   2  13 135.550 155.251   7
  -7   2  13 220.008 180.888  10
   7  -2 -13 267.515 145.078   1
  -7   2  12-35.9210 134.943   7
  -7   2  12-165.150 142.633  10
   7  -2 -12-90.2517 112.131   1
  -7   2  11 2932.77 322.576   7
   7  -2 -11 3385.47 293.100   6
   7  -2 -11 3339.68 344.347   1
  -7   2  11 3134.03 340.978  10
  -7   2  10 2331.21 277.699   7
   7  -2 -10 2401.48 227.259   6
   7  -2 -10 2680.80 268.550  11
  -7   2  10 2147.76 280.092  10
   7  -2 -10 2351.04 280.493   1
   7  -2  -9 3688.48 334.473   1
   7  -2  -9 3788.62 255.349   6
   7  -2  -9 3761.63 297.432  11
  -7   2   9 3327.45 318.402  10
  -7   2   9 3687.63 307.979   2
  -7   2   9 3148.79 295.571   7
  -7   2   8 829.307 162.395   7
   7  -2  -8 685.708 105.878   6
   7  -2  -8 621.871 127.339  11
  -7   2   8 671.347 157.858  10
   7  -2  -8 783.385 168.945   1
  -7   2   8 736.161 149.214   2
   7  -2  -7 399.454 89.4229  11
  -7   2   7 269.812 134.978  10
   7  -2  -7 249.992 109.342   1
  -7   2   7 305.098 110.204   2
   7  -2  -6 5608.08 283.947  11
  -7   2   6 5059.11 349.618  10
   7  -2  -6 5599.61 228.671   9
  -7   2   6 5710.88 365.575   2
   7  -2  -6 5509.44 348.391   8
   7  -2  -6 5860.02 378.508   1
   7  -2  -5 898.007 115.164  11
  -7   2   5 660.169 93.4043   5
   7  -2  -5 808.456 99.6661   9
  -7   2   5 712.014 145.674   2
   7  -2  -4 3666.33 203.268  11
  -7   2   4 3366.18 198.738   5
   7  -2  -4 3687.97 203.619   9
   7  -2  -4 3227.82 252.474   8
  -7   2   4 3741.27 255.532   4
   7  -2  -3 1781.91 138.542  11
  -7   2   3 1591.33 142.859   5
   7  -2  -3 1530.17 145.033   9
   7  -2  -3 1720.61 188.650   8
  -7   2   3 1708.23 191.333   4
   7  -2  -2 8740.29 297.419  11
  -7   2   2 8445.68 334.429   5
   7  -2  -2 8970.97 406.271   8
  -7   2   2 9491.27 443.115   4
   7  -2  -1 72043.0 872.840  11
  -7   2   1 71388.6 1016.08   5
   7  -2  -1 73307.5 1164.26   8
  -7   2   1 70637.0 1239.08   4
   7  -2   0 3305.83 197.377  11
  -7   2   0 3017.54 226.284   5
   7  -2   0 3095.71 253.430   8
  -7   2   0 3132.49 276.729   4
  -7   2  -1 1159.28 156.369   5
   7  -2   1 1034.96 162.826   8
  -7   2  -1 799.208 162.352   4
  -7   2  -2 33489.5 835.477   5
   7  -2   2 33631.7 883.086   8
  -7   2  -2 33707.7 976.768   4
   7  -2   3 5114.05 371.808   8
  -7   2  -3 4639.03 384.328   4
   7  -2   4 15.8177 93.8120   8
  -7   2  -4 97.1711 102.835   4
  -7   2  -5 3655.21 364.074   4
   7  -2   5 3449.76 345.532   8
  -7   2  -6 5242.65 463.910   4
   7  -2   6 5441.68 442.577   8
  -7   2  -7 4614.35 452.459   4
   7  -2   7 5367.90 462.242   8
  -7   2  -8-74.8247 125.662   4
  -7   1  14 1455.00 270.050   7
   7  -1 -14 1591.15 284.464   1
  -7   1  14 1548.81 288.315  10
  -7   1  13 16630.4 818.002  10
   7  -1 -13 15453.2 781.519   1
  -7   1  13 16354.4 796.895   7
  -7   1  12 225.152 157.522   7
   7  -1 -12 202.980 97.9850   6
  -7   1  12 17.8266 119.972  10
   7  -1 -12 101.582 109.300   1
  -7   1  11 81.9327 100.304   7
   7  -1 -11 223.613 86.9425   6
  -7   1  11 436.892 167.381  10
   7  -1 -11 335.728 133.895   1
   7  -1 -10 70457.6 1471.82   1
   7  -1 -10 69369.9 1143.53   6
  -7   1  10 69130.7 1455.80  10
  -7   1  10 69393.9 1372.98   7
   7  -1  -9 20942.3 774.433   1
   7  -1  -9 22265.0 587.134   6
   7  -1  -9 21409.3 653.035  11
  -7   1   9 22182.1 794.190  10
  -7   1   9 20953.5 711.461   7
   7  -1  -8 3018.18 288.601   1
   7  -1  -8 3410.34 206.236   6
   7  -1  -8 3496.94 246.797  11
  -7   1   8 3915.11 333.706  10
   7  -1  -8 3700.75 211.374   9
  -7   1   8 3357.82 271.946   7
   7  -1  -7 5039.10 353.957   1
   7  -1  -7 4946.01 264.865  11
  -7   1   7 5518.39 368.249  10
   7  -1  -7 5631.73 256.939   9
  -7   1   7 5720.75 265.484   4
  -7   1   7 5534.88 327.228   7
   7  -1  -6 34302.5 632.346  11
  -7   1   6 34887.9 878.092  10
  -7   1   6 32151.3 664.905   5
   7  -1  -6 34543.9 632.690   9
  -7   1   6 35113.3 684.594   4
   7  -1  -6 33899.5 828.205   8
  -7   1   6 32524.3 720.661   7
   7  -1  -6 32458.2 862.060   1
   7  -1  -5 53305.3 718.261  11
  -7   1   5 51749.3 1026.43  10
  -7   1   5 49955.8 820.116   5
   7  -1  -5 51700.9 785.353   9
  -7   1   5 51435.7 870.503   4
   7  -1  -5 49730.9 981.849   8
   7  -1  -4 18663.7 392.761  11
  -7   1   4 19196.7 510.857   5
   7  -1  -4 19761.3 499.536   9
  -7   1   4 18911.7 555.215   4
   7  -1  -4 17975.6 574.441   8
   7  -1  -3 24781.4 429.115  11
  -7   1   3 23996.8 585.722   5
   7  -1  -3 24641.6 584.472   9
  -7   1   3 23970.6 657.747   4
   7  -1  -3 22730.2 637.991   8
   7  -1  -2 13533.1 319.427  11
  -7   1   2 13351.3 454.512   5
   7  -1  -2 12653.0 443.793   9
   7  -1  -2 13167.7 487.358   8
  -7   1   2 14180.9 531.685   4
   7  -1  -1 12078.3 319.795  11
  -7   1   1 10914.6 433.960   5
   7  -1  -1 12015.1 472.338   8
  -7   1   1 10836.1 488.031   4
   7  -1   0 4310.34 209.162  11
  -7   1   0 4068.09 281.489   5
   7  -1   0 4051.79 294.624   8
  -7   1   0 4481.24 336.144   4
  -7   1  -1 917.147 152.153   5
   7  -1   1 820.974 150.779   8
  -7   1  -2 22169.4 717.559   5
   7  -1   2 21980.4 721.982   8
  -7   1  -2 22879.6 813.712   4
  -7   1  -3 3352.59 331.339   4
   7  -1   3 3466.78 305.411   8
   7  -1   4 173.610 117.956   8
  -7   1  -4 177.402 110.724   4
   7  -1   5 3469.00 343.656   8
  -7   1  -5 3046.49 348.498   4
   7  -1   6 2090.38 284.022   8
  -7   1  -6 1853.56 281.133   4
   7  -1   7 3835.43 395.319   8
  -7   1  -7 3479.10 399.901   4
  -7   0  14 12611.9 735.646  10
   7   0 -14 11431.4 703.627   1
  -7   0  14 12406.3 710.880   7
  -7   0  13 7121.09 545.215  10
   7   0 -13 6767.35 520.636   1
  -7   0  13 7691.87 540.678   7
   7   0 -12 7415.78 434.538   6
   7   0 -12 5869.97 462.214   1
  -7   0  12 7150.29 509.471  10
  -7   0  12 6154.02 455.451   7
  -7   0  11 1428.42 213.028   7
   7   0 -11 1729.84 204.982   6
  -7   0  11 1523.57 242.476  10
   7   0 -11 1645.87 242.347   1
   7   0 -10 34109.9 1015.23   1
   7   0 -10 33405.8 775.916   6
  -7   0  10 33973.6 1005.99  10
  -7   0  10 33811.1 925.136   7
   7   0  -9 49287.3 1174.66   1
   7   0  -9 49228.2 847.973   6
  -7   0   9 50223.9 1170.08  10
  -7   0   9 49548.6 1050.71   7
   7   0  -8 2545.06 266.556   1
  -7   0   8 2192.31 254.717  10
   7   0  -8 2140.91 176.998   9
  -7   0   8 2249.18 220.310   7
   7   0  -7 18182.0 657.231   1
  -7   0   7 19640.8 670.619  10
   7   0  -7 19525.6 518.499   9
  -7   0   7 19643.2 463.294   4
  -7   0   7 18594.7 553.181   7
   7   0  -6 21925.8 694.792   1
   7   0  -6 22824.2 440.714  11
  -7   0   6 21824.0 675.944  10
  -7   0   6 21323.0 579.931   5
   7   0  -6 20974.4 532.260   9
  -7   0   6 21739.1 525.908   4
   7   0  -6 21703.0 657.416   8
  -7   0   6 21551.6 543.769   7
   7   0  -5 25804.0 402.051  11
  -7   0   5 25232.6 696.402  10
  -7   0   5 23853.2 610.501   5
   7   0  -5 25136.9 593.742   9
  -7   0   5 25406.3 610.474   4
   7   0  -5 24220.0 678.262   8
  -7   0   5 25094.9 527.788   7
   7   0  -5 23810.6 700.135   1
  -7   0   4 40.1255 46.4088   7
  -7   0   4 72.9786 95.0034  10
  -7   0   4-2.15276 59.9940   5
   7   0  -4 103.372 66.3453   9
   7   0  -4-45.0244 71.7780   8
  -7   0   4-12.6386 77.7166   4
  -7   0   3 16524.7 523.105   5
   7   0  -3 16121.6 502.950   9
   7   0  -3 17083.7 548.560   8
  -7   0   3 16871.1 320.137   7
  -7   0   2 9708.98 419.271   5
   7   0  -2 9611.68 406.154   9
  -7   0   2 10178.1 462.045   4
   7   0  -2 9906.62 420.850   8
  -7   0   1 1103.30 152.364   5
   7   0  -1 1073.65 153.832   8
  -7   0   1 1206.75 181.316   4
  -7   0   0 5244.38 333.372   5
  -7   0   0 5411.51 367.627   4
   7   0   0 5348.65 331.455   8
  -7   0  -1 331.722 101.378   5
   7   0   1 237.504 97.1246   8
  -7   0  -1 259.381 93.7055   4
  -7   0  -2 2171.63 240.513   5
   7   0   2 1987.45 233.251   8
  -7   0  -2 2073.90 255.297   4
  -7   0  -3 17.9989 76.0512   5
   7   0   3 0.92725 83.2041   8
  -7   0  -3 76.3547 89.2342   4
  -7   0  -4 5562.80 453.701   4
   7   0   4 5583.91 404.834   8
   7   0   5 738.319 182.147   8
  -7   0  -5 854.889 218.860   4
   7   0   6 355.859 160.699   8
  -7   0  -6 152.427 117.539   4
  -7   0  -7 10046.7 667.297   4
   7   0   7 10086.5 626.096   8
  -7  -1  15 3226.75 385.414   7
  -7  -1  14 5629.26 505.262  10
   7   1 -14 5911.53 505.375   1
  -7  -1  14 6779.49 516.807   7
  -7  -1  13 8378.38 583.794  10
   7   1 -13 9790.69 619.583   1
  -7  -1  13 8589.51 553.444   7
  -7  -1  12 1187.06 213.486   7
  -7  -1  12 1361.56 252.748  10
   7   1 -12 1252.69 229.916   1
  -7  -1  11 159.013 86.2462   7
   7   1 -11 248.687 133.501   1
  -7  -1  10 2025.30 232.334   7
  -7  -1  10 1980.39 258.430  10
   7   1 -10 2253.24 272.502   1
   7   1  -9 11605.6 569.964   1
  -7  -1   9 12159.6 572.248  10
   7   1  -9 11589.0 438.935   9
  -7  -1   9 11468.4 487.338   7
   7   1  -8 6326.63 408.832   1
  -7  -1   8 5816.76 382.546  10
   7   1  -8 6293.12 320.949   9
  -7  -1   8 6472.64 339.925   7
  -7  -1   7 261.192 79.6165   7
  -7  -1   7 404.316 120.155  10
   7   1  -7 209.093 98.3487   1
   7   1  -7 297.369 86.1353   9
  -7  -1   7 312.620 68.7305   4
   7   1  -6 9835.56 460.718   1
  -7  -1   6 9077.63 429.103  10
  -7  -1   6 9013.18 402.475   5
   7   1  -6 10019.4 395.956   9
  -7  -1   6 9474.18 350.414   4
   7   1  -6 9416.67 432.226   8
  -7  -1   6 9666.30 338.248   7
   7   1  -5 7439.88 387.812   1
  -7  -1   5 8020.44 390.693  10
  -7  -1   5 7592.59 370.347   5
   7   1  -5 8092.45 359.992   9
  -7  -1   5 7581.89 337.892   4
   7   1  -5 7826.38 382.375   8
  -7  -1   5 7634.80 258.270   7
  -7  -1   4 7175.64 349.030  10
  -7  -1   4 7501.16 371.641   5
   7   1  -4 7177.62 344.952   9
  -7  -1   4 7862.83 367.319   4
   7   1  -4 7639.60 367.744   8
   7   1  -4 7617.88 379.244   1
  -7  -1   3 27137.0 641.370  10
  -7  -1   3 25674.6 696.500   5
   7   1  -3 26637.8 675.895   9
  -7  -1   3 25665.5 698.979   4
   7   1  -3 26764.0 682.601   8
  -7  -1   2 2323.52 187.576  10
   7   1  -2 2043.37 198.737   9
  -7  -1   2 1636.66 187.662   5
   7   1  -2 2151.50 204.320   8
  -7  -1   2 1843.17 210.617   4
  -7  -1   1 11029.3 490.162   5
   7   1  -1 10739.2 462.396   9
  -7  -1   1 10195.0 494.447   4
   7   1  -1 10950.4 454.433   8
  -7  -1   0 27872.8 811.305   5
  -7  -1   0 29676.2 873.022   4
   7   1   0 29836.5 770.674   8
  -7  -1  -1 55249.5 1201.01   5
  -7  -1  -1 52718.8 1222.28   4
   7   1   1 55431.3 1097.16   8
  -7  -1  -2 491.475 138.823   5
   7   1   2 372.516 114.349   8
  -7  -1  -2 593.891 152.424   4
  -7  -1  -3 12460.8 624.365   5
  -7  -1  -3 12584.5 656.754   4
   7   1   3 12570.5 576.782   8
  -7  -1  -4 6853.59 513.640   4
   7   1   4 8557.69 502.408   8
  -7  -1  -5 3610.74 382.861   4
   7   1   5 3310.59 343.224   8
  -7  -1  -6 10687.9 684.126   4
   7   1   6 10724.2 614.930   8
  -7  -2  15-66.4367 159.837   7
   7   2 -15 248.261 139.067   1
  -7  -2  14 1069.17 226.405   7
   7   2 -14 1026.16 229.649   1
  -7  -2  14 976.700 240.971  10
  -7  -2  13 5662.79 480.084  10
   7   2 -13 4782.02 436.688   1
  -7  -2  13 5546.70 435.695   7
  -7  -2  12 4387.44 409.936  10
   7   2 -12 3921.25 378.832   1
  -7  -2  12 4319.20 366.331   7
  -7  -2  11 2258.45 253.337   7
  -7  -2  11 2380.23 297.665  10
   7   2 -11 2352.56 284.180   1
  -7  -2  10 1724.30 246.271  10
   7   2 -10 2028.27 254.453   1
  -7  -2  10 2313.06 237.344   7
   7   2  -9 14264.3 626.341   1
  -7  -2   9 14656.3 623.837  10
   7   2  -9 14299.5 520.222   9
  -7  -2   9 14365.7 528.131   7
  -7  -2   8 1516.54 172.652   7
  -7  -2   8 1394.74 197.523  10
   7   2  -8 1434.24 172.343   9
   7   2  -8 1224.99 188.853   1
   7   2  -7 4019.95 312.358   1
  -7  -2   7 3818.22 296.310  10
  -7  -2   7 3654.80 275.969   5
   7   2  -7 3735.30 262.753   9
  -7  -2   7 4180.44 218.179   4
  -7  -2   7 4070.24 233.094   7
  -7  -2   6 1018.22 106.594   7
  -7  -2   6 1128.41 164.324  10
  -7  -2   6 856.051 142.527   5
   7   2  -6 1167.34 170.195   1
   7   2  -6 692.359 116.817   9
  -7  -2   6 996.949 124.248   4
   7   2  -6 726.949 129.842   8
  -7  -2   5 34.0428 78.2618  10
  -7  -2   5 67.9369 75.3098   5
   7   2  -5 62.7916 85.2359   1
   7   2  -5 22.3020 63.5655   9
  -7  -2   5 148.722 83.9643   4
   7   2  -5 9.94582 76.8190   8
   7   2  -4 26313.8 685.072   1
  -7  -2   4 26275.5 641.929  10
  -7  -2   4 25519.5 724.898   5
   7   2  -4 25989.6 689.170   9
  -7  -2   4 25753.2 682.319   4
   7   2  -4 24583.2 654.226   8
   7   2  -3 39.2112 53.0731   1
  -7  -2   3 0.75955 68.8376   5
   7   2  -3 4.29554 80.7856   9
  -7  -2   3 182.689 97.7837   4
   7   2  -3-50.2456 67.8818   8
  -7  -2   2 79411.8 980.160  10
  -7  -2   2 78039.0 1333.37   5
   7   2  -2 80329.8 1267.66   9
  -7  -2   2 80398.1 1346.61   4
   7   2  -2 79886.7 1184.69   8
  -7  -2   1 49932.1 1107.00   5
   7   2  -1 50685.8 1044.09   9
  -7  -2   1 48647.0 1101.61   4
   7   2  -1 50058.6 962.946   8
  -7  -2   0-69.2189 92.1307   5
   7   2   0 133.119 101.576   9
  -7  -2   0 132.667 88.5435   4
   7   2   0 1.41130 75.9168   8
  -7  -2  -1 5.51803 80.5056   5
  -7  -2  -1-87.7699 118.495   4
   7   2   1 11.1978 95.0647   8
  -7  -2  -2 152.871 107.236   5
  -7  -2  -2-132.907 127.297   4
   7   2   2-47.0415 105.006   8
  -7  -2  -3 3230.34 341.726   5
   7   2   3 3314.57 309.281   8
  -7  -2  -3 2654.16 325.740   4
  -7  -2  -4 12041.9 694.113   4
   7   2   4 12513.5 613.532   8
  -7  -2  -5 421.508 162.207   4
   7   2   5 127.511 103.124   8
   7   2   6 2392.94 304.311   8
  -7  -3  15 3334.16 376.299   7
  -7  -3  14 0.25925 122.198   7
   7   3 -14 42.5064 133.736   1
  -7  -3  14 237.193 166.950  10
  -7  -3  13 25795.8 1003.69  10
   7   3 -13 26337.7 1009.12   1
  -7  -3  13 25222.1 901.213   7
  -7  -3  12 5469.87 457.964  10
   7   3 -12 5614.05 453.094   1
  -7  -3  12 5277.79 389.516   7
  -7  -3  11 24922.8 895.343  10
   7   3 -11 25826.3 917.520   1
  -7  -3  11 26559.7 816.114   7
  -7  -3  10 2061.46 221.915   7
  -7  -3  10 2206.76 269.442  10
   7   3 -10 2169.78 225.815   9
   7   3 -10 2031.10 258.094   1
  -7  -3   9 1912.52 193.080   7
  -7  -3   9 1922.99 236.833  10
   7   3  -9 2142.93 217.636   9
   7   3  -9 1851.42 227.499   1
   7   3  -8 88127.7 1474.26   1
  -7  -3   8 85888.1 1423.54  10
   7   3  -8 84892.0 1311.92   9
  -7  -3   8 87246.7 1146.91   7
  -7  -3   7 89.7943 45.1011   7
  -7  -3   7 145.498 92.1290  10
  -7  -3   7-15.0834 72.6744   5
   7   3  -7 166.614 79.4209   9
   7   3  -7-78.1413 82.0910   1
   7   3  -6 15816.3 571.897   1
  -7  -3   6 15854.3 549.669  10
  -7  -3   6 14633.4 573.429   5
   7   3  -6 15290.5 550.027   9
  -7  -3   6 15956.0 485.628   4
   7   3  -6 15615.7 542.428   8
   7   3  -5 26977.6 714.287   1
  -7  -3   5 25344.8 649.761  10
  -7  -3   5 25185.4 750.601   5
   7   3  -5 25106.4 706.805   9
  -7  -3   5 25799.8 666.120   4
   7   3  -5 25604.1 676.705   8
   7   3  -4 11935.5 451.561   1
  -7  -3   4 11432.2 411.028  10
  -7  -3   4 10548.1 493.961   5
   7   3  -4 11829.3 490.397   9
  -7  -3   4 11878.5 483.165   4
   7   3  -4 11859.1 457.436   8
   7   3  -3 5608.25 299.790   1
  -7  -3   3 5535.31 263.439  10
  -7  -3   3 5363.53 364.948   5
   7   3  -3 5203.62 332.302   9
  -7  -3   3 5618.15 355.487   4
   7   3  -3 5903.54 323.002   8
   7   3  -2 2380.97 190.315   1
  -7  -3   2 2258.92 247.080   5
   7   3  -2 1725.70 210.071   9
  -7  -3   2 2412.65 251.351   4
   7   3  -2 2363.74 207.748   8
  -7  -3   1 10462.5 537.826   5
   7   3  -1 11808.4 531.719   9
  -7  -3   1 10494.2 532.403   4
   7   3  -1 11605.9 464.836   8
  -7  -3   0 23765.4 842.865   5
   7   3   0 25657.4 800.769   9
  -7  -3   0 23357.9 833.504   4
   7   3   0 25224.5 707.445   8
  -7  -3  -1 986.449 184.594   5
   7   3   1 1296.58 194.594   9
  -7  -3  -1 889.546 194.651   4
   7   3   1 899.960 152.341   8
  -7  -3  -2 660.189 173.709   5
   7   3   2 579.072 134.913   9
  -7  -3  -2 508.735 166.654   4
   7   3   2 608.699 136.658   8
  -7  -3  -3 2327.63 299.457   5
   7   3   3 2638.62 297.710   9
  -7  -3  -3 3030.52 357.449   4
   7   3   3 2352.21 264.071   8
  -7  -3  -4 132.126 125.389   5
  -7  -3  -4 165.479 131.965   4
   7   3   4-41.6112 97.7731   8
  -7  -3  -5 420.306 173.243   4
   7   3   5 176.600 106.098   8
  -7  -4  15 1571.95 264.077   7
  -7  -4  14 5308.84 490.204  10
   7   4 -14 5896.28 505.853   1
  -7  -4  14 5670.95 461.326   7
  -7  -4  13 36966.3 1203.25  10
   7   4 -13 35620.9 1175.57   1
  -7  -4  13 37963.7 1091.89   7
  -7  -4  12 9555.40 593.264  10
   7   4 -12 8871.56 566.871   1
  -7  -4  12 9216.25 516.410   7
  -7  -4  11 126.073 93.8392   7
   7   4 -11 45.8247 94.6451   1
  -7  -4  11 125.852 128.916  10
  -7  -4  10 10549.6 557.695  10
   7   4 -10 9962.88 547.238   1
   7   4 -10 10388.9 503.329   9
  -7  -4  10 11442.8 490.805   7
  -7  -4   9 6605.33 347.939   7
   7   4  -9 6554.03 425.228   1
  -7  -4   9 6756.76 432.846  10
   7   4  -9 6419.08 389.321   9
   7   4  -8 16595.9 637.600   1
  -7  -4   8 15099.3 598.526  10
  -7  -4   8 15823.9 630.223   5
   7   4  -8 15889.9 602.076   9
   7   4  -7 7455.50 408.133   1
  -7  -4   7 7162.48 391.931  10
  -7  -4   7 7477.59 434.806   5
   7   4  -7 7063.27 397.551   9
  -7  -4   6 1711.09 192.052  10
  -7  -4   6 1242.87 189.016   5
   7   4  -6 1354.67 179.629   9
  -7  -4   6 1132.67 143.304   4
   7   4  -6 1306.06 170.089   1
   7   4  -6 1340.35 162.829   8
  -7  -4   5 212.125 87.1620  10
  -7  -4   5 385.710 121.867   5
   7   4  -5 614.320 136.476   9
   7   4  -5 299.882 85.9321   1
  -7  -4   5 424.827 109.461   4
   7   4  -5 324.691 104.390   8
   7   4  -4 6604.08 329.996   1
  -7  -4   4 6448.15 410.778   5
   7   4  -4 6620.10 389.491   9
  -7  -4   4 6375.67 373.559   4
   7   4  -4 7136.93 353.629   8
  -7  -4   3 2695.98 283.384   5
   7   4  -3 2627.57 256.102   9
  -7  -4   3 3463.68 294.668   4
   7   4  -3 2789.48 221.995   8
  -7  -4   2 572.974 154.236   5
   7   4  -2 595.397 138.672   9
  -7  -4   2 502.454 131.223   4
   7   4  -2 628.065 121.045   8
  -7  -4   1 595.810 151.826   5
   7   4  -1 717.930 160.820   9
  -7  -4   1 497.638 140.243   4
   7   4  -1 784.604 133.749   8
  -7  -4   0 540.854 161.281   5
   7   4   0 365.935 120.769   9
  -7  -4   0 470.204 151.379   4
   7   4   0 475.900 117.346   8
  -7  -4  -1 3474.84 357.134   5
   7   4   1 2923.74 302.948   9
  -7  -4  -1 3318.84 350.438   4
   7   4   1 3456.75 277.082   8
  -7  -4  -2 19591.7 858.269   5
   7   4   2 19395.0 777.497   9
  -7  -4  -2 21330.4 890.305   4
   7   4   2 21254.8 710.656   8
  -7  -4  -3 384.835 155.987   5
   7   4   3 621.428 161.044   9
  -7  -4  -3 745.853 200.310   4
  -7  -4  -4 796.439 217.765   5
   7   4   4 633.149 177.616   9
  -7  -4  -4 725.650 202.935   4
  -7  -5  15 469.995 176.116   7
  -7  -5  14 365.277 161.242   7
   7   5 -14 343.052 149.040   1
  -7  -5  14 397.563 201.422  10
  -7  -5  13-77.2147 119.834   7
   7   5 -13 60.3893 103.266   1
  -7  -5  13-220.948 171.482  10
  -7  -5  12 12954.3 600.078   7
  -7  -5  12 14194.7 725.469  10
   7   5 -12 12740.1 675.766   1
  -7  -5  11 1724.39 215.304   7
   7   5 -11 1694.35 244.864   1
  -7  -5  11 1406.42 238.969  10
   7   5 -11 1614.81 218.251   9
   7   5 -10 2380.32 276.022   1
  -7  -5  10 2585.00 289.635  10
   7   5 -10 2231.30 254.228   9
   7   5  -9 174.085 108.384   1
  -7  -5   9-93.3744 98.4512  10
  -7  -5   9 73.6056 93.5587   5
   7   5  -9-37.0799 84.2567   9
   7   5  -8 29.1389 69.3143   1
  -7  -5   8 41.0423 84.7402  10
  -7  -5   8 8.44038 66.6469   5
   7   5  -8 251.297 121.674   9
   7   5  -7 24242.0 730.121   1
  -7  -5   7 23800.7 708.661  10
  -7  -5   7 22677.5 791.433   5
   7   5  -7 23094.0 752.337   9
  -7  -5   6 341.885 98.0773  10
  -7  -5   6 398.058 121.199   5
   7   5  -6 535.829 138.074   9
   7   5  -6 220.400 86.9298   1
   7   5  -5 3535.39 249.605   1
  -7  -5   5 3053.70 301.973   5
   7   5  -5 3641.75 302.801   9
   7   5  -5 4054.50 273.109   8
  -7  -5   4 4728.00 373.116   5
   7   5  -4 4857.58 353.055   9
   7   5  -4 5203.43 302.194   8
  -7  -5   3 6323.30 446.341   5
   7   5  -3 6836.25 423.041   9
  -7  -5   3 6409.36 416.546   4
   7   5  -3 6954.52 347.837   8
  -7  -5   2 22132.6 848.741   5
   7   5  -2 25162.2 816.577   9
  -7  -5   2 23932.4 833.827   4
   7   5  -2 22871.7 633.815   8
  -7  -5   1 10878.6 606.073   5
   7   5  -1 11177.4 559.011   9
  -7  -5   1 11281.2 603.877   4
  -7  -5   0 7465.96 524.427   5
   7   5   0 7593.71 481.970   9
  -7  -5   0 7631.05 517.135   4
  -7  -5  -1 26605.3 1017.61   5
   7   5   1 28488.0 941.428   9
  -7  -5  -1 26418.5 998.218   4
  -7  -5  -2 2917.61 366.197   5
  -7  -5  -2 2983.25 366.265   4
   7   5   2 2936.16 321.515   9
  -7  -5  -3 1190.92 247.985   5
   7   5   3 1292.75 229.958   9
  -7  -6  14 3539.44 421.446  10
   7   6 -14 3562.70 399.474   1
   7   6 -13 2651.92 335.002   1
  -7  -6  13 3388.49 389.569  10
  -7  -6  12 10681.2 643.114  10
   7   6 -12 10678.4 620.327   1
  -7  -6  11 12278.8 649.065  10
   7   6 -11 11256.9 609.641   1
   7   6 -11 11888.9 595.323   9
   7   6 -10 54.2584 91.5374   1
  -7  -6  10 99.9916 101.410  10
   7   6 -10 71.1334 108.236   9
   7   6  -9 957.349 166.538   1
  -7  -6   9 1041.83 186.558  10
  -7  -6   9 893.062 179.101   5
   7   6  -9 620.407 149.273   9
   7   6  -8 662.379 138.422   1
  -7  -6   8 622.999 142.877  10
  -7  -6   8 652.107 167.072   5
   7   6  -8 999.920 189.458   9
   7   6  -7 31823.0 825.487   1
  -7  -6   7 29885.3 958.017   5
   7   6  -7 32098.1 927.976   9
  -7  -6   6 8318.26 512.658   5
   7   6  -6 7693.11 457.070   9
  -7  -6   5 4815.86 386.460   5
   7   6  -5 3557.69 318.580   9
  -7  -6   4 28682.5 966.683   5
   7   6  -4 29699.7 905.931   9
  -7  -6   3 3014.45 328.928   5
   7   6  -3 3265.35 311.300   9
  -7  -6   2 3556.22 353.984   5
   7   6  -2 2950.70 308.464   9
  -7  -6   1 3526.06 374.276   5
   7   6  -1 3920.24 353.211   9
  -7  -6   0 5485.73 468.300   5
   7   6   0 6109.17 444.325   9
  -7  -6  -1 5307.45 480.040   5
   7   6   1 4716.86 405.139   9
  -7  -6  -2 3944.67 424.722   5
   7   6   2 3258.28 350.292   9
  -7  -7  14 3393.00 423.893  10
  -7  -7  13 711.011 209.547  10
   7   7 -13 456.755 177.764   1
  -7  -7  12 141.499 142.561  10
   7   7 -12 430.138 144.230   1
  -7  -7  11 31720.3 1057.92  10
   7   7 -11 31969.7 1029.53   1
   7   7 -11 32738.7 1026.92   9
  -7  -7  10 5419.46 422.829  10
  -7  -7  10 5158.08 434.449   5
   7   7 -10 4441.46 369.590   1
   7   7 -10 5059.47 401.667   9
   7   7  -9 90.6181 69.7519   1
  -7  -7   9 46.2552 98.6987  10
  -7  -7   9 89.7783 92.4044   5
   7   7  -9 225.100 126.767   9
  -7  -7   8 14705.7 705.883   5
   7   7  -8 15278.9 678.096   9
  -7  -7   7 2556.29 304.762   5
   7   7  -7 2842.93 303.940   9
  -7  -7   6 3727.56 364.934   5
   7   7  -6 3842.10 345.441   9
  -7  -7   5 5873.18 453.207   5
   7   7  -5 5389.72 404.758   9
  -7  -7   4 1769.53 265.034   5
   7   7  -4 2337.20 278.756   9
  -7  -7   3-13.8363 102.571   5
   7   7  -3 92.0364 91.5982   9
  -7  -7   2 83.0051 100.557   5
   7   7  -2 120.222 101.022   9
  -7  -7   1 3694.84 399.567   5
   7   7  -1 3506.02 345.248   9
  -7  -7   0 1045.68 232.504   5
   7   7   0 1195.37 218.473   9
  -7  -8  13 356.529 163.848  10
   7   8 -13 245.849 128.402   1
  -7  -8  12 2328.98 315.782  10
  -7  -8  12 2195.65 308.257   5
   7   8 -12 2181.10 294.050   1
  -7  -8  11 4561.58 408.967  10
  -7  -8  11 4064.62 403.998   5
   7   8 -11 3860.25 366.364   1
   7   8 -11 4272.85 402.583   9
  -7  -8  10 174.712 131.866   5
   7   8 -10-159.301 135.340   9
  -7  -8   9 163.239 120.224   5
   7   8  -9 130.272 117.873   9
  -7  -8   8 156.666 115.092   5
   7   8  -8 63.7143 102.339   9
  -7  -8   7 1868.37 267.652   5
   7   8  -7 1422.07 234.962   9
  -7  -8   6 225.870 135.738   5
   7   8  -6 155.268 127.879   9
  -7  -8   5 2143.75 298.508   5
   7   8  -5 1987.24 266.377   9
  -7  -8   4 1650.04 276.664   5
   7   8  -4 1481.06 236.848   9
  -7  -8   3 1498.72 260.147   5
   7   8  -3 1517.44 244.857   9
  -7  -8   2 88.5645 133.980   5
   7   8  -2 89.8950 101.599   9
  -7  -8   1 19346.1 929.947   5
   7   8  -1 20673.7 867.125   9
  -7  -9  13-168.203 186.750  10
  -7  -9  11 3727.39 397.228   5
  -7  -9  10 10122.0 641.383   5
   7   9 -10 10303.3 618.950   9
  -7  -9   9 60.9656 107.758   5
   7   9  -9 262.533 148.007   9
  -7  -9   8 5554.36 479.759   5
   7   9  -8 6325.29 485.455   9
  -7  -9   7 123.609 110.559   5
   7   9  -7 348.587 136.930   9
  -7  -9   6 2332.41 323.879   5
   7   9  -6 2270.86 296.745   9
  -7  -9   5 10637.0 680.158   5
   7   9  -5 11319.8 637.876   9
  -7  -9   4 2407.40 344.669   5
   7   9  -4 2805.45 332.559   9
  -7  -9   3 1896.41 301.818   5
  -8  11   0-5.35880 116.327   2
  -8  11  -1 2091.54 316.125   2
  -8  11  -2 5253.79 474.941   2
  -8  11  -3 1761.09 286.429   2
   8 -10  -4 3694.07 403.108  11
  -8  10   4 2967.77 364.952   2
   8 -10  -3 8510.82 575.241  11
  -8  10   3 9336.67 617.015   2
   8 -10  -2 11339.8 647.135  11
  -8  10   2 11402.2 676.409   2
   8 -10  -1 1004.80 206.832  11
  -8  10   1 835.951 222.305   2
   8 -10   0 12544.1 669.081  11
  -8  10   0 12861.6 715.896   2
   8 -10   1 1679.38 263.281  11
  -8  10  -1 1107.38 236.130   2
   8 -10   2 5105.32 429.062  11
  -8  10  -2 5349.74 465.982   2
   8 -10   3 3497.03 359.678  11
  -8  10  -3 3537.99 385.424   2
   8  -9  -7 2836.49 350.956  11
  -8   9   7 2655.30 349.997  10
   8  -9  -7 2199.15 300.756   1
  -8   9   7 2956.67 352.545   2
   8  -9  -6 210.893 122.271  11
   8  -9  -6 230.113 125.313   1
  -8   9   6 262.167 143.435   2
   8  -9  -5 2744.03 333.292  11
  -8   9   5 3188.39 361.362   2
   8  -9  -4 17273.3 780.430  11
  -8   9   4 17190.1 807.680   2
   8  -9  -3 1608.04 245.462  11
  -8   9   3 1638.02 271.875   2
   8  -9  -2 5827.25 441.076  11
  -8   9   2 5799.19 471.958   2
   8  -9  -1 23419.0 860.663  11
  -8   9   1 24939.2 951.063   2
   8  -9   0 2562.43 296.474  11
  -8   9   0 2639.55 316.868   2
   8  -9   0 2259.61 238.212   8
   8  -9   1-3.39333 115.105  11
  -8   9  -1 143.739 123.269   2
   8  -9   1 48.5254 103.478   8
   8  -9   2 228.070 117.813  11
   8  -9   2 425.364 143.503   8
  -8   9  -2 357.092 136.132   2
   8  -9   3 3439.56 351.473  11
  -8   9  -3 4449.43 410.858   2
   8  -9   3 4130.45 343.877   8
   8  -9   4-91.5469 117.934   3
   8  -9   4-43.7078 100.706  11
   8  -9   4-83.9369 129.652   8
  -8   9  -5 1103.79 251.590  12
   8  -9   5 1015.25 213.188  11
   8  -9   5 713.529 176.985   8
   8  -9   6 2245.99 286.190   8
  -8   8   9 7109.06 552.014  10
  -8   8   9 6456.25 518.529   2
   8  -8  -8 4464.97 417.868   1
   8  -8  -8 4965.27 463.625  11
  -8   8   8 4394.95 431.835  10
  -8   8   8 4444.42 425.123   2
   8  -8  -7 6682.52 507.647  11
  -8   8   7 7035.31 518.213   2
   8  -8  -7 6740.72 496.003   1
   8  -8  -6 9243.44 568.373  11
  -8   8   6 9745.35 599.819   2
   8  -8  -6 7867.54 530.948   1
   8  -8  -5 2057.42 278.046  11
  -8   8   5 2090.24 294.421   2
   8  -8  -4 1227.38 213.608  11
  -8   8   4 923.776 221.299   2
   8  -8  -3-212.253 130.591  11
  -8   8   3 205.163 140.200   2
   8  -8  -3 91.5485 94.9720   8
   8  -8  -2 897.082 181.366  11
  -8   8   2 931.055 205.086   2
   8  -8  -2 1128.70 183.328   8
   8  -8  -1 15222.9 657.586  11
  -8   8   1 14541.6 710.532   2
   8  -8  -1 14482.1 596.009   8
   8  -8   0 1945.43 244.136  11
  -8   8   0 2341.53 290.710   2
   8  -8   0 1985.06 224.956   8
   8  -8   1 175.303 98.9764  11
   8  -8   1 178.049 89.9072   8
  -8   8  -1 298.208 157.171   2
   8  -8   2 1555.04 230.556  11
   8  -8   2 2225.99 253.571   8
  -8   8  -2 2135.29 286.085   2
   8  -8   3 466.379 148.960  11
   8  -8   3 304.438 135.219   8
  -8   8  -3 447.523 170.223   2
   8  -8   4 2688.66 309.862  11
   8  -8   4 2721.14 298.298   8
  -8   8  -4 2615.69 337.825   4
  -8   8  -5 21265.7 957.685  12
   8  -8   5 20669.9 830.148  11
   8  -8   5 22762.4 863.021   8
  -8   8  -5 20055.2 951.530   4
  -8   8  -6 1668.77 305.646  12
   8  -8   6 1887.38 280.422  11
   8  -8   6 1188.56 221.513   8
   8  -7 -10 5246.58 464.394   1
   8  -7 -10 5259.19 479.243  11
  -8   7  10 5352.01 476.951  10
  -8   7  10 5068.10 444.634   2
   8  -7  -9 590.067 172.467  11
  -8   7   9 864.913 217.961  10
   8  -7  -9 901.377 207.668   1
  -8   7   9 1113.15 226.390   2
   8  -7  -8 2306.27 301.915  11
  -8   7   8 1576.92 260.318  10
   8  -7  -8 1660.05 259.657   1
  -8   7   8 1853.54 270.965   2
   8  -7  -7 129.712 114.952  11
   8  -7  -7 137.631 144.385   1
  -8   7   7 54.6626 129.194   2
   8  -7  -6 140.123 84.6183  11
  -8   7   6 302.832 133.736   2
   8  -7  -5 7247.72 462.090  11
  -8   7   5 6825.24 485.013   2
   8  -7  -4 5.43761 90.9428  11
  -8   7   4-56.1899 131.837   2
   8  -7  -4-66.3350 81.1367   8
   8  -7  -3 502.217 135.203  11
  -8   7   3 231.799 150.409   2
   8  -7  -3 755.529 156.310   8
   8  -7  -2 17203.5 658.419  11
  -8   7   2 17180.9 748.749   2
   8  -7  -2 18729.7 669.346   8
   8  -7  -1 1853.23 222.044  11
   8  -7  -1 1785.08 212.244   8
  -8   7   1 1781.52 253.625   2
   8  -7   0 11223.0 532.346  11
  -8   7   0 11174.5 607.977   2
   8  -7   0 11468.6 526.657   8
   8  -7   1 11617.3 548.368  11
  -8   7  -1 12012.4 626.421   2
   8  -7   1 12701.1 567.551   8
   8  -7   2 120.027 97.5464  11
   8  -7   2 201.290 108.506   8
  -8   7  -2 187.938 120.762   2
   8  -7   3 8283.27 482.854  11
  -8   7  -3 9852.85 573.740   2
   8  -7   3 8623.25 498.862   8
  -8   7  -3 8722.50 585.456   4
   8  -7   4 40138.8 1080.50  11
   8  -7   4 40600.2 1112.60   8
   8  -7   5 1641.51 246.675  11
   8  -7   5 1739.65 264.819   8
  -8   7  -5 1459.13 270.692   4
  -8   7  -6 269.485 207.923  12
   8  -7   6-99.2816 116.563  11
   8  -7   6 19.2568 127.008   8
  -8   7  -6 203.346 129.084   4
  -8   7  -7 2052.48 308.607  12
   8  -6 -11 145.521 153.440  11
  -8   6  11 331.277 165.663  10
   8  -6 -11 140.514 104.529   1
   8  -6 -10-99.7387 103.038  11
  -8   6  10-4.81685 140.642  10
   8  -6 -10 71.1209 99.4614   1
  -8   6  10-79.3694 101.629   2
  -8   6  10 277.809 179.001   7
   8  -6  -9 3607.25 366.235   1
   8  -6  -9 4169.92 382.912  11
  -8   6   9 3918.37 402.037  10
  -8   6   9 4193.00 386.084   2
   8  -6  -8 10024.2 592.651   1
   8  -6  -8 10960.6 595.452  11
  -8   6   8 10328.5 615.621  10
  -8   6   8 10710.6 599.068   2
   8  -6  -7 2275.93 267.988  11
   8  -6  -7 2112.26 276.660   1
  -8   6   7 2490.10 292.585   2
   8  -6  -6 24249.6 812.373  11
  -8   6   6 24388.0 878.454   2
   8  -6  -5 6774.73 416.023  11
  -8   6   5 6759.80 471.383   2
   8  -6  -5 6370.60 412.272   8
   8  -6  -4 303.366 116.376  11
  -8   6   4 61.2490 112.705   2
   8  -6  -4 127.277 112.377   8
   8  -6  -3 27116.6 778.850  11
  -8   6   3 25487.3 883.009   2
   8  -6  -3 26207.7 785.050   8
   8  -6  -2 828.073 145.953  11
   8  -6  -2 945.684 157.727   8
  -8   6   2 1113.60 205.027   2
   8  -6  -1 2826.93 251.806  11
   8  -6  -1 2746.94 261.073   8
  -8   6   1 2470.81 285.983   2
   8  -6   0 44309.2 986.579  11
  -8   6   0 43860.3 1157.33   2
   8  -6   0 44400.9 1027.73   8
   8  -6   1 1196.72 184.249  11
   8  -6   1 1209.02 191.983   8
  -8   6  -1 1362.57 216.845   2
   8  -6   2 57.4806 81.7651  11
   8  -6   2 50.9498 87.1766   8
  -8   6  -2 159.896 140.822   4
   8  -6   3 11881.5 553.040  11
   8  -6   3 13117.5 614.436   8
  -8   6  -3 11816.6 671.825   4
   8  -6   4 7660.57 464.337  11
   8  -6   4 8383.66 515.594   8
  -8   6  -4 7426.61 550.508   4
   8  -6   5 21518.2 795.647  11
   8  -6   5 22243.7 869.641   8
  -8   6  -5 22272.9 963.915   4
   8  -6   6 619.144 171.894   8
  -8   6  -6 569.472 195.595   4
   8  -5 -12 4114.52 426.227  11
   8  -5 -12 4716.78 456.576   1
  -8   5  11 3638.06 405.717   7
   8  -5 -11 3138.43 358.393  11
  -8   5  11 2524.79 348.118  10
   8  -5 -11 2750.05 337.043   1
   8  -5 -10 5582.35 461.395   1
   8  -5 -10 6871.26 493.574  11
  -8   5  10 6300.94 497.596  10
  -8   5  10 6695.23 473.677   2
  -8   5  10 6889.30 520.022   7
   8  -5  -9 210.152 105.830  11
  -8   5   9 361.104 174.376  10
   8  -5  -9 488.827 155.712   1
  -8   5   9 383.043 146.820   2
   8  -5  -8 16003.3 729.841   1
   8  -5  -8 16075.0 674.507  11
  -8   5   8 15989.9 744.119  10
  -8   5   8 15409.3 699.597   2
   8  -5  -7 4723.63 352.907  11
  -8   5   7 4292.67 387.646  10
  -8   5   7 4961.76 395.280   2
   8  -5  -7 5066.99 404.887   1
   8  -5  -6 4442.35 326.441  11
  -8   5   6 4008.77 349.584   2
   8  -5  -5 18185.5 631.666  11
  -8   5   5 19413.2 758.917   2
   8  -5  -5 19534.6 690.578   8
   8  -5  -4 21895.6 667.460  11
  -8   5   4 21465.1 792.571   2
   8  -5  -4 20771.4 699.399   8
   8  -5  -3 2576.88 227.798  11
   8  -5  -3 1984.13 223.199   8
  -8   5   3 2328.00 273.763   2
   8  -5  -2 9098.24 419.049  11
  -8   5   2 8591.90 503.880   2
   8  -5  -2 8973.86 453.131   8
   8  -5  -1 2324.06 216.129  11
   8  -5  -1 2632.43 254.171   8
  -8   5   1 2455.24 282.060   2
   8  -5   0 30.9806 70.4173  11
   8  -5   0 46.2502 79.6023   8
  -8   5   0 47.2090 109.481   2
  -8   5   0 156.861 106.844   4
   8  -5   1 26969.8 744.435  11
   8  -5   1 28853.1 842.727   8
  -8   5  -1 26164.1 923.116   4
   8  -5   2 1081.87 166.428  11
   8  -5   2 1194.02 195.396   8
  -8   5  -2 1310.57 217.648   4
   8  -5   3 294.020 111.265  11
   8  -5   3 145.244 91.9633   8
  -8   5  -3 258.491 144.564   4
   8  -5   4 13541.1 591.586  11
   8  -5   4 13345.5 650.098   8
  -8   5  -4 12777.9 703.190   4
   8  -5   5 410.345 157.772   8
  -8   5  -5 403.426 145.352   4
   8  -5   6-83.1389 126.952   8
  -8   5  -6 24.7927 121.598   4
   8  -4 -13 12.4543 135.662   1
   8  -4 -12 20080.1 878.241  11
   8  -4 -12 18957.4 884.283   1
  -8   4  12 19067.4 888.208  10
  -8   4  12 18359.3 880.675   7
   8  -4 -11 28894.6 1052.92   1
   8  -4 -11 31684.9 1043.50  11
  -8   4  11 29469.5 1078.40  10
  -8   4  11 28881.4 943.134   2
  -8   4  11 28978.2 1051.19   7
   8  -4 -10 5113.82 436.197   1
   8  -4 -10 5378.71 417.145  11
  -8   4  10 5164.72 450.297  10
  -8   4  10 4740.79 391.740   2
  -8   4  10 5697.48 461.115   7
   8  -4  -9 595.370 145.322  11
  -8   4   9 431.061 171.648  10
   8  -4  -9 810.058 193.693   1
  -8   4   9 655.382 170.810   7
  -8   4   9 685.611 168.966   2
   8  -4  -8 10433.2 576.661   1
   8  -4  -8 10588.3 515.122  11
  -8   4   8 11125.2 602.041  10
  -8   4   8 10844.9 567.751   2
   8  -4  -7 1899.98 212.838  11
  -8   4   7 1503.74 227.550  10
   8  -4  -7 1736.35 251.968   1
  -8   4   7 1603.84 221.776   2
   8  -4  -6 3277.82 262.303  11
  -8   4   6 3657.40 344.046   2
   8  -4  -6 3004.75 282.696   8
   8  -4  -5 9389.84 422.767  11
  -8   4   5 8574.47 495.582   2
   8  -4  -5 9408.49 472.155   8
   8  -4  -4 34711.4 776.105  11
  -8   4   4 32715.8 959.976   2
   8  -4  -4 33084.7 866.547   8
   8  -4  -3 562.694 98.9630  11
   8  -4  -3 555.574 126.975   8
  -8   4   3 730.626 171.721   2
   8  -4  -2 2735.66 214.485  11
  -8   4   2 2866.82 291.156   2
   8  -4  -2 2982.96 259.418   8
   8  -4  -1 6200.74 321.979  11
   8  -4  -1 5683.71 364.799   8
  -8   4   1 6459.45 426.770   4
   8  -4   0 2404.33 209.015  11
   8  -4   0 2350.22 245.685   8
  -8   4   0 2743.97 299.523   4
   8  -4   1 3389.03 252.090  11
   8  -4   1 3794.93 319.482   8
  -8   4  -1 4110.54 366.289   4
   8  -4   2 3309.13 264.582  11
   8  -4   2 3388.70 307.761   8
  -8   4  -2 2727.68 309.106   4
   8  -4   3 4046.40 306.767  11
   8  -4   3 4056.61 350.406   8
  -8   4  -3 4609.84 408.483   4
   8  -4   4 347.457 139.737   8
  -8   4  -4 157.923 126.396   4
   8  -4   5 12132.8 644.705   8
  -8   4  -5 12315.8 713.834   4
   8  -4   6 3267.14 363.974   8
  -8   4  -6 3359.46 388.736   4
  -8   3  13 305.969 163.757   7
   8  -3 -13 127.836 122.690   1
   8  -3 -12 8812.04 595.583   1
  -8   3  12 8253.68 581.122  10
  -8   3  12 7950.84 572.002   7
  -8   3  11 2634.69 327.846   7
   8  -3 -11 1881.55 256.957  11
  -8   3  11 1789.28 266.272  10
   8  -3 -11 2066.40 301.297   1
   8  -3 -10 26361.0 958.475   1
   8  -3 -10 26219.8 857.115  11
  -8   3  10 26296.7 959.142  10
  -8   3  10 25542.7 860.584   2
  -8   3  10 24919.6 892.461   7
   8  -3  -9 13104.7 655.374   1
   8  -3  -9 13125.8 568.834  11
  -8   3   9 11991.4 631.675  10
  -8   3   9 12294.1 597.348   2
  -8   3   9 12135.3 599.958   7
   8  -3  -8 14923.4 674.830   1
   8  -3  -8 14501.1 566.424  11
  -8   3   8 14545.7 672.128  10
  -8   3   8 14586.0 642.997   2
   8  -3  -7 2508.61 227.021  11
  -8   3   7 2779.87 294.155  10
   8  -3  -7 2364.26 269.936   1
  -8   3   7 2555.15 276.847   2
   8  -3  -6 33597.1 757.773  11
  -8   3   6 30328.2 911.210   2
   8  -3  -6 31162.9 865.815   8
   8  -3  -6 31763.1 934.516   1
   8  -3  -5 388.175 94.6927  11
   8  -3  -5 232.013 103.060   8
  -8   3   5 479.015 145.941   2
   8  -3  -4 4539.79 257.900  11
   8  -3  -4 4996.18 242.847   9
  -8   3   4 4431.18 357.617   2
   8  -3  -4 4467.92 320.312   8
   8  -3  -3 2014.90 167.870  11
   8  -3  -3 2168.15 177.176   9
   8  -3  -3 2513.86 243.783   8
  -8   3   3 2441.11 244.811   4
   8  -3  -2 7212.03 312.457  11
  -8   3   2 6922.27 309.457   5
   8  -3  -2 6715.34 385.160   8
  -8   3   2 7461.89 436.655   4
   8  -3  -1 15337.3 465.907  11
  -8   3   1 15213.9 476.266   5
   8  -3  -1 15201.9 582.878   8
  -8   3   1 14704.6 627.015   4
   8  -3   0 651.920 115.038  11
  -8   3   0 619.065 116.297   5
   8  -3   0 687.548 144.304   8
  -8   3   0 759.246 167.639   4
   8  -3   1 45362.4 857.320  11
   8  -3   1 45277.9 1057.42   8
  -8   3  -1 43931.4 1155.93   4
   8  -3   2 5347.01 317.196  11
   8  -3   2 5259.45 389.610   8
  -8   3  -2 4914.17 411.394   4
   8  -3   3 1300.24 214.010   8
  -8   3  -3 1091.85 212.598   4
   8  -3   4 4149.40 365.918   8
  -8   3  -4 4294.67 413.414   4
   8  -3   5 574.623 183.265   8
  -8   3  -5 910.494 219.042   4
  -8   3  -6 11258.9 705.916   4
   8  -3   6 10969.0 645.856   8
   8  -2 -14 1692.70 299.192   1
  -8   2  13 918.660 223.005   7
  -8   2  13 1538.23 282.683  10
   8  -2 -13 1491.20 264.063   1
  -8   2  12 2216.63 313.138   7
  -8   2  12 2330.35 313.895  10
   8  -2 -12 1899.72 288.943   1
  -8   2  11 278.327 136.562   7
  -8   2  11 207.582 142.699  10
   8  -2 -11 30.7667 91.9149   1
  -8   2  10 2012.63 259.669   7
   8  -2 -10 1925.09 226.655  11
  -8   2  10 2208.14 287.400  10
   8  -2 -10 2389.67 297.128   1
  -8   2   9 1479.89 216.549   7
   8  -2  -9 1169.16 170.712  11
  -8   2   9 1047.15 203.450  10
   8  -2  -9 1148.45 202.423   1
  -8   2   8 299.266 119.876   7
   8  -2  -8 282.711 90.9646  11
  -8   2   8 499.862 139.257  10
   8  -2  -8 372.755 123.605   1
   8  -2  -7 514.169 105.721  11
  -8   2   7 232.144 122.668  10
   8  -2  -7 521.295 146.442   1
  -8   2   7 319.932 81.2147   5
  -8   2   7 398.507 115.637   7
  -8   2   7 419.622 101.386   4
   8  -2  -6 24470.9 586.553  11
  -8   2   6 23955.4 789.555  10
  -8   2   6 23085.5 569.929   5
   8  -2  -6 23839.7 523.093   9
  -8   2   6 24794.9 664.942   4
   8  -2  -6 23220.0 737.638   8
   8  -2  -6 23744.2 793.139   1
   8  -2  -5 16350.4 452.787  11
  -8   2   5 16001.7 471.985   5
   8  -2  -5 15948.0 449.641   9
   8  -2  -5 15355.1 591.114   8
  -8   2   5 16710.3 567.063   4
   8  -2  -4 952.731 109.401  11
  -8   2   4 657.884 103.212   5
   8  -2  -4 948.824 171.875   8
  -8   2   4 740.031 138.013   4
   8  -2  -3 99932.5 1031.38  11
  -8   2   3 99302.2 1225.21   5
   8  -2  -3 102195. 1242.38   9
   8  -2  -3 99901.0 1458.20   8
  -8   2   3 101026. 1501.80   4
   8  -2  -2 10012.0 327.591  11
  -8   2   2 10708.6 419.486   5
   8  -2  -2 10663.1 430.975   9
   8  -2  -2 11353.1 497.325   8
  -8   2   2 10936.0 513.476   4
  -8   2   1 1283.01 162.621   5
   8  -2  -1 910.477 162.720   8
  -8   2   1 1164.63 181.299   4
  -8   2   0 3868.40 279.055   5
   8  -2   0 4054.82 314.028   8
  -8   2   0 3777.89 336.828   4
  -8   2  -1 2581.84 245.732   5
   8  -2   1 2443.63 257.721   8
  -8   2  -1 2327.23 281.858   4
   8  -2   2 4292.05 351.379   8
  -8   2  -2 5009.48 416.437   4
   8  -2   3 698.127 160.394   8
  -8   2  -3 1024.86 207.017   4
   8  -2   4 1037.74 210.026   8
  -8   2  -4 1191.71 234.243   4
  -8   2  -5 23967.5 995.758   4
   8  -2   5 23603.6 906.791   8
   8  -2   6 959.726 221.698   8
  -8   2  -6 1229.64 263.110   4
   8  -1 -14 753.732 215.627   1
  -8   1  14 796.413 219.208   7
  -8   1  13 406.888 165.532   7
  -8   1  13 447.897 188.454  10
   8  -1 -13 517.436 179.623   1
  -8   1  12 3104.41 334.875   7
  -8   1  12 2322.95 319.134  10
   8  -1 -12 2461.88 315.926   1
   8  -1 -11 9909.58 598.436   1
  -8   1  11 10034.3 602.403  10
  -8   1  11 10683.0 576.851   7
   8  -1 -10 8053.54 520.569   1
  -8   1  10 7861.34 516.835  10
  -8   1  10 7592.64 458.290   7
   8  -1  -9 16970.3 722.900   1
  -8   1   9 17646.6 734.633  10
  -8   1   9 16372.3 627.848   7
  -8   1   8 1689.41 232.419  10
   8  -1  -8 1542.75 224.954   1
  -8   1   8 2281.10 226.862   7
   8  -1  -7 20127.2 737.437   1
  -8   1   7 19749.4 721.350  10
  -8   1   7 20512.0 584.146   5
   8  -1  -7 21458.5 538.745   9
  -8   1   7 21465.0 564.341   4
  -8   1   7 19494.1 602.110   7
  -8   1   6 5125.63 363.149  10
  -8   1   6 4848.96 285.394   5
   8  -1  -6 5386.54 274.617   9
  -8   1   6 5059.63 294.978   4
   8  -1  -6 4955.99 342.370   8
  -8   1   6 4726.01 279.717   7
   8  -1  -6 5041.92 365.989   1
  -8   1   5 44.6117 82.9737  10
  -8   1   5 358.053 94.8685   5
   8  -1  -5 210.095 69.5855   9
   8  -1  -5 271.018 113.268   8
  -8   1   5 305.557 84.9900   7
  -8   1   5 206.035 87.7159   4
  -8   1   4 1103.14 144.701   5
   8  -1  -4 1118.38 139.191   9
   8  -1  -4 1081.92 167.248   8
  -8   1   4 1017.49 149.170   4
  -8   1   3 11497.5 455.475   5
   8  -1  -3 11651.3 447.073   9
  -8   1   3 11889.6 513.674   4
   8  -1  -3 11690.8 497.290   8
  -8   1   2 46632.2 941.940   5
   8  -1  -2 46503.8 929.699   9
  -8   1   2 47308.3 1070.46   4
   8  -1  -2 46335.8 990.123   8
  -8   1   1 3441.49 270.738   5
  -8   1   1 3473.69 312.158   4
   8  -1  -1 3664.39 292.803   8
  -8   1   0 1714.94 204.368   5
   8  -1   0 1810.34 214.797   8
  -8   1   0 1626.58 224.358   4
  -8   1  -1 6894.48 414.382   5
  -8   1  -1 6268.20 447.440   4
   8  -1   1 6423.99 406.794   8
  -8   1  -2 5435.75 388.785   5
  -8   1  -2 5609.85 441.691   4
   8  -1   2 5841.36 404.826   8
   8  -1   3 77.0310 112.540   8
  -8   1  -3-12.3896 109.555   4
  -8   1  -4 3889.15 399.483   4
   8  -1   4 4515.68 387.529   8
   8  -1   5 416.324 167.651   8
  -8   1  -5 366.795 166.326   4
  -8   1  -6 18.5738 135.387   4
  -8   0  14 29668.0 1150.17  10
   8   0 -14 29047.3 1135.52   1
  -8   0  14 29563.5 1083.46   7
   8   0 -13 4045.20 416.446   1
  -8   0  13 3395.43 393.930  10
  -8   0  13 3828.07 390.939   7
  -8   0  12 449.753 146.418   7
  -8   0  12 714.352 206.733  10
   8   0 -12 611.471 166.482   1
   8   0 -11 3840.95 376.034   1
  -8   0  11 3297.94 358.506  10
  -8   0  11 3877.68 346.021   7
  -8   0  10 308.015 124.917   7
   8   0 -10 209.193 109.897   1
   8   0  -9 13127.5 636.699   1
  -8   0   9 14021.3 644.924  10
   8   0  -9 13229.8 458.013   9
  -8   0   9 13854.2 554.842   7
  -8   0   8 2035.59 243.585  10
   8   0  -8 2449.29 202.409   9
   8   0  -8 1712.92 225.455   1
  -8   0   8 2138.02 211.021   7
  -8   0   7-84.6244 72.0171   7
  -8   0   7-7.77843 85.7727  10
   8   0  -7 50.3162 78.8127   1
  -8   0   7-57.3372 71.6339   5
   8   0  -7-5.52160 51.9141   9
  -8   0   7 6.20065 56.0742   4
   8   0  -7 13.2811 108.864   8
   8   0  -6 13819.5 585.382   1
  -8   0   6 14327.7 577.705  10
  -8   0   6 13865.8 505.493   5
   8   0  -6 14471.6 481.221   9
  -8   0   6 14820.5 494.969   4
   8   0  -6 13961.3 563.243   8
  -8   0   6 14365.1 438.119   7
  -8   0   5 5651.57 355.791  10
  -8   0   5 5579.47 325.174   5
   8   0  -5 5993.03 317.833   9
  -8   0   5 5343.29 319.691   4
   8   0  -5 6390.15 374.494   8
   8   0  -5 5945.26 376.846   1
  -8   0   4 2215.11 210.234   5
  -8   0   4 2175.67 223.588  10
   8   0  -4 2083.68 197.861   9
   8   0  -4 2356.39 235.894   8
  -8   0   4 1955.98 210.817   4
  -8   0   3 39397.6 893.288   5
   8   0  -3 39405.8 859.234   9
  -8   0   3 38461.9 930.377   4
   8   0  -3 38867.2 897.088   8
  -8   0   2 43316.4 965.605   5
   8   0  -2 44372.8 945.006   9
  -8   0   2 44222.0 1041.22   4
   8   0  -2 46026.8 984.134   8
  -8   0   1 2591.67 253.322   5
   8   0  -1 2856.52 253.090   9
   8   0  -1 3082.58 271.010   8
  -8   0   1 2419.89 266.514   4
  -8   0   0 8442.39 464.322   5
  -8   0   0 8666.19 507.978   4
   8   0   0 8340.20 445.447   8
  -8   0  -1 1352.28 198.474   5
   8   0   1 1049.01 181.507   8
  -8   0  -1 940.925 192.779   4
  -8   0  -2 13666.5 642.141   5
  -8   0  -2 12620.3 667.535   4
   8   0   2 13050.0 599.803   8
  -8   0  -3 29721.4 1053.32   4
   8   0   3 29090.7 928.659   8
   8   0   4 2589.87 302.658   8
  -8   0  -4 1921.03 297.880   4
   8   0   5 3380.82 356.772   8
  -8   0  -5 2954.10 371.692   4
  -8  -1  15 502.124 166.635   7
  -8  -1  14 3608.60 371.393   7
   8   1 -14 3524.48 413.349   1
  -8  -1  14 3693.19 426.157  10
  -8  -1  13 14434.2 778.365  10
   8   1 -13 14109.9 759.610   1
  -8  -1  13 14392.4 703.285   7
   8   1 -12 4476.67 417.910   1
  -8  -1  12 4700.60 424.937  10
  -8  -1  12 4034.26 364.176   7
  -8  -1  11 410.196 128.026   7
  -8  -1  11 646.727 169.211  10
   8   1 -11 607.800 165.436   1
  -8  -1  10 1575.44 204.478   7
  -8  -1  10 1391.81 227.724  10
   8   1 -10 1497.42 179.828   9
   8   1 -10 1733.96 251.249   1
   8   1  -9 19299.1 761.413   1
  -8  -1   9 18288.1 728.834  10
   8   1  -9 18860.6 590.284   9
  -8  -1   9 19020.1 617.911   7
   8   1  -8 3093.19 302.130   1
  -8  -1   8 2868.73 285.561  10
  -8  -1   8 3371.92 274.014   5
   8   1  -8 3086.25 245.569   9
  -8  -1   8 3200.17 238.407   7
   8   1  -7 7591.04 445.142   1
  -8  -1   7 7523.20 428.404  10
  -8  -1   7 6636.23 376.602   5
   8   1  -7 7333.65 365.414   9
   8   1  -7 7408.09 414.773   8
   8   1  -6 4230.30 320.423   1
  -8  -1   6 4081.36 310.457  10
  -8  -1   6 4134.23 297.760   5
   8   1  -6 4112.20 276.987   9
  -8  -1   6 4280.44 272.023   4
   8   1  -6 4094.18 304.312   8
  -8  -1   5 14814.3 555.365  10
  -8  -1   5 13195.7 529.113   5
   8   1  -5 14267.9 516.318   9
  -8  -1   5 14515.0 520.621   4
   8   1  -5 14195.1 552.386   8
   8   1  -5 14450.9 571.352   1
  -8  -1   4 46234.0 930.356  10
  -8  -1   4 45666.3 991.596   5
   8   1  -4 47581.2 955.142   9
  -8  -1   4 44295.0 958.684   4
   8   1  -4 46726.4 983.444   8
   8   1  -4 46598.6 992.963   1
  -8  -1   3 262.945 89.4187  10
  -8  -1   3 252.091 100.255   5
   8   1  -3 210.639 85.6049   9
  -8  -1   3 324.288 124.688   4
   8   1  -3 289.981 97.9105   8
  -8  -1   2 4101.71 260.028  10
  -8  -1   2 4129.78 323.099   5
   8   1  -2 4231.01 312.866   9
  -8  -1   2 4267.16 338.588   4
   8   1  -2 4139.26 301.132   8
  -8  -1   1 33178.6 934.863   5
   8   1  -1 33812.1 889.781   9
  -8  -1   1 33494.4 964.853   4
   8   1  -1 33744.8 863.935   8
  -8  -1   0 6004.58 414.864   5
   8   1   0 6090.66 400.924   9
  -8  -1   0 5750.10 428.763   4
   8   1   0 5830.49 377.144   8
  -8  -1  -1 163.660 115.585   5
   8   1   1 17.8304 87.8914   8
  -8  -1  -1 309.392 144.210   4
  -8  -1  -2 339.951 134.982   5
   8   1   2 26.3198 101.428   8
  -8  -1  -2 113.794 139.479   4
  -8  -1  -3 15522.6 749.803   5
  -8  -1  -3 15707.4 787.861   4
   8   1   3 16478.7 703.581   8
  -8  -1  -4 151.133 128.769   4
   8   1   4 239.612 135.270   8
  -8  -1  -5 173.208 126.773   4
   8   1   5 122.421 114.378   8
  -8  -2  15 293.052 143.903   7
  -8  -2  14 1135.48 226.399   7
   8   2 -14 1862.50 303.340   1
  -8  -2  14 2049.78 318.343  10
  -8  -2  13 12370.9 719.683  10
   8   2 -13 14287.5 762.937   1
  -8  -2  13 13858.7 673.694   7
  -8  -2  12 274.277 133.573   7
  -8  -2  12 112.164 134.640  10
   8   2 -12 99.5440 98.3610   1
  -8  -2  11 893.451 173.992   7
  -8  -2  11 675.032 188.816  10
   8   2 -11 350.550 136.978   1
  -8  -2  10 151.378 87.9554   7
  -8  -2  10 196.644 125.684  10
   8   2 -10 295.805 114.163   9
   8   2 -10 121.324 126.956   1
   8   2  -9 19337.2 754.725   1
  -8  -2   9 18557.8 728.963  10
   8   2  -9 19162.7 628.659   9
  -8  -2   9 19028.8 597.940   7
   8   2  -8 52340.9 1190.53   1
  -8  -2   8 51877.0 1154.05  10
  -8  -2   8 52155.4 1101.84   5
   8   2  -8 51912.4 1024.52   9
   8   2  -7 3984.97 320.197   1
  -8  -2   7 4524.97 329.151  10
  -8  -2   7 4096.71 312.181   5
   8   2  -7 3872.31 289.486   9
   8   2  -7 4753.24 336.868   8
   8   2  -6 4084.72 314.655   1
  -8  -2   6 4464.31 314.132  10
  -8  -2   6 3793.95 299.705   5
   8   2  -6 4288.25 303.770   9
  -8  -2   6 4599.34 287.474   4
   8   2  -6 4796.12 331.005   8
   8   2  -5 36612.9 891.039   1
  -8  -2   5 37533.1 849.163  10
  -8  -2   5 36879.0 930.364   5
   8   2  -5 37185.2 877.797   9
  -8  -2   5 37116.5 854.759   4
   8   2  -5 37502.7 885.321   8
  -8  -2   4 421.280 105.072  10
   8   2  -4 530.596 119.931   1
  -8  -2   4 469.514 125.902   5
   8   2  -4 719.088 143.812   9
  -8  -2   4 431.484 116.947   4
   8   2  -4 465.943 121.581   8
  -8  -2   3 9325.69 493.911   5
   8   2  -3 9143.64 452.771   9
  -8  -2   3 9348.01 486.605   4
   8   2  -3 8771.22 429.158   8
   8   2  -3 9362.03 428.708   1
  -8  -2   2 6142.97 412.695   5
   8   2  -2 5960.04 380.172   9
  -8  -2   2 5953.12 409.297   4
   8   2  -2 5646.00 350.261   8
   8   2  -2 5943.59 336.419   1
  -8  -2   1 40086.7 1077.60   5
   8   2  -1 38948.5 994.694   9
  -8  -2   1 39315.2 1080.77   4
   8   2  -1 41248.5 952.243   8
  -8  -2   0 7206.96 477.033   5
   8   2   0 6503.71 426.638   9
  -8  -2   0 5407.65 418.355   4
   8   2   0 6430.09 393.066   8
  -8  -2  -1 144.168 97.3265   5
   8   2   1-58.9721 103.823   9
  -8  -2  -1 86.1426 107.767   4
   8   2   1 59.1073 79.4564   8
  -8  -2  -2 4050.65 391.540   5
   8   2   2 4038.84 364.479   9
  -8  -2  -2 3757.95 380.154   4
   8   2   2 4236.38 350.585   8
  -8  -2  -3 410.272 170.218   5
  -8  -2  -3 79.5282 150.897   4
   8   2   3 455.410 144.716   8
  -8  -2  -4 165.412 121.482   4
   8   2   4-94.6363 166.767   8
  -8  -3  15 133.988 123.218   7
  -8  -3  14 55.0257 114.729   7
   8   3 -14 129.155 136.974   1
  -8  -3  14 146.475 140.211  10
  -8  -3  13 7669.28 567.698  10
   8   3 -13 7581.08 563.105   1
  -8  -3  13 6394.75 455.713   7
  -8  -3  12 60183.7 1486.02  10
   8   3 -12 58643.5 1472.32   1
  -8  -3  12 59307.7 1279.09   7
   8   3 -11 9041.67 555.665   1
  -8  -3  11 9722.51 577.370  10
   8   3 -11 9415.08 478.735   9
  -8  -3  11 9647.29 488.826   7
  -8  -3  10 652.177 182.618  10
   8   3 -10 561.508 132.337   9
   8   3 -10 438.716 145.720   1
  -8  -3   9 743.956 180.056  10
  -8  -3   9 653.266 146.680   5
   8   3  -9 443.348 123.358   9
   8   3  -9 630.164 146.615   1
  -8  -3   8 403.957 137.817  10
  -8  -3   8 348.814 115.646   5
   8   3  -8 264.721 106.610   9
   8   3  -8 429.801 127.707   1
  -8  -3   7 2551.74 248.730  10
  -8  -3   7 2596.28 264.540   5
   8   3  -7 2127.11 230.011   9
   8   3  -7 2009.96 231.496   1
  -8  -3   6 1940.61 208.370  10
  -8  -3   6 1425.89 198.525   5
  -8  -3   6 2250.41 211.052   4
   8   3  -6 1633.99 202.690   9
   8   3  -6 1629.20 199.958   1
   8   3  -6 1577.74 186.403   8
   8   3  -5 8560.32 428.468   1
  -8  -3   5 8694.04 399.665  10
  -8  -3   5 8423.56 472.038   5
   8   3  -5 8336.75 440.879   9
  -8  -3   5 8506.68 427.224   4
   8   3  -5 9093.08 439.224   8
   8   3  -4 3819.88 276.137   1
  -8  -3   4 3417.02 310.516   5
   8   3  -4 3731.96 301.810   9
  -8  -3   4 3573.37 301.918   4
   8   3  -4 3931.89 287.857   8
  -8  -3   3 112.097 79.0855   5
   8   3  -3 216.827 79.1257   1
   8   3  -3 202.977 80.5955   9
  -8  -3   3 162.956 87.2694   4
   8   3  -3 284.128 96.0651   8
  -8  -3   2 6009.77 429.962   5
   8   3  -2 6866.89 423.881   9
  -8  -3   2 6747.05 448.861   4
   8   3  -2 6469.16 371.100   8
  -8  -3   1-92.2495 121.307   5
   8   3  -1 30.6344 85.1700   9
  -8  -3   1-103.864 100.323   4
   8   3  -1 107.185 93.0517   8
  -8  -3   0 6874.58 488.330   5
   8   3   0 6348.38 435.120   9
  -8  -3   0 6487.85 475.363   4
   8   3   0 6226.16 385.014   8
  -8  -3  -1 249.035 150.634   5
   8   3   1 194.758 110.465   9
  -8  -3  -1 235.132 110.227   4
   8   3   1 241.600 111.943   8
  -8  -3  -2 5043.51 454.830   5
   8   3   2 4319.89 385.798   9
  -8  -3  -2 4542.38 437.734   4
   8   3   2 4781.71 367.173   8
  -8  -3  -3 4893.92 467.187   5
   8   3   3 4363.25 400.007   9
  -8  -3  -3 4039.76 430.837   4
   8   3   3 3591.96 339.603   8
   8   3   4 14668.0 700.193   8
  -8  -4  15 768.064 197.937   7
  -8  -4  14 11571.8 727.378  10
   8   4 -14 11937.1 725.900   1
  -8  -4  14 12768.6 668.988   7
  -8  -4  13 6745.68 533.060  10
   8   4 -13 6022.07 497.636   1
  -8  -4  12 34778.8 1132.24  10
   8   4 -12 33184.3 1111.86   1
   8   4 -11 67.8484 90.4039   1
  -8  -4  11 131.896 122.061  10
   8   4 -11 105.171 96.7179   9
  -8  -4  10 632.013 163.780  10
   8   4 -10 722.953 160.382   9
   8   4 -10 649.044 158.228   1
   8   4  -9 5707.26 408.356   1
  -8  -4   9 6177.95 421.397  10
  -8  -4   9 5392.88 401.541   5
   8   4  -9 6494.38 411.361   9
   8   4  -8 4197.06 339.572   1
  -8  -4   8 4212.12 328.614  10
  -8  -4   8 3509.84 322.412   5
   8   4  -8 4052.18 321.139   9
   8   4  -7 5016.18 353.689   1
  -8  -4   7 4716.46 331.383  10
  -8  -4   7 4335.27 359.289   5
   8   4  -7 5161.62 360.250   9
   8   4  -6 5504.12 354.855   1
  -8  -4   6 6378.54 357.861  10
  -8  -4   6 5362.91 397.328   5
   8   4  -6 5102.32 359.422   9
  -8  -4   6 6109.55 354.016   4
   8   4  -6 5860.47 355.897   8
   8   4  -5 3824.63 281.371   1
  -8  -4   5 3702.09 330.317   5
   8   4  -5 3812.45 314.460   9
  -8  -4   5 4256.41 313.687   4
   8   4  -5 4389.25 305.989   8
  -8  -4   4 145.519 102.524   5
   8   4  -4-48.3703 84.2212   9
  -8  -4   4 136.199 90.2120   4
   8   4  -4 26.2286 68.3370   8
  -8  -4   3 25345.2 899.830   5
   8   4  -3 24331.1 804.468   9
  -8  -4   3 24624.9 828.876   4
   8   4  -3 24610.6 711.871   8
  -8  -4   2-69.1401 125.392   5
   8   4  -2-67.0923 101.054   9
  -8  -4   2-36.8835 110.161   4
   8   4  -2 197.428 102.261   8
  -8  -4   1-92.9217 129.779   5
   8   4  -1-109.208 129.649   9
  -8  -4   1 297.680 144.554   4
   8   4  -1-54.8517 84.0033   8
  -8  -4   0 37932.2 1194.49   5
   8   4   0 36578.7 1073.39   9
  -8  -4   0 36573.7 1149.07   4
   8   4   0 36568.7 924.684   8
  -8  -4  -1 2862.27 361.629   5
   8   4   1 2539.21 307.019   9
   8   4   1 3181.66 290.287   8
  -8  -4  -1 2602.22 343.241   4
  -8  -4  -2 4956.09 465.669   5
   8   4   2 4379.66 401.562   9
  -8  -4  -2 4786.64 461.096   4
   8   5 -14 105.088 104.714   1
  -8  -5  14 217.370 145.324  10
   8   5 -13-21.8904 116.275   1
  -8  -5  13 37.0804 126.637  10
   8   5 -12 704.421 182.038   1
  -8  -5  12 732.364 208.369  10
  -8  -5  11 8357.28 538.687  10
   8   5 -11 9094.14 558.727   1
   8   5 -11 9050.34 511.266   9
   8   5 -10 3888.91 354.398   1
  -8  -5  10 3047.38 316.825  10
  -8  -5  10 3298.71 332.013   5
   8   5 -10 3857.90 343.616   9
   8   5  -9 987.387 187.351   1
  -8  -5   9 1137.98 197.048  10
  -8  -5   9 992.239 188.875   5
   8   5  -9 915.405 185.920   9
  -8  -5   8 41.6825 91.8688  10
  -8  -5   8 66.7466 88.2026   5
   8   5  -8 285.634 137.324   9
   8   5  -8 82.7020 84.9824   1
   8   5  -7 38906.0 953.634   1
  -8  -5   7 35800.5 1061.04   5
   8   5  -7 36701.1 998.397   9
  -8  -5   6 12449.3 633.034   5
   8   5  -6 13953.8 620.713   9
   8   5  -6 14544.9 556.759   8
  -8  -5   5 2842.31 311.943   5
   8   5  -5 3869.16 332.063   9
   8   5  -5 3654.29 278.335   8
  -8  -5   4 7284.38 504.926   5
   8   5  -4 7718.31 481.227   9
  -8  -5   4 8386.08 489.146   4
   8   5  -4 8388.77 416.803   8
  -8  -5   3 2083.46 280.879   5
   8   5  -3 2318.70 266.581   9
  -8  -5   3 1795.25 246.498   4
  -8  -5   2 1775.58 288.294   5
   8   5  -2 1822.69 242.722   9
  -8  -5   2 1678.25 248.379   4
  -8  -5   1 7602.80 551.974   5
   8   5  -1 8687.86 532.624   9
  -8  -5   1 8137.46 544.860   4
  -8  -5   0 2601.51 342.686   5
   8   5   0 2980.98 329.370   9
  -8  -5   0 2498.21 335.662   4
  -8  -5  -1 14636.7 802.708   5
   8   5   1 14271.3 721.733   9
  -8  -5  -1 15414.8 807.103   4
  -8  -6  14 1681.25 291.909  10
   8   6 -13 490.923 177.142   1
  -8  -6  13 44.8657 129.780  10
   8   6 -12 1377.30 241.627   1
  -8  -6  12 1764.42 277.046  10
  -8  -6  11 24876.5 934.155  10
   8   6 -11 23584.6 896.064   1
  -8  -6  11 23383.2 912.526   5
   8   6 -11 23731.2 864.848   9
  -8  -6  10 6643.77 461.071  10
   8   6 -10 6378.92 450.451   1
  -8  -6  10 5970.96 468.534   5
   8   6 -10 6970.15 469.465   9
  -8  -6   9 17854.1 704.778  10
   8   6  -9 17150.4 696.257   1
  -8  -6   9 17003.6 770.290   5
   8   6  -9 17910.8 738.265   9
  -8  -6   8 1597.42 245.059   5
   8   6  -8 1022.92 202.662   9
  -8  -6   7 2053.63 277.045   5
   8   6  -7 2232.73 273.110   9
  -8  -6   6 3039.55 333.785   5
   8   6  -6 3820.96 341.905   9
  -8  -6   5 4782.85 419.486   5
   8   6  -5 4950.12 394.290   9
  -8  -6   4 4817.71 433.941   5
   8   6  -4 5310.72 411.167   9
  -8  -6   3 25654.7 997.262   5
   8   6  -3 25414.4 898.449   9
  -8  -6   2 2161.76 301.807   5
   8   6  -2 2927.22 324.525   9
  -8  -6   1 226.029 136.603   5
   8   6  -1 246.405 129.847   9
  -8  -6   0 7256.36 570.750   5
   8   6   0 7649.50 526.232   9
   8   7 -13 2371.66 325.432   1
  -8  -7  13 2837.28 365.507  10
  -8  -7  12 6901.65 530.449  10
  -8  -7  12 6544.94 517.481   5
   8   7 -12 7008.11 515.325   1
   8   7 -12 7046.44 504.306   9
   8   7 -11 2299.20 285.566   1
  -8  -7  11 3046.06 351.447  10
  -8  -7  11 2895.76 349.618   5
   8   7 -11 2239.69 280.455   9
  -8  -7  10 16321.2 791.370   5
   8   7 -10 17378.0 765.952   9
  -8  -7   9 198.427 123.488   5
   8   7  -9 175.381 106.513   9
  -8  -7   8 7252.96 527.451   5
   8   7  -8 8950.86 550.361   9
  -8  -7   7-256.341 160.578   5
   8   7  -7 244.052 132.784   9
  -8  -7   6 9660.60 613.316   5
   8   7  -6 10056.2 573.023   9
  -8  -7   5 3821.40 399.522   5
   8   7  -5 4738.44 404.970   9
  -8  -7   4 262.501 138.304   5
   8   7  -4 590.039 166.571   9
  -8  -7   3 145.071 105.066   5
   8   7  -3 392.990 157.318   9
  -8  -7   2 560.546 195.112   5
   8   7  -2 501.877 173.856   9
  -8  -8  13 6086.89 525.111  10
  -8  -8  11 6911.29 542.956   5
   8   8 -11 7739.35 541.518   9
  -8  -8  10 26134.0 1047.44   5
   8   8 -10 28637.1 1022.06   9
  -8  -8   9 87.0577 148.810   5
   8   8  -9 72.9349 118.473   9
  -8  -8   8-29.2767 164.212   5
   8   8  -8-48.6545 126.298   9
  -8  -8   7 3128.33 369.172   5
   8   8  -7 3463.44 354.165   9
  -8  -8   6 4356.06 447.108   5
   8   8  -6 3956.19 395.150   9
  -8  -8   5 15729.6 832.680   5
   8   8  -5 17304.2 787.469   9
  -8  -8   4 1089.79 227.224   5
   8   8  -4 642.944 182.551   9
   9 -10  -3 590.932 172.023  11
   9 -10  -2 14890.3 747.358  11
   9 -10  -1 2220.37 299.443  11
  -9  10   1 3354.54 393.110   2
   9 -10   0 519.336 148.582  11
  -9  10   0 795.053 213.530   2
   9 -10   1 5275.89 447.108  11
  -9  10  -1 4682.50 453.503   2
  -9  10  -2 3825.71 425.374   2
   9  -9  -7 1899.28 296.806   1
   9  -9  -6 6546.98 514.063  11
   9  -9  -6 6333.44 519.217   1
   9  -9  -5 417.900 160.401  11
  -9   9   5 502.432 171.938   2
   9  -9  -4 397.959 142.576  11
  -9   9   4 191.380 137.335   2
   9  -9  -3 2833.59 320.314  11
  -9   9   3 2949.88 356.074   2
   9  -9  -2 183.335 111.575  11
  -9   9   2 257.740 166.176   2
   9  -9  -1 12289.0 645.073  11
  -9   9   1 12076.2 712.830   2
   9  -9   0 8503.16 534.568  11
  -9   9   0 8950.72 618.772   2
   9  -9   0 8678.70 502.981   8
   9  -9   1 1402.31 238.695  11
   9  -9   1 1673.20 235.901   8
  -9   9  -1 1688.32 287.230   2
   9  -9   2 5365.86 438.655  11
  -9   9  -2 4294.42 424.758   2
   9  -9   2 4974.56 398.862   8
   9  -9   3 6.56816 123.018  11
   9  -9   3-39.5478 102.808   8
  -9   9  -3 66.6076 140.489   2
   9  -9   4 4231.77 389.625   8
   9  -8  -9 502.697 184.095   1
   9  -8  -8 3433.82 388.469  11
   9  -8  -8 3296.00 374.523   1
   9  -8  -7 1741.64 280.271  11
   9  -8  -7 1157.06 237.490   1
  -9   8   7 1611.69 269.131   2
   9  -8  -6 303.776 144.918  11
  -9   8   6 150.018 139.583   2
   9  -8  -5 8369.37 534.814  11
  -9   8   5 8238.52 576.923   2
   9  -8  -4 578.710 151.395  11
  -9   8   4 518.490 169.271   2
   9  -8  -4 376.987 114.711   8
   9  -8  -3 2835.84 310.512  11
   9  -8  -3 3695.04 337.458   8
  -9   8   3 3072.96 350.601   2
   9  -8  -2 3109.84 310.877  11
   9  -8  -2 3977.26 341.038   8
  -9   8   2 3481.73 379.738   2
   9  -8  -1-74.9317 107.561  11
   9  -8  -1 171.456 94.3048   8
  -9   8   1 332.994 166.115   2
   9  -8   0-75.2724 105.129  11
  -9   8   0 69.5636 114.822   2
   9  -8   1 6806.06 460.031  11
  -9   8  -1 6685.29 516.640   2
   9  -8   1 6497.08 441.572   8
   9  -8   2 213.752 118.185  11
   9  -8   2-23.0383 113.286   8
  -9   8  -2 661.839 209.732   2
  -9   8  -2 502.728 137.462   4
   9  -8   3 4110.99 378.400  11
   9  -8   3 4015.53 369.886   8
  -9   8  -3 3935.18 435.054   4
   9  -8   4 22252.6 863.893  11
   9  -8   4 22566.7 883.509   8
   9  -7 -10 348.590 167.588   1
   9  -7  -9 2027.42 292.511  11
  -9   7   9 2626.19 365.423  10
   9  -7  -9 1767.96 284.826   1
  -9   7   9 2482.00 335.293   2
   9  -7  -8 3359.24 364.868  11
  -9   7   8 3070.93 368.515  10
   9  -7  -8 3117.08 360.608   1
  -9   7   8 2565.30 331.768   2
   9  -7  -7 183.737 125.486  11
   9  -7  -7 69.2110 106.145   1
  -9   7   7 46.0319 112.156   2
   9  -7  -6 924.925 185.426  11
  -9   7   6 887.813 205.802   2
   9  -7  -5-26.3470 103.526  11
  -9   7   5-52.8393 112.949   2
   9  -7  -4 2291.76 256.506  11
  -9   7   4 2383.14 306.270   2
   9  -7  -3 9428.86 505.042  11
  -9   7   3 9029.05 581.875   2
   9  -7  -3 9547.97 519.253   8
   9  -7  -2 132.707 89.3939  11
   9  -7  -2 304.793 135.956   8
  -9   7   2 14.3529 126.584   2
   9  -7  -1 4149.07 343.518  11
  -9   7   1 3801.30 385.270   2
   9  -7  -1 4188.58 348.016   8
   9  -7   0 10779.3 537.866  11
  -9   7   0 10745.5 633.976   2
   9  -7   0 10720.3 550.916   8
   9  -7   1 156.258 88.5044  11
   9  -7   1 16.2266 98.6221   8
  -9   7  -1 94.2606 144.704   2
  -9   7  -1 40.7616 139.083   4
   9  -7   2 4159.09 348.886  11
   9  -7   2 4822.89 384.918   8
  -9   7  -2 4916.17 460.541   4
   9  -7   3 466.914 158.462  11
   9  -7   3 376.239 139.344   8
  -9   7  -3 629.359 226.371   4
   9  -7   4 3713.24 347.757  11
   9  -7   4 3482.08 363.377   8
  -9   7  -4 2945.46 382.064   4
   9  -7   5 3692.95 357.447  11
   9  -6 -11 816.220 203.155  11
   9  -6 -11 678.424 198.694   1
   9  -6 -10 1145.92 236.854  11
  -9   6  10 489.050 187.867  10
   9  -6 -10 1065.80 217.569   1
  -9   6  10 919.814 240.971   7
  -9   6  10 579.037 167.704   2
   9  -6  -9 1357.05 223.097  11
  -9   6   9 1175.39 252.044  10
   9  -6  -9 1141.05 231.301   1
  -9   6   9 1159.67 220.809   2
   9  -6  -8 9126.51 592.848   1
   9  -6  -8 9246.33 548.483  11
  -9   6   8 9219.17 611.647  10
  -9   6   8 9599.07 602.977   2
   9  -6  -7 36461.2 1039.63  11
  -9   6   7 36627.5 1150.00   2
   9  -6  -7 35606.6 1134.75   1
   9  -6  -6 3262.90 308.082  11
  -9   6   6 2839.52 327.246   2
   9  -6  -5 3634.11 313.234  11
  -9   6   5 3138.38 346.972   2
   9  -6  -5 3403.20 315.220   8
   9  -6  -4 13770.9 580.761  11
  -9   6   4 13325.6 692.309   2
   9  -6  -4 14079.0 629.283   8
   9  -6  -3 1308.00 180.535  11
   9  -6  -3 1945.43 238.879   8
  -9   6   3 1788.15 272.655   2
   9  -6  -2 3740.49 299.932  11
  -9   6   2 4051.80 394.634   2
   9  -6  -2 3894.09 331.924   8
   9  -6  -1 1214.18 184.278  11
   9  -6  -1 1007.02 195.472   8
  -9   6   1 1070.39 220.496   2
   9  -6   0 5480.34 366.027  11
  -9   6   0 5609.47 457.662   2
   9  -6   0 5433.31 394.758   8
  -9   6   0 6459.25 495.032   4
   9  -6   1 4654.74 344.714  11
   9  -6   1 4772.18 376.261   8
  -9   6  -1 5063.96 452.424   4
   9  -6   2 4147.41 330.572  11
   9  -6   2 4038.94 371.096   8
  -9   6  -2 4373.59 430.568   4
   9  -6   3 6371.80 424.080  11
   9  -6   3 6420.82 463.901   8
  -9   6  -3 5664.11 496.704   4
   9  -6   4 2710.77 293.412  11
   9  -6   4 3178.56 345.654   8
  -9   6  -4 2854.87 365.812   4
   9  -5 -12 2184.84 310.894  11
  -9   5  11 1483.07 274.450   7
   9  -5 -11 1189.32 227.509  11
  -9   5  11 1410.76 283.746  10
   9  -5 -11 1364.97 261.230   1
  -9   5  11 1414.89 246.954   2
   9  -5 -10 14955.8 775.588   1
   9  -5 -10 15869.4 733.757  11
  -9   5  10 15513.8 798.217  10
  -9   5  10 15119.6 746.332   2
  -9   5  10 15020.2 768.754   7
   9  -5  -9 30593.9 1075.82   1
   9  -5  -9 30599.0 976.799  11
  -9   5   9 29029.1 1064.19  10
  -9   5   9 30426.5 1043.05   2
   9  -5  -8 4862.92 428.786   1
   9  -5  -8 4864.45 381.998  11
  -9   5   8 5069.14 451.898  10
  -9   5   8 5034.19 433.908   2
   9  -5  -7 3809.41 324.281  11
  -9   5   7 3663.24 377.023  10
  -9   5   7 4112.42 392.016   2
   9  -5  -7 3617.56 356.985   1
   9  -5  -6 2258.69 236.953  11
   9  -5  -6 2514.87 287.174   8
  -9   5   6 2291.15 300.522   2
   9  -5  -5 2889.91 262.983  11
  -9   5   5 3652.21 357.710   2
   9  -5  -5 3219.70 317.969   8
   9  -5  -4 2773.21 247.396  11
   9  -5  -4 3184.85 299.411   8
  -9   5   4 2822.01 330.624   2
   9  -5  -3 5974.86 353.136  11
  -9   5   3 5424.65 438.940   2
   9  -5  -3 5323.28 381.259   8
   9  -5  -2 375.216 93.8790  11
   9  -5  -2 626.868 145.078   8
  -9   5   2 611.469 172.819   2
   9  -5  -1 6178.30 357.220  11
   9  -5  -1 5960.49 402.712   8
  -9   5   1 6387.20 471.346   4
   9  -5   0 744.162 136.264  11
   9  -5   0 1007.36 188.637   8
  -9   5   0 1161.41 225.813   4
   9  -5   1 4991.71 341.503  11
   9  -5   1 5252.22 399.888   8
  -9   5  -1 4712.38 427.865   4
   9  -5   2 9556.66 476.910  11
   9  -5   2 9678.73 546.707   8
  -9   5  -2 9788.72 621.806   4
   9  -5   3 26.0961 111.585   8
  -9   5  -3 108.195 121.911   4
   9  -5   4 2305.71 296.900   8
  -9   5  -4 1591.55 269.934   4
   9  -5   5 5675.99 473.858   8
  -9   4  12 1465.51 267.502   7
   9  -4 -12 1832.26 307.580   1
  -9   4  11 221.251 146.826   7
  -9   4  11 366.736 184.476  10
   9  -4 -11 45.3890 128.100   1
  -9   4  10-15.9849 141.020   7
   9  -4 -10 192.536 117.158  11
  -9   4  10 19.7885 125.709  10
   9  -4 -10 44.0147 104.418   1
  -9   4  10 234.342 140.328   2
   9  -4  -9 5833.10 471.599   1
   9  -4  -9 6600.38 433.251  11
  -9   4   9 6383.65 497.234  10
  -9   4   9 6339.12 470.347   2
  -9   4   9 6175.34 457.032   7
   9  -4  -8 6718.07 487.472   1
   9  -4  -8 6481.13 399.197  11
  -9   4   8 6446.61 484.717  10
  -9   4   8 6835.01 484.962   2
   9  -4  -7 1163.85 172.101  11
  -9   4   7 1783.98 270.688  10
   9  -4  -7 1617.45 242.861   1
  -9   4   7 1500.29 235.621   2
   9  -4  -6 141.688 79.4325  11
   9  -4  -6 62.3507 93.5634   8
  -9   4   6 232.108 128.701   2
   9  -4  -5 6413.32 356.365  11
  -9   4   5 6383.39 461.457   2
   9  -4  -5 6151.74 410.281   8
   9  -4  -4 495.294 111.275  11
   9  -4  -4 724.707 163.368   8
  -9   4   4 512.359 164.418   2
   9  -4  -3 20670.9 726.960   8
  -9   4   3 19209.4 743.977   4
   9  -4  -2 36036.9 787.483   9
   9  -4  -2 37767.2 983.853   8
  -9   4   2 36704.3 1051.62   4
   9  -4  -1 1070.89 191.552   8
  -9   4   1 1481.41 226.730   4
   9  -4   0 327.716 123.972   8
  -9   4   0 336.462 131.584   4
   9  -4   1 22688.1 810.561   8
  -9   4  -1 22170.8 889.840   4
   9  -4   2 5518.02 417.337   8
  -9   4  -2 5572.74 475.390   4
   9  -4   3 811.346 196.704   8
  -9   4  -3 621.408 195.287   4
   9  -4   4 7016.65 509.582   8
  -9   4  -4 6110.43 531.979   4
  -9   4  -5 673.027 207.238   4
  -9   3  13 129.243 134.653   7
  -9   3  12 618.677 181.255   7
  -9   3  12 1040.18 242.058  10
   9  -3 -12 460.590 172.770   1
   9  -3 -11 11542.8 686.192   1
  -9   3  11 12284.8 708.365  10
  -9   3  11 11360.0 646.161   7
  -9   3  10 2769.99 318.369   7
  -9   3  10 2782.35 349.157  10
   9  -3 -10 3209.93 359.086   1
   9  -3  -9 4951.83 426.727   1
  -9   3   9 4896.26 426.819  10
  -9   3   9 4907.63 389.763   7
  -9   3   8 2901.01 322.993  10
   9  -3  -8 2565.73 303.917   1
  -9   3   8 2788.78 288.469   7
  -9   3   7 354.785 151.748  10
   9  -3  -7 529.098 170.031   1
  -9   3   7 662.595 135.670   4
  -9   3   6 10776.7 493.669   4
   9  -3  -6 9627.54 515.214   8
   9  -3  -5 4205.74 340.721   8
  -9   3   5 4331.08 330.170   4
   9  -3  -4 13587.5 591.408   8
  -9   3   4 14577.4 611.004   4
   9  -3  -3 8958.14 389.799   9
   9  -3  -3 8161.91 458.463   8
  -9   3   3 8617.37 489.909   4
   9  -3  -2 2056.63 207.787   9
   9  -3  -2 2068.51 234.534   8
  -9   3   2 1735.74 232.582   4
   9  -3  -1 3135.07 294.888   8
  -9   3   1 3290.14 330.936   4
   9  -3   0 3297.94 313.340   8
  -9   3   0 2969.72 327.454   4
   9  -3   1 4556.88 372.759   8
  -9   3  -1 4551.68 413.575   4
   9  -3   2 21810.4 826.964   8
  -9   3  -2 24138.4 970.550   4
   9  -3   3 484.174 153.762   8
  -9   3  -3 448.041 158.558   4
  -9   3  -4 4014.28 433.474   4
   9  -3   4 4259.05 406.339   8
   9  -2 -13 5436.25 499.647   1
  -9   2  13 5136.37 466.925   7
   9  -2 -12 4349.54 438.438   1
  -9   2  12 4326.99 439.965  10
  -9   2  12 3965.51 393.475   7
   9  -2 -11 11429.8 673.932   1
  -9   2  11 10815.9 652.929  10
  -9   2  11 10490.1 592.549   7
   9  -2 -10 31006.3 1066.50   1
  -9   2  10 32855.7 1090.55  10
  -9   2  10 31494.3 965.246   7
  -9   2   9 1203.20 190.860   7
  -9   2   9 1219.82 234.120  10
   9  -2  -9 926.729 207.175   1
   9  -2  -8 9777.46 561.920   1
  -9   2   8 10227.1 576.960  10
  -9   2   8 10297.1 499.930   7
  -9   2   7 33352.4 999.698  10
  -9   2   7 34688.8 824.122   4
   9  -2  -7 33523.2 960.604   8
  -9   2   7 33623.0 845.382   7
   9  -2  -7 33743.2 1019.37   1
   9  -2  -6 385.689 133.848   1
  -9   2   6 103.238 101.069  10
   9  -2  -6 309.917 126.461   8
  -9   2   6 203.888 104.620   4
   9  -2  -5 11547.6 422.950   9
  -9   2   5 11321.3 511.219   4
   9  -2  -5 11283.5 541.005   8
  -9   2   4 68.3842 58.0613   5
   9  -2  -4-39.6413 55.4028   9
   9  -2  -4 16.0353 103.231   8
  -9   2   4-41.0816 84.3546   4
  -9   2   3 117.136 74.5848   5
   9  -2  -3 78.4353 59.8930   9
   9  -2  -3-100.574 105.360   8
  -9   2   3 0.94337 91.1175   4
  -9   2   2 20680.4 641.196   5
   9  -2  -2 20020.2 639.581   9
  -9   2   2 20348.5 768.496   4
   9  -2  -2 19995.3 714.140   8
  -9   2   1 13.8051 62.8243   5
   9  -2  -1 9.02545 97.7579   8
  -9   2   0 14582.7 585.969   5
  -9   2   0 14661.0 709.409   4
   9  -2   0 15020.1 647.357   8
  -9   2  -1 11294.0 542.304   5
  -9   2  -1 12187.6 674.439   4
   9  -2   1 12979.8 615.187   8
  -9   2  -2 3539.88 377.302   4
   9  -2   2 3345.41 330.594   8
   9  -2   3 246.078 120.336   8
  -9   2  -3-83.2363 148.844   4
  -9   2  -4 6498.63 548.392   4
   9  -2   4 7289.32 517.863   8
  -9   1  14 10092.8 654.200   7
   9  -1 -13 13153.6 761.641   1
  -9   1  13 13417.8 775.514  10
  -9   1  13 12124.5 678.876   7
  -9   1  12 1191.44 232.006   7
  -9   1  12 1122.32 240.531  10
   9  -1 -12 1078.50 216.698   1
   9  -1 -11 6936.76 523.633   1
  -9   1  11 7036.61 527.646  10
  -9   1  11 7624.04 490.578   7
  -9   1  10-151.636 126.865   7
  -9   1  10 54.0051 118.357  10
   9  -1 -10 124.200 134.308   1
  -9   1   9 1382.77 190.943   7
  -9   1   9 1368.77 231.093  10
  -9   1   9 1683.46 191.131   5
   9  -1  -9 1670.23 259.409   1
   9  -1  -8 4663.18 388.693   1
  -9   1   8 4644.43 388.127  10
  -9   1   8 4180.05 289.811   5
  -9   1   8 4386.69 313.010   7
   9  -1  -7 13808.2 644.509   1
  -9   1   7 12747.6 611.246  10
  -9   1   7 12960.9 502.639   5
   9  -1  -7 12992.8 591.338   8
  -9   1   6 12410.5 582.146  10
  -9   1   6 11476.5 470.695   5
   9  -1  -6 13169.8 467.176   9
  -9   1   6 11894.5 495.448   4
   9  -1  -6 12011.8 559.668   8
   9  -1  -6 12511.1 597.357   1
  -9   1   5 2298.44 256.799  10
   9  -1  -5 1843.78 186.102   9
  -9   1   5 1902.45 192.833   5
   9  -1  -5 1635.37 219.603   8
  -9   1   5 1844.55 211.389   4
  -9   1   4 1931.20 205.347   5
   9  -1  -4 2569.58 226.372   9
   9  -1  -4 2183.30 236.442   8
  -9   1   4 2350.09 245.998   4
  -9   1   3 15779.4 581.288   5
   9  -1  -3 16376.1 577.315   9
  -9   1   3 17029.4 676.715   4
   9  -1  -3 16066.7 628.860   8
  -9   1   2 3019.68 268.790   5
   9  -1  -2 3165.50 271.498   9
  -9   1   2 2873.92 294.273   4
   9  -1  -2 3285.93 293.143   8
  -9   1   1 1058.99 169.707   5
   9  -1  -1 1036.63 177.332   9
   9  -1  -1 1032.48 176.507   8
  -9   1   1 877.808 168.642   4
  -9   1   0 17415.9 679.728   5
  -9   1   0 18176.0 781.730   4
   9  -1   0 16855.2 680.201   8
  -9   1  -1 253.855 103.935   5
   9  -1   1 8.65169 107.957   8
  -9   1  -1 473.152 159.366   4
  -9   1  -2 3568.57 387.966   4
   9  -1   2 3840.29 356.238   8
  -9   1  -3 12625.7 736.136   4
   9  -1   3 12705.3 655.465   8
  -9   1  -4 7533.40 589.976   4
   9  -1   4 7772.07 535.091   8
  -9   0  14 5004.63 462.024   7
  -9   0  13 1680.54 269.948   7
  -9   0  13 1769.28 291.998  10
   9   0 -13 1399.18 255.723   1
  -9   0  12 58.2624 102.621   7
  -9   0  12-79.9540 138.803  10
   9   0 -12 48.6491 127.800   1
   9   0 -11 12632.0 694.554   1
  -9   0  11 11690.4 663.812  10
  -9   0  11 11333.3 571.208   7
  -9   0  10 252.261 107.342   7
  -9   0  10 496.798 178.449  10
   9   0 -10 622.282 173.601   1
  -9   0   9 1236.63 219.628  10
  -9   0   9 1141.00 167.986   5
   9   0  -9 1067.52 204.157   1
  -9   0   8 59.2296 98.6452  10
  -9   0   8 253.035 101.939   5
   9   0  -8 235.722 94.5283   1
   9   0  -8 235.618 85.3969   9
  -9   0   7 231.096 109.003  10
   9   0  -7 446.918 138.933   1
  -9   0   7 405.129 108.661   5
   9   0  -7 238.427 85.7512   9
   9   0  -7 311.665 116.813   8
  -9   0   6 2696.91 277.907  10
  -9   0   6 2538.83 237.213   5
   9   0  -6 2639.83 227.920   9
  -9   0   6 2395.47 222.513   4
   9   0  -6 2528.64 263.262   8
   9   0  -6 2780.50 285.139   1
   9   0  -5 524.420 127.742   1
  -9   0   5 798.327 164.565  10
  -9   0   5 611.105 131.308   5
   9   0  -5 755.729 145.273   9
  -9   0   5 578.134 129.528   4
  -9   0   4 2615.90 253.977   5
  -9   0   4 2149.68 227.779  10
   9   0  -4 2669.87 241.540   9
   9   0  -4 2255.08 246.370   8
  -9   0   4 2004.64 224.379   4
  -9   0   3 9833.28 460.508  10
  -9   0   3 9783.88 487.696   5
   9   0  -3 9301.79 461.416   9
  -9   0   3 10075.3 525.583   4
   9   0  -3 10298.0 505.998   8
  -9   0   2 23429.6 779.825   5
   9   0  -2 23608.9 749.071   9
  -9   0   2 24223.1 841.912   4
   9   0  -2 23177.7 762.204   8
  -9   0   1 14217.9 625.728   5
   9   0  -1 13943.4 600.278   9
  -9   0   1 13910.4 668.256   4
   9   0  -1 14288.9 612.426   8
  -9   0   0 283.187 94.6382   5
   9   0   0 189.606 97.7446   9
   9   0   0 314.264 130.820   8
  -9   0   0 369.324 130.023   4
  -9   0  -1 1830.10 250.775   5
   9   0   1 2526.35 272.697   8
  -9   0  -1 2319.46 308.129   4
  -9   0  -2 307.330 149.280   5
   9   0   2 70.7955 107.766   8
  -9   0  -2 276.597 141.306   4
  -9   0  -3 13751.2 772.201   4
   9   0   3 13759.1 690.002   8
   9   0   4 9207.15 581.685   8
  -9  -1  15 6045.34 509.753   7
  -9  -1  14 1365.01 240.195   7
  -9  -1  13 3135.36 341.101   7
   9   1 -13 3746.78 405.504   1
  -9  -1  13 3921.28 428.409  10
  -9  -1  12 115.444 122.471   7
  -9  -1  12-196.410 169.196  10
   9   1 -12 173.426 125.950   1
  -9  -1  11-132.633 167.040  10
   9   1 -11 87.6986 105.115   1
  -9  -1  10 311.368 146.355  10
   9   1 -10 379.141 148.973   1
   9   1  -9 32423.2 1027.48   1
  -9  -1   9 31648.0 986.910  10
  -9  -1   9 32315.0 895.608   5
   9   1  -9 33483.2 825.605   9
  -9  -1   8 1221.65 207.294  10
  -9  -1   8 1252.19 186.724   5
   9   1  -8 1375.19 180.625   9
   9   1  -8 1453.85 224.456   1
   9   1  -7 8208.94 484.275   1
  -9  -1   7 7995.03 463.858  10
  -9  -1   7 6856.02 410.487   5
   9   1  -7 7857.30 404.514   9
   9   1  -7 8152.64 465.352   8
   9   1  -6 35818.6 975.478   1
  -9  -1   6 38148.8 960.746  10
   9   1  -6 37059.8 884.649   9
  -9  -1   6 36656.6 867.562   4
   9   1  -6 35351.2 942.118   8
  -9  -1   5 168.535 114.347  10
   9   1  -5 76.3501 80.0763   1
  -9  -1   5 54.9892 69.4329   5
   9   1  -5 207.179 103.370   9
  -9  -1   5 88.6456 83.9123   4
   9   1  -5-26.0633 113.742   8
  -9  -1   4 5100.69 333.135  10
  -9  -1   4 4784.22 354.118   5
   9   1  -4 5430.48 354.638   9
  -9  -1   4 5553.59 381.512   4
   9   1  -4 5416.84 367.827   8
   9   1  -4 4834.97 347.383   1
  -9  -1   3 1171.69 185.736   5
   9   1  -3 1179.53 184.070   9
  -9  -1   3 1098.86 189.975   4
   9   1  -3 1278.31 191.635   8
  -9  -1   2 3143.47 307.422   5
   9   1  -2 3071.74 287.939   9
   9   1  -2 2490.62 258.789   8
  -9  -1   2 2363.56 274.015   4
  -9  -1   1 10181.6 559.791   5
   9   1  -1 9354.17 511.656   9
  -9  -1   1 10563.1 593.527   4
   9   1  -1 10326.4 524.992   8
  -9  -1   0 6919.81 478.622   5
   9   1   0 6386.47 438.042   9
  -9  -1   0 6365.57 491.904   4
   9   1   0 7104.75 444.692   8
  -9  -1  -1 9659.04 585.840   5
   9   1   1 9010.18 542.708   9
  -9  -1  -1 9861.44 624.147   4
   9   1   1 9767.01 540.337   8
  -9  -1  -2 19795.0 866.829   5
   9   1   2 19699.3 819.765   9
  -9  -1  -2 19874.3 915.886   4
   9   1   2 20527.4 805.318   8
  -9  -1  -3 46.5758 155.526   4
   9   1   3-22.9987 130.496   8
  -9  -2  15 1463.52 271.663   7
   9   2 -13 7886.86 583.783   1
  -9  -2  13 7533.74 569.851  10
   9   2 -12 6597.45 515.235   1
  -9  -2  12 7347.97 545.206  10
   9   2 -11 6606.31 497.645   1
  -9  -2  11 6289.04 484.208  10
   9   2 -11 7965.00 436.733   9
   9   2 -10 29508.0 1000.85   1
  -9  -2  10 29267.9 975.407  10
  -9  -2  10 28650.5 894.501   5
   9   2 -10 31262.5 855.837   9
  -9  -2   9 290.554 139.150  10
  -9  -2   9-38.5197 92.5438   5
   9   2  -9 195.212 84.1764   9
   9   2  -9 172.861 108.231   1
   9   2  -8 8477.45 507.270   1
  -9  -2   8 8242.91 484.583  10
  -9  -2   8 8623.43 487.468   5
   9   2  -8 9526.36 469.604   9
   9   2  -7 2549.91 272.680   1
  -9  -2   7 2979.80 286.120  10
  -9  -2   7 2625.70 271.118   5
   9   2  -7 2910.04 261.726   9
   9   2  -7 2804.29 279.006   8
  -9  -2   6 542.477 126.908  10
  -9  -2   6 310.758 118.193   5
   9   2  -6 313.768 114.391   1
   9   2  -6 568.271 142.157   9
  -9  -2   6 223.343 94.4534   4
   9   2  -6 348.332 140.623   8
   9   2  -5 30457.2 863.418   1
  -9  -2   5 30694.3 807.525  10
  -9  -2   5 28577.7 890.732   5
   9   2  -5 30466.5 851.704   9
  -9  -2   5 29075.7 832.148   4
   9   2  -5 30451.9 860.360   8
   9   2  -4 451.730 120.690   1
  -9  -2   4 545.832 135.321   5
   9   2  -4 417.817 125.145   9
  -9  -2   4 516.108 145.378   4
   9   2  -4 236.613 92.9636   8
  -9  -2   3 2353.57 282.912   5
   9   2  -3 2872.53 276.654   9
   9   2  -3 2713.66 261.564   8
  -9  -2   3 2533.14 283.532   4
   9   2  -3 2487.76 241.180   1
  -9  -2   2 23775.0 871.987   5
   9   2  -2 23968.3 815.406   9
  -9  -2   2 21831.0 833.472   4
   9   2  -2 23685.2 769.503   8
  -9  -2   1 2521.77 297.852   5
   9   2  -1 2622.33 283.406   9
  -9  -2   1 2978.18 325.347   4
   9   2  -1 2641.35 269.045   8
  -9  -2   0 3171.20 344.382   5
   9   2   0 3288.01 325.426   9
   9   2   0 3667.97 324.700   8
  -9  -2   0 3319.39 355.365   4
  -9  -2  -1 6937.75 520.123   5
   9   2   1 6524.98 474.079   9
  -9  -2  -1 6711.43 526.561   4
   9   2   1 6594.53 447.062   8
  -9  -2  -2 4692.84 455.436   5
   9   2   2 5379.33 445.961   9
  -9  -2  -2 5003.40 477.022   4
   9   2   2 4376.46 377.098   8
   9   2   3 6395.64 468.721   8
  -9  -3  14 58.9872 150.611  10
   9   3 -13 578.793 182.863   1
  -9  -3  13 376.144 152.103  10
  -9  -3  12 137.649 140.585  10
   9   3 -12 225.858 140.130   1
  -9  -3  11 3150.42 346.325  10
   9   3 -11 3127.96 293.695   9
   9   3 -11 3005.83 335.401   1
   9   3 -10 5970.74 450.166   1
  -9  -3  10 5385.91 430.695  10
  -9  -3  10 5334.87 407.337   5
   9   3 -10 6016.29 398.832   9
   9   3  -9 20022.7 797.823   1
  -9  -3   9 22000.0 807.994  10
  -9  -3   9 21208.7 795.836   5
   9   3  -9 21216.5 733.312   9
   9   3  -8 6370.15 435.826   1
  -9  -3   8 5752.78 403.170  10
  -9  -3   8 5507.01 407.450   5
   9   3  -8 5744.46 386.322   9
  -9  -3   7 1982.02 227.168  10
  -9  -3   7 2103.21 258.657   5
   9   3  -7 1862.78 224.430   9
   9   3  -7 2041.06 239.235   1
   9   3  -7 2232.13 260.095   8
   9   3  -6 4312.98 334.302   1
  -9  -3   6 3295.82 319.176   5
   9   3  -6 3971.49 329.845   9
  -9  -3   6 3734.04 297.556   4
   9   3  -6 4607.31 343.862   8
   9   3  -5 4719.35 336.517   1
  -9  -3   5 4676.56 381.211   5
   9   3  -5 4215.95 340.611   9
  -9  -3   5 4928.83 358.284   4
   9   3  -5 4881.43 352.462   8
  -9  -3   4 1887.00 259.993   5
   9   3  -4 1909.52 239.537   9
  -9  -3   4 1980.54 241.877   4
   9   3  -4 1896.14 224.605   8
  -9  -3   3 5734.35 445.026   5
   9   3  -3 6920.59 447.023   9
  -9  -3   3 6413.00 448.148   4
   9   3  -3 6534.32 401.681   8
  -9  -3   2 1932.79 270.261   5
   9   3  -2 2481.61 282.768   9
   9   3  -2 2495.22 259.624   8
  -9  -3   2 2214.88 283.918   4
  -9  -3   1 428.291 154.713   5
   9   3  -1 296.315 126.918   9
  -9  -3   1 248.948 134.812   4
   9   3  -1 17.6132 89.2754   8
  -9  -3   0 12719.9 708.823   5
   9   3   0 12518.7 650.672   9
  -9  -3   0 11251.2 674.279   4
   9   3   0 11638.7 568.627   8
  -9  -3  -1-119.303 147.078   5
   9   3   1 45.7391 114.947   9
  -9  -3  -1-168.018 141.315   4
   9   3   1 40.0301 101.469   8
   9   3   2 174.105 105.600   8
  -9  -4  13 6312.29 524.654  10
   9   4 -13 6888.26 545.518   1
  -9  -4  12 4311.74 423.904  10
   9   4 -12 3797.81 395.881   1
   9   4 -11 2304.84 296.768   1
  -9  -4  11 1949.59 277.507  10
  -9  -4  11 2136.89 277.338   5
   9   4 -11 1831.14 231.050   9
  -9  -4  10 34.7587 99.2953  10
  -9  -4  10 21.8832 89.0553   5
   9   4 -10 184.901 113.197   9
   9   4 -10 39.4036 99.3816   1
   9   4  -9 8002.72 504.298   1
  -9  -4   9 7980.44 489.560  10
  -9  -4   9 7611.07 503.933   5
   9   4  -9 8693.52 496.215   9
   9   4  -8 9808.86 534.168   1
  -9  -4   8 9145.14 502.526  10
  -9  -4   8 9858.36 567.530   5
   9   4  -8 9202.61 510.528   9
   9   4  -7 11428.1 552.327   1
  -9  -4   7 10564.9 593.062   5
   9   4  -7 11566.7 567.871   9
  -9  -4   6 3624.28 351.487   5
   9   4  -6 3843.45 336.368   9
   9   4  -6 3715.66 310.725   8
  -9  -4   5 7522.01 511.028   5
   9   4  -5 7783.10 477.158   9
  -9  -4   5 6864.78 433.353   4
   9   4  -5 7575.52 432.981   8
  -9  -4   4 21915.2 889.892   5
   9   4  -4 23299.4 830.740   9
  -9  -4   4 23083.2 823.742   4
   9   4  -4 23914.9 756.643   8
  -9  -4   3 118.191 96.3918   5
   9   4  -3 133.447 100.263   9
  -9  -4   3 152.442 128.926   4
   9   4  -3 57.2897 101.103   8
  -9  -4   2 1941.57 290.742   5
   9   4  -2 1379.94 227.669   9
  -9  -4   2 1310.95 240.476   4
   9   4  -2 1353.84 197.905   8
  -9  -4   1 16.5118 101.340   5
   9   4  -1-2.15943 106.020   9
  -9  -4   1 141.125 160.488   4
   9   4  -1 99.6901 88.7651   8
  -9  -4   0 738.426 202.757   5
   9   4   0 817.215 191.790   9
  -9  -4   0 852.547 228.500   4
   9   5 -13 896.210 215.267   1
  -9  -5  13 737.168 200.363  10
  -9  -5  12 6647.10 512.857  10
   9   5 -12 6899.61 524.721   1
  -9  -5  12 6924.21 516.874   5
   9   5 -12 7116.57 482.546   9
  -9  -5  11 4080.99 385.394  10
   9   5 -11 3579.28 364.190   1
  -9  -5  11 3814.13 380.626   5
   9   5 -11 4084.97 363.654   9
  -9  -5  10 8841.30 535.311  10
   9   5 -10 9721.46 571.513   1
  -9  -5  10 9203.91 583.939   5
   9   5 -10 9383.73 543.818   9
   9   5  -9 11354.3 590.262   1
  -9  -5   9 10327.6 610.223   5
   9   5  -9 10428.7 565.895   9
  -9  -5   8 23377.1 912.857   5
   9   5  -8 24767.1 864.084   9
  -9  -5   7-60.9470 124.174   5
   9   5  -7 143.599 120.828   9
  -9  -5   6 9407.57 587.560   5
   9   5  -6 9167.49 535.977   9
   9   5  -6 9471.05 480.630   8
  -9  -5   5 2702.55 335.101   5
  -9  -5   5 3039.66 306.777   4
   9   5  -5 2859.89 312.366   9
  -9  -5   4 8516.37 580.900   5
   9   5  -4 8703.09 535.999   9
  -9  -5   4 8762.06 543.145   4
  -9  -5   3 311.852 98.5529   5
   9   5  -3 663.162 166.830   9
  -9  -5   3 391.133 150.596   4
  -9  -5   2 3354.31 386.227   5
   9   5  -2 3812.45 370.973   9
  -9  -5   2 4009.87 400.006   4
  -9  -5   1 1445.21 279.867   5
   9   5  -1 1264.17 235.515   9
  -9  -5   1 1262.54 241.598   4
   9   6 -13 96.1381 102.780   1
  -9  -6  13 125.402 133.794  10
   9   6 -12 2591.63 325.823   1
  -9  -6  12 3264.07 372.275  10
  -9  -6  12 2843.59 356.594   5
   9   6 -12 3439.40 361.848   9
   9   6 -11 551.397 164.373   1
  -9  -6  11 327.245 153.439   5
   9   6 -11 575.193 162.105   9
  -9  -6  10 1033.41 235.351   5
   9   6 -10 1033.91 218.644   9
  -9  -6   9-24.2122 142.800   5
   9   6  -9-5.19554 137.172   9
  -9  -6   8 26326.3 1013.31   5
   9   6  -8 27796.0 957.049   9
  -9  -6   7 14176.2 749.318   5
   9   6  -7 13757.3 679.467   9
  -9  -6   6 3236.34 373.019   5
   9   6  -6 2975.98 323.662   9
  -9  -6   5 93.6950 110.733   5
   9   6  -5 245.502 125.284   9
  -9  -6   4 453.091 144.813   5
   9   6  -4 751.778 173.424   9
  -9  -6   3 5547.90 502.482   5
   9   6  -3 6241.21 478.978   9
   9   7 -11-34.0575 108.571   9
  -9  -7  10 3996.14 424.313   5
   9   7 -10 5085.85 435.134   9
  -9  -7   9 341.877 105.217   5
   9   7  -9 521.038 154.289   9
  -9  -7   8 3034.88 362.746   5
   9   7  -8 3012.37 351.549   9
  -9  -7   7 2603.06 343.953   5
   9   7  -7 2131.29 285.799   9
  -9  -7   6 5785.94 514.833   5
   9   7  -6 6558.01 500.779   9
  -9  -7   5 1157.80 247.325   5
   9   7  -5 1517.38 261.112   9
  10  -9  -5-31.6865 122.150  11
  10  -9  -4-59.5164 109.847  11
  10  -9  -3 6339.94 478.911  11
  10  -9  -2 1613.15 251.956  11
  10  -9  -1 234.420 117.368  11
  10  -9  -1 78.3903 125.687   8
 -10   9   1 444.609 179.543   2
  10  -9   0 4535.26 405.459  11
 -10   9   0 4506.04 468.832   2
  10  -9   0 4800.02 405.295   8
  10  -9   1 48.8672 107.592  11
  10  -9   1 384.502 165.319   8
 -10   9  -1 242.644 150.376   2
  10  -9   2 677.642 179.481   8
  10  -8  -7 1833.05 287.465  11
  10  -8  -7 1803.40 291.221   1
  10  -8  -6 62.8324 101.285  11
  10  -8  -5 1202.27 224.606  11
 -10   8   5 1229.36 261.270   2
  10  -8  -4 10851.5 606.650  11
 -10   8   4 10352.5 677.724   2
  10  -8  -4 11299.3 609.384   8
  10  -8  -3 2904.27 312.528  11
  10  -8  -3 4116.33 377.330   8
 -10   8   3 3547.28 409.021   2
  10  -8  -2 2902.58 309.064  11
  10  -8  -2 3961.09 367.830   8
 -10   8   2 2913.73 374.325   2
  10  -8  -1 8847.07 532.331  11
 -10   8   1 9879.21 661.527   2
  10  -8  -1 8958.63 542.910   8
  10  -8   0 2819.73 302.113  11
  10  -8   0 2771.12 308.825   8
 -10   8   0 3243.70 393.108   2
  10  -8   1 106.864 124.676  11
  10  -8   1-96.8056 130.164   8
  10  -8   2 2070.67 279.068   8
  10  -7  -8 1529.99 246.221  11
  10  -7  -8 1326.17 255.969   1
  10  -7  -7 1155.72 213.621  11
  10  -7  -7 1274.90 244.125   1
 -10   7   7 1532.82 284.693   2
  10  -7  -6 7801.36 506.178  11
 -10   7   6 8898.55 620.290   2
  10  -7  -5 15723.0 693.291  11
 -10   7   5 15359.9 807.242   2
  10  -7  -5 16722.0 740.148   8
  10  -7  -4 1296.18 204.582  11
  10  -7  -4 1797.54 259.743   8
 -10   7   4 2103.54 324.693   2
  10  -7  -3 390.818 130.945  11
  10  -7  -3 709.925 175.735   8
 -10   7   3 555.810 193.865   2
  10  -7  -2 493.827 141.797  11
  10  -7  -2 672.570 162.643   8
  10  -7  -1 579.187 164.841   8
 -10   7   1 1278.05 258.338   2
 -10   7   1 941.511 228.403   4
  10  -7   0 18810.5 781.791   8
 -10   7   0 18413.3 892.405   4
  10  -7   1 328.479 138.504   8
 -10   7  -1 584.333 189.256   4
  10  -7   2-55.0702 118.834   8
 -10   6  10 280.189 178.909   7
  10  -6  -9 11846.2 712.808   1
 -10   6   9 12108.4 718.394   2
 -10   6   8 6772.73 552.799  10
 -10   6   8 6252.68 520.374   2
  10  -6  -8 6177.91 515.295   1
  10  -6  -7 216.877 148.509   1
 -10   6   7 385.368 180.737   2
 -10   6   6 1945.20 303.740   2
 -10   6   5 7799.09 568.852   2
  10  -6  -5 8355.61 521.455   8
 -10   6   4 22620.8 954.132   2
  10  -6  -4 22598.9 841.948   8
  10  -6  -3 144.937 118.102   8
 -10   6   3 577.492 197.971   2
  10  -6  -2 466.284 157.560   8
 -10   6   2 210.538 131.208   4
  10  -6  -1 11616.3 607.505   8
 -10   6   1 12321.5 700.083   4
  10  -6   0 216.754 120.632   8
 -10   6   0 183.477 112.150   4
  10  -6   1 1126.94 207.100   8
 -10   6  -1 995.754 233.257   4
  10  -6   2 581.560 146.708   8
 -10   6  -2 659.065 191.325   4
 -10   5  11 12775.9 737.278   7
  10  -5 -10 16240.7 844.175   1
 -10   5  10 16190.9 847.963  10
 -10   5  10 16962.6 834.140   2
 -10   5  10 16987.0 818.794   7
  10  -5  -9 5588.98 489.003   1
 -10   5   9 6333.92 528.167  10
 -10   5   9 5192.08 463.559   2
 -10   5   8 30069.4 1099.90  10
 -10   5   8 30248.5 1096.62   2
  10  -5  -8 29469.4 1082.82   1
 -10   5   7 1554.41 274.182  10
  10  -5  -7 1757.62 285.037   1
 -10   5   7 1806.18 285.971   2
 -10   5   6 4012.28 406.773   2
  10  -5  -6 4582.47 383.048   8
  10  -5  -5 1406.55 229.377   8
 -10   5   5 1809.43 291.342   2
  10  -5  -4 3773.96 349.064   8
 -10   5   4 2887.94 305.491   4
  10  -5  -3 4606.22 377.646   8
 -10   5   3 5106.97 427.453   4
  10  -5  -2 3827.97 357.308   8
 -10   5   2 4342.18 405.960   4
  10  -5  -1 305.772 134.253   8
 -10   5   1 259.801 123.294   4
  10  -5   0 1237.99 223.478   8
 -10   5   0 945.776 206.991   4
  10  -5   1 5209.28 429.673   8
 -10   5  -1 4997.68 461.961   4
  10  -5   2 201.118 147.581   8
 -10   5  -2 66.2683 119.174   4
 -10   4  12 4295.19 451.855   7
 -10   4  11-3.37439 138.434   7
  10  -4 -11-26.5994 124.320   1
 -10   4  10-47.9611 108.072   7
 -10   4  10 5.70861 128.290  10
  10  -4 -10 190.911 133.128   1
 -10   4   9 580.652 167.050   7
 -10   4   9 787.033 221.651  10
  10  -4  -9 331.357 151.421   1
 -10   4   8 1597.83 280.271  10
  10  -4  -8 1431.66 247.030   1
 -10   4   7 134.731 139.003  10
  10  -4  -7 271.556 145.346   1
 -10   4   6 10213.5 545.327   4
  10  -4  -6 9914.03 559.542   8
  10  -4  -5 1686.62 231.388   8
 -10   4   5 2034.16 257.457   4
  10  -4  -4 11124.4 582.889   8
 -10   4   4 11284.2 597.682   4
  10  -4  -3 15660.5 684.381   8
 -10   4   3 16478.8 741.937   4
  10  -4  -2 159.225 125.805   8
 -10   4   2 104.010 108.460   4
  10  -4  -1 3173.87 316.070   8
 -10   4   1 2975.72 345.113   4
  10  -4   0 1399.16 231.496   8
 -10   4   0 1390.07 256.398   4
  10  -4   1 997.981 211.294   8
 -10   4  -1 690.058 208.796   4
 -10   4  -2 5052.69 484.326   4
  10  -4   2 5100.68 428.047   8
 -10   3  12 621.049 189.326   7
 -10   3  11-67.4382 130.022   7
 -10   3  11-192.302 175.910  10
  10  -3 -11 127.496 143.610   1
  10  -3 -10 10880.3 672.148   1
 -10   3  10 9814.09 637.441  10
 -10   3  10 10836.6 600.276   7
 -10   3   9 144.729 110.541   7
 -10   3   9 287.713 140.995  10
  10  -3  -9 322.212 155.421   1
  10  -3  -8 16292.4 772.744   1
 -10   3   8 16537.6 777.973  10
  10  -3  -7 11672.9 607.844   8
  10  -3  -7 11343.2 638.706   1
 -10   3   6 58.1232 121.784  10
  10  -3  -6 8.30256 111.705   8
 -10   3   6 207.762 130.529   4
  10  -3  -6 102.500 114.978   1
 -10   3   5 11026.1 559.695   4
  10  -3  -5 10526.4 562.596   8
 -10   3   4 4813.49 383.485   4
  10  -3  -4 4027.51 355.326   8
 -10   3   3 37530.8 1090.94   4
  10  -3  -3 41480.4 1104.03   8
  10  -3  -2 8180.40 432.470   9
  10  -3  -2 7747.48 483.577   8
  10  -3  -1 138.348 84.6455   9
  10  -3  -1 74.4794 110.226   8
 -10   3   1 263.905 134.148   4
 -10   3   0 4513.12 429.914   4
  10  -3   0 4379.17 379.477   8
  10  -3   1 1315.59 232.927   8
 -10   3  -1 1154.14 234.631   4
  10  -3   2 127.755 131.307   8
 -10   3  -2-158.169 165.892   4
 -10   2  13 129.252 124.818   7
  10  -2 -12 10353.8 689.956   1
 -10   2  12 10159.8 679.750  10
 -10   2  12 10148.4 614.634   7
  10  -2 -11 6464.78 534.074   1
 -10   2  11 6640.51 536.196  10
 -10   2  11 5836.16 453.905   7
  10  -2 -10 12864.2 720.540   1
 -10   2  10 11581.9 680.525  10
 -10   2   9 131.836 154.604  10
  10  -2  -9 167.897 112.551   1
 -10   2   8 1700.24 275.243  10
  10  -2  -8 1779.31 272.090   1
 -10   2   7 13463.6 671.718  10
  10  -2  -7 12674.3 627.745   8
  10  -2  -7 12654.2 659.459   1
 -10   2   6 13379.4 654.436  10
 -10   2   6 14790.6 607.917   4
  10  -2  -6 14545.8 661.249   8
  10  -2  -6 13691.7 674.456   1
 -10   2   5 8036.59 498.052  10
 -10   2   5 7138.15 441.710   4
  10  -2  -5 7657.75 480.500   8
  10  -2  -4 24741.3 704.156   9
 -10   2   4 24313.6 844.744   4
  10  -2  -4 24135.2 836.433   8
  10  -2  -3 10310.8 482.361   9
 -10   2   3 9760.26 559.496   4
  10  -2  -3 9954.42 544.640   8
  10  -2  -2 1857.51 220.586   9
  10  -2  -2 1568.49 229.212   8
 -10   2   2 1855.75 270.948   4
  10  -2  -1 5089.10 371.043   9
 -10   2   1 5061.89 435.989   4
  10  -2  -1 4679.02 385.878   8
  10  -2   0 472.606 144.295   8
 -10   2   0 665.959 186.119   4
  10  -2   1 829.416 191.302   8
 -10   2  -1 719.953 191.306   4
  10  -2   2 3976.71 387.616   8
 -10   2  -2 3476.23 400.772   4
 -10   1  14 6571.94 527.953   7
  10  -1 -12 5447.22 500.474   1
 -10   1  12 5361.58 498.011  10
  10  -1 -11 7590.02 570.655   1
 -10   1  11 7703.47 571.850  10
 -10   1  10 476.794 191.078  10
  10  -1 -10 268.130 127.907   1
 -10   1   9 559.524 178.733  10
  10  -1  -9 432.259 160.353   1
  10  -1  -8 18565.4 803.416   1
 -10   1   8 19224.8 807.886  10
  10  -1  -7 5441.01 431.439   1
 -10   1   7 5272.89 419.227  10
  10  -1  -7 4964.16 394.004   8
 -10   1   6 700.015 177.994  10
  10  -1  -6 739.075 178.457   1
  10  -1  -6 364.895 137.759   8
 -10   1   6 846.047 160.050   4
 -10   1   5 21514.3 778.533  10
  10  -1  -5 21110.0 663.218   9
 -10   1   5 21530.5 761.026   4
  10  -1  -5 20459.4 770.868   8
  10  -1  -5 20721.2 798.661   1
 -10   1   4 3541.57 317.837  10
 -10   1   4 3155.89 280.257   5
  10  -1  -4 3772.58 296.052   9
 -10   1   4 3700.88 335.951   4
  10  -1  -4 3115.42 312.929   8
 -10   1   3-121.647 92.6892   5
  10  -1  -3 19.4939 78.0511   9
  10  -1  -3-23.3729 96.8227   8
 -10   1   3 67.7910 100.539   4
 -10   1   2 8569.37 484.601   5
  10  -1  -2 9857.23 507.400   9
 -10   1   2 8961.93 555.548   4
  10  -1  -2 9693.66 542.035   8
 -10   1   1 4175.50 350.599   5
  10  -1  -1 4118.95 352.283   9
 -10   1   1 4860.39 426.181   4
  10  -1  -1 3501.08 342.348   8
 -10   1   0 229.028 119.509   5
  10  -1   0 234.311 119.111   9
  10  -1   0 191.416 122.761   8
 -10   1   0 271.139 148.840   4
 -10   1  -1 6036.35 451.894   5
 -10   1  -1 6117.39 516.590   4
  10  -1   1 5815.56 450.100   8
  10  -1   2-2.77452 122.435   8
 -10   1  -2-10.9417 127.223   4
 -10   0  12 1395.37 265.838  10
  10   0 -12 1487.07 265.516   1
 -10   0  11 1169.04 248.832  10
  10   0 -11 1205.00 232.347   1
 -10   0  10 1283.65 231.041  10
 -10   0  10 1060.13 177.758   5
  10   0 -10 799.657 209.801   1
  10   0  -9 14622.4 728.038   1
 -10   0   9 14795.9 714.614  10
 -10   0   9 14607.2 612.648   5
  10   0  -8 5307.13 430.931   1
 -10   0   8 5946.64 440.759  10
 -10   0   8 5347.61 370.472   5
 -10   0   7 1966.62 252.911  10
  10   0  -7 1740.44 251.079   1
 -10   0   7 2154.14 246.011   5
  10   0  -7 2494.10 234.714   9
  10   0  -7 2101.33 257.404   8
  10   0  -6 18572.6 754.183   1
 -10   0   6 18920.0 731.624  10
 -10   0   6 18097.3 674.324   5
  10   0  -6 19472.6 654.578   9
 -10   0   6 18898.6 676.891   4
  10   0  -6 20664.8 774.111   8
 -10   0   5 5144.06 375.515  10
 -10   0   5 4626.14 353.366   5
  10   0  -5 4730.81 335.008   9
 -10   0   5 5662.05 393.902   4
  10   0  -5 5275.21 393.521   8
  10   0  -5 4681.83 375.415   1
 -10   0   4 10651.9 519.701  10
 -10   0   4 10134.3 527.418   5
  10   0  -4 10575.4 508.332   9
 -10   0   4 10731.9 562.191   4
  10   0  -4 10903.8 557.039   8
  10   0  -4 10443.0 552.408   1
 -10   0   3 7325.16 463.046   5
  10   0  -3 7348.25 441.539   9
 -10   0   3 7553.61 491.299   4
  10   0  -3 7407.73 464.963   8
 -10   0   2 1738.39 246.904   5
  10   0  -2 1715.45 234.312   9
 -10   0   2 1764.79 260.416   4
  10   0  -2 1514.46 231.445   8
 -10   0   1 13375.2 656.381   5
  10   0  -1 13183.9 631.641   9
 -10   0   1 13149.1 697.699   4
  10   0  -1 13515.5 648.785   8
 -10   0   0 854.052 178.199   5
  10   0   0 1566.37 243.199   9
  10   0   0 1512.15 232.344   8
 -10   0   0 1697.59 276.700   4
 -10   0  -1 3350.37 357.754   5
  10   0   1 3520.64 358.005   9
 -10   0  -1 3491.83 412.248   4
  10   0   1 3279.59 343.664   8
  10   0   2 4432.84 412.655   9
  10   0   2 5151.08 435.187   8
 -10  -1  13 21751.1 987.634  10
 -10  -1  12 1738.91 296.856  10
  10   1 -12 1860.81 298.882   1
  10   1 -11 4505.81 434.626   1
 -10  -1  11 3948.46 403.046  10
 -10  -1  11 3732.15 335.268   5
  10   1 -10 16586.7 790.934   1
 -10  -1  10 17223.0 785.636  10
 -10  -1  10 17233.3 700.787   5
  10   1  -9 3965.14 380.821   1
 -10  -1   9 4332.08 392.579  10
 -10  -1   9 3906.31 342.036   5
  10   1  -8 7569.17 505.253   1
 -10  -1   8 6763.42 461.921  10
 -10  -1   8 6444.55 427.429   5
  10   1  -8 7934.36 430.288   9
 -10  -1   7-179.523 112.778  10
 -10  -1   7-89.3294 106.257   5
  10   1  -7 219.686 112.366   1
  10   1  -7-27.7118 71.2486   9
  10   1  -7-170.007 103.144   8
  10   1  -6 13009.7 628.175   1
 -10  -1   6 11903.1 565.499  10
 -10  -1   6 11783.1 581.266   5
  10   1  -6 12265.8 545.874   9
 -10  -1   6 12748.8 562.393   4
  10   1  -6 12415.0 607.405   8
  10   1  -5 11861.3 583.796   1
 -10  -1   5 12272.9 555.817  10
 -10  -1   5 13168.6 621.055   5
  10   1  -5 12067.0 554.234   9
 -10  -1   5 12136.4 579.673   4
  10   1  -5 12294.2 593.063   8
  10   1  -4 116.963 75.9012   1
 -10  -1   4 11.7214 85.5661   5
  10   1  -4 184.738 122.005   9
 -10  -1   4 117.146 105.138   4
  10   1  -4 45.9052 92.9957   8
 -10  -1   3 18509.2 766.260   5
  10   1  -3 19289.2 731.807   9
 -10  -1   3 18556.6 780.780   4
  10   1  -3 18133.5 716.990   8
  10   1  -3 17909.5 692.803   1
 -10  -1   2 340.540 137.501   5
  10   1  -2 249.066 113.818   9
 -10  -1   2 216.865 125.525   4
  10   1  -2 15.7251 116.689   8
 -10  -1   1 2414.77 298.894   5
  10   1  -1 2402.96 288.575   9
 -10  -1   1 1867.65 290.960   4
  10   1  -1 2589.75 287.031   8
 -10  -1   0 46.5202 95.2736   5
  10   1   0 70.8134 104.709   9
 -10  -1   0 211.314 153.240   4
  10   1   0 53.0488 101.047   8
 -10  -1  -1 9939.47 630.712   5
  10   1   1 8412.73 557.406   9
 -10  -1  -1 8589.88 620.200   4
  10   1   1 9459.18 565.243   8
 -10  -1  -2 19.0798 110.469   5
 -10  -2  13 4669.72 467.111  10
 -10  -2  12 3119.09 390.730  10
 -10  -2  12 2965.93 320.597   5
  10   2 -12 2257.40 325.338   1
 -10  -2  11 205.497 138.474  10
 -10  -2  11 136.155 85.4787   5
  10   2 -11 98.2709 98.6123   1
  10   2 -10 14595.6 737.584   1
 -10  -2  10 16802.8 767.084  10
 -10  -2  10 15033.0 688.454   5
  10   2 -10 15145.5 624.396   9
  10   2  -9 6664.40 486.174   1
 -10  -2   9 6523.87 464.797  10
 -10  -2   9 6397.12 444.967   5
  10   2  -9 6592.78 418.767   9
 -10  -2   8-47.6887 141.256  10
 -10  -2   8 65.1256 94.6306   5
  10   2  -8 379.702 124.755   9
  10   2  -8 433.665 137.899   1
  10   2  -7 4327.59 373.640   1
 -10  -2   7 4426.40 354.929  10
 -10  -2   7 3769.53 344.705   5
  10   2  -7 4233.43 333.726   9
  10   2  -7 4053.88 348.927   8
  10   2  -6 686.860 156.377   1
  10   2  -6 925.905 177.439   9
  10   2  -6 798.920 164.802   8
 -10  -2   5 871.597 188.277   5
  10   2  -5 799.914 154.518   1
  10   2  -5 1034.35 182.724   9
 -10  -2   5 390.488 118.780   4
  10   2  -5 882.621 179.907   8
 -10  -2   4-53.9236 86.3698   5
  10   2  -4-1.62682 81.6165   9
 -10  -2   4 33.1657 83.4207   4
  10   2  -4-78.5731 103.940   8
 -10  -2   3 1445.96 235.543   5
  10   2  -3 1471.52 222.478   9
 -10  -2   3 1171.09 211.859   4
  10   2  -3 1422.74 220.144   8
 -10  -2   2-27.6344 105.259   5
  10   2  -2 25.3386 119.243   9
 -10  -2   2 21.6233 138.523   4
  10   2  -2 14.7284 81.9814   8
 -10  -2   1 6880.10 521.545   5
  10   2  -1 7423.91 508.265   9
 -10  -2   1 7470.76 549.119   4
  10   2  -1 7083.21 469.907   8
 -10  -2   0 1225.87 238.154   5
  10   2   0 1278.96 228.008   9
 -10  -2   0 1078.75 254.592   4
  10   2   0 1378.64 234.706   8
 -10  -2  -1-5.61188 116.205   5
  10   2   1 36.0699 116.724   8
 -10  -3  13 79.9245 139.681  10
 -10  -3  13 16.3276 103.652   5
 -10  -3  12 2056.27 304.736  10
 -10  -3  12 1501.21 239.053   5
  10   3 -12 1789.72 289.371   1
  10   3 -11 10631.6 646.779   1
 -10  -3  11 11691.2 664.474  10
 -10  -3  11 10761.0 614.060   5
  10   3 -11 10506.9 548.773   9
 -10  -3  10 91.3233 123.896  10
 -10  -3  10 36.2435 110.101   5
  10   3 -10-9.41318 99.6285   9
  10   3 -10 32.2330 97.6327   1
  10   3  -9 13026.1 667.765   1
 -10  -3   9 13019.6 645.125  10
 -10  -3   9 12552.2 654.406   5
  10   3  -9 12955.0 610.205   9
 -10  -3   8 177.641 127.585  10
 -10  -3   8 29.1380 90.1252   5
  10   3  -8 304.935 123.112   9
  10   3  -8-18.5121 94.2977   1
  10   3  -7 4978.40 393.683   1
 -10  -3   7 5243.44 424.189   5
  10   3  -7 5717.10 404.773   9
  10   3  -7 5724.88 409.451   8
 -10  -3   6 59.8272 93.9898   5
  10   3  -6 216.596 120.047   9
  10   3  -6 223.510 133.465   8
 -10  -3   5 22523.9 898.635   5
  10   3  -5 22779.2 826.623   9
 -10  -3   5 21744.1 799.564   4
  10   3  -5 22677.5 803.084   8
 -10  -3   4 7345.11 525.267   5
  10   3  -4 8096.98 505.690   9
 -10  -3   4 8292.47 527.693   4
  10   3  -4 8050.92 476.538   8
 -10  -3   3 3983.74 402.234   5
  10   3  -3 4228.23 378.424   9
 -10  -3   3 4073.09 392.600   4
  10   3  -3 3968.06 346.827   8
 -10  -3   2 8942.34 601.988   5
  10   3  -2 10350.9 595.400   9
 -10  -3   2 8777.93 590.025   4
  10   3  -2 8888.78 515.719   8
 -10  -3   1 230.659 137.540   5
  10   3  -1 252.099 128.107   9
 -10  -3   1 487.203 190.535   4
  10   3  -1 429.744 140.479   8
  10   3   0 7340.78 482.697   8
 -10  -4  13 274.075 173.696  10
 -10  -4  12 5227.03 464.431  10
  10   4 -12 4953.65 461.259   1
 -10  -4  12 4681.86 433.103   5
  10   4 -12 4904.67 403.841   9
 -10  -4  11 706.028 195.898  10
 -10  -4  11 1042.93 221.393   5
  10   4 -11 939.958 199.919   9
  10   4 -11 649.268 184.537   1
 -10  -4  10 968.784 201.022  10
 -10  -4  10 761.946 191.039   5
  10   4 -10 591.946 150.977   9
  10   4 -10 1075.38 221.032   1
  10   4  -9 6635.74 474.320   1
 -10  -4   9 6884.51 505.982   5
  10   4  -9 6392.92 447.171   9
  10   4  -8 8513.92 517.788   1
 -10  -4   8 9165.84 582.345   5
  10   4  -8 10160.0 562.795   9
 -10  -4   7 1095.25 213.782   5
  10   4  -7 1316.85 221.984   9
  10   4  -7 1234.38 211.016   8
 -10  -4   6 386.022 130.279   5
  10   4  -6 651.303 176.717   9
  10   4  -6 384.136 132.108   8
 -10  -4   5 3129.13 373.557   5
 -10  -4   5 3406.14 341.166   4
  10   4  -5 3026.36 327.407   9
  10   4  -5 3122.59 303.443   8
 -10  -4   4 17731.8 853.700   5
  10   4  -4 19579.4 810.399   9
 -10  -4   4 19399.0 814.103   4
  10   4  -4 18785.4 723.362   8
 -10  -4   3 6751.90 550.300   5
  10   4  -3 6201.59 470.903   9
 -10  -4   3 6199.31 490.259   4
 -10  -4   2 530.986 161.224   5
  10   4  -2 621.424 177.168   9
 -10  -4   2 810.715 207.842   4
 -10  -4   1 12438.4 733.742   4
 -10  -5  13 10516.9 679.665  10
  10   5 -12 1408.16 254.106   1
 -10  -5  12 1448.43 268.551  10
  10   5 -12 1303.48 221.413   9
  10   5 -11 5664.71 469.357   1
 -10  -5  11 7465.76 553.333   5
  10   5 -11 6642.37 479.374   9
  10   5 -10 2623.89 314.747   1
 -10  -5  10 2991.16 357.794   5
  10   5 -10 3069.60 334.738   9
 -10  -5   9 5204.72 463.234   5
  10   5  -9 4770.38 410.127   9
 -10  -5   8 7142.90 539.602   5
  10   5  -8 7273.66 495.955   9
 -10  -5   7 138.244 116.815   5
  10   5  -7-103.537 141.917   9
 -10  -5   6 10221.9 655.826   5
  10   5  -6 9493.43 573.914   9
 -10  -5   5 5922.05 510.704   5
  10   5  -5 5635.84 452.957   9
 -10  -5   4 1773.36 300.358   5
 -10  -5   4 2026.55 286.165   4
  10   5  -4 2338.75 296.936   9
 -10  -5   3 2425.83 325.284   4
  10   6 -11 17985.4 814.567   9
  10   6 -10 48.8727 110.273   9
 -10  -6   9 5200.22 480.534   5
  10   6  -9 6409.19 489.037   9
 -10  -6   8 575.525 207.613   5
  10   6  -8 299.876 135.007   9
 -10  -6   7 794.189 227.206   5
  10   6  -7 362.242 139.826   9
  11  -8  -5 14550.2 734.103   8
  11  -8  -4 2450.45 315.429   8
  11  -8  -3 645.764 183.901   8
  11  -8  -2 287.623 139.211   8
  11  -7  -5 6832.52 508.969   8
  11  -7  -4 11898.9 656.480   8
  11  -7  -3 145.081 141.822   8
 -11   7   3 127.452 161.249   4
  11  -7  -2 3679.89 381.158   8
 -11   7   2 3868.79 440.981   4
  11  -7  -1 8893.42 576.946   8
  11  -6  -7 2717.25 354.709   1
  11  -6  -6 7067.70 509.955   8
  11  -6  -5 5581.45 452.905   8
 -11   6   5 5807.20 470.071   4
  11  -6  -4 14879.5 724.498   8
 -11   6   4 16152.8 793.008   4
  11  -6  -3 2132.75 283.035   8
 -11   6   3 2132.90 296.557   4
  11  -6  -2 477.512 156.418   8
 -11   6   2 549.940 174.130   4
  11  -6  -1 1362.03 250.680   8
 -11   6   1 1363.09 281.699   4
  11  -6   0 10808.5 632.822   8
 -11   5   8 1190.15 269.032  10
  11  -5  -8 1036.63 243.920   1
  11  -5  -7 2542.43 350.710   1
 -11   5   7 2407.48 345.573  10
  11  -5  -6 177.696 111.463   8
 -11   5   6 647.577 166.118   4
 -11   5   5 5038.28 435.842   4
  11  -5  -5 5615.03 452.695   8
 -11   5   4 9281.11 589.384   4
  11  -5  -4 8612.85 554.213   8
 -11   5   3 14548.6 756.844   4
  11  -5  -3 13819.0 692.709   8
  11  -5  -2 1526.07 246.105   8
 -11   5   2 1694.46 280.851   4
  11  -5  -1 669.403 188.825   8
 -11   5   1 70.2779 119.300   4
  11  -5   0 135.982 117.473   8
 -11   5   0-39.6291 195.167   4
 -11   4   9-3.40942 138.510  10
  11  -4  -9 135.410 153.799   1
 -11   4   8 2118.57 333.399  10
  11  -4  -8 1972.61 294.625   1
 -11   4   7 2299.63 328.041  10
  11  -4  -7 2213.96 329.833   1
  11  -4  -7 2333.15 299.710   8
  11  -4  -6-140.315 169.751   8
 -11   4   6 89.9545 103.588   4
  11  -4  -5 701.642 180.624   8
 -11   4   5 875.055 202.493   4
 -11   4   4 5727.91 455.082   4
  11  -4  -4 6086.19 460.876   8
 -11   4   3 22512.8 917.911   4
  11  -4  -3 22124.5 872.019   8
  11  -4  -2 3350.17 353.489   8
 -11   4   2 3648.80 390.071   4
 -11   4   1 7261.37 559.689   4
  11  -4  -1 7333.99 508.979   8
 -11   4   0 20211.7 955.720   4
  11  -4   0 20236.5 856.620   8
 -11   3  10 1738.70 294.446  10
  11  -3 -10 1614.39 294.272   1
 -11   3   9 275.366 159.676  10
  11  -3  -9 464.342 169.126   1
 -11   3   8 561.741 201.845  10
  11  -3  -8 504.335 179.445   1
 -11   3   7 33195.7 1118.88  10
  11  -3  -7 33603.3 1085.05   8
  11  -3  -7 30257.5 1096.61   1
 -11   3   6 962.518 217.805  10
  11  -3  -6 1027.51 209.350   8
 -11   3   6 1179.90 195.228   4
  11  -3  -6 894.788 210.871   1
  11  -3  -5 327.974 144.336   8
 -11   3   5 300.324 132.922   4
 -11   3   4 55873.4 1388.98   4
  11  -3  -4 54206.3 1348.39   8
  11  -3  -3 209.829 153.333   8
 -11   3   3 86.0756 130.475   4
  11  -3  -2 3704.27 369.268   8
 -11   3   2 3324.88 370.347   4
  11  -3  -1 3682.38 329.910   9
 -11   3   1 3823.68 422.442   4
  11  -3  -1 3993.03 380.104   8
  11  -3   0 2291.88 279.971   9
  11  -3   0 1826.83 273.497   8
 -11   3   0 2062.33 317.081   4
 -11   2  10 1359.03 262.555  10
  11  -2 -10 1175.32 255.569   1
 -11   2   9 560.669 197.881  10
  11  -2  -9 515.608 194.797   1
 -11   2   8-9.69904 148.125  10
  11  -2  -8 108.512 115.031   1
 -11   2   7-34.7885 116.499  10
  11  -2  -7 107.163 123.640   1
  11  -2  -7 3.95567 106.401   8
  11  -2  -6 120.187 103.142   1
 -11   2   6 447.196 175.668  10
  11  -2  -6 147.204 119.879   8
 -11   2   5 15.2455 118.406  10
  11  -2  -5 27.3904 106.537   8
 -11   2   5 4.35595 99.7815   4
  11  -2  -4 328.747 140.369   8
 -11   2   4 111.100 123.413   4
  11  -2  -3 268.477 115.399   9
  11  -2  -3 90.6229 104.568   8
 -11   2   3 338.648 119.018   4
  11  -2  -2 11605.4 570.611   9
 -11   2   2 10713.3 651.783   4
  11  -2  -2 10039.6 584.203   8
  11  -2  -1 146.862 110.489   9
  11  -2  -1 414.671 163.496   8
 -11   2   1 163.426 133.711   4
  11  -2   0 207.717 127.106   9
  11  -2   0 193.469 128.167   8
 -11   2   0 140.471 130.594   4
  11  -2   1 360.373 136.013   9
  11  -1 -11 5502.19 503.582   1
 -11   1  11 5514.05 500.117  10
 -11   1  10 1569.46 288.143  10
  11  -1 -10 1625.97 274.019   1
 -11   1   9 2564.77 325.505  10
  11  -1  -9 2613.62 338.488   1
 -11   1   8 674.904 187.873  10
  11  -1  -8 594.824 178.743   1
 -11   1   7 2919.72 334.082  10
  11  -1  -7 2449.67 306.496   1
  11  -1  -7 2103.38 282.234   8
 -11   1   6 5325.36 423.105  10
  11  -1  -6 4885.01 412.068   8
  11  -1  -6 5236.76 441.071   1
  11  -1  -5 1453.42 241.690   1
 -11   1   5 1630.00 231.088  10
 -11   1   5 1701.08 235.182   4
  11  -1  -5 1549.76 252.872   8
  11  -1  -4 2240.63 262.333   9
 -11   1   4 2167.01 282.182   4
  11  -1  -4 2674.02 312.345   8
  11  -1  -3 1751.44 239.809   9
  11  -1  -3 1691.01 256.792   8
 -11   1   3 1463.87 247.202   4
  11  -1  -2 9536.26 539.924   9
 -11   1   2 9365.81 611.550   4
  11  -1  -2 9093.07 566.180   8
  11  -1  -1 8712.28 531.915   9
 -11   1   1 9147.68 624.796   4
  11  -1  -1 8282.66 545.251   8
  11  -1   0 2440.91 304.357   9
 -11   1   0 2271.87 347.446   4
  11   0 -11 9624.82 651.622   1
 -11   0  11 9706.77 648.672  10
  11   0 -10 4922.28 458.569   1
 -11   0  10 4364.53 428.656  10
 -11   0   9 433.610 192.376  10
  11   0  -9 179.354 144.848   1
 -11   0   8 187.883 139.158  10
  11   0  -8 33.2924 98.5907   1
 -11   0   7 1885.06 263.853  10
  11   0  -7 1221.52 223.053   1
  11   0  -7 1542.74 253.145   8
  11   0  -6 21994.4 870.308   1
 -11   0   6 20853.1 806.296  10
  11   0  -6 23590.1 774.746   9
  11   0  -6 21035.5 832.326   8
  11   0  -5 12157.1 569.383   9
 -11   0   5 12726.8 631.020   4
  11   0  -5 12589.8 645.808   8
  11   0  -5 11575.4 623.180   1
  11   0  -4 63.3467 107.970   1
 -11   0   4 224.895 104.885   5
  11   0  -4 269.883 117.658   9
 -11   0   4-27.6250 107.644   4
  11   0  -4-24.8015 140.462   8
 -11   0   3 12826.6 649.649   5
  11   0  -3 12811.4 618.702   9
 -11   0   3 12467.9 684.084   4
  11   0  -3 12859.4 653.072   8
 -11   0   2 15466.1 731.422   5
  11   0  -2 15292.4 698.020   9
 -11   0   2 16723.2 822.852   4
  11   0  -2 15363.0 719.721   8
 -11   0   1 2642.33 322.438   5
  11   0  -1 2923.68 321.941   9
 -11   0   1 2078.20 328.963   4
  11   0  -1 2500.39 302.098   8
 -11   0   0 5204.43 455.232   5
  11   0   0 5015.13 436.282   9
 -11  -1  12 951.895 227.936  10
 -11  -1  11-184.699 179.561  10
  11   1 -11-91.2278 122.045   1
  11   1 -10 19288.3 888.470   1
 -11  -1  10 22466.8 927.309  10
  11   1  -9 5823.44 479.043   1
 -11  -1   9 6195.93 484.748  10
 -11  -1   9 5650.78 423.673   5
 -11  -1   8 6.70314 113.159  10
 -11  -1   8-149.802 120.825   5
  11   1  -8-98.3099 131.025   1
  11   1  -8-148.521 146.968   8
  11   1  -7 14245.8 708.655   1
 -11  -1   7 15440.8 694.692  10
 -11  -1   7 15364.8 699.278   5
  11   1  -7 15365.4 639.308   9
  11   1  -7 15417.2 720.231   8
 -11  -1   6 100.388 107.068   5
  11   1  -6 97.9548 88.5092   1
  11   1  -6 148.539 97.0886   9
  11   1  -6-57.5621 139.157   8
  11   1  -5 4411.17 382.031   1
 -11  -1   5 4970.40 413.203   5
  11   1  -5 5097.71 390.023   9
 -11  -1   5 4397.67 379.704   4
  11   1  -5 5294.07 423.099   8
 -11  -1   4 5573.78 454.207   5
  11   1  -4 6975.36 463.136   9
 -11  -1   4 6311.96 473.256   4
  11   1  -4 6231.42 456.001   8
 -11  -1   3 560.969 180.152   5
  11   1  -3 218.620 122.932   9
 -11  -1   3 453.500 157.199   4
  11   1  -3 579.918 179.215   8
 -11  -1   2 9334.09 599.045   5
  11   1  -2 9073.68 557.188   9
 -11  -1   2 9127.91 616.481   4
  11   1  -2 8826.17 550.070   8
 -11  -1   1 1678.84 262.437   5
  11   1  -1 2070.90 289.480   9
 -11  -1   1 1645.40 283.748   4
  11   1  -1 1769.90 261.015   8
 -11  -1   0 1182.23 241.539   5
 -11  -2  12 758.176 234.177  10
 -11  -2  12 283.809 127.222   5
 -11  -2  11 1838.27 301.782  10
 -11  -2  11 2278.44 296.457   5
  11   2 -11 1986.24 302.082   1
 -11  -2  10 2460.70 326.096  10
 -11  -2  10 2523.81 310.209   5
  11   2 -10 2264.33 316.790   1
 -11  -2   9 593.025 197.147  10
 -11  -2   9 476.150 150.627   5
  11   2  -9 409.493 131.955   9
  11   2  -9 422.159 154.062   1
 -11  -2   8 896.146 196.734   5
  11   2  -8 883.743 178.152   9
  11   2  -8 872.202 191.558   1
  11   2  -7 443.395 130.058   9
  11   2  -7 483.824 142.830   1
  11   2  -7 364.183 149.042   8
 -11  -2   6 558.327 171.937   5
  11   2  -6 416.260 131.726   1
  11   2  -6 308.270 137.018   9
  11   2  -6 727.428 182.620   8
 -11  -2   5 4847.60 426.365   5
  11   2  -5 6163.76 446.804   9
 -11  -2   5 5860.99 441.333   4
  11   2  -5 6280.48 458.186   8
 -11  -2   4 2904.93 339.923   5
  11   2  -4 3268.13 339.518   9
 -11  -2   4 3109.65 339.837   4
  11   2  -4 2948.12 326.059   8
 -11  -2   3 161.598 129.852   5
  11   2  -3 17.5921 111.374   9
 -11  -2   3 311.688 153.891   4
  11   2  -3 307.768 142.532   8
 -11  -2   2-59.3396 108.970   5
  11   2  -2 259.046 135.986   9
 -11  -2   2 41.9603 113.457   4
  11   2  -2-37.2256 95.6482   8
 -11  -3  12 4188.49 434.315  10
 -11  -3  12 2908.35 346.386   5
  11   3 -11 9089.19 618.033   1
 -11  -3  11 9381.37 609.325  10
 -11  -3  11 9828.61 616.932   5
 -11  -3  10-218.817 154.110   5
  11   3 -10 39.0783 105.581   9
  11   3 -10 200.399 131.484   1
  11   3  -9 13167.3 699.142   1
 -11  -3   9 12548.9 687.947   5
  11   3  -9 13134.3 641.239   9
 -11  -3   8 2412.59 310.800   5
  11   3  -8 2305.17 280.106   9
  11   3  -8 2436.46 302.702   1
 -11  -3   7 7070.03 529.727   5
  11   3  -7 8026.33 506.808   9
  11   3  -7 7512.68 502.473   8
 -11  -3   6 5122.16 455.707   5
  11   3  -6 6575.38 469.057   9
  11   3  -6 6125.75 451.337   8
 -11  -3   5 71.1721 123.919   5
  11   3  -5 435.910 128.326   9
  11   3  -5 266.995 142.500   8
 -11  -3   4 18243.9 880.196   5
  11   3  -4 18163.5 798.484   9
 -11  -3   4 17207.0 801.929   4
  11   3  -4 18627.6 777.619   8
 -11  -3   3 5132.25 478.320   5
 -11  -3   3 4542.63 446.574   4
  11   3  -3 4777.89 406.928   8
  11   3  -2 1219.10 217.395   8
 -11  -4  12 4746.74 459.907  10
  11   4 -11 7806.36 568.652   1
  11   4 -11 8544.76 547.419   9
 -11  -4  10 527.959 176.276   5
  11   4 -10 1044.72 224.576   9
  11   4 -10 647.497 166.735   1
 -11  -4   9 8685.58 600.386   5
  11   4  -9 8119.12 532.046   9
 -11  -4   8 14445.1 771.020   5
  11   4  -8 15264.7 725.181   9
 -11  -4   7 103.902 119.663   5
  11   4  -7 225.676 129.756   9
  11   4  -7 461.547 154.835   8
 -11  -4   6 5908.51 510.090   5
  11   4  -6 5956.58 463.922   9
  11   4  -6 5078.71 413.964   8
 -11  -4   5 3280.26 401.968   5
  11   4  -5 3665.60 376.591   9
 -11  -4   4 3536.22 377.345   4
 -12   6   5-17.0002 115.408   4
 -12   5   5 52.8505 150.687   4
 -12   5   4 515.751 160.786   4
 -12   5   3 1643.24 284.948   4
 -12   4   7 2347.62 337.334  10
 -12   4   6 3920.10 424.701  10
 -12   4   5 15735.3 773.169   4
 -12   4   4 315.070 161.982   4
 -12   4   3 263.992 167.233   4
 -12   3   8 3409.43 410.573  10
 -12   3   7 1554.30 280.196  10
  12  -3  -7 1052.80 224.280   1
  12  -3  -6 1709.32 292.559   1
 -12   3   6 1275.13 252.853  10
  12  -3  -6 2129.66 296.834   8
 -12   3   5-134.433 139.990  10
  12  -3  -5 135.046 157.509   8
 -12   3   5-7.28095 107.488   4
 -12   3   4 3326.26 382.612   4
 -12   3   3-215.611 163.822   4
 -12   3   2 634.941 196.307   4
 -12   2   9-51.5915 160.160  10
 -12   2   8 719.863 193.769  10
  12  -2  -8 406.406 160.123   1
  12  -2  -7 9331.86 630.808   1
 -12   2   7 9603.12 620.546  10
  12  -2  -7 10029.0 625.892   8
 -12   2   6 3279.05 370.863  10
  12  -2  -6 2618.28 338.831   1
  12  -2  -6 3105.14 350.398   8
 -12   2   5 5746.69 462.905  10
 -12   2   5 5727.24 461.598   4
  12  -2  -5 5794.14 474.807   8
 -12   2   4 948.492 211.985   4
 -12   2   3 993.073 214.430   4
 -12   2   2 342.127 165.622   4
  12  -2  -1 581.172 153.752   9
 -12   1  10 18599.7 901.786  10
 -12   1   9 920.627 233.513  10
 -12   1   8 563.626 186.877  10
  12  -1  -8 1067.27 232.813   1
 -12   1   7 376.255 139.802  10
  12  -1  -7-40.3174 128.696   1
  12  -1  -7 20.8213 122.177   8
  12  -1  -6 10386.8 630.389   8
  12  -1  -6 9503.84 617.607   1
  12  -1  -5 648.297 178.040   1
 -12   1   5 793.789 195.590   4
  12  -1  -5 693.717 184.744   8
 -12   1   4 3496.63 392.166   4
  12  -1  -4 3123.34 355.765   1
  12  -1  -3 7537.30 491.861   9
 -12   1   3 7727.15 575.464   4
  12  -1  -2 2337.05 296.613   9
 -12   0  10 19992.1 919.944  10
 -12   0   9 728.469 224.837  10
  12   0  -9 480.011 172.777   1
  12   0  -8 3685.33 398.866   1
 -12   0   8 4410.68 417.270  10
  12   0  -7 1768.78 283.529   1
  12   0  -7 2072.19 300.141   8
  12   0  -6 265.702 137.167   1
  12   0  -6 177.093 112.982   8
  12   0  -5 22.5267 103.119   1
  12   0  -5 73.3299 108.881   8
  12   0  -4-7.37380 100.039   9
 -12   0   4-214.874 151.614   4
  12   0  -3 497.729 160.215   9
 -12   0   3 315.331 146.782   4
 -12  -1  10 3144.93 378.828  10
 -12  -1   9 3523.35 381.579  10
  12   1  -9 3037.35 370.053   1
  12   1  -8 1609.81 267.314   1
  12   1  -7-72.5795 125.233   1
  12   1  -7 155.087 126.698   8
  12   1  -6 111.658 96.3101   9
  12   1  -6 68.0763 121.260   8
  12   1  -5 9028.00 547.874   9
  12   1  -4-32.1785 101.998   9
 -12  -1   4-29.8952 136.309   4
  12   2  -9 11520.0 686.547   1
 -12  -2   8 1447.77 256.953   5
  12   2  -8 1028.91 210.007   1
 -12  -2   7 2201.18 312.405   5
  12   2  -7 3040.43 326.710   9
 -12  -2   6-35.7384 123.850   5
  12   2  -6-44.8953 106.196   9
 -12  -2   5 6086.76 517.101   5
  12   2  -5 7597.70 523.062   9
 -12  -2   4 6025.78 510.852   4
  12   3  -9 3229.00 342.116   9
  12   3  -8 7538.50 515.964   9
   0   0   0    0.00    0.00   0
TITL 9827-10501_CA238_1 in P-1
REM P-1 (#2 in standard setting)
CELL 0.71073   8.566334   9.248238  10.811131 105.4409 113.0461  97.0050
ZERR    2.00   0.000350   0.000383   0.000453   0.0037   0.0039   0.0035
LATT  1
SFAC C N O Cl
UNIT 26.00 4.00 6.00 6.00
TREF
HKLF 4
END
;
_shelx_hkl_checksum              9111
_olex2_submission_special_instructions 'No special instructions were received'
loop_
_space_group_symop_operation_xyz
'x, y, z'
'-x, -y, -z'
loop_
_atom_site_label
_atom_site_type_symbol
_atom_site_fract_x
_atom_site_fract_y
_atom_site_fract_z
_atom_site_U_iso_or_equiv
_atom_site_adp_type
_atom_site_occupancy
_atom_site_site_symmetry_order
_atom_site_calc_flag
_atom_site_refinement_flags_posn
Cl1 Cl 0.44246(4) 0.34298(3) 0.82443(3) 0.01356(7) Uani 1 1 d .
Cl2 Cl 0.19030(4) 0.15118(3) 0.53976(3) 0.01672(8) Uani 1 1 d .
Cl3 Cl 0.40052(4) 0.44551(4) 0.58429(3) 0.01878(8) Uani 1 1 d .
O1 O 0.02196(12) 0.26813(11) 1.03785(9) 0.01588(19) Uani 1 1 d .
O2 O 0.35661(12) 0.81779(10) 0.91645(9) 0.01463(18) Uani 1 1 d .
O3 O -0.26996(12) 0.07812(11) 0.84499(10) 0.01719(19) Uani 1 1 d .
N1 N 0.11230(14) 0.69826(12) 0.71716(11) 0.0137(2) Uani 1 1 d .
N2 N 0.35822(14) 0.65934(12) 0.87295(12) 0.0154(2) Uani 1 1 d .
C1 C 0.21137(16) 0.59692(14) 0.75653(13) 0.0112(2) Uani 1 1 d .
C2 C 0.20638(16) 0.82933(14) 0.81978(13) 0.0132(2) Uani 1 1 d .
C3 C 0.28808(16) 0.34677(14) 0.65903(13) 0.0123(2) Uani 1 1 d .
C4 C 0.08262(16) 0.35610(14) 0.86321(13) 0.0114(2) Uani 1 1 d .
H4 H 0.1923 0.4245 0.9339 0.014 Uiso 1 1 calc R
C5 C 0.02593(15) 0.34303(13) 0.71888(13) 0.0109(2) Uani 1 1 d .
C6 C -0.02148(16) 0.26912(14) 0.90264(13) 0.0118(2) Uani 1 1 d .
C7 C -0.24481(16) 0.16357(14) 0.65720(13) 0.0135(2) Uani 1 1 d .
H7 H -0.3583 0.1016 0.5876 0.016 Uiso 1 1 calc R
C8 C -0.13886(16) 0.25044(14) 0.61767(13) 0.0129(2) Uani 1 1 d .
H8 H -0.1801 0.2459 0.5210 0.016 Uiso 1 1 calc R
C9 C -0.18491(16) 0.16765(14) 0.79707(13) 0.0126(2) Uani 1 1 d .
C10 C 0.14270(15) 0.42603(13) 0.66974(13) 0.0109(2) Uani 1 1 d .
H10 H 0.0647 0.4187 0.5700 0.013 Uiso 1 1 calc R
C11 C 0.16837(19) 0.98377(15) 0.84480(15) 0.0192(3) Uani 1 1 d .
H11A H 0.1171 0.9997 0.9125 0.029 Uiso 1 1 calc GR
H11B H 0.0854 0.9893 0.7540 0.029 Uiso 1 1 calc GR
H11C H 0.2775 1.0645 0.8844 0.029 Uiso 1 1 calc GR
C12 C -0.42494(17) -0.03874(16) 0.73985(15) 0.0188(3) Uani 1 1 d .
H12A H -0.3990 -0.1039 0.6663 0.028 Uiso 1 1 calc GR
H12B H -0.5165 0.0104 0.6955 0.028 Uiso 1 1 calc GR
H12C H -0.4658 -0.1030 0.7855 0.028 Uiso 1 1 calc GR
C13 C 0.19027(16) 0.36309(16) 1.14767(13) 0.0167(3) Uani 1 1 d .
H13A H 0.2823 0.3315 1.1227 0.025 Uiso 1 1 calc GR
H13B H 0.2076 0.3506 1.2390 0.025 Uiso 1 1 calc GR
H13C H 0.1960 0.4720 1.1564 0.025 Uiso 1 1 calc GR
loop_
_atom_site_aniso_label
_atom_site_aniso_U_11
_atom_site_aniso_U_22
_atom_site_aniso_U_33
_atom_site_aniso_U_23
_atom_site_aniso_U_13
_atom_site_aniso_U_12
Cl1 0.01225(14) 0.01489(14) 0.01261(14) 0.00505(11) 0.00419(11) 0.00420(11)
Cl2 0.01784(15) 0.01268(14) 0.01484(15) -0.00032(11) 0.00587(12) 0.00366(11)
Cl3 0.01897(15) 0.02404(17) 0.01690(15) 0.00814(13) 0.01175(13) 0.00198(12)
O1 0.0141(4) 0.0210(5) 0.0099(4) 0.0051(4) 0.0043(3) -0.0011(4)
O2 0.0164(4) 0.0097(4) 0.0147(4) 0.0026(3) 0.0050(4) 0.0025(3)
O3 0.0145(4) 0.0200(5) 0.0145(4) 0.0056(4) 0.0065(4) -0.0034(4)
N1 0.0164(5) 0.0124(5) 0.0137(5) 0.0058(4) 0.0070(4) 0.0048(4)
N2 0.0182(5) 0.0089(5) 0.0157(5) 0.0025(4) 0.0054(4) 0.0033(4)
C1 0.0132(5) 0.0119(6) 0.0111(5) 0.0053(4) 0.0071(5) 0.0030(4)
C2 0.0161(6) 0.0141(6) 0.0130(6) 0.0070(5) 0.0083(5) 0.0040(5)
C3 0.0137(6) 0.0121(6) 0.0103(5) 0.0028(5) 0.0058(5) 0.0015(5)
C4 0.0109(5) 0.0101(5) 0.0113(6) 0.0021(4) 0.0042(5) 0.0023(4)
C5 0.0127(5) 0.0092(5) 0.0120(6) 0.0038(4) 0.0064(5) 0.0035(4)
C6 0.0135(6) 0.0122(6) 0.0105(6) 0.0035(4) 0.0060(5) 0.0047(5)
C7 0.0108(5) 0.0130(6) 0.0125(6) 0.0016(5) 0.0036(5) 0.0006(5)
C8 0.0144(6) 0.0138(6) 0.0101(6) 0.0042(5) 0.0049(5) 0.0037(5)
C9 0.0124(6) 0.0119(6) 0.0149(6) 0.0039(5) 0.0080(5) 0.0031(5)
C10 0.0117(5) 0.0105(5) 0.0098(5) 0.0039(4) 0.0040(4) 0.0025(4)
C11 0.0250(7) 0.0134(6) 0.0186(6) 0.0054(5) 0.0084(6) 0.0072(5)
C12 0.0152(6) 0.0192(6) 0.0190(6) 0.0058(5) 0.0071(5) -0.0023(5)
C13 0.0142(6) 0.0216(7) 0.0108(6) 0.0047(5) 0.0035(5) 0.0017(5)
loop_
_atom_type_symbol
_atom_type_description
_atom_type_scat_dispersion_real
_atom_type_scat_dispersion_imag
_atom_type_scat_source
C C 0.0033 0.0016 'International Tables Vol C Tables 4.2.6.8 and 6.1.1.4'
H H 0.0000 0.0000 'International Tables Vol C Tables 4.2.6.8 and 6.1.1.4'
Cl Cl 0.1484 0.1585 'International Tables Vol C Tables 4.2.6.8 and 6.1.1.4'
N N 0.0061 0.0033 'International Tables Vol C Tables 4.2.6.8 and 6.1.1.4'
O O 0.0106 0.0060 'International Tables Vol C Tables 4.2.6.8 and 6.1.1.4'
loop_
_geom_angle_atom_site_label_1
_geom_angle_atom_site_label_2
_geom_angle_atom_site_label_3
_geom_angle
C6 O1 C13 117.06(10)
C2 O2 N2 106.44(9)
C9 O3 C12 117.09(10)
C2 N1 C1 102.10(10)
C1 N2 O2 102.78(10)
N1 C1 C10 119.78(11)
N2 C1 N1 115.28(11)
N2 C1 C10 124.89(11)
O2 C2 C11 117.24(11)
N1 C2 O2 113.38(11)
N1 C2 C11 129.36(12)
Cl1 C3 Cl2 107.67(7)
Cl1 C3 Cl3 109.23(6)
Cl2 C3 Cl3 107.61(6)
C10 C3 Cl1 114.24(8)
C10 C3 Cl2 109.38(8)
C10 C3 Cl3 108.52(8)
C6 C4 C5 120.11(11)
C4 C5 C10 121.62(11)
C8 C5 C4 119.64(11)
C8 C5 C10 118.73(11)
O1 C6 C4 125.40(11)
O1 C6 C9 114.83(10)
C4 C6 C9 119.74(11)
C9 C7 C8 120.28(11)
C5 C8 C7 120.31(11)
O3 C9 C6 115.05(11)
O3 C9 C7 125.28(11)
C7 C9 C6 119.66(11)
C1 C10 C3 113.25(10)
C1 C10 C5 111.51(10)
C5 C10 C3 113.57(10)
loop_
_geom_bond_atom_site_label_1
_geom_bond_atom_site_label_2
_geom_bond_distance
Cl1 C3 1.7722(13)
Cl2 C3 1.7830(12)
Cl3 C3 1.7895(12)
O1 C6 1.3630(15)
O1 C13 1.4337(15)
O2 N2 1.4184(13)
O2 C2 1.3415(15)
O3 C9 1.3644(15)
O3 C12 1.4272(15)
N1 C1 1.3797(15)
N1 C2 1.3020(17)
N2 C1 1.3024(16)
C1 C10 1.5085(16)
C2 C11 1.4819(17)
C3 C10 1.5466(17)
C4 C5 1.4061(17)
C4 C6 1.3889(17)
C5 C8 1.3857(17)
C5 C10 1.5225(16)
C6 C9 1.4147(17)
C7 C8 1.4002(17)
C7 C9 1.3815(17)
