#------------------------------------------------------------------------------
#$Date: 2019-11-11 14:54:40 +0200 (Mon, 11 Nov 2019) $
#$Revision: 226272 $
#$URL: file:///home/coder/svn-repositories/cod/cif/4/03/47/4034749.cif $
#------------------------------------------------------------------------------
#
# This file is available in the Crystallography Open Database (COD),
# http://www.crystallography.net/
#
# All data on this site have been placed in the public domain by the
# contributors.
#
data_4034749
loop_
_publ_author_name
'Xu, Wei'
'Zhao, Jidong'
'Li, Xiangdong'
'Liu, Yuanhong'
_publ_section_title
;
 Selective [5 + 1] and [5 + 2] Cycloaddition of Ynamides or Propargyl
 Esters with Benzo[ d]isoxazoles via Gold Catalysis.
;
_journal_issue                   24
_journal_name_full               'The Journal of organic chemistry'
_journal_page_first              15470
_journal_page_last               15485
_journal_paper_doi               10.1021/acs.joc.8b02935
_journal_volume                  83
_journal_year                    2018
_chemical_absolute_configuration ad
_chemical_formula_sum            'C30 H26 N2 O3 S'
_chemical_formula_weight         494.59
_space_group_crystal_system      triclinic
_space_group_IT_number           1
_space_group_name_Hall           'P 1'
_space_group_name_H-M_alt        'P 1'
_atom_sites_solution_hydrogens   geom
_audit_creation_method           SHELXL-2013
_cell_angle_alpha                71.037(6)
_cell_angle_beta                 72.442(6)
_cell_angle_gamma                68.706(6)
_cell_formula_units_Z            1
_cell_length_a                   7.5699(15)
_cell_length_b                   8.2998(15)
_cell_length_c                   11.079(2)
_cell_measurement_reflns_used    3484
_cell_measurement_temperature    173(2)
_cell_measurement_theta_max      53.583
_cell_measurement_theta_min      5.430
_cell_volume                     599.9(2)
_computing_cell_refinement       'Bruker SAINT'
_computing_data_collection       'Bruker APEX2'
_computing_data_reduction        'Bruker SAINT'
_computing_molecular_graphics    'Bruker SHELXTL'
_computing_publication_material  'Bruker SHELXTL'
_computing_structure_refinement  'SHELXL-2013 (Sheldrick, 2013)'
_computing_structure_solution    'SHELXS-97 (Sheldrick 2008)'
_diffrn_ambient_temperature      173(2)
_diffrn_measured_fraction_theta_full 0.997
_diffrn_measured_fraction_theta_max 0.997
_diffrn_measurement_device_type  'Bruker APEX-II CCD'
_diffrn_measurement_method       '\f and \w scans'
_diffrn_radiation_type           MoK\a
_diffrn_radiation_wavelength     0.71073
_diffrn_reflns_av_R_equivalents  0.0787
_diffrn_reflns_av_unetI/netI     0.0919
_diffrn_reflns_Laue_measured_fraction_full 0.997
_diffrn_reflns_Laue_measured_fraction_max 0.997
_diffrn_reflns_limit_h_max       9
_diffrn_reflns_limit_h_min       -9
_diffrn_reflns_limit_k_max       10
_diffrn_reflns_limit_k_min       -10
_diffrn_reflns_limit_l_max       13
_diffrn_reflns_limit_l_min       -13
_diffrn_reflns_number            9431
_diffrn_reflns_point_group_measured_fraction_full 0.944
_diffrn_reflns_point_group_measured_fraction_max 0.942
_diffrn_reflns_theta_full        25.242
_diffrn_reflns_theta_max         25.498
_diffrn_reflns_theta_min         2.715
_exptl_absorpt_coefficient_mu    0.172
_exptl_absorpt_correction_T_max  0.7456
_exptl_absorpt_correction_T_min  0.5528
_exptl_absorpt_correction_type   multi-scan
_exptl_absorpt_process_details   sadabs
_exptl_crystal_colour            red
_exptl_crystal_density_diffrn    1.369
_exptl_crystal_description       prismatic
_exptl_crystal_F_000             260
_exptl_crystal_size_max          0.130
_exptl_crystal_size_mid          0.100
_exptl_crystal_size_min          0.040
_refine_diff_density_max         0.560
_refine_diff_density_min         -0.597
_refine_diff_density_rms         0.111
_refine_ls_abs_structure_details
; 
 Flack x determined using 1281 quotients [(I+)-(I-)]/[(I+)+(I-)] 
 (Parsons and Flack (2004), Acta Cryst. A60, s61). 
;
_refine_ls_abs_structure_Flack   0.00(7)
_refine_ls_extinction_expression Fc^*^=kFc[1+0.001xFc^2^\l^3^/sin(2\q)]^-1/4^
_refine_ls_extinction_method     SHELXL
_refine_ls_goodness_of_fit_ref   1.044
_refine_ls_hydrogen_treatment    constr
_refine_ls_matrix_type           full
_refine_ls_number_parameters     329
_refine_ls_number_reflns         4210
_refine_ls_number_restraints     3
_refine_ls_restrained_S_all      1.044
_refine_ls_R_factor_all          0.0894
_refine_ls_R_factor_gt           0.0717
_refine_ls_shift/su_max          0.038
_refine_ls_shift/su_mean         0.001
_refine_ls_structure_factor_coef Fsqd
_refine_ls_weighting_details
'w=1/[\s^2^(Fo^2^)+(0.1111P)^2^] where P=(Fo^2^+2Fc^2^)/3'
_refine_ls_weighting_scheme      calc
_refine_ls_wR_factor_gt          0.1739
_refine_ls_wR_factor_ref         0.1900
_reflns_Friedel_coverage         0.890
_reflns_Friedel_fraction_full    0.890
_reflns_Friedel_fraction_max     0.888
_reflns_number_gt                3357
_reflns_number_total             4210
_reflns_threshold_expression     'I > 2\s(I)'
_cod_data_source_file            jo8b02935_si_006.cif
_cod_data_source_block           mo_d8v18466_0m
_cod_database_code               4034749
_shelx_space_group_comment
; 
The symmetry employed for this shelxl refinement is uniquely defined 
by the following loop, which should always be used as a source of 
symmetry information in preference to the above space-group names. 
They are only intended as comments. 
;
_shelx_estimated_absorpt_t_min   0.978
_shelx_estimated_absorpt_t_max   0.993
_shelxl_version_number           2013-4
_shelx_res_file
; 
TITL mo_d8v18466_0m_a.res in P1 
CELL 0.71073 7.5699 8.2998 11.0789 71.037 72.442 68.706 
ZERR 1 0.0015 0.0015 0.0021 0.006 0.006 0.006 
LATT -1 
SFAC C  H  N  O  S 
UNIT 30 26 2 3 1 
OMIT 0 0 -1 
OMIT 0 0 1 
OMIT -3 -1 -3 
OMIT 3 1 3 
OMIT 1 1 0 
OMIT 2 1 2 
OMIT -2 -2 -1 
OMIT -1 -1 0 
OMIT 3 4 0 
OMIT  -3.00  51.00 
L.S. 8 
ACTA 
BOND $H 
FMAP 2 
PLAN 20 
LIST 4 
conf 
htab 
mpla c1 > c6 
mpla c8 > c13 
mpla c24 > c29 
mpla c16 > c21 
wpdb -1 
size 0.13 0.10 0.04 
TEMP -100 
WGHT    0.111100 
EXTI    0.000000 
FVAR       0.77233 
N1    3    0.496487    0.387426    0.557496    11.00000    0.03721    0.03655 = 
         0.03005   -0.00023   -0.00167   -0.02039 
N2    3    0.582096    0.575349    0.299131    11.00000    0.03896    0.02757 = 
         0.03414   -0.00325    0.00406   -0.02025 
O1    4    0.597394    0.122589    0.484174    11.00000    0.05025    0.02855 = 
         0.03296   -0.00121   -0.00627   -0.02346 
O2    4    0.412279    0.804331    0.124593    11.00000    0.06085    0.03927 = 
         0.03499    0.00180   -0.01282   -0.02016 
O3    4    0.242712    0.606462    0.306488    11.00000    0.03829    0.03547 = 
         0.05410   -0.00580   -0.00616   -0.02356 
S1    5    0.378295    0.710630    0.261144    11.00000    0.03830    0.02980 = 
         0.03949   -0.00249   -0.00664   -0.01542 
C1    1    0.633417    0.019966    0.606265    11.00000    0.03845    0.03434 = 
         0.03106    0.00422   -0.00693   -0.02375 
C2    1    0.718047   -0.162470    0.616568    11.00000    0.03392    0.03268 = 
         0.04077   -0.00445    0.00123   -0.01738 
C3    1    0.762637   -0.263215    0.737142    11.00000    0.04254    0.03433 = 
         0.04147    0.00209   -0.00603   -0.02101 
AFIX  43 
H3    2    0.822750   -0.388030    0.749158    11.00000   -1.20000 
AFIX   0 
C4    1    0.722218   -0.187305    0.838770    11.00000    0.04881    0.04344 = 
         0.03740    0.00371   -0.00765   -0.01951 
AFIX  43 
H4    2    0.758893   -0.260026    0.918565    11.00000   -1.20000 
AFIX   0 
C5    1    0.629050   -0.006863    0.828218    11.00000    0.04214    0.04512 = 
         0.03037   -0.00756    0.00069   -0.02131 
AFIX  43 
H5    2    0.598547    0.043827    0.900189    11.00000   -1.20000 
AFIX   0 
C6    1    0.580745    0.099507    0.707458    11.00000    0.04266    0.02746 = 
         0.03914    0.00088   -0.00712   -0.02190 
C7    1    0.487766    0.294389    0.678372    11.00000    0.02985    0.03204 = 
         0.03696   -0.00002   -0.00024   -0.01992 
C8    1    0.384407    0.389092    0.782221    11.00000    0.03453    0.03837 = 
         0.03125   -0.00212   -0.00346   -0.01882 
C9    1    0.273537    0.314094    0.899512    11.00000    0.04047    0.03711 = 
         0.03809   -0.00784    0.00742   -0.02334 
AFIX  43 
H9    2    0.262958    0.198641    0.912981    11.00000   -1.20000 
AFIX   0 
C10   1    0.180278    0.406882    0.994893    11.00000    0.04013    0.04907 = 
         0.04195   -0.00891    0.00704   -0.02264 
AFIX  43 
H10   2    0.101281    0.357499    1.072406    11.00000   -1.20000 
AFIX   0 
C11   1    0.201436    0.572569    0.978041    11.00000    0.04537    0.04531 = 
         0.04319   -0.01558    0.00341   -0.02137 
AFIX  43 
H11   2    0.143519    0.633089    1.046254    11.00000   -1.20000 
AFIX   0 
C12   1    0.307274    0.650138    0.861471    11.00000    0.04350    0.03928 = 
         0.05531   -0.01651   -0.00075   -0.01784 
AFIX  43 
H12   2    0.317010    0.765800    0.848386    11.00000   -1.20000 
AFIX   0 
C13   1    0.397428    0.558916    0.765598    11.00000    0.04265    0.03191 = 
         0.03816   -0.00291    0.00075   -0.02230 
AFIX  43 
H13   2    0.470165    0.612155    0.686324    11.00000   -1.20000 
AFIX   0 
C14   1    0.576495    0.303501    0.459144    11.00000    0.03372    0.02585 = 
         0.03303   -0.00415   -0.00423   -0.01332 
C15   1    0.623736    0.384489    0.330517    11.00000    0.03544    0.02708 = 
         0.03741   -0.00422   -0.00810   -0.01366 
C16   1    0.708062    0.293292    0.224911    11.00000    0.03310    0.02725 = 
         0.03547    0.00311   -0.00183   -0.01968 
C17   1    0.852322    0.130581    0.234176    11.00000    0.03518    0.03684 = 
         0.03508   -0.00237   -0.00293   -0.01468 
AFIX  43 
H17   2    0.898559    0.075823    0.312993    11.00000   -1.20000 
AFIX   0 
C18   1    0.929397    0.047206    0.135588    11.00000    0.03690    0.03237 = 
         0.04493   -0.00556   -0.00489   -0.01478 
AFIX  43 
H18   2    1.027746   -0.063936    0.146154    11.00000   -1.20000 
AFIX   0 
C19   1    0.865398    0.123366    0.018621    11.00000    0.04643    0.04362 = 
         0.05303   -0.01771   -0.00024   -0.02262 
AFIX  43 
H19   2    0.918054    0.064136   -0.050351    11.00000   -1.20000 
AFIX   0 
C20   1    0.724629    0.285841    0.004249    11.00000    0.04581    0.03884 = 
         0.04140   -0.00678   -0.01405   -0.01443 
AFIX  43 
H20   2    0.680352    0.339872   -0.075308    11.00000   -1.20000 
AFIX   0 
C21   1    0.648234    0.369777    0.105084    11.00000    0.04346    0.03335 = 
         0.04411   -0.00649   -0.00920   -0.01723 
AFIX  43 
H21   2    0.552464    0.482466    0.093464    11.00000   -1.20000 
AFIX   0 
C22   1    0.753990    0.641197    0.234969    11.00000    0.03748    0.03364 = 
         0.04242   -0.00592   -0.00053   -0.01976 
AFIX 137 
H22A  2    0.806026    0.617215    0.148072    11.00000   -1.50000 
H22B  2    0.853398    0.580031    0.287707    11.00000   -1.50000 
H22C  2    0.716040    0.769821    0.226765    11.00000   -1.50000 
AFIX   0 
C23   1    0.758784   -0.242580    0.504358    11.00000    0.04802    0.03568 = 
         0.05058   -0.00471   -0.00214   -0.02246 
AFIX 137 
H23A  2    0.657318   -0.177517    0.453556    11.00000   -1.50000 
H23B  2    0.760836   -0.367898    0.537499    11.00000   -1.50000 
H23C  2    0.884876   -0.234785    0.448540    11.00000   -1.50000 
AFIX   0 
C24   1    0.301319    0.868523    0.353088    11.00000    0.02952    0.03046 = 
         0.04383   -0.00539   -0.00343   -0.01111 
C25   1    0.214859    0.826541    0.483897    11.00000    0.04365    0.02794 = 
         0.04157   -0.00286   -0.00250   -0.01682 
AFIX  43 
H25   2    0.206569    0.708995    0.525332    11.00000   -1.20000 
AFIX   0 
C26   1    0.141404    0.953968    0.553520    11.00000    0.03917    0.04001 = 
         0.04693   -0.00757   -0.00003   -0.02232 
AFIX  43 
H26   2    0.079165    0.924414    0.642618    11.00000   -1.20000 
AFIX   0 
C27   1    0.155964    1.128026    0.496088    11.00000    0.03466    0.03760 = 
         0.05974   -0.01484   -0.00807   -0.01475 
C28   1    0.244105    1.166492    0.365782    11.00000    0.04446    0.02884 = 
         0.06398   -0.00454   -0.01022   -0.02030 
AFIX  43 
H28   2    0.253012    1.283896    0.324576    11.00000   -1.20000 
AFIX   0 
C29   1    0.319709    1.040245    0.293343    11.00000    0.04282    0.03104 = 
         0.04737   -0.00231   -0.00510   -0.02216 
AFIX  43 
H29   2    0.383153    1.069220    0.204479    11.00000   -1.20000 
AFIX   0 
C30   1    0.070498    1.263998    0.575339    11.00000    0.05165    0.04180 = 
         0.07766   -0.02096   -0.00214   -0.02347 
AFIX 137 
H30A  2   -0.070498    1.307036    0.583659    11.00000   -1.50000 
H30B  2    0.124843    1.364150    0.532073    11.00000   -1.50000 
H30C  2    0.101111    1.209961    0.662247    11.00000   -1.50000 
AFIX   0 
HKLF 4 
  
REM  mo_d8v18466_0m_a.res in P1 
REM R1 =  0.0717 for    3357 Fo > 4sig(Fo)  and  0.0894 for all    4210 data 
REM    329 parameters refined using      3 restraints 
  
END 
  
WGHT      0.1111      0.0000 
  
REM No hydrogen bonds found for HTAB generation 
  
REM Highest difference peak  0.560,  deepest hole -0.597,  1-sigma level  0.111 
Q1    1   0.3280  0.7684  0.3368  11.00000  0.05    0.56 
Q2    1   0.4638  0.6731  0.3382  11.00000  0.05    0.53 
Q3    1   0.5073  0.6255  0.2511  11.00000  0.05    0.52 
Q4    1   0.7733  0.2470  0.0955  11.00000  0.05    0.48 
Q5    1   0.2310  0.8326  0.2740  11.00000  0.05    0.44 
Q6    1   0.7858  0.2207  0.2415  11.00000  0.05    0.43 
Q7    1   0.6517  0.3378  0.2692  11.00000  0.05    0.43 
Q8    1   0.8227  0.1527  0.1575  11.00000  0.05    0.40 
Q9    1   0.8468  0.1349  0.1289  11.00000  0.05    0.39 
Q10   1   0.7608  0.2585  0.0292  11.00000  0.05    0.39 
Q11   1   1.0064 -0.0027  0.2221  11.00000  0.05    0.39 
Q12   1   0.5006  0.0943  0.8878  11.00000  0.05    0.38 
Q13   1   0.1830  0.9145  0.3368  11.00000  0.05    0.37 
Q14   1   1.0367 -0.0112  0.0431  11.00000  0.05    0.36 
Q15   1   0.9036 -0.3534  0.4798  11.00000  0.05    0.35 
Q16   1   0.3878  0.6832  0.4668  11.00000  0.05    0.35 
Q17   1   0.5960  0.3839  0.0386  11.00000  0.05    0.33 
Q18   1   0.6129 -0.0772  0.6170  11.00000  0.05    0.33 
Q19   1   0.7263 -0.0497  0.6296  11.00000  0.05    0.33 
Q20   1   0.0777  1.3037  0.3965  11.00000  0.05    0.33 
;
_shelx_res_checksum              1189
_shelx_hkl_file
; 
  -1   0   0 1100.59   77.29 
   1   0   0 1176.78   77.29 
  -2   0   0  971.00   62.59 
  -2   0   0  797.82   62.99 
  -2   0   0  960.40   62.79 
   2   0   0 1020.00   63.09 
   2   0   0  841.02   63.19 
  -3   0   0   56.39    5.00 
  -3   0   0   52.09    6.10 
   3   0   0   60.59    5.90 
   3   0   0   52.69    6.20 
  -4   0   0   49.99    5.40 
  -4   0   0   43.90    6.60 
  -4   0   0   51.49    5.10 
   4   0   0   47.70    6.70 
   4   0   0   53.79    5.00 
   4   0   0   62.39    6.50 
  -5   0   0   40.00    5.10 
  -5   0   0   44.50    7.30 
  -5   0   0   37.20    4.50 
   5   0   0   49.40    8.00 
   5   0   0   37.40    4.50 
   5   0   0   30.40    6.20 
  -6   0   0   46.00    8.00 
  -6   0   0   51.79    5.50 
   6   0   0   57.09    9.20 
   6   0   0   43.00    5.40 
   6   0   0   49.20    8.00 
  -7   0   0    0.50    3.90 
  -7   0   0    3.80    1.90 
   7   0   0    7.90    4.30 
   7   0   0    3.80    2.00 
   7   0   0    2.80    3.60 
  -8   0   0   18.30    3.60 
   8   0   0   14.30    5.30 
   8   0   0   10.90    3.20 
   8   0   0   11.40    6.50 
   8  -1   0   -0.30    4.30 
   8  -1   0    5.20    2.60 
   8  -1   0    3.90    5.90 
  -8   1   0    5.60    2.50 
   7  -1   0   17.30    5.60 
  -7   1   0   13.40    3.90 
  -7   1   0   10.60    3.30 
   6  -1   0   43.40    5.00 
   6  -1   0   34.10    7.20 
   6  -1   0   22.60    9.20 
  -6   1   0   45.90    7.10 
  -6   1   0   34.90    4.60 
   5  -1   0   47.70    7.90 
   5  -1   0   35.40    6.30 
   5  -1   0   39.90    4.80 
  -5   1   0   46.70    7.30 
  -5   1   0   36.00    4.60 
  -5   1   0   46.40    6.00 
   4  -1   0   21.30    4.00 
   4  -1   0   21.70    4.90 
   4  -1   0   20.70    3.10 
  -4   1   0   21.40    3.60 
  -4   1   0   21.60    3.20 
  -4   1   0   28.40    4.90 
   3  -1   0  155.68   12.80 
   3  -1   0  174.68   13.10 
  -3   1   0  146.29   12.40 
  -3   1   0  154.78   11.90 
   2  -1   0  597.74   37.50 
   2  -1   0  483.75   37.30 
  -2   1   0  572.74   37.20 
  -2   1   0  532.25   37.20 
  -2   1   0  502.35   37.10 
   1  -1   0  152.48   10.90 
   1  -1   0  149.69   11.10 
  -1   1   0  156.08   10.80 
  -1   1   0  150.78   11.10 
  -1   1   0  162.58   11.20 
   0  -1   0   11.20    1.50 
   0   1   0   10.70    1.30 
  -1  -1   0 1325.07   91.39 
  -1  -1   0 1308.27   90.99 
   1   1   0 1346.67   90.99 
   1   1   0 1395.46   91.39 
  -2  -1   0 1150.08   78.49 
  -2  -1   0 1113.49   77.99 
   2   1   0 1270.57   78.39 
   2   1   0 1033.00   78.39 
  -3  -1   0  771.02   52.59 
  -3  -1   0  749.92   53.09 
  -3  -1   0  723.43   53.59 
   3   1   0  757.22   53.89 
   3   1   0  811.92   53.49 
  -4  -1   0  103.99    9.70 
  -4  -1   0  112.09    9.00 
  -4  -1   0  100.19   10.60 
   4   1   0  118.79   11.00 
   4   1   0  111.29   10.30 
  -5  -1   0  164.58   13.40 
  -5  -1   0  154.08   14.80 
  -5  -1   0  159.98   12.60 
   5   1   0  146.39   12.40 
   5   1   0  152.28   14.30 
   5   1   0  162.38   15.40 
  -6  -1   0   27.70    6.50 
  -6  -1   0   22.60    3.90 
  -6  -1   0   25.50    4.50 
   6   1   0   16.80    3.50 
   6   1   0   26.90    6.90 
  -7  -1   0   20.60    3.80 
  -7  -1   0    2.10    6.40 
   7   1   0   25.80    7.90 
   7   1   0   17.10    3.70 
  -8  -1   0    2.60    2.60 
   8   1   0   10.30    2.90 
   8   1   0    9.90    4.70 
   8   1   0    3.60    4.10 
   9   1   0   -3.30    5.30 
   9   1   0    0.00    2.50 
   8  -2   0    4.10    3.20 
   8  -2   0    6.70    4.20 
   8  -2   0    9.30    4.90 
  -8   2   0    4.90    3.40 
   7  -2   0    2.70    2.00 
   7  -2   0    0.80    3.20 
   7  -2   0    0.50    3.70 
  -7   2   0    3.30    2.00 
  -7   2   0    1.20    2.70 
   6  -2   0   25.00    5.30 
   6  -2   0   21.60    4.10 
  -6   2   0   20.50    3.80 
  -6   2   0   22.10    4.30 
   5  -2   0    5.00    2.10 
   5  -2   0    5.10    3.30 
   5  -2   0   10.70    3.90 
  -5   2   0    8.40    2.20 
  -5   2   0    8.50    3.00 
  -5   2   0    4.80    2.40 
   4  -2   0   25.00    3.90 
   4  -2   0   35.50    5.50 
   4  -2   0   28.30    5.30 
  -4   2   0   22.60    4.00 
  -4   2   0   24.70    3.60 
   3  -2   0  296.57   20.10 
   3  -2   0  254.67   19.60 
  -3   2   0  249.28   19.00 
  -3   2   0  276.57   19.50 
  -3   2   0  247.18   19.30 
   2  -2   0  125.39    9.30 
   2  -2   0   98.89    8.60 
  -2   2   0  116.49    8.30 
  -2   2   0  112.49    8.90 
   1  -2   0   60.89    5.40 
  -1   2   0   60.49    5.20 
  -1   2   0   64.59    5.40 
   0  -2   0  343.97   27.20 
   0  -2   0  393.96   27.60 
   0  -2   0  429.86   28.20 
   0   2   0  400.76   27.60 
   0   2   0  441.56   28.10 
   0   2   0  371.86   27.20 
  -1  -2   0  239.28   17.00 
  -1  -2   0  249.38   17.40 
   1   2   0  241.08   17.00 
   1   2   0  207.78   17.10 
  -2  -2   0 1315.17   94.59 
  -2  -2   0 1463.95   95.59 
   2   2   0 1485.95   95.69 
   2   2   0 1291.07   94.49 
  -3  -2   0 1039.20   72.59 
  -3  -2   0 1121.09   73.59 
  -3  -2   0  898.21   74.99 
   3   2   0 1007.00   72.49 
   3   2   0 1193.28   73.99 
   3   2   0 1070.19   73.89 
  -4  -2   0  454.85   34.40 
  -4  -2   0  454.25   33.30 
  -4  -2   0  461.85   35.00 
   4   2   0  514.75   35.60 
   4   2   0  466.05   34.80 
  -5  -2   0  142.39   13.90 
  -5  -2   0  136.39   11.30 
  -5  -2   0  128.59   12.40 
   5   2   0  126.99   13.20 
   5   2   0  150.68   14.20 
  -6  -2   0  123.19   12.70 
  -6  -2   0  130.89   11.40 
  -6  -2   0  125.69   14.00 
   6   2   0  113.69   13.60 
   6   2   0  158.38   14.10 
   6   2   0  150.38   15.10 
  -7  -2   0   10.20    3.20 
   7   2   0   14.90    3.20 
   7   2   0    5.70    4.60 
  -8  -2   0    5.10    2.80 
   8   2   0   12.60    5.70 
   8   2   0    2.90    2.10 
   8   2   0    6.40    5.50 
   9   2   0   -3.20    5.10 
   9   2   0   -0.60    2.10 
   9   2   0    5.30    5.50 
   7  -3   0   12.30    4.30 
   7  -3   0   10.50    4.00 
   7  -3   0    4.30    3.00 
  -7   3   0   10.10    2.70 
  -7   3   0    8.00    3.30 
   6  -3   0   15.00    3.40 
   6  -3   0   12.60    3.40 
   6  -3   0    4.30    4.10 
  -6   3   0   13.60    2.90 
  -6   3   0    9.10    2.80 
   5  -3   0   44.60    6.10 
   5  -3   0   38.90    5.80 
  -5   3   0   47.30    4.90 
  -5   3   0   41.70    5.30 
   4  -3   0   81.79    9.10 
   4  -3   0   78.49    8.70 
   4  -3   0   84.69    8.20 
  -4   3   0   92.19    8.20 
  -4   3   0   89.89    7.30 
  -4   3   0   98.39    8.50 
   3  -3   0   78.69    6.90 
  -3   3   0   90.19    7.80 
  -3   3   0   81.49    6.20 
  -3   3   0   76.79    7.40 
   2  -3   0   62.89    6.10 
  -2   3   0   58.99    5.70 
  -2   3   0   46.40    5.50 
   1  -3   0  250.77   19.50 
   1  -3   0  275.87   19.20 
  -1   3   0  248.28   19.10 
  -1   3   0  258.77   19.30 
   0  -3   0  364.26   27.10 
   0  -3   0  365.96   25.90 
   0  -3   0  420.06   26.60 
   0   3   0  327.57   25.60 
   0   3   0  365.26   26.30 
   0   3   0  379.66   26.80 
  -1  -3   0  104.79    9.50 
  -1  -3   0  112.29    8.70 
  -1  -3   0   93.29    8.80 
   1   3   0  112.49    9.50 
   1   3   0   92.79    8.60 
   1   3   0  111.79    8.70 
  -2  -3   0  348.17   23.80 
  -2  -3   0  303.47   23.00 
  -2  -3   0  270.97   22.10 
   2   3   0  332.47   23.50 
   2   3   0  261.77   22.00 
   2   3   0  324.27   23.10 
  -3  -3   0  116.29   10.70 
  -3  -3   0  148.99   12.40 
   3   3   0  145.89   12.60 
   3   3   0  131.59   10.90 
   3   3   0  117.09   16.30 
  -4  -3   0  155.58   13.80 
  -4  -3   0  149.79   13.30 
  -4  -3   0  132.39   11.70 
   4   3   0  140.09   11.80 
   4   3   0  142.09   13.50 
   4   3   0  144.79   13.70 
  -5  -3   0   22.20    5.50 
  -5  -3   0   24.80    6.10 
  -5  -3   0   22.10    4.30 
   5   3   0   23.80    5.90 
   5   3   0   25.80    4.00 
   5   3   0   19.60    5.60 
  -6  -3   0    6.70    2.50 
  -6  -3   0    9.50    4.20 
  -6  -3   0    1.80    4.00 
   6   3   0   12.50    4.60 
   6   3   0    4.60    2.30 
   6   3   0    2.50    3.80 
  -7  -3   0   50.89    6.10 
   7   3   0   52.09   10.20 
   7   3   0   38.00    8.70 
  -8  -3   0   28.20    5.50 
   8   3   0   27.40    8.10 
   8   3   0   23.00    7.80 
   9   3   0    3.10    4.90 
   9   3   0    1.50    4.30 
   9   3   0   -1.20    2.10 
   7  -4   0   13.30    4.20 
   7  -4   0   10.60    5.00 
   6  -4   0   17.20    4.60 
   6  -4   0    6.30    2.90 
  -6   4   0    9.00    2.80 
   5  -4   0   -0.70    1.70 
   5  -4   0    0.80    3.70 
  -5   4   0    5.70    2.30 
   4  -4   0   22.30    4.90 
  -4   4   0   20.40    4.10 
   3  -4   0   66.29    7.50 
   3  -4   0   76.09    7.80 
  -3   4   0   55.89    6.50 
   2  -4   0   47.60    6.40 
  -2   4   0   39.90    5.40 
  -2   4   0   57.09    5.60 
   1  -4   0   29.90    4.90 
   1  -4   0   33.00    4.50 
  -1   4   0   34.60    4.30 
  -1   4   0   28.20    4.30 
   0  -4   0  393.96   30.40 
   0  -4   0  473.75   29.80 
   0  -4   0  369.16   28.60 
   0   4   0  376.36   28.20 
   0   4   0  430.16   30.00 
   0   4   0  402.66   30.80 
  -1  -4   0  267.27   21.40 
  -1  -4   0  306.57   22.80 
  -1  -4   0  283.07   21.40 
   1   4   0  296.27   21.40 
   1   4   0  283.27   22.20 
  -2  -4   0   72.19    8.10 
  -2  -4   0   57.39    6.20 
  -2  -4   0   62.69    8.50 
   2   4   0   60.69    6.90 
   2   4   0   53.69    7.30 
   2   4   0   53.89    6.10 
  -3  -4   0  890.81   64.89 
  -3  -4   0  969.70   65.79 
  -3  -4   0  756.82   63.49 
   3   4   0  993.50   65.79 
   3   4   0  977.40   65.19 
  -4  -4   0   22.40    5.70 
  -4  -4   0   27.30    5.80 
  -4  -4   0   32.10    4.70 
   4   4   0   28.30    6.20 
   4   4   0   22.20    4.50 
   4   4   0   28.10    6.20 
  -5  -4   0   65.09    7.40 
  -5  -4   0   70.89    9.60 
   5   4   0   68.19    7.50 
   5   4   0   71.79   10.10 
   5   4   0   72.69   10.20 
  -6  -4   0   33.90    5.60 
  -6  -4   0   41.70    7.60 
   6   4   0   25.90    6.70 
   6   4   0   31.10    5.30 
   6   4   0   30.90    7.20 
  -7  -4   0   48.90    6.30 
   7   4   0   42.30    6.30 
   7   4   0   46.80    9.40 
   7   4   0   41.10    9.30 
  -8  -4   0   19.30    4.40 
   8   4   0   11.70    7.00 
   8   4   0   18.70    7.40 
   8   4   0   22.50    4.50 
   9   4   0   -5.70    4.50 
   9   4   0   -3.90    5.00 
   6  -5   0    6.20    5.60 
   6  -5   0    1.30    3.40 
   5  -5   0   20.40    6.00 
   4  -5   0   49.30    8.10 
   4  -5   0   48.10    7.70 
  -4   5   0   69.29    6.90 
   3  -5   0   30.10    6.00 
   3  -5   0   39.00    6.30 
  -3   5   0   28.10    6.40 
  -3   5   0   26.00    4.50 
   2  -5   0   63.39    7.20 
   2  -5   0   59.69    7.90 
  -2   5   0   50.89    7.80 
  -2   5   0   48.60    6.30 
   1  -5   0    4.90    3.00 
   1  -5   0    3.30    2.40 
  -1   5   0    2.30    1.90 
  -1   5   0    2.20    1.80 
   0  -5   0   22.00    5.20 
   0  -5   0   29.60    4.60 
   0  -5   0   26.70    4.30 
   0   5   0   25.70    2.90 
   0   5   0   32.30    5.90 
  -1  -5   0   47.80    6.80 
  -1  -5   0   29.50    5.40 
  -1  -5   0   32.90    4.90 
   1   5   0   30.40    4.40 
   1   5   0   30.00    5.50 
   1   5   0   37.50    4.90 
  -2  -5   0   21.50    4.10 
  -2  -5   0   16.30    4.60 
  -2  -5   0   12.80    6.20 
   2   5   0   16.80    4.90 
   2   5   0   16.80    4.00 
   2   5   0   24.30    5.10 
  -3  -5   0   13.80    4.60 
  -3  -5   0   10.60    4.20 
  -3  -5   0   15.50    3.90 
   3   5   0   12.70    4.10 
   3   5   0    6.60    5.20 
   3   5   0   15.20    3.80 
  -4  -5   0   26.40    5.90 
  -4  -5   0   17.70    4.30 
  -4  -5   0   13.10    5.20 
   4   5   0   17.40    5.30 
   4   5   0   15.80    5.30 
   4   5   0   18.90    4.30 
  -5  -5   0   18.40    4.40 
  -5  -5   0   18.20    5.80 
  -5  -5   0   21.70    9.90 
   5   5   0   27.30    6.40 
   5   5   0   21.40    6.10 
   5   5   0   26.80    5.00 
  -6  -5   0    9.60    3.40 
   6   5   0    7.70    5.70 
   6   5   0    2.60    2.90 
   6   5   0    3.30    3.70 
  -7  -5   0   37.70    6.50 
   7   5   0   29.10    9.40 
   7   5   0   56.49   10.10 
   7   5   0   39.50    6.30 
  -8  -5   0   16.60    4.10 
   8   5   0   17.90    4.60 
   8   5   0   16.00    7.30 
   8   5   0   17.70    6.80 
   9   5   0    7.90    7.60 
   9   5   0   19.10    7.20 
   5  -6   0   10.80    4.60 
  -5   6   0   11.70    3.50 
   4  -6   0   14.90    4.60 
  -4   6   0    8.70    2.90 
   3  -6   0   38.30    7.60 
   3  -6   0   35.60    7.20 
  -3   6   0   43.00    5.90 
   2  -6   0   50.69    9.10 
  -2   6   0   58.39    7.00 
   1  -6   0   52.09    7.00 
  -1   6   0   37.50    6.20 
  -1   6   0   40.60    5.90 
   0  -6   0    5.40    1.00 
   0  -6   0    0.60    2.70 
   0  -6   0    6.50    2.50 
   0  -6   0    5.80    3.40 
   0   6   0    6.60    3.00 
  -1  -6   0   57.99    7.50 
  -1  -6   0   41.40    8.50 
   1   6   0   65.89    7.10 
   1   6   0   41.60    5.80 
   1   6   0   64.69    8.00 
  -2  -6   0   19.50    5.80 
  -2  -6   0   35.10    5.50 
  -2  -6   0   26.30    6.50 
   2   6   0   29.40    5.30 
   2   6   0   26.50    6.10 
   2   6   0   26.10    5.30 
  -3  -6   0   65.49    9.60 
  -3  -6   0   74.29    7.90 
  -3  -6   0   47.90    9.90 
   3   6   0   55.49    7.50 
   3   6   0   59.49    8.40 
   3   6   0   66.09    9.10 
  -4  -6   0   97.19   10.20 
  -4  -6   0  106.99   13.00 
   4   6   0  111.89   12.10 
   4   6   0   85.19   10.10 
   4   6   0  102.49   12.30 
  -5  -6   0   95.39   12.10 
  -5  -6   0   65.99    8.70 
   5   6   0   88.29   11.50 
   5   6   0   81.29   11.10 
   5   6   0   72.89    9.00 
   6   6   0    3.50    4.40 
   6   6   0    7.70    3.00 
   6   6   0   -4.10    3.20 
  -7  -6   0  107.39   10.60 
   7   6   0   81.99   10.30 
   7   6   0  107.19   13.40 
   7   6   0   82.39   13.90 
  -8  -6   0    5.90    3.60 
   8   6   0    4.20    3.50 
   8   6   0    7.50    6.30 
   8   6   0   11.80    6.70 
   4  -7   0   13.60    6.50 
   4  -7   0    4.10    4.00 
  -4   7   0    9.70    4.50 
   3  -7   0   -0.70    3.30 
   3  -7   0   -2.50    3.00 
  -3   7   0    1.60    2.00 
   2  -7   0    3.20    3.90 
   2  -7   0    6.40    3.80 
  -2   7   0    5.70    2.70 
   1  -7   0    6.40    4.30 
   1  -7   0   14.90    4.30 
  -1   7   0    6.60    2.70 
   0  -7   0   98.69   14.50 
   0   7   0   79.99    9.70 
   0   7   0   85.19    9.70 
  -1  -7   0   23.80    7.10 
  -1  -7   0   32.60    6.40 
  -1  -7   0   32.80    6.40 
   1   7   0   34.00    6.40 
   1   7   0   29.70    4.80 
   1   7   0   36.00    7.50 
  -2  -7   0   33.30    5.90 
  -2  -7   0   20.70    6.50 
  -2  -7   0   14.30    4.80 
   2   7   0   31.60    5.90 
   2   7   0   25.10    5.40 
   2   7   0   17.40    5.70 
  -3  -7   0   22.10    5.30 
  -3  -7   0   33.80    7.70 
  -3  -7   0   21.70    6.10 
   3   7   0   22.80    6.20 
   3   7   0   18.10    5.10 
   3   7   0   19.40    5.60 
  -4  -7   0   96.29   17.60 
  -4  -7   0  133.99   12.40 
  -4  -7   0  124.19   14.40 
   4   7   0  133.69   12.60 
   4   7   0  104.49   13.80 
   4   7   0  121.69   13.50 
  -5  -7   0   24.50    5.70 
   5   7   0   36.90    7.90 
   5   7   0   29.00    6.30 
   5   7   0   20.70    6.10 
  -6  -7   0   11.40    4.50 
   6   7   0   12.70    6.50 
   6   7   0   22.00    7.20 
   6   7   0   22.20    5.90 
  -7  -7   0    3.90    3.80 
   7   7   0    6.90    5.40 
   7   7   0    7.90    4.60 
   8   7   0   10.60    6.10 
   8   7   0    8.80    5.20 
   8   7   0   -6.70    5.30 
   3  -8   0    6.00    7.50 
   3  -8   0    2.20    3.70 
   2  -8   0   17.00    5.30 
   2  -8   0    4.30    4.10 
  -2   8   0    5.70    2.40 
   1  -8   0   17.20    5.20 
   1  -8   0   24.20    6.40 
  -1   8   0   18.00    5.00 
   0  -8   0   -3.20    3.20 
   0  -8   0    8.70    4.30 
   0   8   0   -1.80    1.70 
  -1  -8   0   27.90    6.60 
  -1  -8   0   20.50    7.40 
  -1  -8   0   23.40    4.60 
   1   8   0   18.00    9.40 
  -2  -8   0   14.10    4.50 
  -2  -8   0    5.70    7.00 
  -2  -8   0   16.10    4.90 
   2   8   0    8.50    3.40 
   2   8   0   10.50    4.80 
   2   8   0    6.10    4.40 
  -3  -8   0   10.60    4.30 
  -3  -8   0    5.10    6.90 
  -3  -8   0    3.80    7.20 
   3   8   0   -0.90    3.10 
   3   8   0    4.10    4.10 
   3   8   0    4.30    3.60 
  -4  -8   0   50.69   10.40 
  -4  -8   0   54.29    8.10 
   4   8   0   56.09    8.80 
   4   8   0   54.39    9.40 
   4   8   0   59.29   10.60 
  -5  -8   0    7.00    4.10 
   5   8   0    0.00    4.90 
   5   8   0    6.80    4.60 
   5   8   0    1.40    4.20 
  -6  -8   0   41.10    7.10 
   6   8   0   19.80    7.50 
   6   8   0   25.10    6.40 
   6   8   0   27.70    7.70 
  -7  -8   0   37.70    6.70 
   7   8   0   31.80    8.40 
   7   8   0   21.90    6.80 
   7   8   0   17.40   12.80 
   1  -9   0   -5.90    6.10 
   1  -9   0    3.70    4.50 
  -1   9   0    9.10    3.80 
   0  -9   0   18.50    5.50 
   0  -9   0    8.50    7.20 
   0   9   0   17.90    6.20 
  -1  -9   0    5.70    5.20 
  -1  -9   0   -3.00    6.80 
  -1  -9   0    8.70    1.60 
   1   9   0    8.60    4.20 
  -2  -9   0   22.40    5.10 
  -2  -9   0   24.80    6.00 
  -2  -9   0   17.10   11.50 
   2   9   0   22.80    4.60 
   2   9   0   16.60    6.30 
  -3  -9   0   11.90    4.60 
  -3  -9   0   -3.70    6.70 
  -3  -9   0    8.80    4.50 
   3   9   0    0.80    3.40 
   3   9   0    9.50    5.00 
  -4  -9   0   10.80    4.90 
   4   9   0   15.10    5.00 
   4   9   0   12.20    5.10 
   4   9   0    6.60    4.40 
  -5  -9   0   29.40    6.60 
   5   9   0   13.90    7.00 
   5   9   0   31.90    8.30 
   5   9   0   32.70    6.80 
  -6  -9   0    9.70    4.30 
   6   9   0   -0.60    5.90 
   6   9   0    9.20    6.40 
  -1 -10   0   20.10    6.50 
   1  10   0   15.60    5.70 
  -2 -10   0   11.40    2.40 
  -2 -10   0   21.90    6.30 
  -3 -10   0    0.20    5.80 
   3  10   0    2.70    3.80 
   3  10   0    0.90    2.90 
  -4 -10   0    5.00    4.90 
   4  10   0   11.70    7.30 
   4  10   0    3.60    5.00 
   6   9  -1    3.30    6.20 
   5   9  -1    2.20    9.40 
   5   9  -1    9.40    6.10 
   5   9  -1   12.70    5.70 
  -5  -9   1   27.30    6.90 
   4   9  -1   10.90    4.20 
   4   9  -1    0.40    4.60 
   4   9  -1    1.60    5.90 
  -4  -9   1    1.60    4.10 
   3   9  -1    1.30    3.90 
   3   9  -1    7.00    9.40 
   3   9  -1    0.80    2.90 
  -3  -9   1    8.80    4.50 
   2   9  -1   14.80    4.20 
   2   9  -1   21.00    6.40 
  -2  -9   1   32.00    6.90 
  -2  -9   1    7.50    4.70 
   1   9  -1   20.30    5.80 
  -1  -9   1   -9.70    7.30 
  -1  -9   1   21.90    6.60 
  -1  -9   1    7.70    1.80 
  -1  -9   1   12.90    3.40 
   0   9  -1   16.80    5.70 
   0  -9   1   22.70    6.40 
   0  -9   1   25.70   10.90 
  -1   9  -1   23.10    5.70 
   1  -9   1   28.70   12.80 
   1  -9   1   28.70    7.10 
   7   8  -1    4.60    6.30 
   7   8  -1   11.40    8.10 
   6   8  -1    9.50    4.80 
   6   8  -1   17.30    7.60 
   6   8  -1   15.50    6.50 
  -6  -8   1   11.80    4.30 
   5   8  -1   13.30    5.50 
   5   8  -1    5.60    5.10 
   5   8  -1    6.90    5.00 
   4   8  -1   25.00    6.30 
   4   8  -1   17.00    6.10 
   4   8  -1   22.50    5.30 
  -4  -8   1   28.70    6.90 
   3   8  -1    5.90    4.60 
   3   8  -1   13.50    5.80 
   3   8  -1   12.60    4.50 
  -3  -8   1    9.70    6.60 
  -3  -8   1    3.40    5.60 
  -3  -8   1   13.40    4.90 
   2   8  -1    4.50    3.80 
   2   8  -1   10.50    3.60 
   2   8  -1   13.00    5.30 
  -2  -8   1    2.80    8.90 
  -2  -8   1    6.60    4.50 
  -2  -8   1   12.40    4.30 
  -1  -8   1   29.50    3.60 
  -1  -8   1   23.10    8.30 
  -1  -8   1   42.70    6.70 
  -1  -8   1   47.80    8.50 
   0   8  -1    5.60    3.10 
   0  -8   1   12.30    2.50 
   0  -8   1    3.20    5.40 
   0  -8   1   11.70    4.90 
  -1   8  -1   26.80    6.30 
   1  -8   1    3.70    6.00 
   1  -8   1   12.10    5.40 
  -2   8  -1    9.00    3.30 
   2  -8   1    9.40    4.50 
   2  -8   1    6.70    5.30 
   3  -8   1    7.80    4.80 
   8   7  -1    8.10    6.00 
   8   7  -1   -1.20    4.20 
   7   7  -1   14.80    6.70 
   7   7  -1   22.10    6.50 
   7   7  -1    9.20    4.90 
  -7  -7   1   13.50    3.70 
   6   7  -1   34.20    8.50 
   6   7  -1   36.00    7.00 
   6   7  -1   34.10    8.30 
  -6  -7   1   32.80    6.30 
   5   7  -1   28.40    7.60 
   5   7  -1   25.40    7.50 
   5   7  -1   35.50    6.90 
  -5  -7   1   34.50    6.50 
   4   7  -1   36.40    8.10 
   4   7  -1   43.70    7.60 
   4   7  -1   60.29    8.90 
  -4  -7   1   39.10   10.10 
  -4  -7   1   36.30    8.60 
   3   7  -1   19.40    5.30 
   3   7  -1   12.10    4.40 
   3   7  -1    7.90    4.30 
  -3  -7   1   11.00    9.10 
  -3  -7   1   20.10    5.10 
   2   7  -1   88.39    9.30 
   2   7  -1  101.29   10.50 
   2   7  -1   80.19   10.90 
  -2  -7   1   82.39   11.10 
  -2  -7   1  100.09   13.60 
  -2  -7   1  100.79   10.60 
   1   7  -1   26.10    4.30 
   1   7  -1   26.20    6.80 
  -1  -7   1   25.90    5.70 
  -1  -7   1   15.80    6.60 
  -1  -7   1   40.40    6.90 
   0   7  -1    1.90    2.30 
   0   7  -1    0.50    3.30 
   0  -7   1    3.40    4.40 
   0  -7   1    5.10    1.20 
   0  -7   1    8.80    2.90 
   0  -7   1    4.90    3.50 
  -1   7  -1    0.10    1.70 
   1  -7   1    1.80    3.70 
   1  -7   1   -0.40    3.00 
  -2   7  -1    8.70    3.30 
   2  -7   1    8.60    5.70 
   2  -7   1   10.00    4.20 
  -3   7  -1    1.00    2.10 
   3  -7   1   -3.00    3.80 
   3  -7   1    5.70    4.50 
  -4   7  -1   -0.20    3.70 
   4  -7   1    3.60    4.20 
   4  -7   1    5.60    5.90 
   8   6  -1    0.50    4.80 
   8   6  -1   -2.10    3.40 
   8   6  -1    1.80    4.60 
  -8  -6   1    1.90    4.60 
   7   6  -1    1.80    2.70 
   7   6  -1    4.70    4.50 
   7   6  -1    8.60    5.20 
  -7  -6   1    7.50    3.20 
   6   6  -1   27.00    7.10 
   6   6  -1   22.00    7.00 
   6   6  -1   35.80    6.40 
  -6  -6   1   29.00    5.50 
   5   6  -1    0.80    4.40 
   5   6  -1    6.20    3.10 
   5   6  -1    4.60    4.20 
  -5  -6   1    3.80    2.80 
   4   6  -1   33.70    6.20 
   4   6  -1   40.20    7.80 
   4   6  -1   28.50    6.80 
  -4  -6   1   28.30    7.00 
  -4  -6   1   33.40    7.10 
  -4  -6   1   29.60    5.70 
   3   6  -1  196.28   20.50 
   3   6  -1  245.88   20.00 
   3   6  -1  209.28   20.40 
  -3  -6   1  230.28   19.00 
  -3  -6   1  243.88   21.80 
  -3  -6   1  250.67   20.80 
   2   6  -1   17.50    4.70 
   2   6  -1   27.20    4.80 
   2   6  -1   21.70    5.40 
  -2  -6   1   15.60    5.20 
  -2  -6   1   11.60    5.60 
  -2  -6   1   28.60    5.40 
   1   6  -1   29.90    6.10 
   1   6  -1   27.80    5.30 
   1   6  -1   44.70    6.00 
  -1  -6   1   43.40    6.20 
  -1  -6   1   31.40    6.20 
  -1  -6   1   29.10    7.10 
   0   6  -1   10.30    4.00 
   0   6  -1   16.00    4.00 
   0  -6   1   16.80    4.30 
   0  -6   1   16.20    3.80 
   0  -6   1   13.60    4.70 
   0  -6   1   13.00    2.00 
  -1   6  -1   11.70    3.60 
  -1   6  -1   19.40    5.30 
   1  -6   1   20.60    4.60 
   1  -6   1   23.20    6.00 
  -2   6  -1   92.39   10.90 
  -2   6  -1   64.89    8.20 
   2  -6   1   61.69   10.70 
  -3   6  -1    1.10    1.80 
   3  -6   1   -0.60    2.80 
   3  -6   1   -5.40    2.80 
  -4   6  -1   46.10    6.80 
   4  -6   1   31.00    7.20 
  -5   6  -1    9.70    3.70 
   5  -6   1    4.70    4.70 
   5  -6   1    5.80    4.90 
   8   5  -1   45.60    9.50 
   8   5  -1   38.70    6.60 
   8   5  -1   51.39   11.70 
  -8  -5   1   26.50    5.90 
   7   5  -1   14.50    6.40 
   7   5  -1   18.70    6.00 
   7   5  -1   11.00    4.30 
  -7  -5   1   16.60    4.20 
   6   5  -1   22.30    5.00 
   6   5  -1   21.30    6.40 
   6   5  -1   21.30   12.30 
  -6  -5   1   28.00    5.10 
   5   5  -1  269.77   23.80 
   5   5  -1  302.07   24.10 
   5   5  -1  253.37   21.40 
  -5  -5   1  273.57   23.50 
  -5  -5   1  282.17   24.30 
  -5  -5   1  249.48   21.20 
   4   5  -1  103.39   11.60 
   4   5  -1   82.69    9.00 
   4   5  -1   87.99   10.80 
  -4  -5   1   93.89   11.80 
  -4  -5   1   82.19    8.90 
  -4  -5   1   93.79   11.70 
   3   5  -1  173.18   14.80 
   3   5  -1  145.09   13.20 
   3   5  -1  158.88   15.20 
  -3  -5   1  151.18   15.60 
  -3  -5   1  172.88   15.50 
  -3  -5   1  143.79   13.30 
   2   5  -1   43.40    6.10 
   2   5  -1   29.80    7.40 
   2   5  -1   45.70    5.60 
  -2  -5   1   26.10    5.80 
  -2  -5   1   41.30    5.70 
  -2  -5   1   51.29    7.80 
   1   5  -1    0.10    2.30 
   1   5  -1    5.20    3.50 
   1   5  -1    9.70    2.70 
  -1  -5   1    3.70    2.40 
  -1  -5   1    2.70    4.00 
   0   5  -1   21.70    3.90 
   0  -5   1   17.80    5.00 
   0  -5   1   19.90    4.20 
   0  -5   1   21.90    2.40 
  -1   5  -1   38.10    5.20 
  -1   5  -1   30.10    5.20 
   1  -5   1   43.60    5.90 
   1  -5   1   30.40    3.00 
   1  -5   1   26.60    4.00 
   1  -5   1   33.10    6.60 
  -2   5  -1   11.30    3.40 
  -2   5  -1    6.00    2.60 
   2  -5   1    4.30    3.20 
   2  -5   1   10.60    4.00 
  -3   5  -1   27.60    5.40 
  -3   5  -1   33.80    5.90 
   3  -5   1   22.00    5.40 
   3  -5   1   19.30    5.20 
  -4   5  -1   27.20    4.70 
   4  -5   1   15.80    5.30 
   4  -5   1   16.10    4.90 
  -5   5  -1   35.60    5.80 
   5  -5   1   30.80    6.40 
   6  -5   1   -5.00    4.80 
   6  -5   1    8.90    4.60 
   9   4  -1   16.50    7.00 
   9   4  -1   17.70    7.00 
   8   4  -1   42.40    9.80 
   8   4  -1   27.90    5.80 
   8   4  -1   30.30    7.90 
  -8  -4   1   39.60    5.80 
   7   4  -1    8.30    5.40 
   7   4  -1    2.20    5.20 
  -7  -4   1    3.50    3.00 
   6   4  -1   51.99    9.90 
   6   4  -1   50.19    6.30 
   6   4  -1   55.19   11.60 
  -6  -4   1   60.29    6.50 
   5   4  -1  108.09   12.00 
   5   4  -1   87.89   11.60 
   5   4  -1   90.49    9.20 
  -5  -4   1  102.79   11.70 
  -5  -4   1   91.49    9.20 
  -5  -4   1   96.99   12.20 
   4   4  -1   88.59   10.00 
   4   4  -1   76.99   10.10 
   4   4  -1   70.89    7.70 
  -4  -4   1   82.39   10.10 
  -4  -4   1   71.89    9.90 
  -4  -4   1   78.49    7.80 
   3   4  -1  270.47   21.60 
   3   4  -1  307.57   22.40 
   3   4  -1  248.58   20.30 
  -3  -4   1  251.77   20.20 
  -3  -4   1  258.07   21.70 
  -3  -4   1  265.57   22.00 
   2   4  -1    8.80    3.30 
   2   4  -1    8.40    2.40 
   2   4  -1   12.30    4.10 
  -2  -4   1    7.70    3.40 
  -2  -4   1    7.60    3.30 
  -2  -4   1    8.10    2.60 
   1   4  -1   32.90    5.30 
   1   4  -1   34.30    4.50 
   1   4  -1   35.90    4.50 
  -1  -4   1   27.50    4.80 
  -1  -4   1   36.20    4.70 
  -1  -4   1   36.90    6.00 
   0   4  -1   56.39    6.20 
   0   4  -1   46.20    4.30 
   0   4  -1   46.40    5.20 
   0  -4   1   33.40    4.80 
   0  -4   1   48.20    6.60 
   0  -4   1   46.80    5.60 
  -1   4  -1   56.59    6.10 
   1  -4   1   50.79    4.00 
   1  -4   1   45.80    6.60 
   1  -4   1   53.59    6.60 
   1  -4   1   46.30    4.80 
  -2   4  -1  134.49   10.90 
  -2   4  -1  109.09   10.70 
   2  -4   1   98.79   11.10 
   2  -4   1  149.79   11.60 
  -3   4  -1   36.60    5.00 
  -3   4  -1   37.90    5.90 
   3  -4   1   32.00    6.00 
   3  -4   1   50.39    6.60 
  -4   4  -1   -3.40    4.00 
  -4   4  -1    3.70    2.10 
   4  -4   1    6.70    3.40 
  -5   4  -1    7.10    2.50 
   5  -4   1   -2.80    3.80 
   5  -4   1    8.00    3.50 
  -6   4  -1   11.90    3.30 
   6  -4   1   20.50    5.00 
   6  -4   1    9.80    5.40 
   6  -4   1   16.00    2.60 
   7  -4   1    7.10    5.00 
   9   3  -1    0.60    4.70 
   9   3  -1   -2.50    2.50 
   9   3  -1   -4.60    5.40 
   8   3  -1   -0.80    2.00 
   8   3  -1    5.20    4.70 
   8   3  -1   -3.70    4.40 
  -8  -3   1   -3.30    2.90 
   7   3  -1    5.50    2.40 
   7   3  -1    4.20    4.00 
   7   3  -1   -0.90    4.00 
  -7  -3   1    7.00    2.50 
   6   3  -1   40.00    8.70 
   6   3  -1   48.40    6.10 
   6   3  -1   65.79    9.50 
  -6  -3   1   45.60   10.90 
  -6  -3   1   56.29    6.20 
   5   3  -1   95.09   11.20 
   5   3  -1   91.19   11.10 
  -5  -3   1   93.89   10.70 
  -5  -3   1   94.59   12.80 
  -5  -3   1   93.19    8.70 
   4   3  -1  216.48   18.50 
   4   3  -1  231.78   18.60 
  -4  -3   1  214.38   18.40 
  -4  -3   1  192.58   17.60 
  -4  -3   1  199.58   16.10 
   3   3  -1  365.56   33.50 
   3   3  -1  399.86   28.80 
  -3  -3   1  402.96   30.30 
  -3  -3   1  417.36   28.90 
   2   3  -1    5.10    2.40 
   2   3  -1    2.80    1.60 
   2   3  -1    9.70    2.70 
  -2  -3   1    5.40    2.90 
  -2  -3   1    4.50    2.50 
  -2  -3   1    7.40    2.00 
   1   3  -1  388.36   29.30 
   1   3  -1  451.65   29.80 
   1   3  -1  418.56   30.20 
  -1  -3   1  411.86   30.40 
  -1  -3   1  392.66   29.80 
  -1  -3   1  419.16   29.50 
   0   3  -1   66.69    6.60 
   0   3  -1   63.99    5.50 
   0   3  -1   65.69    6.10 
   0  -3   1   53.09    5.80 
   0  -3   1   73.79    7.10 
   0  -3   1   75.09    6.40 
  -1   3  -1  111.89    9.40 
  -1   3  -1  119.99    9.10 
   1  -3   1  102.19    7.70 
   1  -3   1  120.29    9.40 
   1  -3   1   93.69    8.10 
   1  -3   1  103.29    9.60 
  -2   3  -1  135.09   11.50 
  -2   3  -1  138.69    9.90 
  -2   3  -1  157.48   11.70 
   2  -3   1  135.69   10.50 
  -3   3  -1   40.60    4.80 
  -3   3  -1   34.10    3.30 
  -3   3  -1   39.10    5.00 
   3  -3   1   33.70    5.10 
   3  -3   1   46.20    4.80 
  -4   3  -1    9.50    1.90 
  -4   3  -1    8.40    2.40 
  -4   3  -1   17.60    3.70 
   4  -3   1    6.70    2.70 
   4  -3   1   12.60    3.10 
  -5   3  -1   33.90    3.90 
  -5   3  -1   35.70    4.70 
   5  -3   1   19.50    5.10 
   5  -3   1   31.00    5.30 
   5  -3   1   26.10    5.00 
  -6   3  -1    2.90    1.70 
  -6   3  -1    3.50    1.90 
   6  -3   1    6.60    3.80 
   6  -3   1   11.20    4.80 
  -7   3  -1    7.60    2.80 
  -7   3  -1    3.10    2.10 
   7  -3   1    6.90    3.30 
   7  -3   1   -1.90    3.50 
   9   2  -1    4.90    5.50 
   9   2  -1   12.40    6.90 
   8   2  -1    8.60    4.70 
   8   2  -1    6.10    2.60 
   8   2  -1    4.30    4.80 
  -8  -2   1    4.20    2.80 
   7   2  -1   11.90    3.10 
   7   2  -1    6.60    4.80 
   7   2  -1   13.20    5.20 
   6   2  -1  146.29   12.70 
   6   2  -1  164.38   16.30 
   6   2  -1  131.29   15.00 
  -6  -2   1  155.78   16.10 
  -6  -2   1  167.78   12.70 
   5   2  -1    5.70    3.60 
   5   2  -1    6.50    3.60 
   5   2  -1    3.60    1.90 
  -5  -2   1    0.40    2.80 
  -5  -2   1    2.40    3.40 
  -5  -2   1    2.30    1.80 
   4   2  -1  188.88   15.50 
   4   2  -1  175.68   15.90 
   4   2  -1  171.78   13.70 
  -4  -2   1  189.68   13.90 
  -4  -2   1  181.38   14.80 
  -4  -2   1  148.59   15.30 
   3   2  -1  347.77   25.40 
   3   2  -1  325.27   24.00 
  -3  -2   1  299.27   23.60 
  -3  -2   1  308.47   24.20 
  -3  -2   1  300.57   22.70 
   2   2  -1   99.79    9.10 
   2   2  -1  110.89    9.30 
  -2  -2   1   88.69    9.00 
  -2  -2   1  112.89    9.50 
  -2  -2   1   97.19    9.00 
   1   2  -1   68.59    6.70 
   1   2  -1   68.29    5.90 
   1   2  -1   78.79    6.50 
  -1  -2   1   63.39    5.90 
  -1  -2   1   79.39    6.90 
  -1  -2   1   68.39    6.50 
   0   2  -1  437.36   29.90 
   0   2  -1  456.55   29.30 
   0   2  -1  396.86   29.40 
   0  -2   1  370.26   29.30 
   0  -2   1  428.26   29.60 
   0  -2   1  445.96   30.10 
  -1   2  -1  205.08   15.40 
  -1   2  -1  195.98   14.50 
  -1   2  -1  222.88   15.70 
   1  -2   1  217.58   14.60 
   1  -2   1  214.38   15.60 
  -2   2  -1  222.78   17.00 
  -2   2  -1  234.38   16.10 
  -2   2  -1  219.48   17.00 
   2  -2   1  229.58   16.50 
   2  -2   1  243.28   17.40 
   2  -2   1  231.28   17.40 
  -3   2  -1   21.60    3.20 
  -3   2  -1   22.20    3.70 
   3  -2   1   18.70    3.40 
  -4   2  -1   31.40    4.80 
  -4   2  -1   37.80    4.60 
  -4   2  -1   30.50    4.30 
   4  -2   1   33.90    5.70 
   4  -2   1   29.10    5.60 
   4  -2   1   38.30    4.70 
  -5   2  -1   18.10    3.50 
  -5   2  -1   12.70    3.20 
  -5   2  -1   14.90    3.20 
   5  -2   1   12.90    3.90 
   5  -2   1   16.60    4.60 
  -6   2  -1   11.70    3.10 
  -6   2  -1   16.50    3.70 
   6  -2   1    8.20    3.90 
   6  -2   1   17.30    5.40 
  -7   2  -1   23.60    4.70 
  -7   2  -1   24.10    4.90 
   7  -2   1   15.90    5.40 
   7  -2   1   34.50    6.50 
   7  -2   1   33.20    6.30 
  -8   2  -1   16.60    3.90 
   8  -2   1   14.20    4.60 
   8  -2   1   10.70    5.60 
   8  -2   1   15.90    5.30 
   9   1  -1    1.90    2.60 
   9   1  -1    0.40    5.00 
   9   1  -1   -0.80    5.00 
   8   1  -1    8.30    5.70 
   8   1  -1    2.30    1.80 
   8   1  -1   -0.50    4.50 
   7   1  -1   -3.10    3.80 
   7   1  -1   13.80    8.00 
   7   1  -1    1.40    1.60 
  -7  -1   1    2.30    2.10 
   6   1  -1   14.00    3.00 
   6   1  -1   16.30    5.40 
   6   1  -1   13.90    4.60 
  -6  -1   1   15.60    5.40 
  -6  -1   1   18.30    3.30 
   5   1  -1   84.69    7.90 
   5   1  -1   72.89    9.70 
   5   1  -1  115.29   11.50 
  -5  -1   1  103.59    8.30 
  -5  -1   1  103.49   11.30 
  -5  -1   1   91.49    8.70 
   4   1  -1  113.99   10.90 
   4   1  -1  101.39    8.40 
   4   1  -1   86.09    9.50 
  -4  -1   1  110.49    9.10 
  -4  -1   1   92.29   10.20 
  -4  -1   1  112.49    8.50 
   3   1  -1   17.50    2.40 
   3   1  -1   17.70    4.00 
   3   1  -1   20.80    3.60 
  -3  -1   1   14.80    2.80 
  -3  -1   1   20.90    2.60 
   2   1  -1 1179.88   79.39 
   2   1  -1 1209.18   80.09 
   2   1  -1 1057.39   80.29 
  -2  -1   1 1213.98   79.39 
  -2  -1   1 1185.38   79.89 
  -2  -1   1 1151.48   80.39 
   1   1  -1 4328.97  313.07 
   1   1  -1 4997.80  313.37 
  -1  -1   1 4089.29  312.97 
  -1  -1   1 5162.78  313.47 
   0   1  -1  763.32   47.40 
   0   1  -1  604.34   47.30 
   0   1  -1  738.43   47.70 
   0  -1   1  703.93   47.40 
   0  -1   1  638.44   47.40 
   0  -1   1  729.63   47.70 
  -1   1  -1 1511.75  104.59 
  -1   1  -1 1707.63  105.29 
  -1   1  -1 1498.85  105.09 
   1  -1   1 1502.95  105.19 
   1  -1   1 1628.84  105.29 
   1  -1   1 1460.25  104.69 
  -2   1  -1  685.73   44.70 
  -2   1  -1  615.84   45.00 
  -2   1  -1  668.33   45.00 
   2  -1   1  626.94   44.90 
   2  -1   1  674.23   45.10 
   2  -1   1  638.84   45.20 
  -3   1  -1   54.79    5.70 
  -3   1  -1   68.59    6.00 
  -3   1  -1   57.69    5.70 
   3  -1   1   69.79    6.40 
   3  -1   1   55.29    5.50 
   3  -1   1   60.99    6.50 
  -4   1  -1   11.40    2.90 
  -4   1  -1   11.30    2.60 
  -4   1  -1   13.10    2.60 
   4  -1   1    8.20    2.70 
   4  -1   1    8.00    2.20 
   4  -1   1   10.00    3.60 
  -5   1  -1   46.10    5.20 
  -5   1  -1   45.50    6.60 
  -5   1  -1   43.10    6.00 
   5  -1   1   41.30    6.80 
   5  -1   1   48.20    8.00 
  -6   1  -1    0.50    1.80 
  -6   1  -1    0.30    2.20 
   6  -1   1   -1.00    3.30 
   6  -1   1    8.00    3.50 
  -7   1  -1    4.70    3.50 
  -7   1  -1    5.60    2.20 
   7  -1   1    5.00    2.50 
   7  -1   1    7.60    4.40 
   7  -1   1    0.50    4.00 
  -8   1  -1   12.20    4.20 
   8  -1   1   30.40    8.10 
   8  -1   1   10.90    4.80 
   8   0  -1    1.80    4.30 
   8   0  -1   11.80    5.70 
  -8   0   1    9.60    2.50 
   7   0  -1    3.80    1.80 
   7   0  -1    4.00    3.60 
   7   0  -1    0.20    3.70 
  -7   0   1    0.30    1.90 
  -7   0   1    5.50    4.80 
   6   0  -1   40.20    8.10 
   6   0  -1   21.80    5.90 
   6   0  -1   36.70    4.70 
  -6   0   1   36.50    4.60 
  -6   0   1   45.60    7.70 
   5   0  -1    7.90    2.10 
   5   0  -1    6.20    3.60 
   5   0  -1    5.10    3.30 
  -5   0   1   -0.10    3.10 
  -5   0   1    4.20    1.70 
  -5   0   1    6.40    2.30 
   4   0  -1    3.60    3.50 
   4   0  -1    1.50    1.80 
   4   0  -1    0.70    1.00 
  -4   0   1    1.90    1.40 
  -4   0   1    1.30    1.00 
  -4   0   1    1.50    2.60 
   3   0  -1    3.10    2.20 
   3   0  -1    3.40    1.70 
   3   0  -1    4.30    1.20 
  -3   0   1    6.10    2.40 
  -3   0   1    6.70    1.30 
  -3   0   1    4.90    1.50 
   2   0  -1  430.46   29.30 
   2   0  -1  481.15   29.80 
   2   0  -1  400.86   30.30 
  -2   0   1  399.66   30.30 
  -2   0   1  430.86   29.30 
  -2   0   1  409.96   29.40 
   1   0  -1  248.98   17.30 
   1   0  -1  280.07   17.40 
   1   0  -1  235.68   17.90 
  -1   0   1  241.98   18.00 
   0   0  -1   -0.10    0.10 
   0   0   1    0.00    0.10 
  -1   0  -1   17.30    2.00 
  -1   0  -1   25.10    2.40 
   1   0   1   23.70    2.20 
   1   0   1   17.20    2.20 
   1   0   1   25.00    2.10 
  -2   0  -1  840.62   57.29 
  -2   0  -1  870.81   57.19 
  -2   0  -1  789.92   57.19 
   2   0   1  708.03   57.29 
   2   0   1  917.81   57.59 
   2   0   1  881.81   57.09 
  -3   0  -1  252.47   20.60 
  -3   0  -1  287.87   20.40 
  -3   0  -1  304.87   20.80 
   3   0   1  271.47   20.30 
   3   0   1  317.17   21.20 
   3   0   1  258.17   21.10 
  -4   0  -1  167.58   13.40 
  -4   0  -1  169.18   12.80 
  -4   0  -1  147.19   12.30 
   4   0   1  166.68   14.00 
   4   0   1  133.19   12.30 
   4   0   1  168.88   13.50 
  -5   0  -1   30.50    4.90 
  -5   0  -1   34.80    6.30 
  -5   0  -1   29.00    4.30 
   5   0   1   31.10    6.10 
   5   0   1   34.40    6.90 
  -6   0  -1    1.30    3.00 
  -6   0  -1    6.30    2.10 
  -6   0  -1    7.30    3.70 
   6   0   1    4.90    4.40 
   6   0   1    5.10    4.00 
  -7   0  -1   10.60    2.60 
  -7   0  -1    7.80    3.90 
   7   0   1   13.30    5.90 
   7   0   1    8.10    4.40 
  -8   0  -1    0.60    2.20 
   8   0   1   14.00    5.90 
   8   0   1    3.10    3.90 
   8   0   1    5.80    2.70 
   9   0   1    2.40    4.50 
   9   0   1    7.70    5.60 
   9   0   1   -5.40    4.60 
   8  -1  -1   14.30    5.30 
   8  -1  -1   20.00    4.50 
   8  -1  -1   20.90    5.90 
  -8   1   1   22.50    5.30 
   7  -1  -1   39.40    5.20 
   7  -1  -1   35.60    7.90 
  -7   1   1   33.30    5.00 
  -7   1   1   36.90    7.30 
   6  -1  -1   -0.50    2.90 
   6  -1  -1    1.00    1.30 
   6  -1  -1   -2.30    2.90 
  -6   1   1    3.60    3.50 
  -6   1   1   -2.30    1.80 
   5  -1  -1   41.00    7.20 
   5  -1  -1   35.80    4.40 
   5  -1  -1   26.70    5.50 
  -5   1   1   38.00    4.20 
  -5   1   1   39.60    6.60 
  -5   1   1   41.30    4.80 
   4  -1  -1   28.10    3.50 
   4  -1  -1   25.70    4.40 
   4  -1  -1   31.20    5.60 
  -4   1   1   24.50    3.50 
  -4   1   1   26.30    5.20 
  -4   1   1   27.70    3.30 
   3  -1  -1   25.50    4.40 
   3  -1  -1   28.50    4.00 
   3  -1  -1   33.70    3.40 
  -3   1   1   21.80    4.30 
  -3   1   1   32.40    3.40 
  -3   1   1   36.60    3.30 
   2  -1  -1   99.49    7.00 
   2  -1  -1   88.09    6.70 
   2  -1  -1   79.39    7.20 
  -2   1   1   88.29    6.70 
  -2   1   1   70.69    7.20 
  -2   1   1   94.59    6.60 
   1  -1  -1   56.19    4.30 
   1  -1  -1   55.09    4.20 
   1  -1  -1   58.19    4.40 
  -1   1   1   59.69    4.10 
  -1   1   1   48.10    4.10 
  -1   1   1   50.19    4.50 
   0  -1  -1   83.89    5.50 
   0  -1  -1   76.69    5.70 
   0   1   1   75.59    5.70 
  -1  -1  -1 1825.42  122.19 
  -1  -1  -1 1620.14  122.49 
   1   1   1 1981.00  122.19 
  -2  -1  -1 9999.00  673.23 
  -3  -1  -1   79.89    6.80 
  -3  -1  -1   70.29    7.70 
  -3  -1  -1   83.69    7.50 
   3   1   1   94.39    8.00 
   3   1   1   78.79    6.70 
   3   1   1   76.09    8.00 
  -4  -1  -1   94.69    8.60 
  -4  -1  -1  110.19    9.20 
  -4  -1  -1  101.89    9.90 
   4   1   1   91.09    8.00 
   4   1   1   85.89   10.30 
   4   1   1   81.59   14.20 
  -5  -1  -1   43.20    5.10 
  -5  -1  -1   48.50    6.40 
  -5  -1  -1   49.70    7.80 
   5   1   1   44.30    5.00 
   5   1   1   41.00    7.00 
   5   1   1   48.80    7.90 
  -6  -1  -1   74.59    8.70 
  -6  -1  -1   87.99   10.80 
  -6  -1  -1   77.19    7.60 
   6   1   1   93.49   11.40 
   6   1   1   58.89    9.50 
  -7  -1  -1   18.20    3.80 
  -7  -1  -1   20.60    5.80 
   7   1   1   34.90    8.20 
   7   1   1   14.50    5.20 
   8   1   1    8.30    4.10 
   8   1   1    6.50    4.00 
   9   1   1    5.20    2.90 
   9   1   1   -1.10    5.30 
   9   1   1   10.50    5.60 
   8  -2  -1   10.40    4.90 
   8  -2  -1   22.20    6.00 
   8  -2  -1   35.40    6.30 
   7  -2  -1    6.30    3.80 
   7  -2  -1    9.90    3.20 
   7  -2  -1   12.10    4.10 
  -7   2   1   10.30    2.70 
   6  -2  -1   16.60    3.90 
   6  -2  -1   12.90    4.30 
   6  -2  -1   12.00    4.60 
  -6   2   1   15.60    4.00 
  -6   2   1   19.10    3.40 
   5  -2  -1   93.49    8.90 
   5  -2  -1   84.79    9.90 
   5  -2  -1  107.29   10.60 
  -5   2   1   95.89    8.30 
  -5   2   1  110.69   10.30 
   4  -2  -1  119.89   10.00 
   4  -2  -1   95.69    8.70 
   4  -2  -1  102.99    9.50 
  -4   2   1   92.59    8.10 
  -4   2   1   93.39    9.60 
  -4   2   1   97.89    8.50 
   3  -2  -1   36.30    4.60 
   3  -2  -1   32.80    4.00 
   3  -2  -1   31.20    4.40 
  -3   2   1   35.60    4.80 
  -3   2   1   39.60    4.00 
  -3   2   1   36.70    3.70 
   2  -2  -1   49.80    4.20 
   2  -2  -1   44.40    4.40 
   2  -2  -1   53.49    4.60 
  -2   2   1   45.40    4.10 
  -2   2   1   42.40    4.40 
  -2   2   1   42.30    4.20 
   1  -2  -1  232.38   18.20 
   1  -2  -1  265.57   18.10 
  -1   2   1  268.47   18.10 
  -1   2   1  251.57   17.90 
   0  -2  -1  109.09    8.70 
   0  -2  -1  130.49    8.20 
   0   2   1  112.69    8.70 
   0   2   1  110.49    8.40 
  -1  -2  -1  424.66   30.20 
   1   2   1  423.16   30.80 
   1   2   1  485.95   30.50 
   1   2   1  404.36   30.20 
  -2  -2  -1 1047.90   75.39 
  -2  -2  -1 1193.98   75.29 
   2   2   1 1035.00   75.39 
  -3  -2  -1  417.36   31.90 
  -3  -2  -1  459.25   31.20 
   3   2   1  432.56   31.10 
   3   2   1  448.76   32.30 
  -4  -2  -1  411.86   31.50 
  -4  -2  -1  427.16   31.30 
  -4  -2  -1  400.56   30.20 
   4   2   1  418.36   31.90 
   4   2   1  393.26   30.10 
   4   2   1  491.35   33.20 
  -5  -2  -1  175.98   16.00 
  -5  -2  -1  185.48   15.20 
  -5  -2  -1  159.38   14.20 
   5   2   1  167.78   15.80 
   5   2   1  168.08   13.70 
   5   2   1  183.68   16.70 
  -6  -2  -1   11.20    4.30 
  -6  -2  -1   17.30    3.80 
   6   2   1   19.20    3.80 
   6   2   1   13.20    5.30 
   6   2   1   22.10    6.70 
  -7  -2  -1   54.79    6.50 
   7   2   1   63.19   10.30 
   7   2   1   40.40   12.70 
   7   2   1   56.69    6.50 
  -8  -2  -1   14.90    3.50 
   8   2   1   10.50    6.00 
   8   2   1   11.70    6.70 
  -9  -2  -1    9.30    3.50 
   9   2   1    1.40    6.50 
   9   2   1   17.60    7.50 
   7  -3  -1    3.60    2.60 
   7  -3  -1    3.80    2.90 
  -7   3   1    3.30    2.40 
   6  -3  -1   -0.70    1.90 
   6  -3  -1    3.60    3.40 
   6  -3  -1    3.90    2.00 
  -6   3   1    3.80    2.20 
  -6   3   1    1.60    1.90 
   5  -3  -1   26.00    4.30 
   5  -3  -1   21.20    4.20 
  -5   3   1   20.50    3.50 
  -5   3   1   17.80    3.80 
   4  -3  -1   66.69    6.20 
   4  -3  -1   53.59    6.50 
   4  -3  -1   48.80    7.10 
  -4   3   1   59.59    5.80 
  -4   3   1   67.39    6.20 
  -4   3   1   56.99    6.20 
   3  -3  -1  145.39   12.40 
   3  -3  -1  155.88   11.20 
   3  -3  -1  157.78   12.60 
  -3   3   1  145.79   11.80 
  -3   3   1  149.39   11.20 
  -3   3   1  143.19   11.70 
   2  -3  -1  367.56   25.40 
  -2   3   1  338.47   24.90 
  -2   3   1  345.27   25.10 
   1  -3  -1  102.99    8.10 
  -1   3   1   96.09    8.00 
  -1   3   1   95.69    8.20 
   0  -3  -1   13.00    1.70 
   0  -3  -1   13.70    2.30 
   0  -3  -1    9.20    2.50 
   0   3   1   12.60    2.70 
   0   3   1    8.90    1.70 
   0   3   1    8.40    1.90 
  -1  -3  -1   14.70    2.50 
  -1  -3  -1   14.90    2.70 
  -1  -3  -1   12.50    3.00 
   1   3   1   14.00    2.80 
   1   3   1   12.40    2.40 
   1   3   1   11.50    2.80 
  -2  -3  -1  957.90   72.89 
  -2  -3  -1 1179.18   74.49 
  -2  -3  -1 1125.89   73.49 
   2   3   1  964.00   73.29 
   2   3   1 1189.18   74.49 
   2   3   1  964.60   72.89 
  -3  -3  -1  110.39   10.60 
  -3  -3  -1   94.99    9.10 
  -3  -3  -1  119.49   10.50 
   3   3   1  111.99   10.60 
   3   3   1   96.89    9.10 
   3   3   1  136.19   10.90 
  -4  -3  -1  448.86   35.60 
  -4  -3  -1  500.45   36.10 
  -4  -3  -1  454.15   34.40 
   4   3   1  573.74   39.20 
   4   3   1  432.16   34.30 
   4   3   1  501.05   36.30 
  -5  -3  -1   39.00    7.10 
  -5  -3  -1   37.40    5.10 
  -5  -3  -1   32.70    6.20 
   5   3   1   36.80    4.90 
   5   3   1   34.80    7.00 
   5   3   1   36.00    7.10 
  -6  -3  -1  172.28   16.50 
  -6  -3  -1  173.28   15.80 
  -6  -3  -1  147.79   13.90 
   6   3   1  138.49   16.20 
   6   3   1  194.58   17.70 
   6   3   1  160.48   13.70 
  -7  -3  -1   53.69    6.60 
   7   3   1   47.00    6.10 
   7   3   1   63.69   11.70 
   7   3   1   46.70   10.00 
  -8  -3  -1   13.70    3.10 
   8   3   1    0.20    4.90 
   8   3   1    9.90    6.40 
   8   3   1    6.10    2.80 
  -9  -3  -1   -0.10    2.40 
   9   3   1   -4.90    4.60 
   9   3   1   -3.00    2.10 
   9   3   1   16.60    6.10 
   7  -4  -1    3.70    3.90 
   6  -4  -1    7.50    1.80 
   6  -4  -1    5.10    3.70 
  -6   4   1    7.90    2.70 
  -6   4   1    7.90    1.70 
   5  -4  -1   12.50    4.00 
   4  -4  -1    9.50    3.50 
  -4   4   1   12.80    2.90 
   3  -4  -1   53.79    6.70 
   3  -4  -1   47.30    6.50 
  -3   4   1   51.19    5.70 
  -3   4   1   58.09    6.00 
   2  -4  -1   80.29    7.60 
  -2   4   1   72.19    7.20 
  -2   4   1   78.29    7.20 
   1  -4  -1   17.80    3.50 
   1  -4  -1   22.50    4.10 
  -1   4   1   17.20    3.60 
  -1   4   1   22.20    3.30 
   0  -4  -1   40.10    5.70 
   0  -4  -1   33.30    3.50 
   0  -4  -1   37.30    4.40 
   0   4   1   37.00    4.70 
   0   4   1   39.70    4.30 
   0   4   1   32.10    3.40 
  -1  -4  -1  503.75   35.70 
  -1  -4  -1  489.45   34.10 
  -1  -4  -1  518.85   34.50 
   1   4   1  506.95   34.50 
   1   4   1  439.16   35.00 
   1   4   1  431.86   34.00 
  -2  -4  -1  404.06   29.10 
  -2  -4  -1  418.36   30.40 
  -2  -4  -1  406.06   28.80 
   2   4   1  391.56   29.10 
   2   4   1  351.26   29.50 
   2   4   1  399.56   28.80 
  -3  -4  -1  276.77   20.10 
  -3  -4  -1  265.27   20.70 
  -3  -4  -1  206.28   18.50 
   3   4   1  208.68   18.60 
   3   4   1  266.27   20.60 
   3   4   1  269.77   20.10 
  -4  -4  -1  251.67   19.10 
  -4  -4  -1  242.78   19.30 
  -4  -4  -1  195.18   17.20 
   4   4   1  200.58   19.60 
   4   4   1  257.07   19.50 
   4   4   1  194.08   17.20 
  -5  -4  -1  159.38   15.50 
  -5  -4  -1  147.79   15.10 
  -5  -4  -1  154.78   13.40 
   5   4   1  173.88   16.00 
   5   4   1  151.88   13.30 
   5   4   1  150.98   15.30 
  -6  -4  -1   66.29    9.60 
  -6  -4  -1   65.89    7.60 
  -6  -4  -1   91.69   10.40 
   6   4   1   65.09    7.60 
   6   4   1   67.79   10.30 
   6   4   1   55.89   10.20 
  -7  -4  -1   13.00    4.80 
   7   4   1   14.90    4.20 
   7   4   1   28.60    7.60 
   7   4   1   12.50    6.80 
  -8  -4  -1   17.70    3.90 
   8   4   1   14.90    6.10 
   8   4   1    6.30    5.20 
   8   4   1    9.60    3.20 
  -9  -4  -1   40.10    6.80 
   9   4   1   53.09   14.30 
   9   4   1   36.00    7.00 
   9   4   1   44.20   10.80 
   6  -5  -1    9.70    4.70 
   6  -5  -1   16.70    4.90 
   5  -5  -1    6.80    3.00 
   5  -5  -1    7.30    3.70 
  -5   5   1    8.60    2.90 
   4  -5  -1    9.60    4.60 
   4  -5  -1   17.80    4.60 
  -4   5   1   26.70    4.30 
   3  -5  -1   29.10    5.70 
   3  -5  -1   41.90    9.10 
  -3   5   1   22.40    4.30 
   2  -5  -1   98.79   11.10 
   2  -5  -1  134.39   10.90 
  -2   5   1  126.79   10.50 
  -2   5   1  100.59   10.20 
   1  -5  -1   16.80    4.20 
  -1   5   1   16.40    3.30 
  -1   5   1   10.60    3.00 
   0  -5  -1    9.20    2.90 
   0  -5  -1    2.00    2.70 
   0   5   1    5.10    1.30 
   0   5   1    4.40    2.30 
   0   5   1    7.40    2.20 
  -1  -5  -1    7.00    3.30 
  -1  -5  -1   12.30    3.30 
  -1  -5  -1    7.50    3.30 
   1   5   1   11.10    3.00 
   1   5   1   15.10    3.00 
   1   5   1   10.80    3.40 
  -2  -5  -1  154.78   12.20 
  -2  -5  -1  132.79   13.20 
  -2  -5  -1  126.59   13.40 
   2   5   1  109.59   11.70 
   2   5   1  126.99   12.90 
   2   5   1  157.78   12.40 
  -3  -5  -1  303.07   25.20 
  -3  -5  -1  310.97   24.50 
  -3  -5  -1  361.86   26.90 
   3   5   1  286.37   25.10 
   3   5   1  371.96   26.60 
   3   5   1  307.77   24.50 
  -4  -5  -1  445.66   35.20 
  -4  -5  -1  492.65   34.80 
   4   5   1  367.46   32.70 
   4   5   1  439.36   35.00 
   4   5   1  508.45   35.00 
  -5  -5  -1   94.39   11.70 
  -5  -5  -1  115.09   12.00 
  -5  -5  -1   80.89    9.30 
   5   5   1   95.69   12.20 
   5   5   1   91.19    9.50 
  -6  -5  -1  118.09   11.50 
  -6  -5  -1  123.59   14.10 
   6   5   1   98.79   14.20 
   6   5   1  122.89   11.60 
   6   5   1  123.69   14.20 
  -7  -5  -1   17.60    4.40 
   7   5   1   15.50   10.60 
   7   5   1    6.40    5.70 
   7   5   1   12.70    4.30 
  -8  -5  -1   17.40    5.80 
   8   5   1   15.00    4.70 
   8   5   1    1.60    5.70 
   8   5   1   11.70    5.80 
   9   5   1   22.00    4.90 
   9   5   1   16.60    7.90 
   9   5   1   12.50    7.40 
   5  -6  -1    1.90    6.20 
   5  -6  -1    6.60    3.80 
  -5   6   1    7.00    2.90 
   4  -6  -1    0.90    3.20 
   4  -6  -1    3.50    3.10 
  -4   6   1    5.70    2.90 
   3  -6  -1   25.60    5.60 
   2  -6  -1   10.00    3.40 
   2  -6  -1   10.80    4.20 
  -2   6   1   10.20    2.90 
   1  -6  -1   83.59   10.40 
   1  -6  -1   99.79    9.50 
  -1   6   1   77.39    8.90 
  -1   6   1   98.69    9.30 
   0  -6  -1   20.70    4.30 
   0   6   1   17.40    3.80 
  -1  -6  -1   12.20    3.80 
  -1  -6  -1    4.90    3.90 
  -1  -6  -1   18.00    4.00 
   1   6   1   14.00    3.50 
   1   6   1   10.70    3.10 
   1   6   1   16.50    4.70 
  -2  -6  -1   27.90    6.20 
  -2  -6  -1   24.40    5.80 
  -2  -6  -1   36.60    5.40 
   2   6   1   37.90    5.50 
   2   6   1   32.90    6.40 
  -3  -6  -1   28.50    6.40 
  -3  -6  -1   19.10    5.90 
  -3  -6  -1   33.80    5.40 
   3   6   1   19.70    4.70 
   3   6   1   24.90    5.80 
   3   6   1   28.90    6.70 
  -4  -6  -1   28.60    6.90 
  -4  -6  -1   24.00    6.30 
  -4  -6  -1   39.20    6.10 
   4   6   1   35.50    7.30 
   4   6   1   31.40    5.90 
   4   6   1   48.10    8.00 
  -5  -6  -1  180.28   17.90 
  -5  -6  -1  174.78   16.90 
   5   6   1  183.68   17.40 
   5   6   1  136.59   17.80 
   5   6   1  162.28   16.90 
  -6  -6  -1   34.00    6.40 
  -6  -6  -1   58.39   11.10 
   6   6   1   45.80    7.00 
   6   6   1   54.99    9.90 
   6   6   1   62.49   10.00 
  -7  -6  -1   14.50    4.20 
   7   6   1   17.50    6.80 
   7   6   1   19.70    8.10 
   7   6   1   13.40    4.70 
   8   6   1   -5.70    3.90 
   8   6   1    2.50    3.50 
   8   6   1   -5.10    4.90 
   9   6   1    1.70    4.20 
   9   6   1   21.50   10.60 
   4  -7  -1   -1.20    3.50 
  -4   7   1    1.90    2.50 
   3  -7  -1    2.60    3.60 
   3  -7  -1    5.70    4.00 
  -3   7   1    4.90    2.70 
   2  -7  -1    8.30    3.60 
   2  -7  -1    4.90    3.10 
   1  -7  -1   24.00    6.50 
  -1   7   1   33.60    5.40 
   0  -7  -1   59.29    7.40 
   0  -7  -1   52.59    9.20 
   0   7   1   49.50    6.90 
   0   7   1   36.00    6.50 
  -1  -7  -1   20.30    4.00 
  -1  -7  -1   13.50    5.80 
  -1  -7  -1   28.80    5.40 
   1   7   1   24.50    5.70 
   1   7   1   15.90    3.70 
   1   7   1   15.50    6.10 
  -2  -7  -1   -1.50    2.10 
  -2  -7  -1   -5.90    2.70 
  -2  -7  -1   -0.90    5.10 
   2   7   1    1.50    2.40 
   2   7   1    1.60    2.60 
   2   7   1   -0.30    3.00 
  -3  -7  -1   31.10    5.60 
  -3  -7  -1   19.70    5.70 
  -3  -7  -1   26.60    6.70 
   3   7   1   19.80    5.20 
   3   7   1   22.40    5.00 
   3   7   1   24.40    7.70 
  -4  -7  -1   48.80    9.00 
  -4  -7  -1   55.79    9.10 
  -4  -7  -1   37.50    9.30 
   4   7   1   59.89    9.00 
   4   7   1   48.80    8.90 
   4   7   1   56.89    7.90 
  -5  -7  -1   56.99   10.50 
  -5  -7  -1   36.90    6.60 
   5   7   1   32.90    7.50 
   5   7   1   34.50    6.80 
   5   7   1   39.90    8.80 
  -6  -7  -1   -0.40    2.30 
   6   7   1    6.40    4.20 
   6   7   1   -2.70    3.70 
   6   7   1   -4.20    2.70 
  -7  -7  -1   13.90    4.40 
   7   7   1   17.50    7.60 
   7   7   1   13.40    4.30 
   7   7   1   25.80    7.10 
  -8  -7  -1   13.20    4.70 
   8   7   1   10.10    7.00 
   8   7   1   20.50    7.90 
   3  -8  -1    1.00    4.30 
   3  -8  -1   16.90    6.70 
   2  -8  -1   -1.00    3.30 
   2  -8  -1   10.10    5.40 
  -2   8   1    0.90    2.00 
   1  -8  -1    4.60    3.90 
   1  -8  -1    5.40    3.90 
  -1   8   1    4.20    2.20 
   0  -8  -1   -0.50    4.10 
   0   8   1    2.90    2.40 
  -1  -8  -1   37.60    4.90 
   1   8   1   31.60    4.10 
   1   8   1   38.50    7.60 
  -2  -8  -1   63.29   12.60 
  -2  -8  -1   71.59    8.70 
  -2  -8  -1   80.69    9.10 
   2   8   1   53.29    7.60 
   2   8   1   52.89    9.30 
   2   8   1   73.29    9.20 
  -3  -8  -1    2.30    5.80 
  -3  -8  -1    0.50    3.60 
  -3  -8  -1   -2.30    2.40 
   3   8   1   -0.20    4.00 
   3   8   1    3.70    3.20 
   3   8   1   -3.00    4.00 
  -4  -8  -1   11.70    5.20 
  -4  -8  -1   25.70    5.90 
  -4  -8  -1   12.20   10.90 
   4   8   1    5.90    4.50 
   4   8   1   16.40    5.30 
   4   8   1   11.20    5.10 
  -5  -8  -1   14.80    4.50 
   5   8   1    1.70    3.70 
   5   8   1    3.40    4.80 
   5   8   1    8.50    4.80 
  -6  -8  -1   24.30    7.40 
   6   8   1   30.00    6.80 
   6   8   1   11.80    7.00 
   6   8   1   26.00    7.90 
  -7  -8  -1    5.60    3.80 
   7   8   1   -0.20    5.40 
   7   8   1    9.90    5.30 
   7   8   1   11.90    7.00 
   8   8   1   -1.60    6.50 
   2  -9  -1    6.60    4.70 
   1  -9  -1    1.80    3.70 
   1  -9  -1  -13.30    8.00 
  -1   9   1    4.20    2.60 
   0  -9  -1    1.50    5.50 
   0   9   1    5.20    3.50 
  -1  -9  -1   41.80    8.20 
  -2  -9  -1   18.10    5.60 
  -2  -9  -1   10.00    8.60 
  -2  -9  -1   10.50    3.30 
   2   9   1   12.10    5.50 
   2   9   1   14.60    3.60 
  -3  -9  -1   34.50    7.10 
  -3  -9  -1   14.20   15.90 
   3   9   1   45.40    7.20 
   3   9   1   41.10    9.20 
  -4  -9  -1   29.10    6.40 
  -4  -9  -1   26.40    9.00 
   4   9   1   30.00    8.00 
   4   9   1   38.80    8.80 
   4   9   1   18.10    6.70 
  -5  -9  -1   -2.30    3.40 
   5   9   1    1.50    4.20 
   5   9   1   -0.60    4.70 
   5   9   1   10.30    4.70 
  -6  -9  -1   -5.50    3.20 
   6   9   1   11.50    5.00 
   6   9   1    6.30    4.90 
   6   9   1   -1.50    4.70 
  -7  -9  -1    7.60    4.70 
   7   9   1   12.60    6.10 
   7   9   1    1.10    5.20 
  -1 -10  -1    8.00   12.70 
  -1 -10  -1    2.00    4.30 
   1  10   1    3.80    3.70 
  -2 -10  -1   12.00    5.90 
  -2 -10  -1    7.00    3.00 
   2  10   1   11.40    2.90 
  -3 -10  -1    9.50    4.60 
  -3 -10  -1    2.60    4.00 
   3  10   1    6.70    4.30 
   3  10   1    2.20    3.30 
  -4 -10  -1    0.70    4.20 
   4  10   1    6.70    5.10 
   4  10   1    5.60    4.70 
  -5 -10  -1    1.00    3.50 
   5  10   1    6.80    5.00 
   5  10   1    9.10    7.80 
   5   9  -2    5.40    5.40 
   5   9  -2    7.70    5.30 
  -5  -9   2    4.30    4.50 
   4   9  -2   11.70    5.40 
   4   9  -2   10.50    5.00 
   3   9  -2    7.50    4.00 
   3   9  -2    9.20    6.60 
   3   9  -2   10.80    6.10 
  -3  -9   2   16.10    5.60 
  -2  -9   2   24.70    6.70 
  -2  -9   2   21.60    3.80 
  -2  -9   2   14.70    5.70 
   1   9  -2   19.30    5.40 
  -1  -9   2    7.40    4.10 
  -1  -9   2    6.80    1.90 
  -1  -9   2   11.80    5.40 
   0   9  -2    4.10    4.10 
   0  -9   2   11.30    6.30 
   0  -9   2   -3.00   11.00 
   6   8  -2    7.30    5.20 
   6   8  -2    1.70    4.50 
   6   8  -2   -1.00    4.60 
  -6  -8   2    3.40    3.10 
   5   8  -2   14.30    5.70 
   5   8  -2   23.00    5.80 
   5   8  -2   16.10    6.00 
  -5  -8   2    5.10    4.30 
   4   8  -2   25.70    6.50 
   4   8  -2   19.90    7.10 
   4   8  -2   20.50    5.60 
  -4  -8   2   31.00    6.20 
   3   8  -2   12.50    4.70 
   3   8  -2    8.60    5.10 
   3   8  -2   13.20    6.10 
  -3  -8   2   23.10    5.30 
   2   8  -2   32.10    8.80 
   2   8  -2   59.99   10.90 
   2   8  -2   32.80    6.30 
  -2  -8   2   52.19    8.50 
  -2  -8   2   35.10    8.00 
  -2  -8   2   30.00    9.60 
   1   8  -2   23.60    6.50 
   1   8  -2   23.30    6.30 
  -1  -8   2   13.50    5.00 
  -1  -8   2   23.70    3.20 
  -1  -8   2   24.90    6.40 
   0   8  -2    7.50    4.40 
   0  -8   2    4.20    3.10 
   0  -8   2    7.60    4.70 
   0  -8   2    9.70    7.00 
   0  -8   2    7.40    1.70 
  -1   8  -2    6.00    3.90 
   1  -8   2    1.30    4.30 
   1  -8   2   -7.40    4.80 
  -2   8  -2    8.50    3.20 
   2  -8   2    6.90    5.90 
   2  -8   2   -5.40    5.20 
   7   7  -2   40.20    9.60 
   7   7  -2   39.50    9.10 
   7   7  -2   32.50    7.10 
   6   7  -2   52.19   11.00 
   6   7  -2   45.00    9.60 
   6   7  -2   50.99    8.40 
   5   7  -2   23.30    5.90 
   5   7  -2   26.20    7.10 
   5   7  -2   22.90    7.00 
   4   7  -2   52.39    9.60 
   4   7  -2   39.80    7.90 
   4   7  -2   49.30    8.00 
  -4  -7   2   35.50    6.80 
   3   7  -2    2.10    3.80 
   3   7  -2   -0.60    2.50 
   3   7  -2    5.10    3.60 
  -3  -7   2    4.00    4.30 
  -3  -7   2    3.30    2.80 
  -3  -7   2   -6.50    4.50 
   2   7  -2   72.59    9.80 
   2   7  -2   94.19    9.00 
   2   7  -2   77.89   10.40 
  -2  -7   2   71.29   10.10 
  -2  -7   2   80.89   15.30 
  -2  -7   2   74.39   11.00 
   1   7  -2   86.99   10.20 
  -1  -7   2   59.79   10.00 
  -1  -7   2  112.49   11.30 
  -1  -7   2   87.99   13.00 
  -1  -7   2   87.69    7.60 
   0   7  -2   14.40    4.50 
   0   7  -2   21.40    5.80 
   0  -7   2   20.30    4.50 
   0  -7   2   20.60    2.70 
   0  -7   2   25.30    6.40 
   0  -7   2   30.60    6.50 
  -1   7  -2    9.90    3.80 
   1  -7   2   16.90    5.20 
   1  -7   2   12.80    5.80 
  -2   7  -2    5.60    2.80 
   2  -7   2    2.60    4.70 
   2  -7   2    6.60    4.90 
  -3   7  -2    6.90    3.30 
   3  -7   2    4.80    4.80 
   3  -7   2   17.20    5.00 
   4  -7   2    0.00    8.40 
   4  -7   2   -3.70    4.10 
   8   6  -2    7.90    5.70 
   8   6  -2   10.50    6.30 
   7   6  -2   10.40    6.40 
   7   6  -2    6.40    4.70 
   7   6  -2   12.30    3.80 
  -7  -6   2   10.90    3.50 
   6   6  -2    9.20    5.50 
   6   6  -2   22.70    5.90 
   6   6  -2    1.00    3.00 
  -6  -6   2    6.80    3.10 
   5   6  -2   60.69   10.30 
   5   6  -2   55.49    7.90 
  -5  -6   2   59.79    7.50 
   4   6  -2  167.68   17.30 
   4   6  -2  179.58   16.90 
   4   6  -2  161.98   15.10 
  -4  -6   2  176.38   18.30 
  -4  -6   2  157.08   14.80 
  -4  -6   2  178.68   18.10 
   3   6  -2  216.48   17.90 
   3   6  -2  214.78   18.60 
   3   6  -2  201.78   19.20 
  -3  -6   2  215.48   17.90 
  -3  -6   2  181.78   24.30 
   2   6  -2    8.50    3.90 
   2   6  -2   17.00    4.30 
   2   6  -2   16.80    5.40 
  -2  -6   2   19.40    5.50 
  -2  -6   2   16.30    4.80 
  -2  -6   2   11.60    5.70 
   1   6  -2   16.30    3.60 
   1   6  -2    9.20    4.10 
   1   6  -2   10.50    3.60 
  -1  -6   2   11.60    5.10 
  -1  -6   2   15.10    4.60 
  -1  -6   2    7.10    3.90 
   0   6  -2   29.10    5.90 
   0   6  -2   45.90    6.40 
   0  -6   2   34.80    3.60 
   0  -6   2   33.90    5.90 
   0  -6   2   25.50    6.30 
  -1   6  -2   31.50    5.80 
  -1   6  -2   51.99    7.10 
   1  -6   2   39.10    6.90 
   1  -6   2   26.60    7.10 
   1  -6   2   32.90    3.50 
   1  -6   2   40.10    5.40 
  -2   6  -2   12.60    4.10 
  -2   6  -2    7.10    3.60 
   2  -6   2    6.40    4.10 
   2  -6   2    9.50    4.10 
  -3   6  -2    7.80    3.00 
   3  -6   2    5.20    4.20 
   3  -6   2    1.00    4.50 
  -4   6  -2   36.80    6.10 
   4  -6   2   36.10    7.40 
   4  -6   2   22.60    6.00 
   5  -6   2   36.90    8.90 
   8   5  -2    3.10   10.60 
   8   5  -2   12.20    4.50 
   8   5  -2   20.00    6.60 
   7   5  -2   16.50    6.60 
  -7  -5   2   24.20    4.50 
   6   5  -2   29.30    7.00 
   6   5  -2   23.70    6.80 
   6   5  -2   24.10    5.40 
   5   5  -2    6.00    3.10 
   5   5  -2    8.70    4.60 
  -5  -5   2   13.80    3.50 
   4   5  -2   84.39   10.40 
   4   5  -2   69.09   10.10 
   4   5  -2   61.59    7.80 
  -4  -5   2   71.09   10.90 
  -4  -5   2   82.39   10.80 
  -4  -5   2   67.49    7.70 
   3   5  -2   42.10    6.10 
   3   5  -2   57.09    8.30 
   3   5  -2   39.90    7.00 
  -3  -5   2   42.80    7.60 
  -3  -5   2   46.00    8.70 
  -3  -5   2   46.20    6.40 
   2   5  -2    7.40    3.70 
   2   5  -2    9.10    3.00 
   2   5  -2   10.70    3.40 
  -2  -5   2   11.50    3.90 
  -2  -5   2   14.60    4.80 
  -2  -5   2   14.40    3.80 
   1   5  -2    1.40    1.80 
   1   5  -2    2.60    3.80 
   1   5  -2    2.40    2.30 
  -1  -5   2    1.30    2.50 
  -1  -5   2    3.90    3.50 
  -1  -5   2    4.60    2.80 
   0   5  -2   11.10    3.80 
   0   5  -2   18.40    3.50 
   0  -5   2   15.30    3.80 
   0  -5   2   20.50    4.20 
   0  -5   2   14.60    2.20 
   0  -5   2   15.20    5.00 
  -1   5  -2   11.30    3.10 
  -1   5  -2    4.50    2.70 
   1  -5   2    7.70    3.00 
   1  -5   2    3.20    3.60 
   1  -5   2    4.70    1.40 
   1  -5   2    6.90    2.60 
  -2   5  -2   14.70    3.60 
  -2   5  -2   11.40    3.20 
   2  -5   2    9.80    2.40 
   2  -5   2    9.70    3.90 
   2  -5   2   16.80    4.80 
  -3   5  -2    5.70    2.50 
  -3   5  -2    6.60    3.10 
   3  -5   2    0.80    3.20 
   3  -5   2   -1.10    3.30 
  -4   5  -2   10.70    3.20 
   4  -5   2    3.00    4.00 
   4  -5   2    8.50    3.70 
  -5   5  -2   22.20    5.70 
   5  -5   2   22.50    5.70 
   6  -5   2    4.50    5.70 
   6  -5   2   15.10    6.00 
   8   4  -2    4.00    3.10 
   8   4  -2    9.40    5.10 
   8   4  -2   15.50    6.10 
   7   4  -2    9.80    7.00 
   7   4  -2   12.90    3.80 
   7   4  -2    7.50    5.20 
   6   4  -2   85.39    9.40 
   6   4  -2   93.19   12.40 
   6   4  -2  120.29   12.90 
  -6  -4   2   86.59    8.90 
   5   4  -2   65.09    9.80 
   5   4  -2   76.79   10.10 
  -5  -4   2   64.59    7.00 
  -5  -4   2   61.89    9.50 
  -5  -4   2   62.79    9.70 
   4   4  -2   29.70    6.20 
   4   4  -2   27.20    6.30 
   4   4  -2   33.20    4.80 
  -4  -4   2   25.10    4.60 
  -4  -4   2   14.80    5.30 
  -4  -4   2   34.40    6.50 
   3   4  -2   31.10    6.00 
   3   4  -2   29.70    6.30 
   3   4  -2   27.30    4.30 
  -3  -4   2   24.80    4.40 
  -3  -4   2   27.10    6.00 
  -3  -4   2   19.20    5.30 
   2   4  -2   39.80    5.40 
   2   4  -2   50.99    6.30 
   2   4  -2   59.19    7.30 
  -2  -4   2   63.99    7.50 
  -2  -4   2   45.30    7.40 
  -2  -4   2   48.70    5.60 
   1   4  -2   66.39    7.20 
   1   4  -2   87.89    7.60 
   1   4  -2   67.49    8.30 
  -1  -4   2   79.69    9.10 
  -1  -4   2   78.09    8.30 
  -1  -4   2   82.49    7.70 
   0   4  -2   12.60    2.70 
   0  -4   2    9.60    2.70 
   0  -4   2   10.70    1.80 
   0  -4   2    6.90    3.00 
   0  -4   2   12.60    3.00 
  -1   4  -2   18.20    3.40 
  -1   4  -2   17.80    4.10 
   1  -4   2   13.30    3.70 
   1  -4   2   13.70    2.20 
   1  -4   2   22.60    4.00 
   1  -4   2   13.80    2.80 
  -2   4  -2   13.90    3.40 
  -2   4  -2   10.90    3.30 
   2  -4   2   17.90    4.40 
   2  -4   2   16.80    2.70 
   2  -4   2   10.50    3.50 
   2  -4   2   18.30    2.70 
  -3   4  -2   24.10    4.50 
  -3   4  -2   33.80    5.00 
   3  -4   2   30.40    6.10 
   3  -4   2   22.60    3.00 
   3  -4   2   36.80    6.30 
   3  -4   2   28.00    4.20 
  -4   4  -2   -1.20    2.90 
  -4   4  -2    1.20    1.40 
  -4   4  -2    1.80    0.70 
   4  -4   2    5.00    3.40 
   4  -4   2    4.40    1.90 
  -5   4  -2    1.90    2.20 
  -5   4  -2    5.20    1.20 
   5  -4   2    7.60    4.10 
   5  -4   2    5.40    2.70 
  -6   4  -2   -1.90    2.30 
  -6   4  -2    1.20    0.90 
   6  -4   2   -1.40    2.00 
   6  -4   2    6.00    4.50 
   6  -4   2    2.20    2.00 
   7  -4   2    3.20    5.40 
   8   3  -2    9.50    2.70 
   8   3  -2    9.20    5.60 
   8   3  -2    6.80    5.70 
  -8  -3   2    7.00    3.00 
   7   3  -2    8.70    4.50 
   7   3  -2   14.70    3.70 
   7   3  -2    9.30    5.40 
  -7  -3   2   13.30    4.50 
   6   3  -2   15.70    6.50 
   6   3  -2   21.40    4.00 
   6   3  -2   15.00    8.30 
  -6  -3   2   20.10    3.90 
   5   3  -2   48.70    8.50 
   5   3  -2   50.29    8.10 
   5   3  -2   37.30    5.20 
  -5  -3   2   45.80    5.20 
  -5  -3   2   33.10    6.50 
  -5  -3   2   32.90    7.20 
   4   3  -2   46.80    7.20 
   4   3  -2   42.40    7.00 
   4   3  -2   33.00    4.70 
  -4  -3   2   31.30    6.70 
  -4  -3   2   38.50    6.60 
  -4  -3   2   37.40    4.70 
   3   3  -2  258.37   20.10 
   3   3  -2  250.37   20.00 
  -3  -3   2  275.77   20.60 
  -3  -3   2  240.58   19.90 
  -3  -3   2  210.78   18.10 
   2   3  -2    8.20    2.80 
   2   3  -2    4.30    1.80 
  -2  -3   2    5.60    3.20 
  -2  -3   2    5.60    2.80 
  -2  -3   2    9.10    2.30 
   1   3  -2   62.49    6.00 
   1   3  -2   64.99    6.90 
   1   3  -2   65.39    6.40 
  -1  -3   2   66.39    7.00 
  -1  -3   2   60.79    7.20 
  -1  -3   2   67.69    6.20 
   0   3  -2   24.90    3.50 
   0  -3   2   25.70    3.70 
   0  -3   2   25.90    2.70 
   0  -3   2   30.70    4.00 
   0  -3   2   31.70    4.70 
  -1   3  -2    1.70    1.60 
  -1   3  -2    2.10    1.40 
   1  -3   2    3.90    1.40 
   1  -3   2    0.50    1.50 
   1  -3   2    1.90    0.90 
  -2   3  -2   25.90    3.90 
  -2   3  -2   22.00    3.70 
  -2   3  -2   20.80    2.20 
   2  -3   2   19.10    3.00 
   2  -3   2   25.20    4.40 
  -3   3  -2   52.49    6.20 
  -3   3  -2   55.49    4.40 
  -3   3  -2   48.40    5.90 
   3  -3   2   54.69    6.00 
   3  -3   2   62.09    7.10 
   3  -3   2   44.10    6.20 
  -4   3  -2    5.70    2.20 
  -4   3  -2   10.60    1.90 
  -4   3  -2    7.50    3.70 
   4  -3   2    4.00    3.20 
   4  -3   2    8.00    3.10 
   4  -3   2   11.90    3.70 
  -5   3  -2    3.90    2.20 
  -5   3  -2    3.70    2.00 
   5  -3   2    5.00    2.90 
   5  -3   2    7.30    3.10 
   5  -3   2    2.10    3.70 
  -6   3  -2   10.80    2.30 
  -6   3  -2    6.70    2.50 
   6  -3   2   12.20    3.50 
   6  -3   2    3.20    4.30 
   6  -3   2   12.10    4.00 
  -7   3  -2   14.60    4.00 
  -7   3  -2   24.20    3.50 
   7  -3   2   24.00    5.30 
   7  -3   2   16.30    4.60 
   8   2  -2    0.00    4.50 
   8   2  -2    4.50    2.50 
   8   2  -2    4.30    4.60 
  -8  -2   2    2.50    2.40 
   7   2  -2    9.50    2.70 
   7   2  -2    8.10    5.20 
   7   2  -2   10.90    4.60 
  -7  -2   2   10.50    2.80 
   6   2  -2    7.10    8.20 
   6   2  -2   28.30    7.30 
   6   2  -2   24.40    4.20 
  -6  -2   2   28.30    4.00 
  -6  -2   2   20.80   11.20 
   5   2  -2   27.40    5.90 
   5   2  -2   22.50    6.30 
   5   2  -2   23.80    3.90 
  -5  -2   2   20.00    7.20 
  -5  -2   2   24.00    4.70 
  -5  -2   2   29.20    3.90 
   4   2  -2   47.10    7.00 
   4   2  -2   45.50    4.90 
   4   2  -2   48.60    6.70 
  -4  -2   2   47.00    4.80 
  -4  -2   2   32.40    6.90 
  -4  -2   2   38.80    5.70 
   3   2  -2  108.79   10.10 
   3   2  -2  115.09   10.30 
   3   2  -2  100.29    8.40 
  -3  -2   2   92.89    9.20 
  -3  -2   2   97.89    8.30 
  -3  -2   2  100.89   10.10 
   2   2  -2   41.60    5.20 
   2   2  -2   43.70    5.20 
  -2  -2   2   33.70    3.90 
  -2  -2   2   40.60    6.10 
   1   2  -2  167.18   12.10 
   1   2  -2  158.78   12.20 
   1   2  -2  129.89   11.30 
  -1  -2   2  142.49   11.40 
  -1  -2   2  150.68   12.30 
  -1  -2   2  170.68   12.40 
   0   2  -2  334.07   25.00 
   0   2  -2  391.76   25.10 
   0  -2   2  325.87   24.50 
   0  -2   2  359.56   25.70 
   0  -2   2  375.66   25.30 
   0  -2   2  341.47   25.20 
  -1   2  -2    9.50    1.40 
  -1   2  -2   12.00    2.30 
  -1   2  -2   13.80    2.40 
   1  -2   2    9.80    1.60 
   1  -2   2   15.40    2.70 
  -2   2  -2  153.38   12.30 
  -2   2  -2  155.08   12.20 
  -2   2  -2  141.69   11.10 
   2  -2   2  156.98   12.60 
   2  -2   2  151.38   11.50 
   2  -2   2  172.68   12.80 
  -3   2  -2   44.90    4.00 
  -3   2  -2   39.00    4.90 
  -3   2  -2   39.10    4.60 
   3  -2   2   40.10    6.20 
   3  -2   2   40.70    5.20 
   3  -2   2   34.80    4.80 
  -4   2  -2   36.40    4.40 
  -4   2  -2   38.40    5.20 
  -4   2  -2   37.30    4.90 
   4  -2   2   32.10    4.90 
   4  -2   2   43.90    6.20 
   4  -2   2   39.10    6.20 
  -5   2  -2   16.90    3.60 
  -5   2  -2   19.10    3.50 
  -5   2  -2   16.30    3.60 
   5  -2   2   23.90    4.90 
   5  -2   2   19.40    8.10 
   5  -2   2   20.50    4.40 
  -6   2  -2   -0.10    1.70 
  -6   2  -2    1.20    1.30 
   6  -2   2    3.50    2.90 
   6  -2   2    5.50    4.60 
   6  -2   2    4.40    2.30 
  -7   2  -2    2.50    2.20 
  -7   2  -2   -0.20    2.00 
   7  -2   2   -4.50    3.50 
   7  -2   2    4.90    3.50 
   7  -2   2    4.10    2.40 
  -8   2  -2    7.50    2.80 
   8  -2   2    7.80    4.90 
   8  -2   2   -5.10    9.50 
   8  -2   2    4.40    3.80 
   8   1  -2    6.90    2.80 
   8   1  -2    3.30    4.10 
   8   1  -2    5.00    5.10 
  -8  -1   2    1.40    3.40 
   7   1  -2   12.20    5.20 
   7   1  -2    5.00    4.70 
  -7  -1   2    8.20    2.50 
   6   1  -2    6.40    4.60 
   6   1  -2    5.00    2.00 
  -6  -1   2    4.90    2.20 
  -6  -1   2   -2.50    3.20 
   5   1  -2    9.60    2.30 
   5   1  -2   18.00    5.30 
   5   1  -2   13.70    3.60 
  -5  -1   2   10.30    2.30 
  -5  -1   2    6.20    3.80 
  -5  -1   2    3.90    3.80 
   4   1  -2   67.99    8.60 
   4   1  -2   69.19    6.20 
   4   1  -2   66.49    7.70 
  -4  -1   2   68.99    6.70 
  -4  -1   2   76.59    6.20 
  -4  -1   2   69.49    8.80 
   3   1  -2   52.49    4.60 
   3   1  -2   55.69    5.80 
  -3  -1   2   43.50    5.00 
  -3  -1   2   50.99    4.40 
  -3  -1   2   37.00    6.10 
   2   1  -2   18.30    3.10 
   2   1  -2   20.40    2.40 
   2   1  -2   20.40    3.90 
  -2  -1   2   17.60    3.10 
  -2  -1   2   19.50    2.20 
  -2  -1   2   21.80    4.20 
   1   1  -2  159.38   12.80 
   1   1  -2  203.38   13.70 
  -1  -1   2  176.88   13.50 
  -1  -1   2  185.88   13.00 
   0   1  -2  409.46   33.50 
   0  -1   2  488.75   33.70 
   0  -1   2  553.64   33.80 
   0  -1   2  464.75   33.40 
   0  -1   2  505.45   33.20 
  -1   1  -2   60.39    5.50 
  -1   1  -2   81.59    6.30 
  -1   1  -2   71.79    6.20 
   1  -1   2   73.09    6.30 
   1  -1   2   78.29    5.80 
   1  -1   2   80.49    6.50 
  -2   1  -2    1.20    1.00 
  -2   1  -2   -1.30    1.00 
  -2   1  -2   -0.10    0.70 
   2  -1   2   -0.40    1.10 
   2  -1   2   -1.10    1.40 
   2  -1   2    1.30    1.10 
  -3   1  -2   64.29    5.70 
  -3   1  -2   59.49    5.80 
  -3   1  -2   54.29    6.90 
   3  -1   2   55.49    6.40 
   3  -1   2   62.99    6.00 
   3  -1   2   71.19    6.80 
  -4   1  -2    2.40    1.40 
  -4   1  -2    2.10    1.80 
  -4   1  -2    0.50    1.70 
   4  -1   2    2.80    2.90 
   4  -1   2    3.70    2.50 
   4  -1   2    0.50    1.10 
  -5   1  -2   15.80    3.70 
  -5   1  -2   13.30    3.00 
   5  -1   2   17.90    5.30 
   5  -1   2   20.80    3.70 
  -6   1  -2   -0.40    1.20 
  -6   1  -2    2.80    2.40 
   6  -1   2    1.70    1.70 
   6  -1   2   -1.90    2.50 
   6  -1   2    2.30    3.00 
  -7   1  -2   -0.40    1.90 
  -7   1  -2    0.70    4.80 
   7  -1   2    0.60    2.90 
   7  -1   2    7.00    4.30 
   7  -1   2    0.50    1.30 
  -8   1  -2    5.40    2.90 
   8  -1   2   15.40    3.80 
   8  -1   2    6.20    4.80 
   8  -1   2   12.80    5.60 
   8   0  -2   12.70    7.10 
   8   0  -2    7.90    5.00 
   7   0  -2   26.10    4.20 
   7   0  -2   19.90    5.90 
  -7   0   2   29.20    4.20 
   6   0  -2   32.90    4.30 
   6   0  -2   36.60    8.30 
   6   0  -2   20.20    5.20 
  -6   0   2   31.20    7.30 
  -6   0   2   33.80    3.90 
   5   0  -2   13.20    4.00 
   5   0  -2   19.60    3.20 
   5   0  -2   23.60    6.20 
  -5   0   2   15.80    4.00 
  -5   0   2   22.10    5.50 
  -5   0   2   24.80    3.60 
   4   0  -2   14.90    2.50 
   4   0  -2   12.50    3.00 
   4   0  -2   16.60    4.30 
  -4   0   2   17.10    2.80 
  -4   0   2   14.90    4.60 
  -4   0   2   19.50    2.40 
   3   0  -2    0.30    0.70 
   3   0  -2   -1.40    1.30 
   3   0  -2    1.60    1.20 
  -3   0   2    0.60    0.70 
  -3   0   2    1.60    0.90 
  -3   0   2    0.80    2.00 
   2   0  -2   58.29    4.70 
   2   0  -2   52.59    5.50 
   2   0  -2   51.59    4.20 
  -2   0   2   49.10    5.60 
   1   0  -2   28.10    3.40 
  -1   0   2   28.30    3.60 
   0   0  -2  107.19    7.60 
   0   0  -2  106.59    7.60 
   0   0   2  103.19    7.60 
   0   0   2  103.29    7.60 
  -1   0  -2 2220.48  142.89 
  -1   0  -2 2084.89  142.69 
  -1   0  -2 1947.31  142.89 
   1   0   2 2165.98  142.79 
   1   0   2 1962.10  142.99 
   1   0   2 2303.87  142.89 
  -2   0  -2 2279.77  168.98 
  -2   0  -2 2335.37  168.68 
  -2   0  -2 2563.14  168.98 
   2   0   2 2544.65  168.98 
   2   0   2 2583.24  169.38 
   2   0   2 2673.43  168.98 
  -3   0  -2 1489.15  102.79 
  -3   0  -2 1478.35  102.49 
  -3   0  -2 1549.64  102.59 
   3   0   2 1647.34  103.39 
   3   0   2 1398.46  102.39 
   3   0   2 1454.05  102.89 
  -4   0  -2  215.98   16.40 
  -4   0  -2  223.68   16.50 
  -4   0  -2  198.08   15.80 
   4   0   2  194.08   15.80 
   4   0   2  227.98   17.30 
   4   0   2  194.68   17.80 
  -5   0  -2    5.90    2.90 
  -5   0  -2    6.50    2.10 
  -5   0  -2    5.30    2.80 
   5   0   2    6.90    2.10 
   5   0   2    4.70    3.20 
   5   0   2    7.40    4.20 
  -6   0  -2    9.80    3.00 
  -6   0  -2    7.20    3.30 
  -6   0  -2    4.30    3.00 
   6   0   2   12.70    5.10 
   6   0   2    3.50    3.40 
   6   0   2   10.70    3.20 
  -7   0  -2    5.90    2.50 
  -7   0  -2    5.10    3.00 
   7   0   2    9.70    5.40 
   7   0   2    7.80    2.50 
   7   0   2    9.20    4.20 
  -8   0  -2    8.20    3.10 
   8   0   2   17.30    4.40 
   8   0   2   19.10    6.50 
   8   0   2    3.30    4.60 
   9   0   2    3.00    4.90 
   9   0   2   13.50    6.90 
   8  -1  -2   10.90    4.50 
   8  -1  -2   21.20    6.40 
   8  -1  -2   17.40    4.40 
   7  -1  -2    8.00    4.60 
   7  -1  -2    9.30    2.60 
  -7   1   2    8.80    4.90 
   6  -1  -2   41.50    7.60 
   6  -1  -2   40.00    4.60 
   6  -1  -2   32.20    6.50 
  -6   1   2   33.50    4.10 
  -6   1   2   32.40    6.80 
   5  -1  -2   33.50    6.00 
   5  -1  -2   36.00    4.40 
   5  -1  -2   44.60    7.50 
  -5   1   2   48.00    8.00 
  -5   1   2   38.30    4.10 
  -5   1   2   35.20    4.30 
   4  -1  -2   32.70    3.50 
   4  -1  -2   23.80    4.60 
   4  -1  -2   44.60    6.80 
  -4   1   2   29.40    3.20 
  -4   1   2   32.40    6.00 
   3  -1  -2    7.40    2.60 
   3  -1  -2    6.80    1.50 
   3  -1  -2    8.80    1.90 
  -3   1   2    3.50    2.30 
  -3   1   2    4.30    1.10 
   2  -1  -2   28.30    2.80 
   2  -1  -2   27.00    3.40 
   2  -1  -2   25.30    2.40 
  -2   1   2   25.20    3.80 
   1  -1  -2   45.60    4.20 
  -1   1   2   49.40    4.40 
   0  -1  -2  815.32   63.49 
   0  -1  -2 1008.10   63.39 
   0  -1  -2  850.51   63.19 
   0   1   2 1075.79   63.49 
  -1  -1  -2  137.79    9.70 
  -1  -1  -2  118.69    9.50 
   1   1   2  131.49    9.60 
   1   1   2  145.79    9.80 
  -2  -1  -2   35.40    3.90 
  -2  -1  -2   46.90    4.80 
  -2  -1  -2   50.09    5.00 
   2   1   2   41.00    4.00 
   2   1   2   46.80    4.80 
  -3  -1  -2  114.49    9.20 
  -3  -1  -2  127.49    9.90 
  -3  -1  -2  101.79    9.60 
   3   1   2  107.89    9.00 
   3   1   2  120.89   10.10 
   3   1   2  110.09   10.10 
  -4  -1  -2  229.48   17.70 
  -4  -1  -2  240.48   17.70 
  -4  -1  -2  215.88   16.90 
   4   1   2  213.48   16.70 
   4   1   2  243.88   18.20 
   4   1   2  171.58   21.60 
  -5  -1  -2  292.47   22.50 
  -5  -1  -2  300.07   22.80 
  -5  -1  -2  272.17   21.60 
   5   1   2  315.97   24.00 
   5   1   2  263.77   21.40 
   5   1   2  292.37   23.20 
  -6  -1  -2  140.69   13.90 
  -6  -1  -2  160.98   13.80 
  -6  -1  -2  125.99   11.90 
   6   1   2  174.98   15.90 
   6   1   2  138.89   14.50 
   6   1   2  123.59   11.80 
  -7  -1  -2   21.00    4.00 
  -7  -1  -2   18.70    5.20 
   7   1   2   22.40    7.20 
   7   1   2   17.30    3.80 
   7   1   2   18.30    5.40 
  -8  -1  -2   25.30    4.80 
   8   1   2   26.90    7.40 
   8   1   2   26.50    4.80 
   8   1   2   12.10    5.50 
   9   1   2    7.40    3.10 
   9   1   2   11.20    6.20 
   9   1   2   -4.00    5.30 
   7  -2  -2    9.20    3.80 
   7  -2  -2    8.60    2.70 
   7  -2  -2    0.30    3.20 
  -7   2   2    5.10    3.80 
   6  -2  -2    0.20    3.00 
   6  -2  -2    6.70    2.00 
   6  -2  -2    8.50    3.50 
  -6   2   2    7.40    3.40 
   5  -2  -2    2.10    1.40 
   5  -2  -2   -1.40    2.20 
   5  -2  -2    1.00    2.20 
  -5   2   2   -0.40    1.20 
  -5   2   2   -0.60    2.10 
  -5   2   2    1.80    2.80 
   4  -2  -2   16.20    3.00 
   4  -2  -2   15.60    3.80 
   4  -2  -2    8.00    3.00 
  -4   2   2   16.60    5.10 
  -4   2   2   12.30    2.10 
  -4   2   2    7.90    2.10 
   3  -2  -2   77.09    6.50 
   3  -2  -2   84.59    7.00 
   3  -2  -2   90.59    7.30 
  -3   2   2   68.09    7.50 
  -3   2   2   68.29    6.00 
  -3   2   2   70.89    6.10 
   2  -2  -2   11.80    2.10 
   2  -2  -2    8.50    2.70 
   2  -2  -2   13.40    2.20 
  -2   2   2   11.00    1.80 
  -2   2   2   11.90    2.60 
  -2   2   2    8.90    1.60 
   1  -2  -2   45.20    4.30 
   1  -2  -2   48.70    4.10 
  -1   2   2   49.70    4.20 
  -1   2   2   49.50    4.00 
  -1   2   2   50.99    3.80 
  -1   2   2   50.89    4.00 
   0  -2  -2  344.27   23.70 
   0  -2  -2  364.76   23.40 
   0  -2  -2  301.77   24.00 
   0   2   2  319.07   23.80 
   0   2   2  356.26   23.50 
   0   2   2  355.36   23.70 
  -1  -2  -2  447.36   33.90 
  -1  -2  -2  472.05   32.40 
   1   2   2  450.55   33.10 
   1   2   2  499.35   32.50 
  -2  -2  -2   48.40    4.80 
  -2  -2  -2   58.09    5.90 
  -2  -2  -2   54.39    5.80 
   2   2   2   53.49    4.80 
   2   2   2   49.30    5.90 
   2   2   2   68.69    6.20 
  -3  -2  -2  285.77   21.10 
  -3  -2  -2  277.47   21.70 
  -3  -2  -2  299.37   22.10 
   3   2   2  318.97   22.40 
   3   2   2  277.07   22.00 
   3   2   2  287.57   21.10 
  -4  -2  -2  187.88   16.10 
  -4  -2  -2  186.08   15.10 
  -4  -2  -2  212.98   16.70 
   4   2   2  176.48   14.90 
   4   2   2  220.08   16.80 
   4   2   2  197.68   16.70 
  -5  -2  -2   16.10    3.90 
  -5  -2  -2   11.50    2.90 
  -5  -2  -2   17.30    5.20 
   5   2   2   14.20    4.80 
   5   2   2   16.30    3.40 
   5   2   2   12.20    4.40 
  -6  -2  -2   96.99   11.40 
  -6  -2  -2  110.79   11.80 
  -6  -2  -2   90.99    9.10 
   6   2   2  108.69   12.40 
   6   2   2   92.79    9.10 
   6   2   2   86.29   11.30 
  -7  -2  -2   10.80    5.80 
   7   2   2   22.10    7.60 
   7   2   2   25.20    6.60 
   7   2   2   22.80    4.20 
  -8  -2  -2    5.30    2.50 
   8   2   2    6.90    2.80 
   8   2   2   13.50    6.60 
   8   2   2    3.10    4.50 
  -9  -2  -2    8.90    2.60 
   9   2   2    3.80    3.00 
   9   2   2    2.30    6.40 
   9   2   2    0.90    5.30 
   7  -3  -2   13.00    3.80 
   7  -3  -2    2.70    3.70 
   7  -3  -2   11.90    4.20 
  -7   3   2   11.10    3.20 
   6  -3  -2    1.70    2.40 
   6  -3  -2    1.60    3.00 
  -6   3   2    6.90    3.10 
  -6   3   2    3.80    1.90 
   5  -3  -2   14.40    3.20 
   5  -3  -2    7.60    3.50 
   5  -3  -2   12.70    3.10 
  -5   3   2   14.10    3.50 
  -5   3   2    9.90    2.50 
   4  -3  -2   21.20    4.40 
   4  -3  -2   27.70    3.90 
   4  -3  -2   22.10    4.00 
  -4   3   2   29.00    4.60 
  -4   3   2   26.90    3.60 
  -4   3   2   21.20    3.70 
   3  -3  -2  176.58   13.70 
   3  -3  -2  175.78   12.80 
   3  -3  -2  168.88   13.60 
  -3   3   2  166.88   12.80 
  -3   3   2  168.68   12.80 
  -3   3   2  167.88   13.30 
   2  -3  -2  187.68   14.90 
   2  -3  -2  215.28   14.80 
  -2   3   2  190.98   13.60 
  -2   3   2  187.08   14.20 
  -2   3   2  200.88   14.30 
  -2   3   2  192.28   14.30 
   1  -3  -2   82.09    7.50 
   1  -3  -2   82.89    7.10 
  -1   3   2   80.39    6.10 
  -1   3   2   89.59    7.00 
  -1   3   2   88.19    6.90 
   0  -3  -2  273.17   19.20 
   0  -3  -2  281.27   20.00 
   0   3   2  264.47   20.30 
   0   3   2  297.87   20.10 
   0   3   2  279.57   19.50 
  -1  -3  -2  376.46   27.90 
  -1  -3  -2  404.96   26.60 
  -1  -3  -2  362.16   26.80 
   1   3   2  405.66   26.90 
   1   3   2  317.07   27.30 
   1   3   2  404.16   27.00 
  -2  -3  -2  179.88   12.60 
  -2  -3  -2  149.49   13.10 
  -2  -3  -2  143.79   11.80 
   2   3   2  165.78   12.60 
   2   3   2  134.09   12.80 
   2   3   2  148.79   11.90 
  -3  -3  -2   42.10    6.10 
  -3  -3  -2   48.60    6.30 
  -3  -3  -2   47.90    5.10 
   3   3   2   47.20    6.30 
   3   3   2   45.80    5.10 
   3   3   2   56.09    6.70 
  -4  -3  -2  200.68   18.30 
  -4  -3  -2  223.38   16.90 
  -4  -3  -2  208.38   17.80 
   4   3   2  225.18   18.50 
   4   3   2  217.98   18.30 
   4   3   2  220.48   16.80 
  -5  -3  -2  136.99   12.10 
  -5  -3  -2  149.39   13.80 
  -5  -3  -2  128.49   13.60 
   5   3   2  138.99   14.10 
   5   3   2  142.19   12.00 
   5   3   2  145.19   14.10 
  -6  -3  -2   50.49    6.60 
  -6  -3  -2   58.09    8.90 
  -6  -3  -2   49.10    8.60 
   6   3   2   65.09   10.20 
   6   3   2   39.30    8.50 
   6   3   2   53.49    6.30 
  -7  -3  -2    2.20    1.90 
   7   3   2   -6.20    5.80 
   7   3   2   -2.10    1.60 
   7   3   2   -3.70    3.80 
  -8  -3  -2    7.90    2.70 
   8   3   2    0.80    2.30 
   8   3   2   -3.20    4.60 
   8   3   2    3.70    5.20 
  -9  -3  -2   -3.40    2.20 
   9   3   2   -0.80    5.20 
   9   3   2    1.30    5.60 
   9   3   2    1.90    2.00 
   6  -4  -2    0.10    3.60 
  -6   4   2    3.50    2.20 
  -6   4   2    4.70    3.70 
   5  -4  -2    1.30    3.50 
  -5   4   2    3.40    1.70 
  -5   4   2    5.00    2.00 
   4  -4  -2   41.20    8.60 
  -4   4   2   49.80    6.80 
   3  -4  -2   30.70    5.00 
   3  -4  -2   25.90    4.90 
  -3   4   2   36.00    4.40 
  -3   4   2   23.90    3.80 
   2  -4  -2   97.49    8.40 
   2  -4  -2   80.99    8.70 
  -2   4   2   94.79    8.00 
  -2   4   2   91.69    8.00 
   1  -4  -2  118.19   11.20 
   1  -4  -2  135.89   10.70 
  -1   4   2  136.89   10.60 
  -1   4   2  132.89   10.80 
   0   4   2  126.69   10.10 
   0   4   2  145.09   10.90 
   0   4   2  135.19   11.30 
  -1  -4  -2   15.70    3.80 
  -1  -4  -2   17.80    2.90 
   1   4   2   14.40    3.40 
   1   4   2   19.90    4.80 
   1   4   2   13.40    3.00 
  -2  -4  -2   22.00    4.10 
  -2  -4  -2   16.70    4.10 
  -2  -4  -2   19.20    3.20 
   2   4   2   20.00    3.30 
   2   4   2   14.40    3.50 
   2   4   2   17.70    4.40 
  -3  -4  -2    9.90    3.70 
  -3  -4  -2    9.50    2.40 
  -3  -4  -2   12.10    3.50 
   3   4   2   10.60    2.70 
   3   4   2    9.00    3.60 
  -4  -4  -2  142.89   12.90 
  -4  -4  -2  187.18   15.40 
  -4  -4  -2  137.99   14.00 
   4   4   2  160.98   14.70 
   4   4   2  155.28   13.10 
   4   4   2  161.08   15.10 
  -5  -4  -2   39.70    5.70 
  -5  -4  -2   38.00    7.50 
  -5  -4  -2   38.30    7.40 
   5   4   2   53.49    8.80 
   5   4   2   52.69    6.10 
   5   4   2   44.40    8.50 
  -6  -4  -2   92.89   11.50 
  -6  -4  -2   72.69   10.60 
  -6  -4  -2   81.69    8.60 
   6   4   2   71.49    8.40 
   6   4   2   78.79   11.40 
   6   4   2   76.19   11.10 
  -7  -4  -2   47.90    6.50 
   7   4   2   50.79    9.90 
   7   4   2   35.80    8.80 
   7   4   2   44.10    6.60 
  -8  -4  -2    4.80    2.50 
   8   4   2    3.10    4.40 
   8   4   2    1.10    1.90 
   8   4   2   -0.80    4.80 
  -9  -4  -2   13.10    3.90 
   9   4   2    4.00    3.20 
   9   4   2   13.60    6.90 
   9   4   2   -4.00    5.90 
   6  -5  -2   15.50    5.10 
   6  -5  -2   29.10    6.40 
  -6   5   2   27.50    5.20 
   5  -5  -2    6.70    4.20 
   5  -5  -2    5.20    3.10 
  -5   5   2    7.50    2.30 
   4  -5  -2    1.40    3.00 
   4  -5  -2    3.20    2.60 
  -4   5   2    3.70    2.10 
   3  -5  -2    5.80    3.10 
   3  -5  -2    3.40    3.20 
  -3   5   2    5.40    2.20 
   2  -5  -2  115.69   10.00 
   2  -5  -2   90.09   10.60 
  -2   5   2  114.39    9.80 
  -2   5   2  107.89    9.60 
   1  -5  -2   86.79    8.20 
  -1   5   2   87.59    8.00 
  -1   5   2   80.09    8.20 
   0  -5  -2   10.80    3.00 
   0  -5  -2    6.90    3.10 
   0   5   2    7.60    3.70 
   0   5   2    3.20    2.10 
  -1  -5  -2   40.20    4.90 
  -1  -5  -2   31.50    4.40 
  -1  -5  -2   34.80    6.30 
   1   5   2   31.90    5.20 
   1   5   2   33.50    4.60 
   1   5   2   27.20    4.40 
  -2  -5  -2   57.39    7.10 
  -2  -5  -2   60.49    6.40 
  -2  -5  -2   40.40    7.20 
   2   5   2   49.20    6.60 
   2   5   2   49.90    7.20 
   2   5   2   56.49    6.20 
  -3  -5  -2  231.68   18.70 
  -3  -5  -2  234.28   19.70 
  -3  -5  -2  251.57   21.00 
   3   5   2  216.08   19.20 
   3   5   2  275.87   21.00 
   3   5   2  233.48   19.70 
  -4  -5  -2   63.29    7.40 
  -4  -5  -2   61.49   10.00 
  -4  -5  -2   68.49    9.40 
   4   5   2   75.89    8.00 
   4   5   2   73.09    9.70 
   4   5   2   88.59   10.10 
  -5  -5  -2   23.90    4.70 
  -5  -5  -2   29.70    6.40 
   5   5   2   24.60    6.30 
   5   5   2   29.40    5.00 
   5   5   2   19.30    6.00 
  -6  -5  -2   74.99   16.50 
  -6  -5  -2   58.89    7.40 
  -6  -5  -2   43.40   12.70 
   6   5   2   49.80    9.70 
   6   5   2   54.29   10.70 
   6   5   2   58.39    7.50 
  -7  -5  -2    4.60    2.80 
   7   5   2    4.10    2.70 
   7   5   2    6.90    4.80 
   7   5   2    8.70    4.70 
   8   5   2   11.30    3.80 
   8   5   2    1.10    4.20 
   8   5   2    3.30    6.40 
  -9  -5  -2    4.80    4.10 
   9   5   2    2.50    3.00 
   9   5   2    0.30    6.40 
   9   5   2   10.60    6.50 
   5  -6  -2   19.00    5.30 
   5  -6  -2    8.20    4.40 
  -5   6   2   17.10    3.70 
   4  -6  -2   34.70    6.80 
  -4   6   2   38.10    5.30 
   3  -6  -2   12.10    4.30 
   3  -6  -2   11.30    3.90 
  -3   6   2   16.60    3.60 
   2  -6  -2   27.20    5.00 
  -2   6   2   22.70    4.20 
   1  -6  -2   94.89    9.20 
   1  -6  -2   72.69   10.20 
  -1   6   2   86.59    9.00 
  -1   6   2   96.79    8.90 
   0  -6  -2   92.59    9.10 
   0  -6  -2   77.29   10.40 
   0   6   2   98.89    9.20 
  -1  -6  -2   64.29    8.90 
  -1  -6  -2   59.59    6.70 
  -1  -6  -2   45.30    5.80 
   1   6   2   52.59    7.40 
   1   6   2   49.00    6.10 
  -2  -6  -2   13.90    4.60 
  -2  -6  -2   14.60    3.70 
  -2  -6  -2   14.40    4.30 
   2   6   2   15.80    5.00 
   2   6   2   10.50    3.80 
   2   6   2   20.10    4.10 
  -3  -6  -2    7.50    7.70 
  -3  -6  -2   14.60    4.00 
  -3  -6  -2   19.60    5.70 
   3   6   2   12.80    4.60 
   3   6   2   21.20    4.40 
   3   6   2   21.20    5.70 
  -4  -6  -2  244.58   20.50 
  -4  -6  -2  192.28   18.70 
  -4  -6  -2  189.08   16.90 
   4   6   2  198.48   18.60 
   4   6   2  210.98   17.60 
  -5  -6  -2   29.80    6.90 
  -5  -6  -2   33.40    5.60 
  -5  -6  -2   50.39    9.10 
   5   6   2   34.10    6.00 
   5   6   2   54.99    8.70 
  -6  -6  -2   50.09    9.20 
  -6  -6  -2   39.40    6.30 
   6   6   2   25.30    7.50 
   6   6   2   25.40    7.20 
   6   6   2   39.00    6.50 
  -7  -6  -2    8.50    3.80 
   7   6   2   15.00    7.20 
   7   6   2   19.60    6.80 
   7   6   2    7.50    4.50 
  -8  -6  -2    8.50    4.00 
   8   6   2   13.90    6.90 
   8   6   2   14.40    7.00 
   8   6   2    8.10    4.80 
  -9  -6  -2   11.50    7.10 
   9   6   2   19.20    9.00 
   9   6   2    4.40    8.00 
   9   6   2   25.60    9.10 
   4  -7  -2    9.50    5.90 
   4  -7  -2    7.90    5.00 
  -4   7   2   16.30    4.80 
   3  -7  -2    5.00    3.80 
   3  -7  -2    8.50    5.00 
   2  -7  -2   16.80    5.20 
   2  -7  -2   24.50    5.40 
  -2   7   2   29.50    5.80 
   1  -7  -2    4.20    4.30 
   1  -7  -2    3.00    3.80 
  -1   7   2    5.00    2.40 
   0  -7  -2   34.00    6.00 
   0  -7  -2   34.30    7.60 
   0   7   2   31.70    6.40 
  -1  -7  -2   58.99    6.40 
  -1  -7  -2   69.99    8.20 
  -1  -7  -2   78.19   10.50 
   1   7   2   77.49    8.50 
   1   7   2   53.89    8.40 
   1   7   2   67.69    6.70 
  -2  -7  -2   60.59    8.60 
  -2  -7  -2   73.49    8.50 
  -2  -7  -2   68.39   11.20 
   2   7   2   78.69    9.10 
   2   7   2   76.29    9.70 
   2   7   2   85.59    8.70 
  -3  -7  -2   88.49   11.00 
  -3  -7  -2  102.09   10.10 
  -3  -7  -2   75.69   12.20 
   3   7   2  100.69   10.10 
   3   7   2   81.69   10.20 
   3   7   2   90.89   11.30 
  -4  -7  -2   40.20    8.00 
  -4  -7  -2   46.30    6.60 
  -4  -7  -2   29.80    8.10 
   4   7   2   43.70    8.60 
   4   7   2   55.09    7.60 
  -5  -7  -2   13.00    4.20 
  -5  -7  -2    4.00    3.80 
  -5  -7  -2    7.70    5.50 
   5   7   2    6.60    4.80 
   5   7   2    4.70    4.60 
   5   7   2    8.90    3.50 
  -6  -7  -2   17.60    5.40 
  -6  -7  -2   25.20    8.10 
   6   7   2   20.80    5.00 
   6   7   2   15.80    5.90 
   6   7   2   11.70    6.20 
  -7  -7  -2   28.40    6.00 
   7   7   2   39.00    8.90 
   7   7   2   26.90    6.30 
   7   7   2   17.70   11.40 
  -8  -7  -2    2.50    3.40 
   8   7   2    9.70    7.00 
   8   7   2   13.40    4.80 
   8   7   2    8.00    5.20 
   3  -8  -2   -0.50    3.80 
   2  -8  -2   -2.40    3.60 
   2  -8  -2    4.00    3.90 
  -2   8   2    1.80    2.20 
   1  -8  -2    3.80    3.30 
   1  -8  -2    0.80    4.40 
  -1   8   2    5.80    2.80 
   0  -8  -2    7.70    4.10 
   0  -8  -2    9.20    5.40 
   0   8   2    9.20    3.90 
  -1  -8  -2    8.10    5.20 
  -1  -8  -2   16.00    4.70 
  -1  -8  -2    7.50    1.80 
   1   8   2    7.80    4.00 
   1   8   2    8.30    2.20 
  -2  -8  -2    4.70    4.80 
  -2  -8  -2    3.90    2.90 
   2   8   2   -0.90    2.50 
   2   8   2    3.90    2.60 
   2   8   2    3.10    3.20 
  -3  -8  -2    8.40    5.60 
  -3  -8  -2   11.00    4.20 
  -3  -8  -2   15.60    4.30 
   3   8   2    6.50    4.10 
   3   8   2   12.00    4.10 
   3   8   2   13.80    5.20 
  -4  -8  -2   28.30    7.20 
  -4  -8  -2   33.30    7.00 
  -4  -8  -2   34.90    8.60 
   4   8   2   37.40    9.80 
   4   8   2   29.10    8.30 
  -5  -8  -2    0.80    2.70 
  -5  -8  -2    4.70    4.80 
   5   8   2    4.20    4.10 
   5   8   2    3.20    3.60 
   5   8   2   -1.70    3.10 
  -6  -8  -2   16.20    4.40 
   6   8   2   14.20    6.70 
   6   8   2   17.40    6.30 
   6   8   2   12.80    5.00 
  -7  -8  -2   27.50    8.30 
   7   8   2   25.60    7.20 
   7   8   2   38.00    9.80 
   7   8   2   29.30    6.70 
  -8  -8  -2    3.60    3.80 
   8   8   2   -3.50    4.80 
   8   8   2    3.40    5.10 
   8   8   2   -1.70    5.40 
   2  -9  -2    0.20    4.00 
   1  -9  -2    3.60    3.60 
   1  -9  -2   -0.50    5.70 
  -1   9   2    2.80    2.40 
   0  -9  -2    1.70    4.90 
   0  -9  -2    6.30    3.70 
   0   9   2    2.40    2.80 
  -1  -9  -2   -1.50    5.70 
  -1  -9  -2   -0.10    3.60 
  -2  -9  -2   29.30    4.90 
  -2  -9  -2   43.10   10.50 
   2   9   2   30.40    5.10 
   2   9   2   23.50    6.30 
  -3  -9  -2   -0.30    6.70 
  -3  -9  -2    4.10    3.50 
  -3  -9  -2   12.20    4.30 
   3   9   2   11.40    4.00 
   3   9   2    8.40    3.80 
  -4  -9  -2    4.60    7.10 
  -4  -9  -2    2.20    3.90 
   4   9   2    4.90    4.00 
   4   9   2   -0.30    4.10 
  -5  -9  -2    8.90    4.40 
   5   9   2    5.10    4.80 
   5   9   2   -3.30    3.70 
   5   9   2    4.90    4.90 
  -6  -9  -2    4.60    3.90 
   6   9   2    5.90    5.30 
   6   9   2   12.30    5.40 
   6   9   2    1.40    4.50 
  -7  -9  -2    5.60    4.00 
   7   9   2    5.90    5.10 
   7   9   2    7.20    6.20 
   7   9   2   -1.50    5.60 
   0 -10  -2    3.10    5.50 
  -1 -10  -2    3.40    4.60 
  -1 -10  -2  -10.90    9.70 
   1  10   2    4.70    3.10 
  -2 -10  -2   -0.10    1.80 
  -2 -10  -2    6.80    4.90 
   2  10   2    9.50    4.30 
   2  10   2    2.40    2.00 
  -3 -10  -2    8.60    4.30 
  -3 -10  -2   30.60   12.00 
   3  10   2    3.50    4.40 
  -4 -10  -2    7.10    4.70 
   4  10   2    0.70    4.40 
   4  10   2    5.20    4.80 
  -5 -10  -2   16.30    5.30 
   5  10   2   18.30    7.00 
   5  10   2   24.10    8.00 
   6  10   2   13.60    7.60 
   4   9  -3    5.00    4.70 
   3   9  -3   -2.70    4.10 
   3   9  -3   -5.10    3.00 
   3   9  -3    8.10    6.70 
  -3  -9   3    6.90    4.70 
   2   9  -3    1.10    3.40 
  -2  -9   3   -1.00    4.70 
   1   9  -3   13.60    5.10 
  -1  -9   3   22.10    6.90 
  -1  -9   3   16.80    3.20 
  -1  -9   3   15.10    7.30 
   0  -9   3   13.40    7.00 
   6   8  -3   27.00   13.60 
   5   8  -3    0.50    4.50 
   5   8  -3   -0.40    5.00 
   5   8  -3    3.60    4.60 
  -5  -8   3    2.90    3.20 
   4   8  -3    7.10    5.00 
   4   8  -3    6.60    4.70 
   4   8  -3   -2.80    3.50 
   3   8  -3    8.70    4.60 
   3   8  -3    5.90    5.10 
   3   8  -3   15.00    5.50 
  -3  -8   3   15.40    5.70 
   2   8  -3   13.10    5.90 
  -2  -8   3   10.50    2.80 
  -2  -8   3    5.50    4.40 
  -2  -8   3    7.10    4.90 
   1   8  -3   30.50    6.50 
   1   8  -3   21.80    6.60 
  -1  -8   3   28.00    6.40 
  -1  -8   3   23.80    6.90 
  -1  -8   3   26.40    3.90 
   0   8  -3    8.50    4.60 
   0  -8   3    5.50    4.70 
   0  -8   3    3.20    1.60 
   0  -8   3    9.00    3.80 
   0  -8   3    7.50    5.70 
  -1   8  -3    3.40    2.60 
   1  -8   3    5.60    6.50 
   1  -8   3   22.20    7.90 
  -2   8  -3   15.90    4.10 
   2  -8   3   12.50    8.00 
   7   7  -3    5.90    5.20 
   7   7  -3    7.90    6.40 
   6   7  -3    6.50    5.40 
   6   7  -3   -0.30    3.90 
   6   7  -3    5.10    5.10 
  -6  -7   3    9.20    3.80 
   5   7  -3   39.10    8.30 
   5   7  -3   28.10    7.80 
   5   7  -3   33.10    6.70 
  -5  -7   3   32.30    6.40 
   4   7  -3   81.39   11.00 
   4   7  -3   69.69    9.80 
   4   7  -3   64.89   12.70 
  -4  -7   3   60.69    8.60 
   3   7  -3   86.09   11.10 
   3   7  -3   52.69    9.10 
   3   7  -3   57.69   10.10 
  -3  -7   3   72.79    9.10 
   2   7  -3   11.10    4.20 
   2   7  -3   14.10    5.20 
   2   7  -3   13.60    4.40 
  -2  -7   3   22.30    8.20 
  -2  -7   3    9.30    4.40 
  -2  -7   3   25.20    5.60 
   1   7  -3   18.70    5.40 
  -1  -7   3   30.10    6.40 
  -1  -7   3   24.80    7.30 
  -1  -7   3   21.90    5.70 
  -1  -7   3   22.60    3.50 
   0   7  -3   50.29    9.80 
   0   7  -3   47.90    7.60 
   0  -7   3   45.80   10.70 
   0  -7   3   44.30    7.20 
   0  -7   3   44.10    4.70 
   0  -7   3   52.19    8.50 
  -1   7  -3   37.60    7.60 
   1  -7   3   29.70    3.70 
   1  -7   3   32.50    8.10 
   1  -7   3   50.09    8.00 
  -2   7  -3   10.20    5.60 
   2  -7   3    9.30    5.20 
   2  -7   3    8.20    5.40 
   3  -7   3    5.40    4.60 
   3  -7   3    8.10    5.00 
   4  -7   3   -5.90    4.60 
   7   6  -3    2.10    3.90 
   7   6  -3    1.40    3.10 
   7   6  -3    7.00    5.50 
  -7  -6   3    6.70    3.80 
   6   6  -3   18.90    4.90 
   6   6  -3   13.00    5.80 
   6   6  -3   18.60    6.50 
  -6  -6   3   13.40    3.90 
   5   6  -3   19.50    5.00 
   5   6  -3   22.00    6.60 
   5   6  -3   22.00    6.00 
  -5  -6   3   17.50    4.90 
   4   6  -3   33.20    8.10 
   4   6  -3   37.00    6.50 
   4   6  -3   32.40    7.00 
  -4  -6   3   30.40    5.90 
   3   6  -3   96.59   12.00 
   3   6  -3  104.39   11.60 
   3   6  -3   91.79   11.00 
  -3  -6   3   98.59   10.70 
  -3  -6   3  120.39   13.30 
  -3  -6   3  123.29   14.40 
   2   6  -3   82.09   10.30 
   2   6  -3   79.49    9.10 
  -2  -6   3   79.39    9.30 
  -2  -6   3   80.59   11.80 
  -2  -6   3   74.39   10.40 
   1   6  -3  143.29   13.30 
  -1  -6   3  149.29   15.70 
  -1  -6   3  130.49   13.80 
  -1  -6   3  147.29   13.70 
  -1  -6   3  131.59   11.30 
   0   6  -3   68.39    8.00 
   0   6  -3   48.40    8.00 
   0  -6   3   58.09    5.60 
   0  -6   3   78.29    8.80 
   0  -6   3   56.59    8.00 
   0  -6   3   69.59   10.80 
  -1   6  -3   24.60    4.90 
  -1   6  -3   21.40    4.90 
   1  -6   3   18.20    4.30 
   1  -6   3   17.60    2.80 
   1  -6   3   12.10    5.40 
   1  -6   3   17.20    5.30 
  -2   6  -3   17.00    4.80 
  -2   6  -3   14.50    4.20 
   2  -6   3   12.90    4.60 
   2  -6   3   13.20    2.30 
   2  -6   3    9.70    4.50 
   2  -6   3    9.00    2.60 
  -3   6  -3    0.70    1.80 
   3  -6   3    2.40    3.80 
   3  -6   3   -5.30    2.90 
  -4   6  -3   11.10    3.80 
   4  -6   3   15.00    5.90 
   4  -6   3   18.30    5.70 
   5  -6   3   15.10    6.10 
   8   5  -3   10.60    4.10 
   8   5  -3    3.90    4.20 
   8   5  -3   -4.60    4.40 
   7   5  -3   15.40    5.50 
   7   5  -3   15.20    4.30 
   7   5  -3    9.20    5.50 
  -7  -5   3   12.60    3.70 
   6   5  -3   51.89    9.80 
   6   5  -3   51.09    9.90 
  -6  -5   3   45.10    6.10 
   5   5  -3   25.70    5.10 
   5   5  -3   35.10    7.90 
  -5  -5   3   31.00    5.20 
   4   5  -3   74.79   10.60 
   4   5  -3   93.89    9.80 
   4   5  -3  100.39   12.20 
  -4  -5   3  109.29   15.00 
  -4  -5   3  107.59   14.80 
   3   5  -3  246.58   20.90 
   3   5  -3  229.18   19.70 
   3   5  -3  238.68   21.50 
  -3  -5   3  230.38   19.60 
  -3  -5   3  267.97   22.40 
  -3  -5   3  284.37   23.00 
   2   5  -3  138.09   12.60 
   2   5  -3  118.89   11.90 
   2   5  -3  145.99   13.70 
  -2  -5   3  133.79   14.20 
  -2  -5   3  147.29   13.80 
  -2  -5   3  126.29   12.10 
   1   5  -3  108.39   10.50 
   1   5  -3  107.59   10.20 
   1   5  -3  115.09   11.80 
  -1  -5   3  112.29   11.70 
  -1  -5   3  117.49   11.00 
  -1  -5   3  110.89   12.70 
   0   5  -3   11.30    3.80 
   0   5  -3   10.20    3.40 
   0  -5   3    4.80    4.50 
   0  -5   3   19.90    4.20 
   0  -5   3   11.50    2.20 
   0  -5   3   12.40    4.00 
  -1   5  -3   14.30    3.80 
  -1   5  -3   28.10    4.80 
   1  -5   3   32.90    5.60 
   1  -5   3   21.10    3.00 
   1  -5   3   20.60    5.60 
  -2   5  -3   85.49    9.30 
  -2   5  -3  105.19    9.60 
   2  -5   3  101.59   10.10 
   2  -5   3   71.89    7.80 
   2  -5   3   80.69    7.30 
   2  -5   3   76.69   10.60 
  -3   5  -3   36.50    6.60 
  -3   5  -3   36.10    6.00 
   3  -5   3   52.99    7.90 
   3  -5   3   47.30    4.90 
   3  -5   3   37.40    4.60 
   3  -5   3   42.20    8.60 
  -4   5  -3    6.60    2.30 
   4  -5   3    7.50    4.90 
   4  -5   3    1.30    5.00 
  -5   5  -3    2.10    2.50 
   5  -5   3   -0.90    4.70 
   5  -5   3    6.40    5.40 
   6  -5   3    3.40    5.00 
   8   4  -3    5.60    5.50 
   8   4  -3   -2.10    4.70 
   8   4  -3    3.40    3.40 
   7   4  -3    9.90    5.30 
   7   4  -3    7.30    4.90 
   7   4  -3   16.50    4.10 
  -7  -4   3   13.60    3.30 
   6   4  -3   23.50    6.70 
   6   4  -3   25.70    6.60 
   6   4  -3   23.00    4.70 
  -6  -4   3   31.50    4.70 
   5   4  -3   43.80    8.60 
   5   4  -3   36.30   11.50 
   5   4  -3   52.69    6.10 
  -5  -4   3   42.90    5.60 
   4   4  -3  250.17   21.20 
   4   4  -3  262.67   21.30 
  -4  -4   3  234.78   20.90 
  -4  -4   3  214.78   18.30 
  -4  -4   3  237.38   21.60 
   3   4  -3  271.47   23.20 
   3   4  -3  248.78   21.70 
   3   4  -3  319.87   24.10 
  -3  -4   3  303.87   24.20 
  -3  -4   3  300.67   24.40 
   2   4  -3   79.49    8.30 
   2   4  -3   82.69    9.10 
   2   4  -3   72.79    7.50 
  -2  -4   3   64.99    7.60 
  -2  -4   3   81.49    9.50 
  -2  -4   3   79.49    9.30 
   1   4  -3  106.39   10.40 
   1   4  -3   94.79    9.20 
   1   4  -3   97.89    9.40 
  -1  -4   3  111.59    9.80 
  -1  -4   3  110.19   10.50 
  -1  -4   3  103.49   11.20 
   0   4  -3    5.00    2.30 
   0   4  -3    8.80    2.50 
   0  -4   3    6.30    1.60 
   0  -4   3   11.60    3.00 
  -1   4  -3   68.29    7.00 
  -1   4  -3   69.89    7.40 
   1  -4   3   66.99    7.60 
   1  -4   3   59.09    6.50 
   1  -4   3   58.89    5.50 
   1  -4   3   61.19    8.00 
  -2   4  -3  169.68   12.90 
  -2   4  -3  148.79   12.90 
   2  -4   3  151.18   13.30 
   2  -4   3  140.49   11.10 
   2  -4   3  131.19   11.20 
   2  -4   3  116.99   13.60 
  -3   4  -3    5.00    3.00 
  -3   4  -3    3.70    2.30 
   3  -4   3    5.40    3.30 
   3  -4   3    5.00    2.50 
   3  -4   3   -0.10    3.10 
   3  -4   3    8.10    2.00 
  -4   4  -3   34.20    5.70 
  -4   4  -3   24.00    2.60 
  -4   4  -3   22.30    4.70 
   4  -4   3   21.90    4.20 
   4  -4   3   17.60    5.00 
  -5   4  -3   28.80    5.20 
  -5   4  -3   26.00    2.80 
   5  -4   3   26.60    4.50 
   5  -4   3   14.60    5.60 
  -6   4  -3    0.30    2.20 
   6  -4   3    1.20    1.90 
   6  -4   3   -2.30    2.60 
   6  -4   3   -3.30    4.50 
   7  -4   3    4.50    7.00 
   7  -4   3    3.00    3.10 
   8   3  -3   10.50    5.90 
   8   3  -3    8.10    5.50 
   8   3  -3   11.60    3.10 
  -8  -3   3    7.00    4.00 
   7   3  -3   -1.30    4.40 
   7   3  -3    3.00    4.50 
  -7  -3   3    5.50    2.20 
   6   3  -3   17.60    6.00 
   6   3  -3   13.60    3.40 
   6   3  -3    3.60    4.70 
  -6  -3   3   13.80    4.20 
   5   3  -3   16.30    3.60 
   5   3  -3   17.60    5.00 
   5   3  -3   19.30    5.30 
  -5  -3   3   12.00    4.80 
  -5  -3   3   19.90    3.50 
   4   3  -3   98.59   11.10 
   4   3  -3   95.69    8.90 
   4   3  -3  106.69   11.20 
  -4  -3   3  107.09   14.90 
  -4  -3   3   96.49   14.10 
  -4  -3   3   92.99    8.60 
   3   3  -3   87.09    9.90 
   3   3  -3   89.59    9.80 
   3   3  -3   84.09    8.30 
  -3  -3   3   99.09   10.10 
  -3  -3   3  104.59   10.80 
  -3  -3   3   88.09    8.00 
   2   3  -3  105.19    9.60 
   2   3  -3   90.99    9.00 
   2   3  -3   83.69    7.90 
  -2  -3   3   80.99    8.10 
  -2  -3   3   91.19    9.80 
  -2  -3   3  103.49    9.90 
   1   3  -3   94.79   11.40 
   1   3  -3  101.29    8.70 
   1   3  -3   96.89   10.80 
  -1  -3   3  109.19    9.80 
  -1  -3   3  100.69    8.90 
  -1  -3   3  101.79   10.00 
   0   3  -3   48.60    5.20 
   0  -3   3   43.80    4.40 
   0  -3   3   46.70    5.60 
   0  -3   3   52.79    5.50 
   0  -3   3   56.19    6.90 
  -1   3  -3  110.79    9.30 
  -1   3  -3  108.29    9.60 
   1  -3   3   90.29    8.00 
   1  -3   3  102.79    8.80 
   1  -3   3  111.39    9.60 
   1  -3   3  109.29   10.10 
  -2   3  -3  133.59   12.10 
  -2   3  -3  157.18   12.20 
   2  -3   3  159.78   12.80 
   2  -3   3  141.39   11.10 
   2  -3   3  125.99   10.80 
  -3   3  -3   11.40    3.00 
  -3   3  -3   13.30    3.30 
  -3   3  -3   17.60    2.20 
   3  -3   3   11.20    3.10 
   3  -3   3   13.10    3.80 
   3  -3   3   10.30    3.70 
  -4   3  -3   18.00    2.70 
  -4   3  -3   21.60    4.60 
  -4   3  -3   14.40    3.80 
   4  -3   3   18.80    4.20 
   4  -3   3   18.00    4.50 
   4  -3   3   22.10    5.10 
  -5   3  -3    3.60    1.50 
  -5   3  -3   -0.30    1.30 
   5  -3   3    6.40    2.90 
   5  -3   3    1.90    2.30 
   5  -3   3    2.40    3.60 
  -6   3  -3    6.10    1.90 
  -6   3  -3    4.20    2.70 
   6  -3   3    4.00    2.40 
   6  -3   3    9.70    3.30 
   6  -3   3    0.30    4.00 
  -7   3  -3   -1.70    1.90 
  -7   3  -3    4.50    1.70 
   7  -3   3    0.00    2.80 
   7  -3   3    1.20    2.80 
   7  -3   3    0.20    3.80 
   8   2  -3    2.10    1.80 
   8   2  -3    1.10    4.40 
   8   2  -3   -7.00    3.80 
   7   2  -3   21.10    3.60 
   7   2  -3   11.00    5.40 
   7   2  -3   13.00    5.10 
   6   2  -3    1.30    3.80 
   6   2  -3    8.50    4.00 
   6   2  -3    2.50    1.90 
  -6  -2   3    2.60    1.70 
   5   2  -3   56.39    8.70 
   5   2  -3   49.20    8.30 
   5   2  -3   49.80    5.50 
  -5  -2   3   52.59    9.00 
  -5  -2   3   56.29    5.40 
   4   2  -3   57.79    8.20 
   4   2  -3   62.29    8.10 
   4   2  -3   68.79    6.20 
  -4  -2   3   58.09    7.10 
  -4  -2   3   60.49    5.70 
  -4  -2   3   51.99    8.50 
   3   2  -3  173.78   13.30 
   3   2  -3  189.48   14.80 
   3   2  -3  180.88   15.20 
  -3  -2   3  156.58   15.20 
  -3  -2   3  177.38   14.40 
  -3  -2   3  157.18   12.90 
   2   2  -3  171.08   13.20 
   2   2  -3  135.59   11.60 
   2   2  -3  163.08   13.00 
  -2  -2   3  138.09   11.50 
  -2  -2   3  169.38   13.50 
  -2  -2   3  153.28   12.80 
   1   2  -3   13.80    2.90 
   1   2  -3   17.40    3.20 
  -1  -2   3   22.70    4.00 
  -1  -2   3   19.30    2.90 
   0   2  -3    8.40    2.00 
   0   2  -3    6.80    1.80 
   0  -2   3    7.10    2.10 
   0  -2   3    7.70    1.60 
   0  -2   3    8.10    2.20 
   0  -2   3    6.10    1.90 
  -1   2  -3   10.00    2.20 
   1  -2   3   11.30    1.90 
   1  -2   3   10.20    2.10 
   1  -2   3   12.40    2.90 
   1  -2   3    8.70    2.50 
  -2   2  -3   87.29    7.70 
  -2   2  -3   79.79    7.50 
  -2   2  -3   72.19    6.30 
   2  -2   3   73.09    6.70 
   2  -2   3   84.89    7.90 
   2  -2   3   88.19    8.00 
  -3   2  -3  130.39   11.60 
  -3   2  -3  125.19   11.40 
  -3   2  -3  139.69   10.60 
   3  -2   3  141.69   11.40 
   3  -2   3  152.78   12.50 
   3  -2   3  140.69   12.00 
  -4   2  -3   36.10    5.00 
  -4   2  -3   37.70    5.70 
   4  -2   3   41.80    6.70 
   4  -2   3   37.20    6.10 
   4  -2   3   36.50    5.30 
  -5   2  -3   11.90    3.00 
  -5   2  -3   11.20    2.70 
  -5   2  -3    4.90    2.90 
   5  -2   3   11.60    3.40 
   5  -2   3    2.30    3.60 
   5  -2   3   11.50    4.50 
  -6   2  -3    4.70    2.10 
  -6   2  -3    1.70    1.60 
   6  -2   3    1.30    3.30 
   6  -2   3   -0.20    3.80 
   6  -2   3    4.20    2.60 
  -7   2  -3    9.20    2.80 
  -7   2  -3    5.60    3.10 
   7  -2   3   -0.60    3.70 
   7  -2   3    5.50    3.00 
   7  -2   3    2.80    3.80 
  -8   2  -3   12.80    3.60 
   8  -2   3    4.70    4.70 
   8  -2   3   13.60    5.50 
   8  -2   3   12.10    4.50 
   8   1  -3   -2.70    4.20 
   8   1  -3   -5.50    5.00 
   7   1  -3    4.10    4.10 
   7   1  -3    8.00    5.10 
   7   1  -3    3.70    2.10 
   6   1  -3   28.50    3.90 
   6   1  -3   18.70    5.80 
   6   1  -3   41.90    8.80 
   5   1  -3   31.70    4.10 
   5   1  -3   40.30    7.80 
   5   1  -3   32.70    6.10 
  -5  -1   3   34.10    9.20 
  -5  -1   3   25.80    4.00 
   4   1  -3    8.60    3.20 
   4   1  -3    9.40    3.90 
   4   1  -3   11.80    2.30 
  -4  -1   3    9.40    4.10 
  -4  -1   3    7.90    2.30 
  -4  -1   3   12.40    2.10 
   3   1  -3   15.10    2.40 
   3   1  -3   14.30    3.60 
   3   1  -3   15.30    3.60 
  -3  -1   3    9.40    3.80 
  -3  -1   3   13.50    2.10 
  -3  -1   3   13.30    2.50 
   2   1  -3  323.77   26.10 
   2   1  -3  341.87   24.80 
   2   1  -3  378.86   25.70 
  -2  -1   3  374.36   26.70 
  -2  -1   3  371.96   25.50 
  -2  -1   3  333.87   24.50 
   1   1  -3   29.30    3.30 
   1   1  -3   23.20    2.70 
   1   1  -3   27.90    3.60 
  -1  -1   3   20.40    2.60 
  -1  -1   3   25.50    3.40 
  -1  -1   3   26.10    3.70 
   0   1  -3   52.29    4.80 
   0  -1   3   54.69    5.00 
   0  -1   3   47.60    4.30 
   0  -1   3   50.49    4.70 
   0  -1   3   49.40    4.90 
  -1   1  -3  253.97   19.50 
  -1   1  -3  294.77   20.30 
  -1   1  -3  270.87   20.10 
   1  -1   3  264.97   19.60 
   1  -1   3  303.27   20.50 
   1  -1   3  287.17   20.30 
  -2   1  -3   65.99    6.20 
  -2   1  -3   63.29    5.50 
  -2   1  -3   70.59    6.10 
   2  -1   3   66.89    6.50 
   2  -1   3   66.19    6.20 
   2  -1   3   66.29    5.80 
  -3   1  -3  359.26   26.60 
  -3   1  -3  349.57   26.30 
  -3   1  -3  375.36   25.80 
   3  -1   3  384.06   27.20 
   3  -1   3  380.96   26.40 
   3  -1   3  331.47   26.40 
  -4   1  -3   99.59    8.40 
  -4   1  -3   93.29    8.70 
  -4   1  -3   98.79    9.10 
   4  -1   3   91.89    9.80 
   4  -1   3   89.79    8.70 
   4  -1   3   88.29    9.70 
  -5   1  -3   14.80    3.40 
  -5   1  -3   14.30    3.40 
   5  -1   3   13.90    4.70 
   5  -1   3   16.20    3.60 
   5  -1   3    7.70    3.60 
  -6   1  -3    4.10    3.30 
  -6   1  -3    2.50    1.40 
  -6   1  -3    0.60    1.70 
   6  -1   3   -0.20    3.10 
   6  -1   3    3.20    2.90 
   6  -1   3    2.30    1.60 
  -7   1  -3    3.60    2.30 
  -7   1  -3    2.30    2.10 
   7  -1   3   -5.90    3.50 
   7  -1   3    3.30    1.80 
   7  -1   3    8.20    4.20 
  -8   1  -3    8.50    3.00 
   8  -1   3    0.30    4.60 
   8  -1   3    9.20    3.50 
   8  -1   3    7.30    5.00 
   8   0  -3    3.50    4.60 
   8   0  -3   12.10    5.20 
   8   0  -3    3.00    2.00 
   7   0  -3    4.40    1.70 
   7   0  -3    2.30    3.70 
   7   0  -3    4.20    3.90 
   6   0  -3   11.40    5.50 
   6   0  -3   16.00    4.50 
   6   0  -3   15.80    3.10 
  -6   0   3   11.00    4.90 
   5   0  -3   10.20    3.70 
   5   0  -3   -3.30    2.50 
   5   0  -3    1.40    1.20 
  -5   0   3    0.70    3.20 
   4   0  -3    9.80    1.90 
   4   0  -3    7.20    3.30 
   4   0  -3   11.70    3.10 
  -4   0   3   12.50    4.50 
   3   0  -3   52.59    4.50 
   3   0  -3   54.09    6.40 
   3   0  -3   53.29    5.40 
  -3   0   3   51.79    6.70 
   2   0  -3  104.69    9.20 
  -2   0   3  108.99    9.70 
   1   0  -3   85.69    6.30 
   1   0  -3   83.49    6.60 
   1   0  -3   90.09    7.40 
  -1   0   3   88.79    7.60 
   0   0  -3  399.36   28.30 
   0   0  -3  413.86   28.30 
   0   0  -3  401.66   28.20 
   0   0   3  393.56   28.30 
   0   0   3  449.76   28.90 
   0   0   3  392.56   28.30 
   0   0   3  415.46   28.30 
  -1   0  -3   75.19    6.70 
  -1   0  -3   84.59    6.40 
  -1   0  -3   80.59    6.30 
   1   0   3   79.99    6.40 
   1   0   3   81.39    6.40 
   1   0   3   76.69    6.70 
  -2   0  -3  121.59    9.80 
  -2   0  -3  124.19   10.40 
  -2   0  -3  140.79   10.20 
   2   0   3  130.79   10.60 
   2   0   3  142.29   10.20 
   2   0   3  120.19   10.00 
  -3   0  -3  148.89   12.00 
  -3   0  -3  151.38   11.50 
  -3   0  -3  142.79   11.30 
   3   0   3  138.09   11.90 
   3   0   3  155.58   11.60 
   3   0   3  130.59   12.10 
  -4   0  -3   31.20    4.80 
  -4   0  -3   28.30    5.10 
  -4   0  -3   34.10    4.40 
   4   0   3   31.80    6.10 
   4   0   3   37.10    4.30 
   4   0   3   33.70    5.20 
  -5   0  -3   71.19    7.20 
  -5   0  -3   67.79    7.90 
  -5   0  -3   80.09    8.10 
   5   0   3   75.49    9.50 
   5   0   3   70.19    8.90 
   5   0   3   59.89    6.90 
  -6   0  -3   13.40    3.90 
  -6   0  -3   12.70    3.80 
  -6   0  -3   14.80    3.30 
   6   0   3   11.90    4.90 
   6   0   3   17.70    3.90 
   6   0   3   16.50    5.10 
  -7   0  -3    3.00    2.70 
  -7   0  -3    0.60    2.10 
   7   0   3    1.30    1.50 
   7   0   3    3.70    5.30 
   7   0   3   -0.30    3.10 
  -8   0  -3   17.10    4.00 
   8   0   3    6.70    5.50 
   8   0   3   22.30    5.20 
   8   0   3   26.40    7.20 
   9   0   3   12.20    6.50 
   9   0   3    7.70    6.10 
   8  -1  -3   12.60    3.40 
   8  -1  -3   12.10    5.60 
   8  -1  -3   -5.30    4.60 
   7  -1  -3    9.90    4.30 
   7  -1  -3   16.90    3.30 
   7  -1  -3   16.30    6.60 
   6  -1  -3    7.10    2.30 
   6  -1  -3    9.70    3.90 
   6  -1  -3    3.20    3.30 
  -6   1   3    4.30    4.30 
   5  -1  -3  100.29    8.80 
   5  -1  -3   99.29   10.30 
   5  -1  -3  121.49   11.80 
  -5   1   3  117.79   12.00 
   4  -1  -3   52.19    6.60 
   4  -1  -3   28.50    4.80 
   4  -1  -3   35.40    3.70 
   3  -1  -3   62.49    6.10 
   3  -1  -3   70.29    5.40 
   3  -1  -3   70.39    7.10 
  -3   1   3   66.49    7.60 
   2  -1  -3   64.39    5.80 
  -2   1   3   46.20    5.70 
  -1   1   3   35.90    3.20 
  -1   1   3   33.80    3.80 
   0  -1  -3  423.56   31.00 
   0  -1  -3  477.05   31.00 
   0  -1  -3  466.05   30.70 
   0   1   3  434.16   31.00 
  -1  -1  -3  111.69    8.30 
  -1  -1  -3  104.39    8.40 
   1   1   3  108.19    8.80 
   1   1   3  115.19    8.60 
   1   1   3  116.49    8.30 
  -2  -1  -3  655.83   46.60 
  -2  -1  -3  657.43   46.10 
  -2  -1  -3  640.54   46.10 
   2   1   3  690.43   46.40 
   2   1   3  730.53   46.20 
   2   1   3  637.54   46.70 
  -3  -1  -3   55.69    5.20 
   3   1   3   49.00    5.00 
  -4  -1  -3  515.25   36.60 
  -4  -1  -3  502.75   36.30 
   4   1   3  486.75   36.10 
   4   1   3  519.75   37.40 
   4   1   3  524.65   37.60 
  -5  -1  -3  194.98   16.30 
  -5  -1  -3  179.98   15.30 
  -5  -1  -3  183.58   16.00 
   5   1   3  197.58   17.40 
   5   1   3  204.08   17.00 
   5   1   3  189.28   15.20 
  -6  -1  -3   35.30    6.80 
  -6  -1  -3   52.79    8.40 
  -6  -1  -3   56.79    6.40 
   6   1   3   48.70    8.80 
   6   1   3   44.50    8.10 
   6   1   3   44.60    5.70 
  -7  -1  -3    0.80    2.60 
  -7  -1  -3    1.40    1.90 
   7   1   3    4.60    2.20 
   7   1   3    0.00    3.40 
   7   1   3   -0.60    3.90 
   8   1   3    7.00    4.60 
   8   1   3    6.30    5.20 
   8   1   3    8.60    3.00 
  -9  -1  -3    8.50    3.40 
   9   1   3    7.50    3.40 
   9   1   3   10.20    5.90 
   9   1   3   21.00    7.10 
   7  -2  -3   27.80    6.30 
   7  -2  -3   30.20    4.90 
  -7   2   3   27.10    6.30 
   6  -2  -3   54.99    8.60 
   6  -2  -3   69.99    7.40 
  -6   2   3   59.29    9.00 
   5  -2  -3   34.30    6.50 
   5  -2  -3   53.29    6.80 
   5  -2  -3   41.60    4.90 
  -5   2   3   53.49    7.70 
   4  -2  -3   34.30    5.50 
   4  -2  -3   32.70    4.90 
   4  -2  -3   31.40    3.90 
  -4   2   3   33.10    6.30 
   3  -2  -3   72.99    6.20 
   3  -2  -3   83.39    7.20 
   3  -2  -3   72.19    6.50 
  -3   2   3   69.39    7.70 
   2  -2  -3  338.27   22.20 
   2  -2  -3  321.07   21.50 
   2  -2  -3  301.27   21.60 
  -2   2   3  266.67   22.40 
  -1   2   3   62.79    5.30 
  -1   2   3   76.79    6.00 
   0  -2  -3  251.67   19.20 
   0  -2  -3  283.57   18.60 
   0  -2  -3  271.67   18.60 
   0   2   3  249.48   18.70 
   0   2   3  265.47   18.50 
   0   2   3  280.77   18.80 
  -1  -2  -3  242.98   17.00 
  -1  -2  -3  219.48   16.80 
   1   2   3  244.28   16.90 
   1   2   3  245.88   17.10 
  -2  -2  -3   55.89    5.60 
  -2  -2  -3   46.10    5.00 
  -2  -2  -3   52.59    4.60 
   2   2   3   49.70    4.50 
   2   2   3   45.00    5.30 
   2   2   3   40.40    5.30 
  -3  -2  -3    8.20    1.90 
  -3  -2  -3    8.40    2.60 
   3   2   3    1.60    2.50 
   3   2   3    5.00    2.50 
   3   2   3    6.30    1.90 
  -4  -2  -3   51.99    6.50 
  -4  -2  -3   45.50    5.40 
  -4  -2  -3   51.09    6.50 
   4   2   3   48.60    5.20 
   4   2   3   56.09    7.00 
   4   2   3   50.79    7.20 
  -5  -2  -3   49.50    7.30 
  -5  -2  -3   53.79    6.00 
   5   2   3   60.39    8.80 
   5   2   3   51.79    7.80 
   5   2   3   47.90    5.70 
  -6  -2  -3  176.18   15.00 
  -6  -2  -3  182.78   16.50 
  -6  -2  -3  180.58   16.50 
   6   2   3  179.48   17.40 
   6   2   3  192.58   18.10 
   6   2   3  170.58   14.70 
  -7  -2  -3   60.89    7.20 
  -7  -2  -3   50.99    9.10 
   7   2   3   68.29   10.30 
   7   2   3   57.99    7.10 
   7   2   3   82.89   11.30 
  -8  -2  -3    6.10    2.40 
   8   2   3    5.00    5.00 
   8   2   3    5.60    3.00 
   8   2   3    9.70    5.70 
  -9  -2  -3    6.40    2.90 
   9   2   3    6.90    5.40 
   9   2   3    5.70    3.20 
   9   2   3   11.80    6.60 
   7  -3  -3    7.30    3.50 
   7  -3  -3    7.30    2.70 
   7  -3  -3    0.60    3.10 
   6  -3  -3   10.10    3.00 
   6  -3  -3    7.70    2.70 
  -6   3   3    6.20    3.20 
   5  -3  -3   14.00    3.30 
   5  -3  -3   13.60    3.40 
  -5   3   3   11.40    3.70 
   4  -3  -3    1.80    1.60 
   4  -3  -3    2.70    1.60 
   4  -3  -3   -2.40    2.20 
   3  -3  -3   48.60    5.30 
  -3   3   3   43.30    5.90 
   2  -3  -3  152.18   12.20 
   2  -3  -3  169.88   12.00 
  -2   3   3  153.18   12.30 
  -2   3   3  153.28   11.30 
   1  -3  -3  352.06   25.80 
   1  -3  -3  356.86   25.20 
  -1   3   3  345.27   25.20 
  -1   3   3  381.16   25.10 
  -1   3   3  357.66   24.80 
  -1   3   3  362.96   25.10 
   0  -3  -3  699.03   46.80 
   0  -3  -3  690.23   46.30 
   0  -3  -3  621.44   47.40 
   0   3   3  659.93   46.90 
   0   3   3  721.83   46.50 
  -1  -3  -3  318.87   24.80 
  -1  -3  -3  391.26   24.70 
   1   3   3  342.77   24.80 
   1   3   3  304.57   25.50 
   1   3   3  398.06   25.10 
  -2  -3  -3   12.30    2.60 
  -2  -3  -3   14.30    2.40 
  -2  -3  -3   12.20    3.20 
   2   3   3   16.70    2.60 
   2   3   3   16.80    3.50 
   2   3   3   13.20    3.00 
  -3  -3  -3   60.19    5.60 
  -3  -3  -3   50.29    6.30 
  -3  -3  -3   46.30    6.50 
   3   3   3   46.30    6.70 
   3   3   3   53.59    6.90 
   3   3   3   63.09    5.70 
  -4  -3  -3  189.08   15.00 
  -4  -3  -3  197.38   16.50 
   4   3   3  188.58   16.30 
   4   3   3  194.38   16.70 
   4   3   3  180.78   14.90 
  -5  -3  -3   15.20    4.70 
  -5  -3  -3   20.30    3.90 
  -5  -3  -3   17.10    5.00 
   5   3   3   19.90    3.90 
   5   3   3   21.10    5.30 
   5   3   3   13.20    4.60 
  -6  -3  -3  105.19   12.00 
  -6  -3  -3  107.99   10.30 
  -6  -3  -3  106.79   12.30 
   6   3   3   95.99   12.70 
   6   3   3  116.49   13.30 
   6   3   3  102.39    9.80 
  -7  -3  -3   20.60    5.10 
   7   3   3   21.70    4.30 
   7   3   3   23.10    7.30 
   7   3   3   11.60    5.70 
  -8  -3  -3   21.40    5.10 
   8   3   3   32.60    9.10 
   8   3   3   29.50    5.10 
   8   3   3   19.60    7.40 
  -9  -3  -3   10.00    5.10 
   9   3   3    8.30    3.10 
   9   3   3    7.30    5.80 
   6  -4  -3    1.70    3.20 
  -6   4   3   -1.00    2.00 
  -5   4   3   35.80    3.30 
  -5   4   3   26.20    4.60 
   4  -4  -3   56.19    6.90 
   4  -4  -3   44.40    6.70 
  -4   4   3   60.79    4.80 
  -4   4   3   64.19    6.20 
   3  -4  -3   26.80    4.80 
   3  -4  -3   19.90    4.20 
  -3   4   3   17.50    3.10 
  -3   4   3   27.90    4.00 
  -3   4   3   27.60    2.50 
  -3   4   3   23.60    3.50 
   2  -4  -3   43.30    4.50 
   2  -4  -3   38.40    5.10 
  -2   4   3   29.60    3.60 
  -2   4   3   25.90    3.80 
  -2   4   3   34.30    3.90 
   1  -4  -3   23.30    3.30 
   1  -4  -3   22.40    4.10 
  -1   4   3   22.00    2.60 
  -1   4   3   22.50    2.70 
  -1   4   3   24.30    3.10 
  -1   4   3   24.10    3.30 
   0  -4  -3   73.49    7.60 
   0  -4  -3   87.19    6.90 
   0  -4  -3   68.99    5.70 
   0   4   3   70.79    7.00 
   0   4   3   81.89    6.60 
   0   4   3   76.19    6.60 
  -1  -4  -3   71.59    9.20 
  -1  -4  -3   88.09    7.00 
  -1  -4  -3   91.29    7.60 
   1   4   3   93.09    7.60 
   1   4   3   71.09    8.40 
   1   4   3   83.79    7.70 
  -2  -4  -3   50.49    5.50 
  -2  -4  -3   49.80    5.10 
  -2  -4  -3   46.60    6.60 
   2   4   3   41.10    6.30 
   2   4   3   37.90    5.60 
   2   4   3   50.99    6.10 
  -3  -4  -3  182.98   14.80 
  -3  -4  -3  164.58   13.80 
  -3  -4  -3  180.28   15.80 
   3   4   3  189.98   16.00 
   3   4   3  156.38   16.00 
   3   4   3  179.48   14.20 
  -4  -4  -3  328.77   23.40 
  -4  -4  -3  312.17   24.90 
  -4  -4  -3  250.97   23.50 
   4   4   3  320.67   25.20 
   4   4   3  319.27   23.30 
  -5  -4  -3   91.49    8.30 
  -5  -4  -3   77.09    9.90 
  -5  -4  -3   67.89    9.60 
   5   4   3   72.69   10.30 
   5   4   3   75.19    8.20 
   5   4   3   62.79   10.10 
  -6  -4  -3   44.40    8.50 
  -6  -4  -3   47.30    8.20 
  -6  -4  -3   46.60    6.50 
   6   4   3   46.30    9.20 
   6   4   3   58.29   10.70 
   6   4   3   48.00    6.80 
  -7  -4  -3   30.70    6.90 
  -7  -4  -3   30.10    5.30 
   7   4   3   36.70    8.30 
   7   4   3   33.20    8.40 
   7   4   3   30.30    5.60 
  -8  -4  -3    0.70    1.90 
   8   4   3   -3.10    4.50 
   8   4   3    0.00    2.00 
   8   4   3   -1.10    4.50 
  -9  -4  -3   11.70    3.60 
   9   4   3    9.30    6.30 
   9   4   3    8.80    5.60 
   6  -5  -3   11.90    3.70 
   6  -5  -3   -1.40    3.60 
   5  -5  -3   -4.70    3.20 
   5  -5  -3    3.70    2.90 
   4  -5  -3   23.30    5.00 
   4  -5  -3   18.40    4.60 
  -4   5   3   19.90    3.60 
   3  -5  -3   92.39   10.60 
   3  -5  -3   96.39   10.20 
  -3   5   3  122.09    9.40 
   2  -5  -3  141.79   14.10 
   2  -5  -3  169.58   13.40 
  -2   5   3  155.38   12.70 
  -2   5   3  170.28   12.90 
   1  -5  -3   31.90    5.70 
   1  -5  -3   35.70    4.70 
  -1   5   3   31.50    4.50 
  -1   5   3   29.70    4.50 
   0  -5  -3   28.30    4.00 
   0  -5  -3   21.30    2.20 
   0   5   3   28.60    4.40 
   0   5   3   22.20    3.90 
   0   5   3   21.50    3.60 
  -1  -5  -3   34.60    6.50 
  -1  -5  -3   27.40    4.30 
  -1  -5  -3   28.50    3.70 
   1   5   3   32.80    4.30 
   1   5   3   24.70    4.40 
   1   5   3   24.20    4.90 
  -2  -5  -3   89.39    9.70 
  -2  -5  -3   74.89    9.80 
  -2  -5  -3   88.19    8.20 
   2   5   3   92.09    8.50 
   2   5   3   84.99    9.40 
   2   5   3   91.69    9.10 
  -3  -5  -3  103.49   10.40 
  -3  -5  -3  103.69   11.50 
  -3  -5  -3  103.79    9.40 
   3   5   3   90.09   10.30 
   3   5   3   80.09   10.50 
   3   5   3  110.69    9.70 
  -4  -5  -3   46.00   10.60 
  -4  -5  -3   61.59    8.80 
  -4  -5  -3   75.29    7.50 
   4   5   3   64.69    9.00 
   4   5   3   61.29    9.30 
   4   5   3   75.59    7.70 
  -5  -5  -3   50.69    8.50 
  -5  -5  -3   44.20    6.10 
   5   5   3   35.90    8.10 
   5   5   3   49.80    9.90 
   5   5   3   35.80    5.80 
  -6  -5  -3   32.90    7.70 
  -6  -5  -3   45.80    8.20 
  -6  -5  -3   51.09    6.80 
   6   5   3   46.90    9.00 
   6   5   3   38.30    8.90 
   6   5   3   44.70    9.50 
  -7  -5  -3   33.90    6.10 
  -7  -5  -3   28.40    7.70 
   7   5   3   26.30    7.20 
   7   5   3   32.70    9.00 
   7   5   3   28.10    8.00 
  -8  -5  -3   33.10    6.30 
   8   5   3   45.00    9.40 
   8   5   3   18.20    8.40 
   8   5   3   30.10    9.70 
  -9  -5  -3   17.60    4.50 
   9   5   3   20.70    7.60 
   9   5   3    6.00    6.30 
   9   5   3   29.00    9.60 
   5  -6  -3    6.20    4.40 
   5  -6  -3    3.20    3.80 
  -5   6   3    6.70    4.00 
   4  -6  -3    6.70    3.30 
   4  -6  -3    7.90    3.70 
  -4   6   3   11.30    2.80 
   3  -6  -3    7.00    3.70 
   3  -6  -3    7.10    2.90 
  -3   6   3    8.60    2.80 
   2  -6  -3   84.99    9.00 
   2  -6  -3   81.79    9.80 
  -2   6   3   86.59    8.30 
   1  -6  -3    4.50    2.90 
   1  -6  -3    2.10    2.60 
  -1   6   3    8.00    2.70 
  -1   6   3    9.40    3.30 
   0  -6  -3  102.19    9.30 
   0   6   3   89.09   11.20 
  -1  -6  -3  100.99   12.40 
  -1  -6  -3  122.99   10.60 
  -1  -6  -3  115.79    9.30 
   1   6   3  132.49   10.90 
   1   6   3  107.89   11.30 
   1   6   3  109.09   10.30 
  -2  -6  -3   62.39    7.20 
  -2  -6  -3   60.79    7.00 
  -2  -6  -3   36.40    8.00 
   2   6   3   61.19    6.90 
   2   6   3   42.20    7.60 
   2   6   3   42.90    7.50 
  -3  -6  -3   57.49    9.70 
  -3  -6  -3   60.69    8.50 
  -3  -6  -3   65.89    7.30 
   3   6   3   77.69    7.90 
   3   6   3   48.40    8.60 
   3   6   3   50.09    8.60 
  -4  -6  -3   59.29    9.30 
  -4  -6  -3   62.79    7.70 
  -4  -6  -3   83.99   11.10 
   4   6   3   65.59    9.80 
   4   6   3   70.79    9.80 
   4   6   3   72.99    8.20 
  -5  -6  -3    8.20    4.90 
  -5  -6  -3   12.30    5.50 
  -5  -6  -3    9.80    3.30 
   5   6   3    4.30    2.90 
   5   6   3   13.30    5.80 
   5   6   3    9.90    4.60 
  -6  -6  -3   12.70    6.00 
  -6  -6  -3   16.90    4.40 
   6   6   3    9.00    5.50 
   6   6   3   18.40    4.50 
   6   6   3    8.00    9.80 
  -7  -6  -3   22.70    5.30 
   7   6   3   37.60    8.70 
   7   6   3   21.40    8.20 
  -8  -6  -3   23.50    5.10 
   8   6   3   13.40    4.80 
   8   6   3   18.90    6.80 
   8   6   3   16.40    7.40 
  -9  -6  -3   11.10    3.70 
   9   6   3    5.30    3.80 
   9   6   3    0.90    4.90 
   9   6   3    6.10    5.90 
   4  -7  -3   14.70    6.00 
  -4   7   3   17.80    4.40 
   3  -7  -3    4.00    3.60 
   3  -7  -3    2.10    2.90 
  -3   7   3    2.00    2.30 
   2  -7  -3    4.00    3.00 
   2  -7  -3    2.20    2.30 
  -2   7   3   -0.60    2.00 
   1  -7  -3    7.00    3.30 
  -1   7   3    2.00    2.20 
   0  -7  -3   31.70    5.50 
   0  -7  -3   27.30    7.10 
  -1  -7  -3  110.69   10.10 
  -1  -7  -3   91.59   12.20 
   1   7   3   85.99   10.30 
   1   7   3  108.39   10.00 
   1   7   3   95.89    9.10 
  -2  -7  -3   95.99   12.60 
  -2  -7  -3  111.59   10.30 
  -2  -7  -3   92.39    9.60 
   2   7   3   87.99   11.00 
  -3  -7  -3   55.79    9.10 
  -3  -7  -3   77.19   11.70 
  -3  -7  -3   57.79    8.30 
   3   7   3   69.79    9.70 
   3   7   3   77.29   10.30 
   3   7   3   86.59    9.10 
  -4  -7  -3   30.20    7.60 
  -4  -7  -3   28.60    5.50 
  -4  -7  -3   39.90    7.60 
   4   7   3   37.50    6.50 
   4   7   3   25.40    6.90 
   4   7   3   22.80    6.40 
  -5  -7  -3    0.40    3.30 
  -5  -7  -3    1.40    4.80 
  -5  -7  -3    1.10    2.00 
   5   7   3   -1.40    4.10 
   5   7   3   -3.10    3.70 
   5   7   3    6.30    3.30 
  -6  -7  -3   19.60    4.90 
  -6  -7  -3    9.00    6.30 
   6   7   3   22.80    5.70 
   6   7   3   15.10    5.80 
   6   7   3   17.50    6.10 
  -7  -7  -3    2.10    3.00 
   7   7   3   -1.70    4.30 
   7   7   3    6.40    3.50 
   7   7   3   -0.80    5.30 
  -8  -7  -3    2.50    3.20 
   8   7   3   -0.70    5.20 
   8   7   3   12.90    5.20 
   8   7   3    1.30    3.60 
   9   7   3    5.80    7.30 
   9   7   3    3.70    5.40 
   3  -8  -3   -4.40    3.10 
   3  -8  -3   -3.00    5.10 
   2  -8  -3    5.90    5.00 
   2  -8  -3    1.70    3.50 
  -2   8   3   12.70    3.20 
   1  -8  -3    3.60    4.80 
   1  -8  -3   18.60    4.90 
  -1   8   3    8.80    3.00 
   0  -8  -3    4.60    5.00 
   0  -8  -3    5.00    3.60 
   0   8   3    2.60    2.50 
  -1  -8  -3   21.50    5.90 
  -1  -8  -3   16.00    4.80 
  -1  -8  -3   16.70    2.40 
   1   8   3   11.20    2.70 
   1   8   3   13.60    4.80 
  -2  -8  -3   21.80    3.90 
  -2  -8  -3   11.00    6.10 
  -2  -8  -3   18.70    4.70 
   2   8   3   24.10    5.20 
   2   8   3   21.30    5.30 
  -3  -8  -3   -1.10    4.90 
  -3  -8  -3    1.70    2.50 
  -3  -8  -3    3.50    3.00 
   3   8   3    1.00    3.10 
   3   8   3    4.80    3.40 
   3   8   3    0.30    2.80 
  -4  -8  -3   26.50    6.40 
  -4  -8  -3   21.40    5.40 
  -4  -8  -3   15.10    7.20 
   4   8   3   23.20    6.80 
   4   8   3   33.20    6.70 
  -5  -8  -3   20.00    8.00 
   5   8   3   32.80    7.90 
   5   8   3   21.20    8.60 
   5   8   3   19.00    7.10 
  -6  -8  -3   10.00    2.90 
   6   8   3    3.00    4.30 
   6   8   3    2.30    4.80 
   6   8   3    4.50    4.40 
  -7  -8  -3    7.00    3.90 
   7   8   3    5.90    6.40 
   7   8   3    7.50    4.20 
   7   8   3    6.10    5.00 
  -8  -8  -3   20.80    5.30 
   8   8   3   14.50    6.90 
   8   8   3   16.20    7.10 
   8   8   3    9.80    7.10 
   2  -9  -3    0.40    4.20 
   1  -9  -3    3.70    3.60 
   1  -9  -3   -6.10    5.60 
  -1   9   3    6.10    2.50 
   0  -9  -3    8.70    6.60 
   0  -9  -3    3.40    3.70 
   0   9   3    0.80    2.10 
  -1  -9  -3  -11.00    5.60 
  -1  -9  -3    1.60    3.40 
  -2  -9  -3   22.80    3.90 
  -2  -9  -3   36.40    6.50 
  -2  -9  -3   19.30    9.30 
   2   9   3   37.70    5.40 
   2   9   3   24.20    6.00 
  -3  -9  -3   -6.00    6.10 
  -3  -9  -3   18.70    4.90 
  -3  -9  -3   16.40    4.00 
   3   9   3   10.20    4.70 
   3   9   3    6.60    4.20 
  -4  -9  -3   22.70    7.70 
  -4  -9  -3   37.70    7.10 
  -4  -9  -3   24.20    6.30 
   4   9   3   26.90    7.10 
   4   9   3   24.10    6.20 
  -5  -9  -3   14.70    4.90 
  -5  -9  -3    8.20    7.10 
   5   9   3   15.50    6.50 
   5   9   3    4.60    5.70 
  -6  -9  -3    5.30    3.80 
   6   9   3   15.80    7.30 
   6   9   3    7.40    4.60 
  -7  -9  -3   -4.80    3.50 
   7   9   3   10.60    5.70 
   7   9   3   -3.20    5.90 
   0 -10  -3   20.20    8.10 
  -1 -10  -3    7.20    4.80 
  -1 -10  -3    0.60    8.40 
   1  10   3    9.20    3.50 
  -2 -10  -3    9.30    7.80 
  -2 -10  -3   -0.20    3.60 
   2  10   3    1.20    3.10 
   2  10   3    3.50    4.10 
  -3 -10  -3    1.90    2.90 
  -3 -10  -3   22.90    8.60 
  -3 -10  -3    1.40    2.50 
   3  10   3   -1.80    3.10 
  -4 -10  -3   21.00    9.70 
  -4 -10  -3   20.40    5.70 
   4  10   3   12.20    5.10 
   4  10   3    9.70    4.80 
   5  10   3    5.60    4.40 
   5  10   3   18.70    6.10 
  -6 -10  -3    3.60    4.00 
   6  10   3    5.70    5.50 
   6  10   3   14.00    6.60 
   5   8  -4   13.80    6.00 
   5   8  -4   10.90    5.90 
   4   8  -4   13.60    6.10 
   4   8  -4   14.00    5.70 
   4   8  -4   17.20    6.50 
  -4  -8   4   27.00    6.00 
   3   8  -4   48.30    9.00 
   3   8  -4   25.40    6.90 
   3   8  -4   21.60    6.50 
  -3  -8   4   29.90    6.20 
   2   8  -4    9.60    5.60 
  -2  -8   4   21.00    5.90 
  -2  -8   4    7.90    3.10 
   1   8  -4   22.40    6.60 
   1   8  -4   21.70    6.80 
  -1  -8   4   20.80    5.90 
  -1  -8   4   23.60    6.40 
  -1  -8   4   19.10    3.60 
   0   8  -4    8.80    4.80 
   0  -8   4   10.10    5.80 
   0  -8   4   25.10    5.80 
   0  -8   4   14.20    2.90 
  -1   8  -4   16.70    5.10 
   1  -8   4   15.30    4.30 
   1  -8   4    5.30    6.80 
   1  -8   4   17.10    3.00 
   6   7  -4   31.90    8.30 
   6   7  -4   27.90   10.20 
   5   7  -4   76.99   11.80 
   5   7  -4   75.39   10.30 
   5   7  -4   87.69   12.50 
   4   7  -4   38.30    6.70 
   4   7  -4   31.90    7.40 
   4   7  -4   42.80    9.80 
  -4  -7   4   37.10    7.00 
   3   7  -4    9.00    4.40 
   3   7  -4   16.40    4.60 
   3   7  -4   12.30    4.50 
  -3  -7   4   16.90    4.70 
   2   7  -4   18.10    5.20 
   2   7  -4   16.10    5.10 
  -2  -7   4   23.90    4.40 
  -2  -7   4   27.00    6.00 
   1   7  -4   17.90    5.00 
   1   7  -4    5.50    4.00 
  -1  -7   4   11.70    6.00 
  -1  -7   4   11.10    2.70 
  -1  -7   4    6.90    4.80 
   0   7  -4   22.70    6.10 
   0  -7   4   21.30    7.10 
   0  -7   4   19.20    3.40 
   0  -7   4   21.80    5.30 
   0  -7   4   19.40    5.60 
  -1   7  -4   20.10    4.80 
  -1   7  -4   11.20    8.00 
   1  -7   4   30.20    8.10 
   1  -7   4   33.60    5.60 
   1  -7   4   23.40    3.60 
   1  -7   4   24.50    6.60 
  -2   7  -4    2.70    2.40 
   2  -7   4    2.00    1.40 
   2  -7   4   -4.60    5.10 
   2  -7   4    3.50    3.80 
  -3   7  -4   13.20    3.50 
   3  -7   4  -11.60    7.60 
   3  -7   4   11.70    5.90 
   7   6  -4    6.30    5.40 
   7   6  -4    4.50    4.70 
   6   6  -4    7.70    5.70 
   6   6  -4    4.80    3.30 
   6   6  -4    7.40    4.60 
  -6  -6   4    1.40    2.90 
   5   6  -4   14.00    3.80 
   5   6  -4   11.00    5.40 
   5   6  -4   15.20    6.70 
  -5  -6   4   12.70    3.50 
   4   6  -4   11.80    4.60 
   4   6  -4    6.00    3.60 
   4   6  -4    6.00    3.90 
  -4  -6   4    6.60    3.80 
   3   6  -4   29.10    7.30 
   3   6  -4   32.10    6.40 
  -3  -6   4   35.30    6.30 
   2   6  -4  232.68   20.30 
   2   6  -4  216.78   18.70 
   2   6  -4  206.78   18.70 
  -2  -6   4  207.28   20.10 
  -2  -6   4  227.98   19.10 
   1   6  -4  228.08   18.40 
  -1  -6   4  196.78   16.30 
  -1  -6   4  171.48   18.60 
  -1  -6   4  224.68   18.60 
  -1  -6   4  233.78   20.90 
   0   6  -4    2.90    2.00 
   0   6  -4   -5.10    2.70 
   0  -6   4    0.10    2.70 
   0  -6   4    3.50    4.10 
   0  -6   4   -1.40    0.90 
   0  -6   4    3.90    7.00 
  -1   6  -4   35.10    7.20 
  -1   6  -4   45.10    6.60 
   1  -6   4   28.80    5.40 
   1  -6   4   32.30    4.10 
   1  -6   4   40.90    7.20 
   1  -6   4   30.10    7.50 
  -2   6  -4    9.70    3.30 
  -2   6  -4   18.70    4.40 
   2  -6   4    7.90    2.20 
   2  -6   4   13.10    5.10 
   2  -6   4    6.70    4.20 
   2  -6   4   13.60    3.30 
  -3   6  -4   15.10    5.00 
   3  -6   4   25.60    3.70 
   3  -6   4   18.00    5.90 
   3  -6   4   17.70    3.50 
   3  -6   4   21.20    6.20 
   4  -6   4   12.10    5.30 
   4  -6   4   16.20    5.70 
   5  -6   4   -1.20    5.00 
   7   5  -4    5.50    5.50 
   7   5  -4   -3.70    2.60 
   7   5  -4    4.90    4.40 
  -7  -5   4    0.60    2.60 
   6   5  -4   -1.90    3.60 
   6   5  -4   -1.00    1.90 
  -6  -5   4    1.20    2.30 
   5   5  -4   33.80    7.20 
   5   5  -4   33.60    7.40 
  -5  -5   4   26.50    5.00 
   4   5  -4  159.18   15.30 
   4   5  -4  147.39   13.40 
   4   5  -4  165.78   18.50 
  -4  -5   4  135.79   12.90 
   3   5  -4   53.39    8.50 
   3   5  -4   54.39    7.90 
   3   5  -4   53.19    7.20 
  -3  -5   4   67.39    9.90 
  -3  -5   4   39.70    9.40 
  -3  -5   4   45.00    6.70 
   2   5  -4    3.70    3.00 
   2   5  -4    3.60    3.30 
   2   5  -4   -0.60    2.90 
  -2  -5   4    7.40    3.90 
  -2  -5   4    1.90    2.80 
   1   5  -4  202.58   17.00 
  -1  -5   4  183.18   17.80 
  -1  -5   4  203.28   17.50 
  -1  -5   4  214.08   16.00 
  -1  -5   4  210.18   19.30 
   0   5  -4  341.77   26.50 
   0   5  -4  362.96   27.70 
   0  -5   4  317.77   26.90 
   0  -5   4  318.77   24.90 
   0  -5   4  368.66   29.10 
   0  -5   4  376.76   27.40 
  -1   5  -4  127.59   11.40 
  -1   5  -4  113.49   11.50 
   1  -5   4   99.09   10.70 
   1  -5   4  138.89   13.70 
   1  -5   4  116.39   13.30 
   1  -5   4  104.19    9.20 
  -2   5  -4   12.50    3.90 
  -2   5  -4   14.20    4.40 
   2  -5   4    3.60    3.10 
   2  -5   4   10.10    2.80 
   2  -5   4    4.40    4.00 
   2  -5   4   11.50    2.60 
  -3   5  -4    0.10    1.60 
  -3   5  -4    7.10    3.50 
   3  -5   4    4.00    3.60 
   3  -5   4    3.10    2.30 
   3  -5   4   12.50    4.30 
  -4   5  -4   21.00    4.50 
   4  -5   4    6.10    4.60 
   4  -5   4   12.00    5.20 
   4  -5   4   14.00    2.80 
  -5   5  -4    1.80    2.70 
   5  -5   4    9.00    2.00 
   5  -5   4    8.60    5.10 
   5  -5   4   17.90    5.10 
   6  -5   4    9.30    5.50 
   7   4  -4   -2.50    3.60 
   7   4  -4   -1.10    3.40 
  -7  -4   4   -0.60    2.70 
   6   4  -4    9.00    4.10 
   6   4  -4    9.10    3.70 
  -6  -4   4    7.20    2.40 
   5   4  -4   60.59    7.10 
   5   4  -4   65.69    9.70 
   5   4  -4   76.19   10.00 
  -5  -4   4   62.49    6.80 
   4   4  -4  129.49   12.90 
   4   4  -4  100.49   10.00 
   4   4  -4  110.79   12.00 
  -4  -4   4  101.99    9.70 
   3   4  -4  312.47   24.60 
   3   4  -4  321.97   24.90 
  -3  -4   4  268.17   22.50 
  -3  -4   4  318.37   25.60 
  -3  -4   4  283.57   25.40 
   2   4  -4  178.48   15.80 
   2   4  -4  161.48   14.70 
   2   4  -4  193.78   16.30 
  -2  -4   4  181.68   16.60 
  -2  -4   4  193.18   17.10 
  -2  -4   4  177.98   15.00 
   1   4  -4    3.30    2.10 
   1   4  -4    0.50    2.60 
   1   4  -4    1.50    2.00 
  -1  -4   4    3.90    2.30 
  -1  -4   4    1.70    2.40 
  -1  -4   4    2.90    2.80 
   0   4  -4   12.20    3.30 
   0   4  -4   24.60    4.70 
   0  -4   4   16.40    3.00 
   0  -4   4   18.40    4.10 
   0  -4   4   23.50    4.50 
   0  -4   4   19.90    5.20 
  -1   4  -4   -1.90    2.20 
  -1   4  -4    1.30    1.60 
   1  -4   4    2.70    2.20 
   1  -4   4   -0.70    1.70 
   1  -4   4    1.90    2.60 
   1  -4   4    1.40    1.30 
  -2   4  -4    3.90    2.70 
  -2   4  -4    4.30    2.70 
   2  -4   4    1.90    1.90 
   2  -4   4    4.60    3.10 
   2  -4   4    7.30    3.40 
   2  -4   4    4.90    2.00 
  -3   4  -4   49.00    6.40 
  -3   4  -4   51.79    6.90 
   3  -4   4   45.60    7.20 
   3  -4   4   55.79    5.90 
   3  -4   4   42.20    5.20 
   3  -4   4   36.40    7.30 
  -4   4  -4   29.30    4.90 
  -4   4  -4   25.30    5.20 
   4  -4   4   25.20    3.90 
   4  -4   4   18.90    5.50 
   4  -4   4   30.80    4.90 
  -5   4  -4    3.20    1.20 
   5  -4   4    0.40    3.60 
   5  -4   4    1.30    5.70 
  -6   4  -4   -1.20    1.10 
  -6   4  -4    1.20    1.70 
   6  -4   4   -3.90    4.60 
   6  -4   4    6.50    2.90 
   8   3  -4   -1.50    3.30 
   8   3  -4    6.70    4.70 
   8   3  -4    5.70    5.00 
   7   3  -4    7.00    4.20 
   7   3  -4    8.80    2.70 
   7   3  -4    5.30    4.50 
  -7  -3   4    2.70    3.20 
   6   3  -4   28.50    6.30 
   6   3  -4   18.90    5.30 
   6   3  -4   17.50    4.10 
  -6  -3   4   26.20    4.10 
   5   3  -4   39.70    4.90 
   5   3  -4   38.80    7.30 
   5   3  -4   27.50    6.30 
   4   3  -4    2.60    2.10 
   4   3  -4    4.00    3.20 
   4   3  -4   -0.60    3.00 
  -4  -3   4    0.90    3.20 
  -4  -3   4    0.70    1.80 
  -4  -3   4   -1.90    3.40 
   3   3  -4  164.48   13.60 
   3   3  -4  162.38   15.20 
   3   3  -4  183.78   15.50 
  -3  -3   4  196.08   15.80 
  -3  -3   4  163.48   16.00 
  -3  -3   4  152.78   13.30 
   2   3  -4  198.88   17.10 
   2   3  -4  221.38   17.50 
  -2  -3   4  208.38   18.00 
  -2  -3   4  191.28   16.00 
  -2  -3   4  222.48   18.10 
   1   3  -4  109.09   10.00 
   1   3  -4  104.49    9.50 
   1   3  -4   97.19    8.90 
  -1  -3   4  102.99   10.50 
  -1  -3   4  106.29    9.20 
  -1  -3   4   97.29   10.10 
   0   3  -4   11.10    2.90 
   0   3  -4    9.70    2.60 
   0  -3   4    7.40    3.00 
   0  -3   4   10.00    2.90 
   0  -3   4    7.90    1.80 
   0  -3   4    9.70    3.00 
  -1   3  -4   51.39    6.20 
  -1   3  -4   54.69    6.10 
   1  -3   4   56.39    5.80 
   1  -3   4   51.29    6.90 
   1  -3   4   47.10    4.90 
   1  -3   4   54.89    6.30 
  -2   3  -4  104.69    9.80 
  -2   3  -4  104.39   10.00 
   2  -3   4   95.89    8.80 
   2  -3   4  113.39   10.40 
   2  -3   4   99.49    8.50 
   2  -3   4   95.39   10.20 
  -3   3  -4  251.67   19.20 
  -3   3  -4  221.48   17.20 
  -3   3  -4  219.48   18.80 
   3  -3   4  232.48   19.90 
   3  -3   4  272.17   20.30 
   3  -3   4  232.38   18.10 
  -4   3  -4   59.39    7.20 
  -4   3  -4   62.29    5.50 
  -4   3  -4   55.99    7.70 
   4  -3   4   60.39    8.40 
   4  -3   4   54.09   13.70 
  -5   3  -4   28.10    5.00 
  -5   3  -4   35.00    3.90 
   5  -3   4   37.20    5.90 
   5  -3   4   22.20    5.80 
   5  -3   4   30.90    7.40 
  -6   3  -4   24.60    3.80 
  -6   3  -4   28.80    5.30 
   6  -3   4   31.00    7.50 
   6  -3   4   24.40    5.30 
  -7   3  -4    5.50    3.40 
   7  -3   4    3.50    4.80 
   7  -3   4    8.60    4.10 
   8   2  -4    0.30    5.40 
   8   2  -4   17.10    5.40 
   8   2  -4   11.90    3.20 
   7   2  -4    6.10    4.30 
   7   2  -4   12.90    5.30 
   7   2  -4   24.00    6.20 
   6   2  -4   16.40    3.50 
   6   2  -4   12.80    5.50 
   6   2  -4   12.80    5.10 
   5   2  -4   54.29    5.80 
   5   2  -4   60.39    8.60 
   5   2  -4   46.30    8.20 
  -5  -2   4   55.59    5.20 
   4   2  -4   20.10    4.70 
   4   2  -4   24.70    5.30 
   4   2  -4   18.70    3.60 
  -4  -2   4   19.00    4.20 
  -4  -2   4   20.50    3.20 
  -4  -2   4   11.70    5.20 
   3   2  -4  118.29   11.10 
   3   2  -4  104.79    9.20 
   3   2  -4  125.29   10.90 
  -3  -2   4  122.19   10.70 
  -3  -2   4  100.49    8.90 
  -3  -2   4  107.09   11.70 
   2   2  -4   31.80    5.00 
   2   2  -4   37.10    4.90 
   2   2  -4   35.30    4.10 
  -2  -2   4   36.50    5.40 
  -2  -2   4   35.00    4.00 
  -2  -2   4   28.00    5.40 
   1   2  -4  344.47   26.40 
   1   2  -4  382.16   26.40 
  -1  -2   4  371.56   26.70 
  -1  -2   4  343.97   25.60 
  -1  -2   4  344.67   26.90 
   0   2  -4  158.18   12.30 
   0   2  -4  160.08   12.90 
   0  -2   4  142.49   11.80 
   0  -2   4  157.58   12.80 
   0  -2   4  160.48   12.50 
   0  -2   4  163.28   13.20 
  -1   2  -4  277.47   19.20 
  -1   2  -4  247.78   19.30 
   1  -2   4  214.18   18.20 
   1  -2   4  243.18   20.20 
   1  -2   4  280.87   19.50 
   1  -2   4  260.37   19.80 
  -2   2  -4   38.30    4.90 
  -2   2  -4   39.30    4.90 
  -2   2  -4   39.10    4.20 
   2  -2   4   37.20    5.30 
   2  -2   4   39.30    5.40 
   2  -2   4   36.70    4.30 
  -3   2  -4   72.79    7.30 
  -3   2  -4   68.49    6.10 
  -3   2  -4   71.69    7.60 
   3  -2   4   72.59    7.80 
   3  -2   4   73.49    8.30 
   3  -2   4   61.19    7.00 
  -4   2  -4   65.89    6.10 
  -4   2  -4   51.89    6.70 
  -4   2  -4   65.69    7.50 
   4  -2   4   70.79    8.20 
   4  -2   4   66.09    7.60 
   4  -2   4   58.49    8.30 
  -5   2  -4   16.60    3.10 
  -5   2  -4   11.80    3.40 
  -5   2  -4   12.00    3.90 
   5  -2   4   10.10    3.20 
   5  -2   4    4.50    3.50 
   5  -2   4   15.00    4.60 
  -6   2  -4    4.60    2.50 
  -6   2  -4    5.60    2.10 
   6  -2   4    7.50    4.30 
   6  -2   4    3.90    2.30 
   6  -2   4    4.10    4.00 
  -7   2  -4   11.20    3.00 
   7  -2   4    8.60    3.50 
   7  -2   4   12.20    4.70 
   7  -2   4    1.90    4.30 
   8  -2   4    4.40    4.90 
   8  -2   4    5.40    5.00 
   8   1  -4   17.10    6.70 
   8   1  -4   12.90    3.30 
   8   1  -4    6.20    4.50 
   7   1  -4   49.60    9.00 
   7   1  -4   32.10    7.10 
   7   1  -4   49.00    5.70 
   6   1  -4   10.30    3.40 
   6   1  -4   11.70    4.50 
   6   1  -4   13.20    5.50 
   5   1  -4   14.90    4.20 
   5   1  -4   13.30    2.80 
   5   1  -4    8.00    3.90 
  -5  -1   4   16.50    5.60 
   4   1  -4   19.80    5.00 
   4   1  -4   14.90    2.70 
   4   1  -4   19.70    4.30 
  -4  -1   4   11.90    4.70 
   3   1  -4   12.60    3.70 
   3   1  -4   13.10    2.30 
   3   1  -4   11.50    3.20 
  -3  -1   4   10.60    3.90 
   2   1  -4  118.99    9.30 
   2   1  -4  124.39   10.80 
   2   1  -4  125.19   10.10 
  -2  -1   4  109.99   11.10 
  -2  -1   4  120.99    9.10 
  -2  -1   4  128.69   10.10 
   1   1  -4  427.36   29.50 
   1   1  -4  465.25   29.10 
   1   1  -4  361.96   28.00 
  -1  -1   4  371.66   29.40 
  -1  -1   4  390.26   28.10 
  -1  -1   4  396.06   28.70 
   0   1  -4  355.96   24.60 
   0  -1   4  356.06   24.40 
   0  -1   4  315.87   26.20 
   0  -1   4  327.27   24.10 
  -1   1  -4   17.50    2.80 
  -1   1  -4   17.30    3.00 
  -1   1  -4   17.30    2.30 
   1  -1   4   17.90    3.10 
   1  -1   4   18.40    2.50 
   1  -1   4   18.50    3.20 
  -2   1  -4   89.79    7.70 
  -2   1  -4  100.29    8.70 
  -2   1  -4  101.19    8.50 
   2  -1   4   95.69    8.90 
   2  -1   4   94.29    8.00 
   2  -1   4  101.79    8.70 
  -3   1  -4   77.49    7.40 
  -3   1  -4   80.39    7.60 
  -3   1  -4   74.29    6.70 
   3  -1   4   76.79    7.40 
   3  -1   4   75.99    8.20 
   3  -1   4   74.09    7.50 
  -4   1  -4   22.60    4.30 
  -4   1  -4   35.30    4.40 
  -4   1  -4   28.10    5.10 
   4  -1   4   33.50    4.90 
   4  -1   4   32.60    5.60 
   4  -1   4   22.80    5.40 
  -5   1  -4   37.10    5.00 
  -5   1  -4   27.00    4.70 
  -5   1  -4   33.40    5.80 
   5  -1   4   22.40    5.70 
   5  -1   4   35.20    5.30 
   5  -1   4   29.60    6.20 
  -6   1  -4   28.00    4.60 
  -6   1  -4   22.00    4.30 
  -6   1  -4   21.50    4.60 
   6  -1   4   14.10    4.90 
   6  -1   4   28.60    5.20 
   6  -1   4   23.20    5.90 
  -7   1  -4   22.90    4.30 
  -7   1  -4   14.10    3.50 
   7  -1   4   16.40    4.50 
   7  -1   4   22.40    6.10 
   7  -1   4   11.70    5.10 
  -8   1  -4   16.80    3.80 
   8  -1   4   13.70    5.70 
   8  -1   4    7.70    3.50 
   8  -1   4   11.60    7.00 
   8   0  -4   26.80    4.80 
   8   0  -4   24.50    7.60 
   7   0  -4   -0.40    3.50 
   7   0  -4    2.40    1.80 
   7   0  -4    2.60    4.10 
   6   0  -4   59.59    5.70 
   6   0  -4   48.50   10.20 
   6   0  -4   43.40    8.00 
   5   0  -4  147.49   12.50 
   5   0  -4  115.39   11.00 
   5   0  -4  138.69   13.50 
  -5   0   4  115.09   13.90 
   4   0  -4   22.10    3.10 
   4   0  -4   27.80    5.10 
   4   0  -4   38.10    6.00 
  -4   0   4   23.20    5.80 
   3   0  -4   55.59    6.50 
  -3   0   4   44.60    6.80 
   2   0  -4   23.60    4.40 
  -2   0   4   16.80    3.60 
   1   0  -4   46.70    4.90 
   1   0  -4   42.80    3.80 
   1   0  -4   47.00    4.10 
  -1   0   4   47.60    4.40 
   0   0  -4  615.04   44.60 
   0   0  -4  684.23   44.70 
   0   0   4  614.54   44.70 
   0   0   4  659.23   44.80 
   0   0   4  677.43   44.70 
  -1   0  -4  134.79   10.60 
  -1   0  -4  147.69   10.80 
   1   0   4  141.09   10.80 
   1   0   4  137.19   11.50 
   1   0   4  148.39   10.90 
  -2   0  -4  100.19    7.90 
  -2   0  -4   97.79    8.40 
  -2   0  -4   89.79    7.60 
   2   0   4  102.09    8.00 
   2   0   4   84.79    7.80 
   2   0   4   88.49    8.30 
  -3   0  -4  332.47   25.40 
  -3   0  -4  365.26   26.00 
  -3   0  -4  341.27   25.10 
   3   0   4  340.47   25.50 
   3   0   4  372.26   25.70 
   3   0   4  349.17   26.20 
  -4   0  -4   72.39    7.20 
  -4   0  -4   77.89    7.30 
  -4   0  -4   73.19    7.90 
   4   0   4   70.89    8.40 
   4   0   4   77.19    8.60 
   4   0   4   71.39    7.20 
  -5   0  -4  141.49   12.50 
  -5   0  -4  161.28   12.80 
  -5   0  -4  163.88   13.50 
   5   0   4  134.79   13.90 
   5   0   4  149.19   14.30 
   5   0   4  133.49   12.50 
  -6   0  -4   86.79    9.00 
  -6   0  -4   82.59    8.60 
  -6   0  -4   86.29   10.30 
   6   0   4   96.09   11.40 
   6   0   4   79.39   10.40 
   6   0   4   81.39    8.70 
  -7   0  -4    2.50    2.00 
  -7   0  -4    3.30    2.80 
   7   0   4    3.10    1.90 
   7   0   4   -2.00    3.80 
   7   0   4    4.70    4.30 
  -8   0  -4    3.10    2.70 
   8   0   4    8.80    5.50 
   8   0   4    5.10    4.80 
   8   0   4    4.70    2.90 
   9   0   4   -1.70    5.70 
   9   0   4    3.00    4.80 
   7  -1  -4   84.69   11.30 
   7  -1  -4   69.79    7.40 
   7  -1  -4   63.29   10.00 
   6  -1  -4   23.10    5.30 
   6  -1  -4   31.90    7.00 
   6  -1  -4   36.30    4.30 
  -6   1   4   36.00    7.40 
   5  -1  -4   61.59    8.20 
   5  -1  -4   55.09    5.30 
  -5   1   4   43.90    8.40 
   4  -1  -4   38.60    4.50 
   4  -1  -4   49.10    6.50 
  -4   1   4   42.80    7.50 
   3  -1  -4   52.19    6.20 
  -3   1   4   44.80    6.50 
   2  -1  -4   46.80    5.00 
  -2   1   4   39.10    5.30 
  -1   1   4  133.39   10.20 
  -1   1   4  138.89   11.10 
   0  -1  -4   45.70    3.70 
   0  -1  -4   52.69    4.20 
   0  -1  -4   45.50    4.10 
   0   1   4   40.60    4.10 
  -1  -1  -4   20.40    2.40 
   1   1   4   17.70    2.30 
   1   1   4   22.20    2.70 
  -2  -1  -4   20.30    3.30 
  -2  -1  -4   18.40    2.60 
  -2  -1  -4   16.50    2.70 
   2   1   4   20.20    2.60 
   2   1   4   19.10    3.20 
  -3  -1  -4  159.78   12.90 
  -3  -1  -4  173.08   13.10 
  -3  -1  -4  176.38   13.80 
   3   1   4  174.08   13.00 
   3   1   4  157.98   13.70 
   3   1   4  159.18   13.50 
  -4  -1  -4   26.60    4.70 
  -4  -1  -4   34.80    5.40 
   4   1   4   34.00    5.70 
   4   1   4   24.80    5.50 
   4   1   4   34.00    4.30 
  -5  -1  -4   83.99    8.60 
  -5  -1  -4   96.79    9.80 
  -5  -1  -4   88.89    9.20 
   5   1   4   85.69    8.40 
   5   1   4   84.39   10.30 
   5   1   4   98.19   10.80 
  -6  -1  -4   29.40    5.70 
  -6  -1  -4   25.10    5.40 
  -6  -1  -4   24.90    4.80 
   6   1   4   20.80    5.40 
   6   1   4   22.10    4.20 
   6   1   4   32.40    7.30 
  -7  -1  -4   98.29   10.70 
  -7  -1  -4   99.79   10.00 
   7   1   4   78.39   12.00 
   7   1   4  117.09   13.60 
   7   1   4  101.39    9.80 
  -8  -1  -4   52.19    7.10 
   8   1   4   77.79   11.60 
   8   1   4   58.79    7.40 
  -9  -1  -4    5.50    2.70 
   9   1   4    8.80    3.40 
   9   1   4   19.00    6.20 
   9   1   4    5.40    5.20 
   7  -2  -4    0.40    3.40 
   7  -2  -4    4.80    4.00 
   7  -2  -4    7.10    2.70 
   6  -2  -4   -1.70    2.90 
   6  -2  -4    7.60    2.20 
   6  -2  -4    3.70    3.20 
  -6   2   4    4.30    3.90 
   5  -2  -4    4.90    3.10 
   5  -2  -4    2.80    1.40 
   5  -2  -4   -0.70    2.40 
  -5   2   4    5.30    3.70 
   4  -2  -4   24.50    4.90 
  -4   2   4   23.30    5.40 
   3  -2  -4   20.90    6.10 
  -3   2   4   26.50    5.40 
  -2   2   4   71.39    5.90 
  -2   2   4   68.99    7.20 
  -1   2   4  403.86   29.50 
  -1   2   4  446.96   30.30 
   0  -2  -4  798.82   57.49 
   0  -2  -4  782.22   56.89 
   0  -2  -4  887.31   57.29 
   0   2   4  889.31   57.49 
  -1  -2  -4  148.19   11.10 
  -1  -2  -4  154.48   11.90 
  -1  -2  -4  156.18   11.30 
   1   2   4  131.19   11.80 
   1   2   4  158.38   11.10 
   1   2   4  156.98   11.50 
  -2  -2  -4   24.90    2.90 
  -2  -2  -4   23.70    3.90 
  -2  -2  -4   22.70    3.10 
   2   2   4   20.90    2.80 
   2   2   4   17.00    3.40 
   2   2   4   24.10    3.70 
  -3  -2  -4    6.50    2.30 
  -3  -2  -4    7.50    2.10 
  -3  -2  -4   10.10    2.80 
   3   2   4    9.80    2.20 
   3   2   4   11.40    2.90 
   3   2   4   12.10    3.30 
  -4  -2  -4  115.69   10.80 
  -4  -2  -4  124.29   11.40 
  -4  -2  -4  123.99   10.40 
   4   2   4  123.99   10.20 
   4   2   4  120.39   11.50 
   4   2   4  111.89   11.50 
  -5  -2  -4   53.69    6.60 
  -5  -2  -4   46.20    7.30 
  -5  -2  -4   76.49    8.40 
   5   2   4   65.69   12.90 
   5   2   4   56.39    6.30 
   5   2   4   68.69    8.70 
  -6  -2  -4   55.29    7.10 
  -6  -2  -4   66.49    9.10 
   6   2   4   48.70    9.60 
   6   2   4   65.49    7.00 
   6   2   4   73.49   10.70 
  -7  -2  -4   43.00    5.70 
  -7  -2  -4   48.60    7.80 
   7   2   4   30.30    5.20 
   7   2   4   33.50    7.50 
   7   2   4   22.60    6.60 
  -8  -2  -4   23.20    4.50 
   8   2   4   11.60    5.60 
   8   2   4   21.20    4.70 
   8   2   4   28.70    8.10 
  -9  -2  -4    7.40    3.20 
   9   2   4   10.80    4.00 
   9   2   4    4.80    5.90 
   9   2   4   14.40    7.10 
   7  -3  -4   -0.10    3.60 
   7  -3  -4    6.00    3.60 
   7  -3  -4    3.20    2.90 
   6  -3  -4   16.20    3.70 
   6  -3  -4   17.90    4.20 
  -6   3   4    9.20    4.10 
   5  -3  -4   42.40    6.40 
   5  -3  -4   48.20    5.60 
   5  -3  -4   57.69    6.40 
  -5   3   4   44.70    7.60 
   4  -3  -4   66.89    7.20 
  -4   3   4   70.49    6.20 
  -4   3   4   74.59    8.70 
   3  -3  -4   39.60    4.60 
  -3   3   4   27.70    8.30 
  -3   3   4   43.00    4.00 
   2  -3  -4   26.40    3.20 
   2  -3  -4   25.00    3.60 
  -2   3   4   33.80    3.00 
  -2   3   4   28.40    4.30 
   1  -3  -4   90.99    7.20 
   1  -3  -4   93.89    7.90 
  -1   3   4   99.69    8.00 
  -1   3   4   94.89    7.40 
   0  -3  -4  188.18   14.90 
   0  -3  -4  202.08   13.70 
   0  -3  -4  185.98   14.90 
   0   3   4  195.48   14.00 
   0   3   4  192.58   14.00 
   0   3   4  180.08   13.60 
  -1  -3  -4  120.19   10.90 
  -1  -3  -4  130.19    9.70 
  -1  -3  -4  123.99    9.80 
   1   3   4  134.49   10.10 
   1   3   4  121.39   10.70 
   1   3   4  133.69    9.90 
  -2  -3  -4   66.59    6.40 
  -2  -3  -4   77.19    7.60 
  -2  -3  -4   72.19    6.30 
   2   3   4   65.89    6.90 
   2   3   4   77.69    6.60 
   2   3   4   63.39    7.40 
  -3  -3  -4  126.19   12.10 
  -3  -3  -4  136.99   11.50 
  -3  -3  -4  143.79   11.20 
   3   3   4  130.79   12.50 
   3   3   4  150.58   11.30 
  -4  -3  -4  121.99    9.80 
  -4  -3  -4   94.49   10.40 
  -4  -3  -4  108.59   10.20 
   4   3   4  119.29    9.60 
   4   3   4   99.19   10.70 
   4   3   4  101.59   11.10 
  -5  -3  -4    8.20    3.60 
  -5  -3  -4   16.40    3.40 
  -5  -3  -4    3.00    4.00 
   5   3   4   12.80    4.70 
   5   3   4   12.70    3.10 
   5   3   4   10.10    4.30 
  -6  -3  -4  175.48   14.50 
  -6  -3  -4  180.78   16.10 
  -6  -3  -4  146.79   15.20 
   6   3   4  158.78   16.50 
   6   3   4  159.38   17.10 
   6   3   4  168.38   14.30 
  -7  -3  -4   66.89   10.20 
  -7  -3  -4   65.89    7.60 
   7   3   4   71.39   14.70 
   7   3   4   53.19   10.50 
   7   3   4   63.99    7.40 
  -8  -3  -4    8.90    3.40 
   8   3   4   15.50    4.20 
   8   3   4   18.20    6.80 
   8   3   4   12.30    5.90 
  -9  -3  -4    1.00    2.50 
   9   3   4    6.10    5.20 
   9   3   4    2.70    6.20 
   9   3   4    3.70    2.70 
   6  -4  -4    4.20    2.40 
   6  -4  -4    0.50    2.50 
  -6   4   4   -0.50    1.00 
  -6   4   4   -2.00    2.50 
   5  -4  -4    5.50    2.70 
   5  -4  -4    4.70    3.20 
  -5   4   4    8.60    1.70 
  -5   4   4    8.50    3.00 
   4  -4  -4   23.70    7.20 
   4  -4  -4   10.20    3.80 
  -4   4   4   18.20    2.30 
  -4   4   4   16.20    3.70 
   3  -4  -4   19.90    3.80 
   3  -4  -4   20.50    4.00 
  -3   4   4   20.60    2.50 
  -3   4   4   20.70    3.90 
   2  -4  -4   23.10    3.60 
   2  -4  -4   21.50    4.30 
  -2   4   4   25.20    2.80 
  -2   4   4   26.60    4.20 
   1  -4  -4   41.20    5.50 
   1  -4  -4   48.10    4.70 
  -1   4   4   49.70    4.70 
  -1   4   4   45.40    4.30 
  -1   4   4   51.19    4.50 
  -1   4   4   48.70    4.40 
   0  -4  -4   41.10    5.80 
   0  -4  -4   48.10    4.00 
   0  -4  -4   49.00    4.70 
   0   4   4   45.90    4.70 
   0   4   4   44.00    4.90 
   0   4   4   48.00    4.50 
  -1  -4  -4   95.39    7.80 
  -1  -4  -4   97.29    8.30 
   1   4   4  110.79    8.70 
   1   4   4   80.59    8.80 
   1   4   4  103.39    8.20 
  -2  -4  -4  259.17   24.70 
  -2  -4  -4  313.07   24.60 
  -2  -4  -4  316.37   23.60 
   2   4   4  292.47   24.20 
   2   4   4  330.97   23.40 
   2   4   4  343.97   23.00 
  -3  -4  -4  201.28   16.50 
  -3  -4  -4  208.58   16.20 
  -3  -4  -4  218.58   18.00 
   3   4   4  213.68   16.40 
   3   4   4  219.18   17.40 
   3   4   4  194.68   17.70 
  -4  -4  -4    2.00    1.70 
  -4  -4  -4    4.10    3.10 
  -4  -4  -4    1.80    2.60 
   4   4   4    3.50    3.20 
   4   4   4    4.30    2.00 
   4   4   4    3.70    3.20 
  -5  -4  -4   20.60    5.00 
  -5  -4  -4   28.00    5.90 
  -5  -4  -4   25.00    4.40 
   5   4   4   27.60    6.70 
   5   4   4   25.50    4.70 
   5   4   4   19.50    6.00 
  -6  -4  -4   -1.30    3.10 
  -6  -4  -4   -0.20    3.50 
  -6  -4  -4   -0.50    1.70 
   6   4   4   -5.00    3.40 
   6   4   4    0.00    3.90 
   6   4   4    0.70    2.40 
  -7  -4  -4   29.00    6.40 
  -7  -4  -4   28.10    5.30 
   7   4   4   14.40    5.80 
   7   4   4   15.60    6.20 
   7   4   4   26.10    5.30 
  -8  -4  -4   31.90    6.00 
   8   4   4   13.50   10.30 
   8   4   4   31.00    5.70 
   8   4   4   15.60    6.60 
  -9  -4  -4   19.60    4.80 
   9   4   4   25.10    5.50 
   9   4   4    8.80    7.90 
   9   4   4   15.40    7.10 
   5  -5  -4    3.90    3.10 
   5  -5  -4    4.40    3.10 
   4  -5  -4   15.70    4.50 
   4  -5  -4   24.20    5.50 
   3  -5  -4   81.29    8.40 
   3  -5  -4   61.69    7.30 
   2  -5  -4   70.59    7.10 
   2  -5  -4   62.29    7.90 
  -2   5   4   69.19    6.20 
  -2   5   4   75.59    6.40 
   1  -5  -4   92.19    8.40 
   1  -5  -4   87.19    9.70 
  -1   5   4   99.19    7.80 
  -1   5   4   95.89    8.40 
  -1   5   4   88.29    7.50 
  -1   5   4  107.99    8.90 
   0  -5  -4   87.79    9.30 
   0  -5  -4   75.49    6.20 
   0  -5  -4   87.39    7.50 
   0   5   4   78.59    7.50 
   0   5   4   87.09    7.50 
   0   5   4   76.49    7.80 
  -1  -5  -4   64.19    5.90 
  -1  -5  -4   74.19    6.80 
   1   5   4   60.99    7.50 
   1   5   4   69.09    6.60 
   1   5   4   70.79    7.30 
  -2  -5  -4   82.79    9.80 
  -2  -5  -4   81.89    7.90 
  -2  -5  -4   72.19    7.70 
   2   5   4   89.79    9.00 
   2   5   4   79.39    9.20 
   2   5   4   92.59    8.10 
  -3  -5  -4   10.80    4.00 
  -3  -5  -4    6.70    3.10 
  -3  -5  -4    6.40    2.40 
   3   5   4    6.10    3.60 
   3   5   4    8.40    3.70 
   3   5   4    9.30    2.70 
  -4  -5  -4   49.00    8.30 
  -4  -5  -4   56.49    7.90 
  -4  -5  -4   54.09    9.30 
   4   5   4   50.19    8.70 
   4   5   4   55.09    6.60 
   4   5   4   51.39    8.50 
  -5  -5  -4   43.70    8.80 
  -5  -5  -4   40.30    8.10 
  -5  -5  -4   54.29    6.40 
   5   5   4   40.90    8.40 
   5   5   4   48.70    8.40 
   5   5   4   46.90    6.60 
  -6  -5  -4   53.49    9.40 
  -6  -5  -4   43.80    7.90 
  -6  -5  -4   44.70    6.60 
   6   5   4   40.20    9.00 
   6   5   4   41.80    8.60 
   6   5   4   55.09    7.20 
  -7  -5  -4    2.70    4.90 
  -7  -5  -4    2.70    2.80 
   7   5   4    5.30    3.30 
   7   5   4    1.90    4.60 
   7   5   4   -4.50    3.50 
  -8  -5  -4   15.00    4.50 
   8   5   4   21.80    6.60 
   8   5   4    8.40    3.50 
   8   5   4    1.40    8.30 
  -9  -5  -4    1.80    2.90 
   9   5   4    8.20    3.20 
   9   5   4    5.90    6.40 
   9   5   4   -0.20    4.20 
   5  -6  -4   10.50    3.90 
   5  -6  -4   -0.30    3.70 
   4  -6  -4    1.90    2.80 
   3  -6  -4   14.70    4.40 
  -3   6   4   17.00    3.30 
   2  -6  -4   16.20    4.30 
   2  -6  -4   17.50    4.90 
  -2   6   4   25.50    3.90 
   1  -6  -4  276.57   20.20 
   1  -6  -4  238.58   21.50 
  -1   6   4  262.27   20.00 
   0  -6  -4  232.78   16.80 
   0  -6  -4  196.08   14.60 
   0  -6  -4  201.68   18.70 
   0   6   4  189.98   15.70 
   0   6   4  228.68   16.70 
  -1  -6  -4   21.80    5.60 
  -1  -6  -4   23.90    4.50 
  -1  -6  -4   17.20    2.90 
   1   6   4   29.10    4.80 
   1   6   4   19.60    4.70 
   1   6   4   22.50    4.60 
  -2  -6  -4  143.79   12.00 
  -2  -6  -4  121.19   13.90 
  -2  -6  -4  132.89   11.50 
   2   6   4  145.29   12.20 
   2   6   4  110.79   12.50 
   2   6   4  140.39   13.50 
  -3  -6  -4  218.88   20.60 
  -3  -6  -4  213.88   18.20 
  -3  -6  -4  237.58   18.30 
   3   6   4  208.08   19.90 
   3   6   4  228.98   19.40 
   3   6   4  239.88   18.40 
  -4  -6  -4   22.70    5.30 
  -4  -6  -4   21.90    5.00 
  -4  -6  -4   20.80    6.70 
   4   6   4   21.60    5.90 
   4   6   4   22.60    4.90 
   4   6   4   23.60    6.00 
  -5  -6  -4   28.10    6.30 
  -5  -6  -4   34.30    8.20 
  -5  -6  -4   38.60    5.80 
   5   6   4   36.40    7.80 
   5   6   4   38.70    6.40 
   5   6   4   34.50    7.80 
  -6  -6  -4   11.90    5.90 
  -6  -6  -4   10.80    3.70 
   6   6   4    9.10    4.60 
   6   6   4    4.80    4.00 
   6   6   4   15.70    7.20 
  -7  -6  -4   37.90    7.10 
  -7  -6  -4   39.20    8.00 
   7   6   4   40.50    7.50 
   7   6   4   28.10    8.90 
   7   6   4   52.99   10.70 
  -8  -6  -4   15.80    5.00 
   8   6   4   14.80    4.40 
   8   6   4   15.50   13.90 
   8   6   4   22.10    8.10 
  -9  -6  -4   11.00    4.50 
   9   6   4    4.60    7.00 
   9   6   4   10.60    6.70 
   9   6   4   11.90    4.30 
   4  -7  -4    3.80    3.20 
   4  -7  -4   17.90    6.10 
   3  -7  -4   11.30    4.00 
  -3   7   4   15.50    3.60 
   2  -7  -4    1.30    2.30 
   2  -7  -4    2.60    2.90 
  -2   7   4    7.50    2.70 
   1  -7  -4   36.70    5.70 
   1  -7  -4   38.90    7.70 
  -1   7   4   32.40    5.20 
   0  -7  -4  124.19   11.40 
  -1  -7  -4    8.10    4.10 
  -1  -7  -4    2.10    1.20 
  -1  -7  -4    8.20    3.10 
   1   7   4   -1.30    2.80 
   1   7   4   -3.10    2.50 
   1   7   4    1.90    2.30 
  -2  -7  -4   15.90    6.00 
  -2  -7  -4   17.00    3.60 
  -2  -7  -4   24.70    5.30 
   2   7   4   15.40    4.80 
   2   7   4   18.40    4.80 
   2   7   4   19.10    4.60 
  -3  -7  -4  165.58   14.60 
  -3  -7  -4  179.98   14.80 
  -3  -7  -4  131.49   16.70 
   3   7   4  138.19   16.10 
   3   7   4  169.28   16.00 
   3   7   4  202.08   18.40 
  -4  -7  -4  111.09   12.30 
  -4  -7  -4  119.29   11.40 
   4   7   4  118.39   13.40 
   4   7   4   85.89   13.10 
   4   7   4  124.19   11.90 
  -5  -7  -4   22.30    5.80 
  -5  -7  -4   38.30    6.20 
  -5  -7  -4   27.20    8.40 
   5   7   4   28.80    6.20 
   5   7   4   25.10    7.40 
   5   7   4   42.60   10.30 
  -6  -7  -4   -0.60    5.40 
  -6  -7  -4    9.30    3.30 
   6   7   4    3.30    4.50 
   6   7   4    9.10    4.80 
   6   7   4   10.60    3.80 
  -7  -7  -4    4.50    3.00 
   7   7   4    5.30    5.20 
   7   7   4   -1.00    3.80 
   7   7   4    0.40    4.30 
  -8  -7  -4   13.20    4.10 
   8   7   4    3.90    4.30 
   8   7   4    2.90    5.30 
   8   7   4    0.60    4.40 
  -9  -7  -4    9.10    4.50 
   9   7   4    8.80    7.90 
   9   7   4   14.60    6.50 
   9   7   4    6.90    6.10 
   3  -8  -4    5.60    3.80 
   3  -8  -4   -1.50    4.90 
   2  -8  -4    6.00    4.10 
   2  -8  -4    7.60    3.00 
  -2   8   4    5.90    2.80 
   1  -8  -4   10.40    4.00 
   1  -8  -4   10.40    4.80 
  -1   8   4    3.20    3.10 
   0  -8  -4    2.50    2.90 
   0  -8  -4    7.80    4.00 
   0   8   4    1.80    1.90 
  -1  -8  -4   43.80    6.50 
  -1  -8  -4   34.00    3.50 
  -1  -8  -4   57.39   10.40 
   1   8   4   36.00    6.80 
   1   8   4   31.10    4.80 
  -2  -8  -4   27.00    7.30 
  -2  -8  -4   30.80    4.60 
  -2  -8  -4   39.00    6.50 
   2   8   4   26.60    5.70 
   2   8   4   32.90    7.30 
  -3  -8  -4   18.50    4.50 
  -3  -8  -4   25.70    7.10 
  -3  -8  -4   22.00    5.30 
   3   8   4   17.60    5.30 
   3   8   4   16.80    5.50 
  -4  -8  -4   31.10    6.10 
  -4  -8  -4   25.90    8.50 
  -4  -8  -4   19.90    5.50 
   4   8   4   24.30    6.80 
   4   8   4   27.30    5.90 
   4   8   4   28.20    7.60 
  -5  -8  -4   63.89    8.30 
  -5  -8  -4   52.39   10.60 
   5   8   4   51.99    8.80 
   5   8   4   52.69   10.50 
   5   8   4   58.09   11.70 
  -6  -8  -4   14.90    6.50 
  -6  -8  -4    8.20    3.50 
   6   8   4    9.30    5.70 
   6   8   4   13.20    4.20 
   6   8   4   11.20    5.30 
  -7  -8  -4   -0.80    3.10 
   7   8   4    4.10    4.70 
   7   8   4    0.90    3.80 
   7   8   4    3.50    4.90 
   8   8   4   18.30    6.70 
   8   8   4   23.20    7.10 
   1  -9  -4   25.40    6.70 
  -1   9   4   27.80    6.10 
   0  -9  -4   18.00    5.10 
   0  -9  -4    9.20    5.60 
   0   9   4   15.80    4.20 
  -1  -9  -4    0.50    4.80 
  -1  -9  -4   -2.30    3.00 
  -2  -9  -4   15.80    6.50 
  -2  -9  -4   19.20    3.20 
   2   9   4   25.20    6.00 
   2   9   4   26.20    5.10 
  -3  -9  -4   13.20    4.10 
  -3  -9  -4   -5.90    5.70 
  -3  -9  -4    5.70    2.60 
   3   9   4    6.20    4.90 
   3   9   4   12.70    4.80 
  -4  -9  -4    9.30    7.70 
  -4  -9  -4   12.70    4.40 
  -4  -9  -4   19.40    5.00 
   4   9   4   13.60    5.40 
   4   9   4   12.10    5.60 
  -5  -9  -4   -4.90    6.60 
  -5  -9  -4    2.70    4.10 
   5   9   4    1.20    4.50 
   5   9   4    3.50    4.60 
  -6  -9  -4    9.40    8.20 
   6   9   4    9.60    5.10 
   6   9   4    5.60    5.40 
  -7  -9  -4    9.40    4.00 
   7   9   4   23.70    8.20 
   7   9   4   12.70    6.40 
   0 -10  -4   24.10    6.60 
  -1 -10  -4   10.40    4.50 
  -1 -10  -4    9.40    9.40 
  -2 -10  -4    4.00    3.50 
  -2 -10  -4    5.20    1.80 
  -2 -10  -4    1.60    7.50 
   2  10   4    2.50    3.60 
   2  10   4    3.40    2.40 
  -3 -10  -4   20.10    5.90 
  -3 -10  -4   15.20    3.40 
  -3 -10  -4   16.90    9.40 
   3  10   4   15.60    5.80 
   3  10   4    8.40    4.50 
  -4 -10  -4   12.10    8.80 
  -4 -10  -4    5.70    4.20 
   4  10   4    3.30    5.20 
   4  10   4    7.90    4.90 
  -5 -10  -4    6.50    9.20 
  -5 -10  -4    5.00    4.00 
   5  10   4   -2.40    4.60 
   5  10   4    7.00    5.50 
  -6 -10  -4    5.70    4.70 
   6  10   4    5.90    5.40 
   6  10   4   -4.10    5.50 
  -3  -8   5    0.70    2.20 
  -3  -8   5   -0.40    4.90 
   2   8  -5   -4.20    3.00 
   2   8  -5    4.50    5.70 
  -2  -8   5   -0.10    4.60 
  -2  -8   5    3.90    2.20 
   1   8  -5   12.10    5.30 
   1   8  -5   -0.90    6.80 
  -1  -8   5    9.30    2.80 
  -1  -8   5   11.40    5.30 
   0   8  -5   15.40    4.80 
   0  -8   5   15.80    3.40 
   0  -8   5   15.40    6.30 
   0  -8   5    6.20    5.60 
   5   7  -5   16.40    7.80 
   5   7  -5   16.80    6.10 
   5   7  -5    4.60    5.80 
   4   7  -5    5.20    3.70 
   4   7  -5    4.00    4.20 
  -4  -7   5    1.60    4.60 
   3   7  -5    7.80    4.80 
   3   7  -5    9.00    6.00 
   3   7  -5    8.90    3.90 
   2   7  -5    8.30    4.70 
  -2  -7   5   11.00    4.90 
  -2  -7   5   11.00    3.30 
   1   7  -5    0.30    3.50 
   1   7  -5    7.40    4.10 
  -1  -7   5   -0.60    1.60 
  -1  -7   5   -5.40    3.70 
   0   7  -5   20.60    5.80 
   0   7  -5   30.80    6.90 
   0  -7   5   16.30    3.30 
   0  -7   5   13.70    6.20 
   0  -7   5   10.40    4.80 
  -1   7  -5    9.80    3.40 
  -1   7  -5   -0.90    7.80 
   1  -7   5    9.70    5.00 
   1  -7   5    7.10    3.90 
   1  -7   5    3.80    1.90 
  -2   7  -5   25.20    5.60 
   2  -7   5   21.70    3.50 
   2  -7   5   17.70    6.70 
   2  -7   5    9.00    4.30 
  -3   7  -5    2.20    2.50 
   3  -7   5    0.70    4.90 
   6   6  -5   -3.80    5.30 
   6   6  -5   -3.80    3.50 
   6   6  -5   -7.10    3.00 
   5   6  -5    0.80    3.00 
   5   6  -5    3.30    4.20 
   5   6  -5   -3.20    3.00 
  -5  -6   5   -5.30    2.90 
   4   6  -5   14.70    5.40 
   4   6  -5   10.90    4.90 
   4   6  -5   15.30    3.90 
  -4  -6   5   24.60    4.80 
   3   6  -5   41.40    8.40 
   3   6  -5   44.70    7.50 
   3   6  -5   36.60    6.90 
  -3  -6   5   40.30    6.40 
   2   6  -5    9.80    4.10 
  -2  -6   5   10.00    3.80 
  -2  -6   5   12.30    4.10 
   1   6  -5   57.19    7.90 
   1   6  -5   51.89    8.30 
  -1  -6   5   41.00    7.70 
  -1  -6   5   41.40    8.10 
  -1  -6   5   53.09    6.00 
   0   6  -5   21.90    5.50 
   0   6  -5   17.50    4.90 
   0  -6   5   20.10    7.80 
   0  -6   5    1.60    8.00 
   0  -6   5   11.50    4.20 
   0  -6   5   15.20    3.20 
  -1   6  -5   11.30    4.40 
  -1   6  -5    8.90    4.10 
   1  -6   5   14.20    2.80 
   1  -6   5   12.10    5.50 
   1  -6   5    6.90    4.20 
   1  -6   5   17.30    4.60 
  -2   6  -5   -0.90    3.70 
  -2   6  -5    7.00    3.10 
   2  -6   5   10.20    2.50 
   2  -6   5    7.40    3.00 
   2  -6   5    2.00    4.30 
   2  -6   5    7.20    4.70 
  -3   6  -5   16.90    4.10 
   3  -6   5    3.30    2.90 
   3  -6   5    0.60    4.60 
   3  -6   5    8.80    5.30 
   3  -6   5   16.50    3.30 
  -4   6  -5    8.50    3.40 
   4  -6   5    0.70    4.90 
   4  -6   5    4.00    2.20 
   7   5  -5   -1.30    3.00 
   7   5  -5    1.30    3.90 
   7   5  -5    5.90    4.70 
   6   5  -5    6.70    3.30 
   6   5  -5   10.20    4.90 
   6   5  -5    7.60    4.20 
  -6  -5   5    6.80    3.50 
   5   5  -5   15.00    5.80 
   5   5  -5   17.10    5.30 
   5   5  -5   19.00    4.50 
  -5  -5   5   20.10    4.60 
   4   5  -5   28.50    6.50 
   4   5  -5   31.80    7.00 
  -4  -5   5   24.20    5.40 
   3   5  -5   35.90    5.90 
   3   5  -5   36.50    8.70 
   3   5  -5   27.80    6.10 
  -3  -5   5   30.20    5.80 
   2   5  -5   35.70    6.50 
   2   5  -5   46.30    7.60 
   2   5  -5   46.00    6.60 
  -2  -5   5   32.80    5.80 
  -2  -5   5   27.70    6.80 
   1   5  -5   37.00    6.40 
   1   5  -5   41.30    6.90 
  -1  -5   5   27.00    4.50 
  -1  -5   5   31.10    7.10 
  -1  -5   5   33.80    6.20 
   0   5  -5   96.09   11.80 
   0   5  -5  112.29   11.80 
   0  -5   5  113.89   11.60 
   0  -5   5  106.69    9.30 
   0  -5   5  108.59   13.30 
   0  -5   5  126.29   12.20 
  -1   5  -5   77.49    9.20 
  -1   5  -5   92.79    9.60 
   1  -5   5   81.69    9.30 
   1  -5   5   70.29   11.90 
   1  -5   5   76.99    7.40 
   1  -5   5   85.69    9.90 
  -2   5  -5    1.60    2.40 
  -2   5  -5    1.60    3.10 
   2  -5   5    0.00    2.80 
   2  -5   5    8.80    3.60 
   2  -5   5    2.70    1.50 
   2  -5   5   -0.80    3.00 
  -3   5  -5    0.60    1.70 
  -3   5  -5    7.90    3.70 
   3  -5   5    5.00    3.70 
   3  -5   5    0.50    1.70 
   3  -5   5   -2.30    3.20 
   3  -5   5    0.80    2.20 
  -4   5  -5    5.50    3.10 
   4  -5   5   11.00    4.40 
   4  -5   5    8.70    2.90 
   4  -5   5    5.40    4.80 
   4  -5   5   -0.10    2.20 
  -5   5  -5   24.00    5.50 
   5  -5   5   27.30    7.70 
   5  -5   5    6.20    6.30 
   5  -5   5   10.80    3.10 
   7   4  -5   13.60    5.40 
   7   4  -5   13.60    3.80 
   7   4  -5   19.70    6.20 
   6   4  -5   28.10    4.70 
   6   4  -5   20.70    5.80 
   6   4  -5   20.60    5.40 
  -6  -4   5   20.70    4.00 
   5   4  -5    6.20    2.50 
   5   4  -5   -0.80    3.50 
   5   4  -5    3.40    2.90 
  -5  -4   5   -2.30    2.70 
   4   4  -5   19.50    4.10 
   4   4  -5   12.60    4.50 
   4   4  -5    9.50    4.20 
  -4  -4   5   17.10    3.80 
   3   4  -5  157.28   14.00 
   3   4  -5  131.59   13.40 
  -3  -4   5  107.39   16.40 
  -3  -4   5  127.79   11.80 
   2   4  -5  211.88   18.10 
   2   4  -5  195.78   17.00 
   2   4  -5  249.28   18.80 
  -2  -4   5  227.98   19.50 
  -2  -4   5  200.88   19.20 
  -2  -4   5  194.68   17.00 
   1   4  -5   42.20    5.80 
  -1  -4   5   38.10    7.10 
  -1  -4   5   45.90    5.20 
  -1  -4   5   38.70    6.00 
  -1  -4   5   27.00    8.30 
   0   4  -5   44.50    6.40 
   0   4  -5   38.30    5.70 
   0  -4   5   38.30    7.60 
   0  -4   5   38.60    6.20 
   0  -4   5   25.80    5.50 
   0  -4   5   37.50    4.60 
  -1   4  -5  230.28   19.10 
  -1   4  -5  270.37   20.60 
   1  -4   5  213.78   18.50 
   1  -4   5  223.88   17.20 
   1  -4   5  231.88   20.20 
   1  -4   5  210.38   18.90 
  -2   4  -5  341.37   26.10 
  -2   4  -5  365.16   25.90 
   2  -4   5  308.37   24.80 
   2  -4   5  317.57   26.90 
   2  -4   5  315.17   24.00 
  -3   4  -5   57.59    7.60 
  -3   4  -5   60.09    8.20 
   3  -4   5   58.89    8.90 
   3  -4   5   49.99    9.00 
   3  -4   5   69.99    7.00 
   3  -4   5   64.79    6.70 
   4  -4   5    3.20    1.90 
   4  -4   5   -2.60    3.20 
   4  -4   5    5.00    2.50 
  -5   4  -5   22.60    5.10 
   5  -4   5   19.10    7.50 
   5  -4   5   20.60    4.90 
  -6   4  -5   13.70    3.60 
  -6   4  -5   16.90    2.70 
   6  -4   5    4.20    5.20 
   6  -4   5    9.30    3.70 
   7   3  -5   -0.40    3.60 
   7   3  -5   -4.40    2.50 
   7   3  -5   -3.10    4.30 
   6   3  -5   20.90    6.00 
   6   3  -5   19.30    6.30 
   6   3  -5   25.40    4.40 
   5   3  -5   18.00    5.20 
   5   3  -5   18.30    4.70 
  -5  -3   5   11.40    2.90 
   4   3  -5   43.30    9.20 
   4   3  -5   42.00    8.00 
   4   3  -5   47.80    5.50 
  -4  -3   5   45.80    5.80 
   3   3  -5   82.79    9.70 
   3   3  -5   99.09    9.90 
   3   3  -5   86.19    8.30 
  -3  -3   5   84.29    8.10 
  -3  -3   5   88.69   10.20 
  -3  -3   5   80.39   10.90 
   2   3  -5   22.80    4.60 
   2   3  -5   25.90    5.20 
   2   3  -5   19.40    3.70 
  -2  -3   5   17.00    5.10 
  -2  -3   5   39.60    7.10 
  -2  -3   5   22.10    4.20 
   1   3  -5  163.18   12.80 
  -1  -3   5  156.38   14.40 
  -1  -3   5  150.98   14.20 
  -1  -3   5  146.59   12.80 
  -1  -3   5  150.48   12.40 
   0   3  -5   86.79    8.70 
   0   3  -5   76.49    8.00 
   0  -3   5   86.19    8.50 
   0  -3   5   79.19    7.40 
   0  -3   5   86.49    9.50 
   0  -3   5   79.89    8.80 
  -1   3  -5   19.10    4.30 
   1  -3   5   17.30    3.90 
   1  -3   5   10.90    4.10 
   1  -3   5   15.20    2.80 
   1  -3   5   12.60    3.60 
  -2   3  -5    2.40    2.00 
   2  -3   5    4.90    2.00 
   2  -3   5    6.50    2.30 
   2  -3   5    7.40    3.30 
   2  -3   5   15.40    4.20 
  -3   3  -5  113.89   10.80 
  -3   3  -5  111.09    9.00 
   3  -3   5   91.59   11.70 
   3  -3   5  114.89    9.90 
  -4   3  -5   52.89    7.80 
  -4   3  -5   53.69    6.90 
  -4   3  -5   61.29    5.40 
   4  -3   5   60.19    7.20 
   4  -3   5   48.90    8.30 
   4  -3   5   49.40    7.70 
  -5   3  -5   58.79    7.80 
  -5   3  -5   70.79    6.40 
   5  -3   5   71.69    8.70 
   5  -3   5   64.79    9.10 
  -6   3  -5    3.10    1.40 
  -6   3  -5    2.20    2.20 
   6  -3   5   -3.70    2.60 
   6  -3   5   -1.50    2.50 
   6  -3   5   -0.30    4.40 
  -7   3  -5    2.20    1.90 
   7  -3   5   10.60    5.30 
   7  -3   5    6.20    3.70 
   7  -3   5   -1.10    4.70 
   7   2  -5    2.50    2.10 
   7   2  -5   -1.60    4.50 
   7   2  -5   -3.00    3.40 
   6   2  -5   -1.30    2.10 
   6   2  -5   -0.60    3.20 
   6   2  -5    1.00    3.70 
   5   2  -5    9.90    2.60 
   5   2  -5   11.60    3.90 
   5   2  -5    6.60    3.50 
   4   2  -5    7.10    2.40 
   4   2  -5    7.60    3.60 
   4   2  -5    2.10    2.90 
  -4  -2   5    4.90    4.80 
  -4  -2   5   11.00    3.20 
   3   2  -5   14.80    4.00 
   3   2  -5   14.50    3.70 
   3   2  -5   23.60    3.50 
  -3  -2   5   14.50    4.60 
  -3  -2   5   17.50    3.10 
   2   2  -5  115.59    9.90 
   2   2  -5  122.59   10.90 
   2   2  -5  107.29   11.00 
  -2  -2   5  115.09    9.80 
  -2  -2   5  143.29   11.70 
  -2  -2   5  116.59   12.00 
   1   2  -5  152.68   12.30 
  -1  -2   5  140.19   13.90 
  -1  -2   5  152.98   12.40 
  -1  -2   5  173.08   13.70 
  -1  -2   5  163.08   12.60 
   0   2  -5  150.48   12.60 
   0   2  -5  153.08   12.10 
   0  -2   5  125.19   12.60 
   0  -2   5  167.38   13.40 
   0  -2   5  145.79   11.70 
   0  -2   5  157.98   13.00 
  -1   2  -5   78.69    7.80 
  -1   2  -5   77.69    7.70 
   1  -2   5   72.19    7.60 
   1  -2   5   80.19    8.20 
   1  -2   5   84.39    8.20 
   1  -2   5   80.39    7.00 
  -2   2  -5   77.69    7.00 
  -2   2  -5   90.29    8.40 
   2  -2   5   74.19    7.30 
   2  -2   5   87.39    8.80 
  -3   2  -5   16.40    3.90 
  -3   2  -5   17.60    2.90 
  -3   2  -5   10.90    3.30 
   3  -2   5    8.60    3.80 
   3  -2   5   13.90    3.20 
   3  -2   5   14.90    3.80 
  -4   2  -5  120.89   11.70 
  -4   2  -5  137.39   12.30 
  -4   2  -5  139.39   10.70 
   4  -2   5  131.09   12.00 
   4  -2   5  123.29   12.90 
   4  -2   5  124.89   12.40 
  -5   2  -5   23.80    6.20 
  -5   2  -5   25.10    3.80 
  -5   2  -5   25.90    5.20 
   5  -2   5   17.80    4.20 
   5  -2   5   22.00    5.00 
  -6   2  -5   46.10    6.40 
  -6   2  -5   42.50    5.30 
   6  -2   5   29.80    7.40 
   6  -2   5   39.60    7.20 
   6  -2   5   39.20    7.10 
  -7   2  -5   15.00    3.80 
   7  -2   5   24.70    6.50 
   7  -2   5   21.60    6.20 
   8  -2   5   15.90    8.60 
   8  -2   5    8.00    5.40 
   7   1  -5    5.70    4.70 
   7   1  -5   18.40    6.60 
   7   1  -5   16.80    3.70 
   6   1  -5   49.50    9.50 
   6   1  -5   40.30    4.90 
   6   1  -5   36.60    7.10 
   5   1  -5   20.00    7.90 
   5   1  -5   33.20    6.50 
   5   1  -5   46.70    5.30 
   4   1  -5   20.30    4.10 
   4   1  -5   19.10    3.10 
   4   1  -5   29.00    6.30 
  -4  -1   5    8.90    5.10 
   3   1  -5   96.99    7.90 
   3   1  -5   90.29    9.90 
   3   1  -5   97.49    9.00 
  -3  -1   5   94.09   10.70 
   2   1  -5   81.09    8.60 
   2   1  -5   86.39    7.80 
   2   1  -5   91.19    7.20 
  -2  -1   5   88.49    9.40 
   1   1  -5   83.69    7.00 
  -1  -1   5   98.29    8.00 
  -1  -1   5   82.09    7.10 
  -1  -1   5   80.49    7.20 
  -1  -1   5   70.39    8.20 
   0   1  -5   14.60    2.60 
   0   1  -5   19.60    2.90 
   0  -1   5   24.40    3.60 
   0  -1   5   20.60    3.20 
   0  -1   5   19.20    3.80 
   0  -1   5   15.60    2.60 
  -1   1  -5  375.26   26.90 
  -1   1  -5  361.46   26.40 
   1  -1   5  394.76   27.20 
   1  -1   5  357.86   26.60 
  -2   1  -5  192.48   14.50 
  -2   1  -5  194.28   15.40 
  -2   1  -5  200.38   15.30 
   2  -1   5  192.98   15.70 
   2  -1   5  204.28   15.70 
   2  -1   5  182.88   14.90 
  -3   1  -5   55.29    6.30 
  -3   1  -5   57.39    5.70 
  -3   1  -5   65.09    7.00 
   3  -1   5   51.49    7.00 
   3  -1   5   57.59    6.40 
   3  -1   5   60.39    6.60 
  -4   1  -5    3.40    1.60 
  -4   1  -5    0.20    1.50 
  -4   1  -5    8.00    3.00 
   4  -1   5    1.50    2.90 
   4  -1   5    5.20    2.10 
   4  -1   5    5.00    3.00 
  -5   1  -5   87.49    8.00 
  -5   1  -5   75.89    9.00 
  -5   1  -5   73.19    8.20 
   5  -1   5   78.09    8.60 
   5  -1   5   64.29    9.50 
   5  -1   5   90.99   10.00 
  -6   1  -5   11.50    3.10 
  -6   1  -5   11.20    3.10 
  -6   1  -5    2.50    3.70 
   6  -1   5   10.10    4.10 
   6  -1   5    7.90    4.20 
   6  -1   5    9.10    3.10 
  -7   1  -5   -2.80    1.70 
  -7   1  -5    2.30    2.30 
   7  -1   5    4.30    4.30 
   7  -1   5   -1.50    1.80 
   7  -1   5    8.10    4.40 
  -8   1  -5   -0.90    2.30 
   8  -1   5    0.00    2.90 
   8  -1   5    2.90    4.60 
   8  -1   5    1.70    3.90 
   7   0  -5    3.30    4.10 
   7   0  -5    1.10    1.80 
   7   0  -5   -0.60    3.80 
   6   0  -5   44.40    8.80 
   6   0  -5   55.39    7.90 
   6   0  -5   52.89    5.50 
   5   0  -5   11.30    3.70 
   5   0  -5   22.50    6.00 
   5   0  -5   18.80    3.00 
  -5   0   5   14.90    5.10 
   4   0  -5    4.30    3.40 
   4   0  -5    2.90    2.60 
   3   0  -5   12.60    3.80 
  -3   0   5   14.60    4.80 
   2   0  -5   14.00    2.00 
   2   0  -5   13.40    3.60 
  -2   0   5   14.60    4.20 
   1   0  -5    3.30    1.20 
   1   0  -5    2.10    1.20 
  -1   0   5    7.40    2.50 
  -1   0   5    6.50    1.70 
   0   0  -5  165.48   12.30 
   0   0   5  161.18   12.40 
   0   0   5  160.38   13.20 
   0   0   5  169.08   12.40 
  -1   0  -5  580.64   41.10 
  -1   0  -5  590.54   41.00 
   1   0   5  579.14   41.10 
   1   0   5  582.54   41.30 
   1   0   5  618.84   41.60 
  -2   0  -5   35.70    4.70 
  -2   0  -5   35.60    3.80 
  -2   0  -5   30.00    3.90 
   2   0   5   35.60    4.70 
   2   0   5   33.80    4.10 
   2   0   5   29.30    4.60 
  -3   0  -5  268.77   20.70 
  -3   0  -5  269.97   20.30 
  -3   0  -5  264.47   19.80 
   3   0   5  259.87   21.00 
   3   0   5  247.78   20.10 
   3   0   5  304.17   21.30 
  -4   0  -5  111.19    8.90 
  -4   0  -5   99.29    9.10 
   4   0   5   75.89    9.80 
   4   0   5  105.59   10.00 
   4   0   5   85.49   10.40 
  -5   0  -5    2.70    2.00 
  -5   0  -5    8.70    2.90 
  -5   0  -5   10.50    3.60 
   5   0   5    8.10    3.70 
   5   0   5    1.50    3.50 
   5   0   5    4.70    2.90 
  -6   0  -5   29.30    7.60 
  -6   0  -5   33.70    5.10 
  -6   0  -5   29.70    6.10 
   6   0   5   36.50    7.20 
   6   0   5   31.10    5.30 
  -7   0  -5    0.70    2.10 
  -7   0  -5   -1.70    1.80 
   7   0   5    0.10    3.30 
   7   0   5   -2.70    3.70 
   7   0   5    1.10    1.90 
  -8   0  -5    5.80    3.00 
   8   0   5    7.20    4.90 
   8   0   5   16.70    4.60 
   8   0   5   -1.10    4.30 
   9   0   5    5.70    6.20 
   9   0   5   12.20    6.10 
   7  -1  -5   19.40    6.10 
   7  -1  -5   16.70    4.70 
   7  -1  -5   13.70    3.10 
   6  -1  -5   17.20    5.60 
   5  -1  -5    6.50    3.50 
  -5   1   5   -1.60    3.40 
   4  -1  -5   17.90    4.70 
  -4   1   5    9.80    4.30 
   3  -1  -5  136.49   11.70 
  -3   1   5  117.79   12.30 
  -2   1   5   49.60    4.90 
  -2   1   5   46.10    6.20 
  -1   1   5   26.90    4.50 
  -1   1   5   37.70    4.70 
   0  -1  -5  118.09    9.20 
   0  -1  -5  120.69    9.70 
   0  -1  -5  142.59    9.70 
   0   1   5  120.69    9.70 
  -1  -1  -5   21.80    3.20 
  -1  -1  -5   18.00    2.30 
  -1  -1  -5   17.50    2.40 
   1   1   5   15.10    2.20 
   1   1   5   14.10    2.70 
   1   1   5   19.30    2.80 
  -2  -1  -5   25.70    3.20 
  -2  -1  -5   26.20    3.90 
  -2  -1  -5   24.20    3.20 
   2   1   5   25.60    3.90 
   2   1   5   32.10    3.60 
   2   1   5   21.30    3.60 
  -3  -1  -5   38.00    4.30 
  -3  -1  -5   32.50    4.10 
   3   1   5   27.30    5.60 
   3   1   5   32.20    5.00 
   3   1   5   30.60    5.10 
  -4  -1  -5    4.40    1.90 
  -4  -1  -5    1.40    1.60 
  -4  -1  -5    0.60    2.30 
   4   1   5    7.20    3.20 
   4   1   5    0.90    2.40 
   4   1   5    2.10    2.40 
  -5  -1  -5  131.39   11.80 
  -5  -1  -5  129.29   12.50 
  -5  -1  -5  140.59   11.70 
   5   1   5  123.19   13.30 
   5   1   5  115.89   13.20 
  -6  -1  -5   36.60    6.60 
  -6  -1  -5   55.09    6.40 
  -6  -1  -5   44.40    7.40 
   6   1   5   54.69    9.00 
   6   1   5   42.30    8.10 
   6   1   5   32.90    6.20 
  -7  -1  -5   26.00    5.20 
   7   1   5   30.40    5.20 
   7   1   5   40.20    8.20 
  -8  -1  -5   51.29    8.00 
   8   1   5   71.39    8.00 
   8   1   5   69.49   11.40 
  -9  -1  -5    0.70    2.10 
   9   1   5   -5.40    4.60 
   9   1   5   -1.50    5.60 
   9   1   5    0.70    3.00 
   7  -2  -5   -2.10    3.10 
   7  -2  -5   -0.70    3.40 
   6  -2  -5   18.40    4.30 
   6  -2  -5   27.30    6.30 
   5  -2  -5  144.09   13.30 
  -5   2   5  122.29   17.20 
   4  -2  -5   82.39    8.40 
  -4   2   5   63.59    9.30 
  -3   2   5   12.80    4.00 
  -3   2   5   14.20    2.70 
  -2   2   5   11.10    2.20 
  -2   2   5   15.50    3.50 
  -1   2   5   40.60    4.80 
  -1   2   5   36.10    3.80 
   0  -2  -5  330.07   25.40 
   0  -2  -5  383.06   25.70 
   0   2   5  381.36   25.90 
  -1  -2  -5  148.49   11.30 
  -1  -2  -5  141.59   10.50 
   1   2   5  143.89   11.00 
   1   2   5  134.19   11.30 
   1   2   5  131.29   10.30 
  -2  -2  -5   14.60    2.50 
  -2  -2  -5   17.00    2.80 
   2   2   5   18.40    2.60 
   2   2   5   17.00    3.20 
   2   2   5   10.70    3.10 
  -3  -2  -5   21.30    3.70 
  -3  -2  -5   30.70    4.50 
  -3  -2  -5   29.80    3.70 
   3   2   5   30.60    3.80 
   3   2   5   28.50    4.80 
   3   2   5   26.00    4.50 
  -4  -2  -5   20.20    3.60 
  -4  -2  -5   20.40    4.00 
  -4  -2  -5   17.00    4.00 
   4   2   5   25.70    3.90 
   4   2   5   12.40    3.70 
   4   2   5   14.70    4.20 
  -5  -2  -5   56.19    6.80 
  -5  -2  -5   67.19    8.20 
  -5  -2  -5   57.09    7.10 
   5   2   5   53.19    8.90 
   5   2   5   51.49    8.40 
   5   2   5   58.29    6.60 
  -6  -2  -5   22.10    5.00 
  -6  -2  -5   17.70    4.90 
  -6  -2  -5   21.30    4.30 
   6   2   5   16.80    5.40 
   6   2   5   20.50    6.10 
   6   2   5   23.50    4.30 
  -7  -2  -5   33.00    6.60 
  -7  -2  -5   45.10    6.30 
   7   2   5   41.50    8.50 
   7   2   5   30.10    7.80 
   7   2   5   42.70    6.20 
  -8  -2  -5   -2.40    2.20 
   8   2   5    1.40    1.80 
   8   2   5    5.40    5.00 
   8   2   5    0.60    5.10 
  -9  -2  -5   65.89    8.20 
   9   2   5   57.19    8.60 
   9   2   5   83.09   13.40 
   9   2   5   38.90    9.80 
  -6   3   5    5.50    2.10 
  -6   3   5    2.00    3.80 
  -5   3   5   16.90    4.40 
  -5   3   5   10.80    2.50 
  -4   3   5   22.00    5.20 
  -4   3   5   26.50    3.30 
  -3   3   5   19.40    2.80 
  -3   3   5   16.50    4.70 
  -2   3   5   55.89    5.20 
  -2   3   5   60.09    6.70 
   1  -3  -5   62.99    5.00 
  -1   3   5   66.09    6.40 
  -1   3   5   62.39    5.60 
   0  -3  -5   10.60    1.90 
   0  -3  -5   13.30    2.10 
   0  -3  -5    8.20    2.40 
   0   3   5   11.60    2.30 
  -1  -3  -5  805.82   53.49 
  -1  -3  -5  736.13   54.39 
  -1  -3  -5  795.92   54.29 
   1   3   5  748.23   53.19 
   1   3   5  829.62   53.89 
   1   3   5  747.13   54.39 
  -2  -3  -5  492.75   34.40 
  -2  -3  -5  415.96   36.00 
   2   3   5  538.65   35.10 
   2   3   5  470.85   35.70 
   2   3   5  516.65   34.30 
  -3  -3  -5    3.20    2.60 
  -3  -3  -5    6.00    2.10 
  -3  -3  -5    6.70    1.90 
   3   3   5    5.40    2.70 
   3   3   5    4.30    1.70 
   3   3   5    5.90    2.90 
  -4  -3  -5   10.20    2.90 
  -4  -3  -5    8.90    2.40 
  -4  -3  -5   10.50    3.00 
   4   3   5   10.30    3.70 
   4   3   5    6.20    2.90 
   4   3   5   10.10    2.70 
  -5  -3  -5    3.90    3.00 
  -5  -3  -5   10.00    3.70 
  -5  -3  -5    6.40    2.40 
   5   3   5    5.60    2.20 
   5   3   5   -0.10    2.90 
   5   3   5    4.50    4.10 
  -6  -3  -5   30.10    5.90 
  -6  -3  -5   24.90    4.90 
  -6  -3  -5   15.30    5.20 
   6   3   5   29.70    4.90 
   6   3   5   21.30    6.40 
   6   3   5   19.70    5.80 
  -7  -3  -5   16.20    5.50 
  -7  -3  -5   27.00    5.00 
   7   3   5   16.40    6.90 
   7   3   5   27.50    6.40 
  -8  -3  -5    4.40    2.80 
   8   3   5    3.00    5.00 
   8   3   5    5.80    5.10 
   8   3   5    9.00    2.90 
   9   3   5    0.10    5.00 
   9   3   5   10.50    5.40 
   9   3   5    3.90    2.00 
   6  -4  -5    8.80    3.50 
   6  -4  -5    6.40    3.00 
  -6   4   5    5.00    1.70 
   5  -4  -5   13.90    3.40 
  -5   4   5    5.60    3.40 
  -5   4   5   11.40    2.30 
   4  -4  -5   41.90    6.30 
   4  -4  -5   49.90    6.20 
  -4   4   5   72.59    8.00 
  -4   4   5   59.79    5.10 
   3  -4  -5   98.09    9.40 
   3  -4  -5  117.49   10.10 
  -3   4   5  121.49    9.10 
  -3   4   5  125.49   11.00 
   2  -4  -5    3.10    1.90 
   2  -4  -5    4.20    1.90 
  -2   4   5    6.00    1.60 
  -2   4   5    3.50    2.10 
   1  -4  -5   90.99    8.40 
   1  -4  -5   88.89    7.10 
  -1   4   5   83.79    7.20 
  -1   4   5   83.79    7.70 
   0  -4  -5   31.60    5.10 
   0  -4  -5   27.50    3.00 
   0  -4  -5   35.70    3.60 
   0   4   5   29.00    3.80 
   0   4   5   27.80    3.60 
   0   4   5   24.10    3.00 
  -1  -4  -5   13.60    2.40 
  -1  -4  -5   10.50    3.30 
  -1  -4  -5   12.70    2.50 
   1   4   5   13.00    2.30 
   1   4   5   13.60    3.10 
   1   4   5   15.20    3.50 
  -2  -4  -5   28.30    4.20 
  -2  -4  -5   33.40    4.10 
   2   4   5   36.30    5.80 
   2   4   5   30.70    5.60 
   2   4   5   40.70    4.30 
  -3  -4  -5   18.00    3.20 
  -3  -4  -5   15.40    4.30 
  -3  -4  -5   18.50    3.60 
   3   4   5   14.30    4.20 
   3   4   5   23.00    3.40 
   3   4   5   15.60    4.30 
  -4  -4  -5   51.09    7.00 
  -4  -4  -5   44.30    6.80 
   4   4   5   46.10    7.90 
   4   4   5   50.79    7.90 
   4   4   5   60.79    6.30 
  -5  -4  -5   63.79    8.40 
  -5  -4  -5   60.59    9.10 
  -5  -4  -5   66.09    7.80 
   5   4   5   79.59    7.70 
   5   4   5   55.69    9.50 
   5   4   5   68.09    9.70 
  -6  -4  -5   58.89    6.90 
  -6  -4  -5   44.00    7.40 
  -6  -4  -5   42.60    8.50 
   6   4   5   55.39    9.60 
   6   4   5   46.50    6.50 
   6   4   5   38.50    8.30 
  -7  -4  -5   26.90    5.30 
  -7  -4  -5   16.80    6.90 
   7   4   5   28.30    5.90 
   7   4   5   18.30    7.10 
   7   4   5   19.30    6.80 
  -8  -4  -5   20.50    4.80 
   8   4   5   31.90    5.40 
   8   4   5    9.40    5.90 
   8   4   5    9.60    6.10 
   9   4   5   19.00    7.40 
   9   4   5    9.20    6.30 
   9   4   5   14.50    4.20 
   5  -5  -5    2.80    2.60 
  -5   5   5    1.00    0.90 
  -5   5   5   -4.70    2.20 
   4  -5  -5    8.70    2.90 
   4  -5  -5   11.80    4.00 
  -4   5   5    9.50    2.70 
  -4   5   5    9.10    1.80 
   3  -5  -5   14.00    4.00 
  -3   5   5    8.00    2.80 
  -3   5   5   12.70    2.10 
   2  -5  -5  149.29   13.40 
   2  -5  -5  164.88   12.40 
  -2   5   5  160.88   11.60 
  -2   5   5  140.19   12.40 
   1  -5  -5   79.49    9.00 
   1  -5  -5   85.29    7.50 
  -1   5   5   94.49    7.30 
  -1   5   5   84.69    7.30 
  -1   5   5   83.59    7.40 
  -1   5   5   82.39    7.40 
   0  -5  -5   36.70    3.30 
   0  -5  -5   38.70    4.40 
   0  -5  -5   35.90    6.40 
   0   5   5   30.30    3.90 
   0   5   5   29.30    4.70 
   0   5   5   33.20    4.60 
  -1  -5  -5  130.49   10.70 
  -1  -5  -5  122.19   12.40 
  -1  -5  -5  127.39   10.40 
   1   5   5  118.99   11.40 
   1   5   5  132.59   11.30 
   1   5   5  136.69   10.60 
  -2  -5  -5   71.59    9.10 
  -2  -5  -5   79.39    7.60 
  -2  -5  -5   78.99    7.40 
   2   5   5   64.29    8.70 
   2   5   5   79.69    9.00 
   2   5   5   97.19    7.80 
  -3  -5  -5    3.70    2.10 
  -3  -5  -5    4.10    2.60 
  -3  -5  -5    8.40    3.80 
   3   5   5    4.60    2.40 
   3   5   5    7.50    3.70 
   3   5   5   13.10    4.70 
  -4  -5  -5  227.28   18.60 
  -4  -5  -5  202.08   16.30 
  -4  -5  -5  183.68   16.70 
   4   5   5  165.78   18.00 
   4   5   5  209.98   16.60 
   4   5   5  205.88   18.00 
  -5  -5  -5   56.49    8.80 
  -5  -5  -5   53.69    6.60 
  -5  -5  -5   37.50    7.70 
   5   5   5   49.70    6.80 
   5   5   5   54.79    8.90 
   5   5   5   51.09    8.90 
  -6  -5  -5   60.39   10.90 
  -6  -5  -5   65.79   13.20 
  -6  -5  -5   80.09    8.70 
   6   5   5   73.99   10.70 
   6   5   5   85.69    9.00 
   6   5   5   66.09   11.20 
  -7  -5  -5   46.10    9.00 
   7   5   5   29.30    8.70 
   7   5   5   42.00    6.70 
   7   5   5   46.90    9.80 
   8   5   5    3.70    6.20 
   8   5   5    5.70    4.40 
  -9  -5  -5    4.00    3.50 
   9   5   5    9.80    4.30 
   9   5   5    8.40    5.10 
   9   5   5   11.20    7.10 
   4  -6  -5   -0.60    2.80 
   4  -6  -5    1.60    2.80 
   3  -6  -5    3.60    5.30 
   3  -6  -5    7.00    2.70 
   2  -6  -5   12.40    3.20 
   2  -6  -5   12.60    4.20 
   1  -6  -5   49.30    7.50 
   1  -6  -5   53.59    6.80 
  -1   6   5   57.29    6.00 
   0  -6  -5   85.29    8.20 
   0  -6  -5   84.69    6.60 
   0  -6  -5   83.49   10.40 
   0   6   5   87.59    8.30 
   0   6   5   89.19    7.90 
  -1  -6  -5  332.07   27.60 
  -1  -6  -5  358.76   25.60 
  -1  -6  -5  336.07   24.40 
   1   6   5  351.56   25.70 
   1   6   5  338.77   25.30 
   1   6   5  327.07   26.10 
  -2  -6  -5   61.19    7.00 
  -2  -6  -5   77.69    7.70 
  -2  -6  -5   72.09   10.10 
   2   6   5   84.09    7.90 
   2   6   5   65.49    8.80 
   2   6   5   69.89    9.20 
  -3  -6  -5  145.89   15.40 
  -3  -6  -5  152.38   12.70 
  -3  -6  -5  146.39   12.70 
   3   6   5  145.29   12.60 
   3   6   5  144.69   14.00 
   3   6   5  119.09   14.20 
  -4  -6  -5   58.19    8.40 
  -4  -6  -5   73.29    9.90 
  -4  -6  -5   55.99    7.30 
   4   6   5   59.99    9.90 
   4   6   5   66.89    7.60 
   4   6   5   56.29    9.70 
  -5  -6  -5   34.80    5.70 
  -5  -6  -5   30.60    7.50 
  -5  -6  -5   33.20    6.50 
   5   6   5   44.50    6.80 
   5   6   5   38.00    8.10 
   5   6   5   28.60    7.20 
  -6  -6  -5   64.79   10.80 
   6   6   5   56.89   10.40 
   6   6   5   62.19    8.20 
  -7  -6  -5   34.90    6.00 
  -7  -6  -5   17.20    7.40 
   7   6   5   24.10    5.90 
   7   6   5   29.30    8.20 
   7   6   5   35.10    8.40 
  -8  -6  -5    3.50    3.30 
   8   6   5    1.70    3.20 
   8   6   5    8.60    6.00 
   8   6   5    9.30    5.30 
  -9  -6  -5    6.00    5.30 
   9   6   5    6.60    3.30 
   9   6   5    2.10    6.20 
   9   6   5   -0.90    4.40 
   4  -7  -5   15.00    4.80 
   4  -7  -5    6.50    3.00 
   3  -7  -5    0.50    2.70 
   3  -7  -5   -4.00    2.90 
   2  -7  -5   21.10    4.60 
   2  -7  -5   27.00    5.90 
  -2   7   5   25.90    4.20 
   1  -7  -5    7.20    3.00 
   1  -7  -5    0.00    3.40 
  -1   7   5   10.20    2.80 
   0  -7  -5    5.30    4.30 
   0  -7  -5   15.00    3.60 
   0   7   5   13.60    3.70 
   0   7   5    8.20    2.40 
  -1  -7  -5  150.18   12.10 
  -1  -7  -5  118.39    9.90 
   1   7   5  136.59   11.90 
   1   7   5  117.49   12.10 
  -2  -7  -5  146.09   12.50 
  -2  -7  -5  122.99   11.10 
  -2  -7  -5  114.89   14.60 
   2   7   5  142.39   13.30 
   2   7   5  142.09   12.30 
   2   7   5  123.59   14.30 
  -3  -7  -5   24.70    4.80 
  -3  -7  -5   23.30    6.90 
  -3  -7  -5   20.00    4.80 
   3   7   5   19.90    6.20 
   3   7   5   27.60    6.40 
   3   7   5   18.20    4.90 
  -4  -7  -5  195.98   20.80 
  -4  -7  -5  221.08   18.10 
  -4  -7  -5  207.38   18.30 
   4   7   5  204.58   19.80 
   4   7   5  196.18   20.00 
   4   7   5  236.08   18.50 
  -5  -7  -5  109.99   14.60 
  -5  -7  -5  104.09   10.90 
  -5  -7  -5   95.69   11.80 
   5   7   5  102.19   13.60 
   5   7   5  108.79   13.50 
  -6  -7  -5   15.30    4.90 
  -6  -7  -5   21.70    6.50 
   6   7   5   12.10    5.80 
   6   7   5   20.60    6.10 
   6   7   5   13.40    6.20 
  -7  -7  -5    0.80    2.90 
   7   7   5    0.00    4.50 
   7   7   5    0.70    4.50 
   7   7   5    3.50    5.00 
  -8  -7  -5    5.10    3.50 
   8   7   5   12.80    5.90 
   8   7   5    3.30    4.90 
   8   7   5    0.50    4.10 
   9   7   5   25.80    8.80 
   9   7   5   16.70    8.60 
   9   7   5   34.40    7.50 
   3  -8  -5   -1.10    4.60 
   3  -8  -5   -4.30    2.90 
   2  -8  -5    5.50    4.20 
   2  -8  -5   12.30    5.90 
   1  -8  -5    1.50    2.90 
   1  -8  -5    3.70    3.60 
  -1   8   5    2.20    2.30 
   0  -8  -5    4.30    4.50 
   0  -8  -5   10.80    3.20 
   0   8   5    8.10    3.30 
  -1  -8  -5   28.40    5.50 
  -1  -8  -5   24.20    2.90 
  -1  -8  -5   26.10    6.90 
   1   8   5   30.60    4.90 
   1   8   5   39.00    6.30 
  -2  -8  -5   62.79   10.70 
  -2  -8  -5   62.69   11.40 
  -2  -8  -5   60.69    6.30 
   2   8   5   66.99    8.30 
  -3  -8  -5   15.60    3.80 
  -3  -8  -5   11.50    6.50 
  -3  -8  -5   20.80    5.00 
   3   8   5   12.30    4.90 
   3   8   5   12.20    4.70 
  -4  -8  -5   14.10    4.10 
  -4  -8  -5   11.80    4.30 
  -4  -8  -5    6.20    6.80 
   4   8   5   17.10    5.80 
   4   8   5   16.10    6.40 
  -5  -8  -5   44.90    7.30 
  -5  -8  -5   57.09   10.90 
   5   8   5   56.69   11.10 
   5   8   5   36.10    9.00 
   5   8   5   53.69    8.90 
  -6  -8  -5    9.40    3.40 
  -6  -8  -5   -1.10    6.70 
   6   8   5    5.30    4.70 
   6   8   5   14.90    5.90 
   6   8   5    2.40    4.60 
  -7  -8  -5   10.60    4.80 
   7   8   5   10.20    5.90 
   7   8   5   23.00    6.20 
   7   8   5   14.20    6.10 
  -8  -8  -5   11.50    4.30 
   8   8   5   16.70   14.50 
   8   8   5   -5.00    7.10 
   1  -9  -5    7.40    3.40 
   1  -9  -5   18.80    6.50 
   0  -9  -5   -1.90    2.10 
   0   9   5   -1.40    2.00 
  -1  -9  -5   17.30    4.80 
  -1  -9  -5   10.20    6.40 
  -2  -9  -5    0.30    1.20 
  -2  -9  -5    4.60    3.30 
  -2  -9  -5    9.00    5.70 
   2   9   5    4.60    4.90 
   2   9   5    2.60    2.80 
  -3  -9  -5   38.40   10.30 
  -3  -9  -5   41.00    5.80 
  -3  -9  -5   49.40    7.80 
   3   9   5   33.50    7.40 
   3   9   5   45.20    9.20 
  -4  -9  -5    4.80    3.60 
  -4  -9  -5    1.70    2.90 
  -4  -9  -5    9.60    7.30 
   4   9   5    5.10    4.30 
   4   9   5    8.70    4.70 
  -5  -9  -5   20.10    8.90 
  -5  -9  -5   18.20    5.60 
   5   9   5   13.90    5.80 
   5   9   5   14.10    5.60 
  -6  -9  -5   23.00    9.40 
   6   9   5   31.70    8.30 
   6   9   5   33.60    8.90 
  -7  -9  -5   23.50    6.10 
   7   9   5   33.80    9.80 
   7   9   5   32.10    9.10 
  -8  -9  -5    4.90    3.90 
   8   9   5    3.20    5.90 
   8   9   5    2.70    6.30 
  -1 -10  -5   42.30   10.90 
  -1 -10  -5   46.60   12.10 
  -2 -10  -5    4.40    3.50 
  -2 -10  -5    6.80    1.60 
   2  10   5    1.20    2.60 
   2  10   5   -0.10    4.90 
  -3 -10  -5    5.80    2.50 
  -3 -10  -5    6.30    3.30 
  -3 -10  -5   23.10    8.70 
   3  10   5   -0.90    3.30 
   3  10   5   11.80    4.70 
  -4 -10  -5   13.70    9.50 
  -4 -10  -5   19.70    5.70 
   4  10   5   16.40    5.40 
   4  10   5   12.70    5.60 
  -5 -10  -5    9.10    3.80 
  -5 -10  -5    6.00   10.10 
   5  10   5   -4.50    4.50 
  -6 -10  -5    5.80    4.20 
   6  10   5   12.40    6.50 
   6  10   5   -4.30    5.10 
   4   7  -6    3.20    5.80 
   3   7  -6    1.30    5.10 
  -3  -7   6    1.70    2.70 
  -3  -7   6    3.20    3.90 
   2   7  -6    9.80    5.60 
   2   7  -6   22.10    6.30 
  -2  -7   6   22.10    4.60 
  -2  -7   6    9.60    5.20 
   1   7  -6    6.30    3.40 
   1   7  -6   10.50    5.10 
  -1  -7   6   -1.30    4.50 
  -1  -7   6    4.10    2.30 
   0   7  -6   -2.50    2.50 
   0   7  -6    1.40    6.20 
   0  -7   6   -7.50    4.00 
  -1   7  -6    7.80    7.70 
  -1   7  -6    5.50    3.60 
   1  -7   6   -5.60    5.00 
   1  -7   6    5.80    4.60 
   1  -7   6    3.20    2.30 
  -2   7  -6    6.50    3.40 
   2  -7   6    5.80    2.50 
   2  -7   6    8.40    6.00 
   5   6  -6   -0.40    3.90 
   5   6  -6   -0.10    4.40 
   4   6  -6    7.80    4.20 
   4   6  -6   13.00    4.90 
   4   6  -6   13.20    4.00 
  -4  -6   6    3.70    3.90 
   3   6  -6    8.50    3.40 
   3   6  -6    0.40    3.60 
   3   6  -6    4.50    3.50 
  -3  -6   6    6.80    2.90 
  -3  -6   6   -1.50    3.20 
   2   6  -6   -2.20    1.80 
   2   6  -6    5.20    3.80 
  -2  -6   6    1.60    1.80 
  -2  -6   6    2.60    3.50 
   1   6  -6   34.90    8.10 
   1   6  -6   25.30    6.10 
  -1  -6   6   25.30    5.50 
  -1  -6   6   29.10    5.00 
   0   6  -6   32.00    7.80 
   0   6  -6   32.00    6.40 
   0  -6   6   37.90    5.00 
   0  -6   6   42.80    8.50 
   0  -6   6   23.50    6.50 
  -1   6  -6   10.00    3.50 
  -1   6  -6   13.10    4.80 
   1  -6   6   19.80    5.20 
   1  -6   6   11.40    2.90 
   1  -6   6    3.20    4.90 
  -2   6  -6   11.30    4.60 
  -2   6  -6   13.00    5.10 
   2  -6   6   13.90    3.20 
   2  -6   6    4.50    5.40 
   2  -6   6   16.30    4.70 
  -3   6  -6    3.40    4.10 
   3  -6   6    5.50    2.30 
   3  -6   6    0.80    3.80 
   3  -6   6   -1.10    4.80 
  -4   6  -6    7.10    3.50 
   4  -6   6    4.10    2.90 
   4  -6   6    5.50    6.00 
   6   5  -6    9.00    4.10 
   6   5  -6    0.40    4.30 
   6   5  -6    8.30    4.30 
   5   5  -6   11.20    4.50 
   5   5  -6   21.80    5.30 
   5   5  -6   17.00    4.10 
  -5  -5   6   14.30    3.80 
   4   5  -6   -0.90    3.00 
   4   5  -6    1.80    3.20 
   4   5  -6    2.70    3.30 
  -4  -5   6    0.20    3.00 
   3   5  -6   32.90    7.20 
   3   5  -6   35.10    5.50 
   3   5  -6   28.30    6.20 
  -3  -5   6   21.70    5.00 
   2   5  -6    8.80    4.10 
  -2  -5   6   12.90    4.80 
  -2  -5   6   14.50    3.70 
   1   5  -6   31.50    5.90 
   1   5  -6   33.00    7.20 
  -1  -5   6   30.00    4.90 
  -1  -5   6   29.60    5.50 
   0   5  -6   47.10    8.20 
   0   5  -6   40.70    7.00 
   0  -5   6   40.20    7.10 
   0  -5   6   33.40    7.10 
   0  -5   6   45.80    5.30 
  -1   5  -6   14.20    4.30 
  -1   5  -6   12.20    4.10 
   1  -5   6   15.60    5.50 
   1  -5   6   14.50    3.00 
   1  -5   6   17.90    6.60 
   1  -5   6   12.10    4.20 
  -2   5  -6   22.20    4.90 
  -2   5  -6   18.20    5.00 
   2  -5   6   20.10    5.70 
   2  -5   6   16.50    5.10 
   2  -5   6   19.90    3.70 
   2  -5   6   14.80    4.20 
  -3   5  -6    3.30    4.60 
  -3   5  -6   13.10    4.40 
   3  -5   6    5.20    2.40 
   3  -5   6    7.50    4.70 
   3  -5   6    5.80    3.30 
   3  -5   6    6.60    4.80 
  -4   5  -6   14.80    4.00 
   4  -5   6   17.80    3.90 
   4  -5   6   10.80    3.60 
   4  -5   6   13.20    5.80 
   4  -5   6   12.70    6.20 
   5  -5   6   15.60    7.60 
   5  -5   6   16.60    5.00 
   5  -5   6   10.50    6.20 
   5  -5   6   21.90    4.50 
   6   4  -6    6.00    2.60 
   6   4  -6    5.50    4.40 
  -6  -4   6    8.20    4.10 
   5   4  -6    3.90    2.30 
   5   4  -6    5.30    3.30 
   5   4  -6    4.10    3.30 
  -5  -4   6   -0.20    2.80 
   4   4  -6    9.50    3.60 
   4   4  -6    2.00    3.10 
   4   4  -6    4.90    2.80 
  -4  -4   6    4.10    3.30 
   3   4  -6   15.50    4.20 
   3   4  -6   11.80    3.90 
  -3  -4   6   10.30    3.60 
   2   4  -6   57.19    7.80 
   2   4  -6   43.40    6.40 
  -2  -4   6   59.89    6.60 
  -2  -4   6   53.59    6.90 
   1   4  -6   73.79    8.80 
   1   4  -6   69.69    7.90 
  -1  -4   6   60.89    8.60 
  -1  -4   6   79.39    7.40 
  -1  -4   6   62.59   10.00 
  -1  -4   6   53.79    8.90 
   0   4  -6  103.39   11.20 
   0   4  -6  116.69   11.80 
   0  -4   6  101.49   11.40 
   0  -4   6  124.69   10.20 
   0  -4   6  124.49   13.20 
   0  -4   6  142.79   18.00 
  -1   4  -6    7.90    4.40 
  -1   4  -6   15.40    4.40 
   1  -4   6   12.40    4.70 
   1  -4   6    3.00    4.10 
   1  -4   6   11.60    4.20 
   1  -4   6   10.90    2.70 
  -2   4  -6   18.90    4.40 
  -2   4  -6   33.30    6.00 
   2  -4   6   26.80    5.00 
   2  -4   6   17.20    5.30 
   2  -4   6   22.00    3.90 
   2  -4   6   21.80    6.90 
  -3   4  -6   24.20    5.00 
  -3   4  -6   19.20    4.80 
   3  -4   6   21.00    6.10 
   3  -4   6   30.20    4.70 
   3  -4   6    9.40    4.80 
   3  -4   6   20.00    3.90 
  -4   4  -6   19.80    4.80 
  -4   4  -6    0.60    4.40 
   4  -4   6    1.80    4.20 
   4  -4   6    8.90    3.20 
   4  -4   6    9.10    3.30 
   4  -4   6    8.70    5.10 
  -5   4  -6   31.70    6.00 
   5  -4   6   16.90    6.10 
   5  -4   6   26.70    7.40 
   5  -4   6   17.40    4.30 
   5  -4   6   27.30    5.40 
  -6   4  -6    6.40    3.30 
   6  -4   6   14.00    4.00 
   6  -4   6    3.50    5.70 
   7   3  -6    3.20    4.30 
   7   3  -6   -1.50    3.30 
   7   3  -6    5.50    2.90 
   6   3  -6   -2.90    3.10 
   6   3  -6    3.60    3.30 
   6   3  -6    8.60    3.40 
   5   3  -6   19.90    5.30 
   5   3  -6   12.40    3.50 
   5   3  -6   14.80    4.50 
  -5  -3   6   23.60    3.90 
   4   3  -6    7.20    3.30 
   4   3  -6    7.20    3.30 
  -4  -3   6    8.90    2.70 
   3   3  -6   22.90    5.20 
   3   3  -6   17.90    3.70 
   3   3  -6   16.30    5.70 
  -3  -3   6   17.50    4.00 
   2   3  -6    4.50    3.00 
   2   3  -6   13.40    3.80 
  -2  -3   6   16.60    4.40 
  -2  -3   6    4.90    3.90 
  -2  -3   6   10.10    3.10 
  -2  -3   6   12.20    3.20 
   1   3  -6   14.50    3.60 
   1   3  -6    7.40    3.10 
  -1  -3   6   15.70    4.30 
  -1  -3   6   13.90    3.50 
  -1  -3   6   16.20    3.50 
   0   3  -6   61.39    7.10 
   0   3  -6   65.99    7.50 
   0  -3   6   52.29    7.70 
   0  -3   6   63.29    8.80 
   0  -3   6   65.49    7.40 
   0  -3   6   64.79    6.40 
  -1   3  -6   64.39    7.60 
  -1   3  -6   73.69    7.90 
   1  -3   6   68.99    6.70 
   1  -3   6   60.59    7.60 
   1  -3   6   53.49    8.00 
   1  -3   6   68.79    8.70 
  -2   3  -6   46.60    7.90 
  -2   3  -6   53.29    6.90 
   2  -3   6   51.79    7.60 
   2  -3   6   47.50    7.90 
   2  -3   6   58.79    6.80 
   2  -3   6   60.59    6.20 
  -3   3  -6  156.18   13.90 
  -3   3  -6  158.18   12.40 
  -3   3  -6  158.18   14.40 
   3  -3   6  153.58   13.30 
   3  -3   6  150.58   13.00 
  -4   3  -6   44.90    8.10 
  -4   3  -6   50.99    7.10 
  -4   3  -6   64.89    5.80 
   4  -3   6   67.09    7.50 
   4  -3   6   35.50    7.80 
  -5   3  -6    8.40    5.00 
  -5   3  -6    3.20    2.10 
  -5   3  -6    5.30    1.80 
   5  -3   6   -0.90    2.80 
   5  -3   6    0.70    2.80 
   5  -3   6    3.20    4.50 
  -6   3  -6   10.60    4.30 
  -6   3  -6    8.80    3.70 
   6  -3   6    5.90    5.50 
   6  -3   6    0.60    3.00 
   6  -3   6    1.00    3.30 
  -7   3  -6   -0.70    2.20 
   7  -3   6    0.50    3.50 
   7  -3   6   10.10    5.20 
   7   2  -6    1.50    4.70 
   7   2  -6   -1.40    2.20 
   7   2  -6   -1.90    3.00 
   6   2  -6   11.90    3.00 
   6   2  -6    9.50    4.90 
   6   2  -6    3.40    3.20 
   5   2  -6   21.50    4.80 
   5   2  -6   15.70    4.20 
   5   2  -6   11.50    4.80 
   4   2  -6   51.89    7.10 
   4   2  -6   60.49    5.90 
   4   2  -6   52.99    7.90 
   3   2  -6  106.89   11.70 
   3   2  -6  133.79   11.20 
   3   2  -6  118.59   10.00 
  -3  -2   6  128.79   11.20 
  -3  -2   6  115.69    9.70 
  -3  -2   6   99.39   12.30 
   2   2  -6   51.99    5.90 
   2   2  -6   57.29    7.20 
   2   2  -6   62.09    6.90 
  -2  -2   6   70.29    8.10 
  -2  -2   6   55.99    6.30 
  -2  -2   6   57.09    8.30 
  -2  -2   6   61.09    6.00 
   1   2  -6    5.10    2.20 
   1   2  -6    2.20    1.60 
  -1  -2   6    3.40    1.50 
  -1  -2   6    1.30    2.20 
  -1  -2   6    5.60    3.10 
  -1  -2   6    5.40    2.90 
   0   2  -6   17.30    3.80 
   0   2  -6   12.50    3.30 
   0  -2   6   13.30    4.00 
   0  -2   6   18.10    3.50 
   0  -2   6   14.70    3.60 
   0  -2   6   15.40    3.00 
  -1   2  -6    9.60    2.70 
  -1   2  -6    9.80    3.00 
   1  -2   6   11.50    2.90 
   1  -2   6   12.80    3.30 
   1  -2   6    8.40    3.30 
   1  -2   6   11.40    2.60 
  -2   2  -6   20.90    3.20 
  -2   2  -6   17.70    4.00 
  -2   2  -6   18.00    3.60 
   2  -2   6   15.90    3.30 
   2  -2   6   15.00    4.00 
  -3   2  -6   20.70    3.30 
  -3   2  -6   19.20    4.40 
   3  -2   6   15.90    4.70 
   3  -2   6   23.00    5.80 
   3  -2   6   21.10    4.00 
  -4   2  -6   33.30    6.00 
  -4   2  -6   26.10    4.70 
  -4   2  -6   26.30    3.70 
   4  -2   6   22.50    4.80 
   4  -2   6   25.90    4.80 
   4  -2   6   18.90    5.50 
  -5   2  -6   51.29    5.70 
  -5   2  -6   48.60    7.10 
  -5   2  -6   38.00    7.80 
   5  -2   6   45.60    8.50 
   5  -2   6   50.29    7.60 
   5  -2   6   50.49    8.00 
  -6   2  -6   24.80    4.40 
  -6   2  -6   34.00    6.10 
   6  -2   6   29.90    6.90 
   6  -2   6   41.00    7.10 
  -7   2  -6    4.70    2.60 
  -7   2  -6    0.40    2.10 
   7  -2   6    0.10    3.10 
   7  -2   6   12.00    5.10 
   7  -2   6    1.00    3.10 
   7   1  -6   15.70    6.70 
   7   1  -6   26.40    5.40 
   7   1  -6   35.30    4.70 
   6   1  -6   16.60    4.20 
   6   1  -6   20.80    3.70 
   6   1  -6   11.90    5.70 
   5   1  -6    9.30    4.30 
   5   1  -6    6.80    3.40 
   5   1  -6   11.70    2.60 
   4   1  -6   22.90    6.00 
   4   1  -6   35.40    6.00 
   4   1  -6   22.90    3.80 
   3   1  -6   51.79    5.10 
   3   1  -6   53.89    6.00 
   3   1  -6   52.39    7.40 
  -3  -1   6   40.30    8.00 
   2   1  -6   20.80    3.30 
   2   1  -6   32.80    4.20 
   2   1  -6   30.70    5.60 
  -2  -1   6   16.40    4.80 
  -2  -1   6   26.20    3.90 
   1   1  -6    5.50    1.90 
   1   1  -6    4.20    1.80 
  -1  -1   6    3.20    1.80 
  -1  -1   6    6.70    2.10 
  -1  -1   6    3.90    2.50 
  -1  -1   6    0.70    2.20 
   0   1  -6  140.09   12.00 
   0   1  -6  148.29   12.20 
   0  -1   6  155.88   12.10 
   0  -1   6  139.19   13.00 
   0  -1   6  161.98   12.40 
   0  -1   6  164.48   12.80 
  -1   1  -6  126.99   10.70 
  -1   1  -6  137.29   10.40 
  -1   1  -6  127.19   10.70 
   1  -1   6  118.09   11.00 
   1  -1   6  131.79   10.50 
   1  -1   6  126.29   11.10 
   1  -1   6  117.79   11.60 
  -2   1  -6  104.29    9.30 
  -2   1  -6   92.09    9.50 
  -2   1  -6  101.99    8.70 
   2  -1   6  103.49    9.90 
   2  -1   6  110.09   10.20 
   2  -1   6  108.89    9.10 
  -3   1  -6   49.40    5.30 
  -3   1  -6   51.69    6.00 
  -3   1  -6   48.20    6.30 
   3  -1   6   45.20    6.90 
   3  -1   6   50.19    6.30 
   3  -1   6   41.90    6.00 
  -4   1  -6    4.60    2.30 
  -4   1  -6    4.70    3.50 
  -4   1  -6   10.30    2.50 
   4  -1   6    4.10    3.00 
   4  -1   6   10.80    3.50 
   4  -1   6    1.00    3.40 
  -5   1  -6   18.50    4.60 
  -5   1  -6   23.90    4.30 
   5  -1   6   20.00    4.30 
   5  -1   6   11.50    4.20 
  -6   1  -6   16.20    4.20 
  -6   1  -6   13.30    4.50 
  -6   1  -6   22.40    4.30 
   6  -1   6   10.30    4.70 
   6  -1   6   29.00    6.30 
   6  -1   6   26.50    6.30 
  -7   1  -6    0.10    1.90 
   7  -1   6    5.00    2.50 
   7  -1   6    2.30    3.80 
   7  -1   6   15.40    8.70 
  -8   1  -6    8.80    3.80 
   8  -1   6    2.20    5.50 
   8  -1   6   13.70    5.30 
   8  -1   6   11.90    5.60 
   7   0  -6    7.30    5.20 
   6   0  -6   25.50    7.10 
   5   0  -6   50.79    8.10 
   4   0  -6   88.49   10.00 
  -4   0   6   76.99   11.20 
   3   0  -6   14.50    4.30 
  -3   0   6   19.20    7.40 
  -2   0   6  118.79   12.10 
  -2   0   6  131.49   10.70 
   1   0  -6   36.90    3.90 
   1   0  -6   42.80    4.00 
  -1   0   6   37.60    4.40 
  -1   0   6   38.50    5.70 
   0   0  -6   71.19    6.50 
   0   0  -6   68.99    6.30 
   0   0   6   78.39    6.70 
   0   0   6   68.29    7.40 
   0   0   6   72.49    6.60 
   0   0   6   78.59    6.70 
  -1   0  -6   69.99    6.50 
  -1   0  -6   66.29    6.30 
   1   0   6   78.59    6.90 
   1   0   6   77.49    7.20 
   1   0   6   68.89    6.60 
  -2   0  -6   69.59    6.60 
  -2   0  -6   79.09    7.10 
  -2   0  -6   74.79    7.60 
   2   0   6   78.29    7.10 
   2   0   6   74.19    7.20 
   2   0   6   66.99    7.50 
  -3   0  -6  379.96   27.00 
  -3   0  -6  379.96   27.40 
  -3   0  -6  374.86   26.40 
   3   0   6  360.56   26.80 
   3   0   6  371.66   27.00 
   3   0   6  307.27   27.20 
  -4   0  -6   41.10    5.50 
  -4   0  -6   37.60    6.90 
  -4   0  -6   33.70    6.50 
   4   0   6   51.89    6.00 
   4   0   6   52.49    6.90 
  -5   0  -6   65.09    7.70 
  -5   0  -6   57.39    6.70 
   5   0   6   39.70    8.10 
   5   0   6   59.79    7.20 
   5   0   6   65.29    8.90 
  -6   0  -6    1.20    4.20 
  -6   0  -6    7.10    2.70 
  -6   0  -6    7.10    3.00 
   6   0   6    4.00    2.50 
   6   0   6    2.50    3.60 
   6   0   6    3.40    3.40 
  -7   0  -6   55.19    7.50 
   7   0   6   57.99   10.40 
   7   0   6   61.39    8.00 
  -8   0  -6    3.70    3.20 
   8   0   6    0.10    4.00 
   8   0   6    7.50    4.00 
   8   0   6    5.50    4.60 
   6  -1  -6   10.80    4.80 
   5  -1  -6  111.09   12.50 
   4  -1  -6  104.39   10.50 
  -4   1   6   78.89   11.10 
   3  -1  -6   43.60    6.00 
  -3   1   6   35.20    6.90 
  -3   1   6   40.20    4.80 
  -2   1   6    1.00    2.30 
  -2   1   6    0.60    1.10 
  -1   1   6    0.50    1.70 
  -1   1   6    1.70    1.10 
   0  -1  -6   36.40    3.40 
   0  -1  -6   29.70    3.80 
   0   1   6   34.80    4.70 
   0   1   6   34.00    4.00 
  -1  -1  -6  113.99    9.30 
  -1  -1  -6  125.79    9.70 
  -1  -1  -6  109.09    9.10 
   1   1   6  108.69    9.50 
   1   1   6  132.59    9.90 
   1   1   6  105.29    9.00 
  -2  -1  -6   10.80    2.40 
  -2  -1  -6    6.60    2.50 
  -2  -1  -6   12.50    2.50 
   2   1   6    8.90    2.50 
   2   1   6    9.50    2.70 
   2   1   6   12.20    2.50 
  -3  -1  -6   19.40    4.00 
  -3  -1  -6   20.80    3.40 
  -3  -1  -6   22.50    3.50 
   3   1   6   20.40    3.60 
   3   1   6   24.10    4.30 
   3   1   6   16.90    3.80 
  -4  -1  -6   20.80    5.40 
  -4  -1  -6   32.70    5.80 
  -4  -1  -6   29.30    4.50 
   4   1   6   33.40    4.50 
   4   1   6   33.50    5.90 
   4   1   6   19.60    4.80 
  -5  -1  -6   36.00    5.40 
  -5  -1  -6   31.10    5.30 
  -5  -1  -6   33.90    6.40 
   5   1   6   21.00    5.90 
   5   1   6   35.10    5.10 
   5   1   6   34.70    6.50 
  -6  -1  -6   53.89    6.90 
  -6  -1  -6   58.19    7.10 
  -6  -1  -6   46.10    8.50 
   6   1   6   44.70    8.30 
   6   1   6   51.19    8.80 
   6   1   6   53.19    6.80 
  -7  -1  -6    2.20    4.10 
  -7  -1  -6    7.40    3.00 
   7   1   6    7.70    5.00 
   7   1   6   12.60    3.60 
  -8  -1  -6   46.10    7.40 
   8   1   6   26.40    7.70 
   8   1   6   51.89   10.10 
   8   1   6   43.00    7.00 
  -9  -1  -6    7.00    3.20 
   9   1   6    6.00    5.80 
   9   1   6   13.20    6.20 
   9   1   6   12.30    3.90 
   6  -2  -6    0.60    2.70 
  -6   2   6   -1.70    1.10 
   5  -2  -6   -0.30    2.50 
  -5   2   6    5.00    1.90 
  -5   2   6   -0.20    3.50 
  -4   2   6   12.70    5.30 
  -4   2   6    7.90    2.40 
  -3   2   6    3.60    3.40 
  -3   2   6    1.70    1.40 
  -2   2   6   45.10    6.50 
  -2   2   6   43.70    4.70 
  -1   2   6   58.79    5.50 
  -1   2   6   56.59    6.50 
   0  -2  -6   51.29    4.50 
   0  -2  -6   38.90    3.70 
   0  -2  -6   40.80    4.30 
   0   2   6   38.70    4.40 
  -1  -2  -6   53.49    5.60 
  -1  -2  -6   55.29    5.10 
  -1  -2  -6   54.39    4.80 
   1   2   6   60.19    6.00 
   1   2   6   45.90    4.60 
   1   2   6   55.79    5.50 
  -2  -2  -6   52.49    5.10 
  -2  -2  -6   50.09    4.90 
   2   2   6   48.00    4.80 
   2   2   6   52.39    6.10 
   2   2   6   46.10    5.50 
  -3  -2  -6  102.19    8.60 
  -3  -2  -6  100.69    9.50 
  -3  -2  -6   98.49    8.50 
   3   2   6   95.89    9.30 
   3   2   6   99.19    8.50 
   3   2   6   80.89    9.20 
  -4  -2  -6    9.00    2.80 
  -4  -2  -6   10.70    3.00 
  -4  -2  -6    9.00    2.90 
   4   2   6    7.40    3.20 
   4   2   6    5.50    2.90 
   4   2   6   10.90    2.80 
  -5  -2  -6    0.50    2.00 
  -5  -2  -6    2.50    2.60 
  -5  -2  -6    5.90    3.50 
   5   2   6   -1.30    1.10 
   5   2   6   -4.00    2.60 
   5   2   6    0.50    2.90 
  -6  -2  -6    2.10    3.50 
  -6  -2  -6    1.10    1.70 
  -6  -2  -6    0.60    2.10 
   6   2   6    2.00    1.60 
   6   2   6    4.00    3.60 
   6   2   6    9.70    3.90 
  -7  -2  -6    1.60    4.10 
  -7  -2  -6    1.50    2.30 
   7   2   6    0.80    3.60 
   7   2   6    3.20    2.00 
   7   2   6    9.50    4.40 
  -8  -2  -6   -2.20    2.00 
   8   2   6    3.80    4.30 
   8   2   6   -7.20    4.50 
   8   2   6   -1.20    1.70 
  -9  -2  -6   35.70    6.60 
   9   2   6   30.80    8.50 
   9   2   6   35.20    7.00 
  -6   3   6   -0.10    1.50 
  -5   3   6   10.10    4.80 
  -5   3   6   11.50    2.60 
  -4   3   6   20.80    5.40 
  -4   3   6   29.90    3.80 
  -3   3   6   53.39    7.50 
  -3   3   6   56.79    5.50 
  -2   3   6   67.49    6.20 
  -1   3   6   26.10    4.20 
  -1   3   6   14.30    2.70 
   0  -3  -6   51.69    4.30 
   0  -3  -6   37.30    5.10 
   0  -3  -6   48.20    4.60 
   0   3   6   52.19    5.10 
  -1  -3  -6   36.90    3.90 
  -1  -3  -6   32.30    4.70 
  -1  -3  -6   34.20    3.70 
   1   3   6   36.00    5.00 
   1   3   6   33.60    3.40 
   1   3   6   40.40    4.50 
  -2  -3  -6   52.69    5.50 
  -2  -3  -6   55.99    5.40 
   2   3   6   55.69    5.20 
   2   3   6   52.29    7.00 
   2   3   6   56.19    6.30 
  -3  -3  -6    0.80    1.50 
  -3  -3  -6    2.70    1.40 
  -3  -3  -6    3.10    2.50 
   3   3   6    1.90    2.30 
   3   3   6    1.70    2.30 
   3   3   6    4.80    1.70 
  -4  -3  -6    0.20    1.30 
  -4  -3  -6   -0.20    1.60 
  -4  -3  -6    0.10    2.50 
   4   3   6    1.10    2.80 
   4   3   6    1.60    2.90 
   4   3   6    2.30    1.30 
  -5  -3  -6   -0.30    4.00 
  -5  -3  -6    6.60    3.00 
  -5  -3  -6    5.90    2.50 
   5   3   6    4.40    2.30 
   5   3   6    5.40    3.70 
   5   3   6    3.20    3.20 
  -6  -3  -6   44.40    8.70 
  -6  -3  -6   49.20    7.30 
  -6  -3  -6   56.49    7.30 
   6   3   6   56.29    9.50 
   6   3   6   55.19    6.80 
   7   3   6   29.60    7.50 
   7   3   6   49.00    6.70 
   7   3   6   47.60    8.90 
  -8  -3  -6    4.90    2.60 
   8   3   6    4.00    3.10 
   8   3   6   -1.40    4.00 
   8   3   6   -2.90    4.20 
  -9  -3  -6    0.20    2.40 
   9   3   6    3.30    5.80 
   9   3   6    6.20    2.60 
   9   3   6    3.60    5.10 
  -5   4   6    4.90    3.80 
  -5   4   6   11.20    2.40 
  -4   4   6    3.40    1.40 
  -4   4   6    7.10    3.00 
  -3   4   6    2.00    1.30 
  -3   4   6    1.30    2.60 
  -2   4   6    6.90    2.90 
   1  -4  -6   12.90    2.30 
   1  -4  -6    9.70    3.10 
  -1   4   6   12.60    2.90 
   0  -4  -6   12.80    3.40 
   0  -4  -6   18.20    2.60 
   0  -4  -6   18.30    2.90 
  -1  -4  -6   38.50    4.20 
  -1  -4  -6   40.10    4.30 
  -1  -4  -6   41.70    5.90 
   1   4   6   34.60    5.10 
   1   4   6   40.30    5.10 
   1   4   6   39.00    3.90 
  -2  -4  -6   31.80    5.30 
  -2  -4  -6   22.20    3.40 
  -2  -4  -6   26.20    3.80 
   2   4   6   21.30    3.20 
   2   4   6   27.30    5.20 
   2   4   6   25.70    4.50 
  -3  -4  -6   77.59    9.30 
  -3  -4  -6   89.29    8.00 
  -3  -4  -6   82.39    8.10 
   3   4   6   76.69    9.70 
   3   4   6   97.99    8.10 
   3   4   6   84.29    9.40 
  -4  -4  -6  132.09   12.60 
  -4  -4  -6  127.59   11.00 
  -4  -4  -6  115.89   11.30 
   4   4   6  139.39   11.10 
   4   4   6  107.79   12.60 
   4   4   6  126.19   12.80 
  -5  -4  -6   18.90    5.00 
  -5  -4  -6   18.10    4.70 
  -5  -4  -6   28.50    4.50 
   5   4   6   20.50    4.00 
   5   4   6   24.10    6.30 
   5   4   6   16.90    5.10 
  -6  -4  -6   69.79    7.70 
  -6  -4  -6   70.09    9.20 
   6   4   6   46.70    9.20 
   6   4   6   62.49   10.80 
   6   4   6   55.59    7.40 
  -7  -4  -6    6.40    2.60 
  -7  -4  -6    7.50    5.30 
   7   4   6    7.40    4.50 
   7   4   6    6.90    3.10 
   7   4   6    6.70    4.50 
  -8  -4  -6    3.40    3.40 
   8   4   6    2.60    4.70 
   8   4   6    7.40    2.60 
  -9  -4  -6   -1.40    2.60 
   9   4   6    4.30    3.10 
   9   4   6    6.80    4.80 
   9   4   6   16.90    7.30 
  -5   5   6    1.10    1.10 
   4  -5  -6    3.50    2.10 
  -4   5   6   -0.10    1.10 
  -4   5   6    0.40    2.40 
   3  -5  -6    3.80    2.20 
   3  -5  -6    2.20    2.10 
  -3   5   6    3.10    2.60 
   2  -5  -6   63.39    7.60 
   2  -5  -6   66.59    6.70 
  -2   5   6   74.89    8.10 
  -2   5   6   70.69    6.20 
   1  -5  -6   46.20    6.40 
   1  -5  -6   36.60    4.30 
  -1   5   6   35.60    4.60 
   0  -5  -6   48.80    7.30 
   0  -5  -6   55.29    4.90 
   0  -5  -6   55.49    5.50 
   0   5   6   54.49    6.00 
   0   5   6   50.99    5.10 
  -1  -5  -6    9.70    4.20 
  -1  -5  -6   18.00    3.20 
  -1  -5  -6   12.00    2.50 
   1   5   6   14.80    3.60 
   1   5   6   14.00    2.60 
   1   5   6   10.60    3.30 
  -2  -5  -6   -0.60    1.20 
  -2  -5  -6    0.40    1.30 
  -2  -5  -6    1.70    2.70 
   2   5   6   -0.50    2.60 
   2   5   6    1.50    1.20 
   2   5   6    0.20    2.30 
  -3  -5  -6   10.10    3.90 
  -3  -5  -6    8.70    2.80 
  -3  -5  -6    7.30    2.40 
   3   5   6    9.40    4.00 
   3   5   6   12.60    4.70 
   3   5   6    6.60    2.60 
  -4  -5  -6    7.60    2.90 
  -4  -5  -6   10.20    3.50 
  -4  -5  -6   13.20    4.10 
   4   5   6   10.40    3.20 
   4   5   6    4.20    4.10 
   4   5   6   10.70    4.20 
  -5  -5  -6   43.00    8.10 
  -5  -5  -6   27.80    5.60 
  -5  -5  -6   30.80    5.30 
   5   5   6   27.00    6.70 
   5   5   6   37.60    5.70 
   5   5   6   33.10    7.20 
  -6  -5  -6   56.19    9.60 
  -6  -5  -6   66.29    7.60 
   6   5   6   49.00   13.20 
   6   5   6   57.19    7.40 
   6   5   6   36.60    8.50 
  -7  -5  -6   25.50    6.00 
   7   5   6   22.90    5.10 
   7   5   6   18.80    6.30 
   7   5   6   17.80    6.70 
  -8  -5  -6    0.60    2.70 
   8   5   6    4.10    2.40 
   8   5   6   -4.90    4.90 
   8   5   6    2.20    4.60 
   9   5   6    2.90    6.30 
   9   5   6    7.50    3.50 
   9   5   6   -0.20    7.10 
   4  -6  -6    4.10    3.50 
   4  -6  -6    6.30    3.50 
   3  -6  -6    0.50    2.20 
   3  -6  -6    8.80    2.90 
   2  -6  -6    1.40    1.80 
   2  -6  -6    3.20    2.70 
  -2   6   6    0.20    1.70 
  -2   6   6    1.10    1.30 
   1  -6  -6   32.70    4.20 
   1  -6  -6   32.30    6.20 
  -1   6   6   27.50    4.10 
  -1   6   6   27.40    4.20 
   0  -6  -6   39.80    7.30 
   0  -6  -6   44.30    5.20 
   0   6   6   43.50    5.90 
   0   6   6   41.60    4.60 
  -1  -6  -6   63.29    6.40 
  -1  -6  -6   53.09    5.20 
  -1  -6  -6   51.79    8.30 
   1   6   6   51.19    6.70 
   1   6   6   49.80    8.20 
   1   6   6   46.50    5.50 
  -2  -6  -6   52.89    6.10 
  -2  -6  -6   42.20    5.40 
   2   6   6   44.10    7.30 
   2   6   6   47.30    7.50 
   2   6   6   53.29    5.80 
  -3  -6  -6  134.19   11.30 
  -3  -6  -6  116.29   11.10 
  -3  -6  -6  122.49   13.40 
   3   6   6  108.79   12.90 
   3   6   6  124.19   12.80 
  -4  -6  -6   83.79    9.00 
  -4  -6  -6   76.99    8.40 
  -4  -6  -6   68.29   10.60 
   4   6   6   70.89   10.80 
   4   6   6   98.09    9.20 
   4   6   6   72.99   11.00 
  -5  -6  -6   63.49    7.30 
  -5  -6  -6   49.40    7.90 
   5   6   6   56.49    7.50 
   5   6   6   44.40    9.20 
  -6  -6  -6   40.10    7.60 
  -6  -6  -6   28.60    5.70 
   6   6   6   29.40    7.30 
   6   6   6   23.70    5.20 
  -7  -6  -6   -0.60    5.70 
  -7  -6  -6    2.60    2.70 
   7   6   6    8.20    5.20 
   7   6   6    1.20    2.90 
   7   6   6   -0.30    4.40 
  -8  -6  -6   16.40    4.80 
   8   6   6   13.80    6.90 
   8   6   6   20.80    7.10 
   8   6   6    7.80    7.70 
   9   6   6   -0.50    3.10 
   9   6   6   -3.00    4.30 
   9   6   6    7.90    7.10 
   3  -7  -6    1.70    3.80 
   3  -7  -6   11.80    4.40 
   2  -7  -6   20.10    7.00 
   2  -7  -6    7.60    3.20 
   1  -7  -6   22.70    4.30 
   1  -7  -6   16.80    5.30 
  -1   7   6   22.30    4.10 
   0  -7  -6    3.20    3.70 
   0  -7  -6    8.10    2.60 
   0   7   6    6.80    2.50 
   0   7   6   10.00    2.00 
   0   7   6    9.50    3.50 
  -1  -7  -6    1.00    1.10 
  -1  -7  -6   -0.30    3.60 
  -1  -7  -6   -0.30    3.20 
   1   7   6    0.00    2.40 
   1   7   6    1.50    4.00 
  -2  -7  -6  147.19   12.00 
  -2  -7  -6   97.39   13.80 
   2   7   6  123.89   12.90 
   2   7   6  134.69   12.70 
  -3  -7  -6  205.28   16.00 
  -3  -7  -6  163.58   18.10 
  -3  -7  -6  181.58   15.20 
   3   7   6  182.58   17.60 
   3   7   6  178.88   15.40 
   3   7   6  180.58   16.90 
  -4  -7  -6   42.60    7.60 
  -4  -7  -6   54.59    9.90 
  -4  -7  -6   45.00    6.40 
   4   7   6   38.90    7.00 
   4   7   6   35.80    7.80 
   4   7   6   35.60    8.60 
  -5  -7  -6  102.39   13.70 
  -5  -7  -6   85.79   10.00 
  -5  -7  -6   88.89   11.80 
   5   7   6   81.69   12.00 
   5   7   6  107.59   10.80 
   5   7   6   88.69   12.50 
  -6  -7  -6   10.40    7.00 
  -6  -7  -6   20.80    5.10 
   6   7   6   28.40    6.30 
   6   7   6   21.80    7.80 
   6   7   6   22.00    7.40 
  -7  -7  -6   28.20    8.30 
  -7  -7  -6   38.70    7.30 
   7   7   6   39.80    7.40 
   7   7   6   31.50    8.70 
  -8  -7  -6    8.70    4.50 
   8   7   6   16.90    6.30 
   8   7   6    9.50    7.60 
   8   7   6   12.20    4.40 
  -9  -7  -6    7.50    4.10 
   9   7   6    9.90    6.20 
   9   7   6  -10.10    4.50 
   2  -8  -6    4.40    4.40 
   2  -8  -6   -1.00    2.70 
   1  -8  -6    4.70    2.70 
   1  -8  -6    9.10    4.20 
  -1   8   6   10.20    3.30 
   0  -8  -6   20.90    4.60 
   0  -8  -6   17.40    5.70 
   0   8   6   33.10    5.40 
  -1  -8  -6    3.60    1.50 
  -1  -8  -6   10.10    4.60 
   1   8   6    4.10    2.70 
   1   8   6    2.30    3.00 
  -2  -8  -6   42.80    6.60 
  -2  -8  -6   50.59    5.20 
  -2  -8  -6   32.30    8.50 
   2   8   6   53.89    7.90 
   2   8   6   48.90    7.40 
  -3  -8  -6    2.50    2.30 
  -3  -8  -6    2.80    4.80 
  -3  -8  -6    5.90    4.20 
   3   8   6    1.40    3.20 
   3   8   6    3.90    4.10 
  -4  -8  -6   52.39    7.70 
  -4  -8  -6   58.69   11.60 
  -4  -8  -6   60.09    7.90 
   4   8   6   42.90    9.20 
   4   8   6   56.49    9.80 
  -5  -8  -6   80.89   14.30 
  -5  -8  -6   85.39    9.90 
   5   8   6   89.09   12.40 
  -6  -8  -6   23.70    5.90 
  -6  -8  -6   35.90    8.80 
   6   8   6   41.40    9.30 
   6   8   6   13.40    7.00 
  -7  -8  -6   -3.80    6.00 
  -7  -8  -6    7.70    3.40 
   7   8   6   13.10    7.10 
   7   8   6   10.20    5.50 
  -8  -8  -6    7.40    4.80 
   8   8   6    7.50    7.20 
   1  -9  -6   -5.40    6.20 
   1  -9  -6    3.90    3.10 
   0  -9  -6   65.79   10.90 
   0  -9  -6   42.70    6.80 
   0   9   6   41.10    6.80 
  -1  -9  -6   22.40    5.00 
   1   9   6   20.00    3.50 
  -2  -9  -6   10.70    2.30 
  -2  -9  -6   15.60    6.10 
  -2  -9  -6   11.40    4.40 
   2   9   6   10.80    4.10 
   2   9   6   10.90    4.00 
  -3  -9  -6   36.90    6.90 
  -3  -9  -6   35.80    5.20 
  -3  -9  -6   48.20   11.20 
   3   9   6   46.60    8.30 
   3   9   6   46.30    8.10 
  -4  -9  -6   21.80    5.60 
  -4  -9  -6   18.30    4.50 
   4   9   6   18.00    6.10 
   4   9   6   16.70    5.30 
  -5  -9  -6   21.30    5.50 
  -5  -9  -6   26.20    8.60 
   5   9   6   10.80    6.20 
   5   9   6   19.60    7.20 
  -6  -9  -6    3.00    3.80 
   6   9   6    7.80    5.60 
   6   9   6    9.10    5.70 
  -7  -9  -6    7.60    5.20 
   7   9   6   11.40    6.00 
   7   9   6    0.10    5.90 
  -8  -9  -6    0.20    3.50 
   8   9   6    6.00    6.60 
   8   9   6    6.50    6.80 
  -1 -10  -6   13.80    8.10 
  -2 -10  -6   38.00    7.40 
  -2 -10  -6   27.80    3.50 
  -2 -10  -6    9.80    8.50 
   2  10   6   34.40    5.70 
   2  10   6   24.90    6.80 
  -3 -10  -6    5.60    3.80 
  -3 -10  -6    5.20    2.10 
   3  10   6   11.00    5.20 
   3  10   6    1.10    3.60 
  -4 -10  -6   14.80   10.40 
  -4 -10  -6   14.30    4.30 
   4  10   6   10.30    5.20 
   4  10   6    5.80    4.80 
  -5 -10  -6    4.50    4.20 
  -5 -10  -6   16.00    9.70 
   5  10   6    2.70    5.00 
   5  10   6    6.70    4.40 
  -6 -10  -6   -2.20    3.00 
  -6 -10  -6   12.00   11.00 
   6  10   6    1.40    5.20 
   6  10   6   10.10    5.10 
   2   7  -7    6.50    4.10 
  -2  -7   7    6.90    3.20 
   1   7  -7   13.10    4.10 
  -1  -7   7    2.30    5.80 
  -1  -7   7    7.70    3.20 
   0   7  -7    0.50    3.30 
   0  -7   7    2.00    2.30 
   0  -7   7    8.10    6.30 
   4   6  -7    4.40    4.10 
   4   6  -7    3.70    3.50 
   4   6  -7    0.50    3.50 
  -4  -6   7    1.20    1.80 
  -3  -6   7   11.60    3.60 
  -3  -6   7   13.30    4.50 
   2   6  -7    3.30    3.00 
   2   6  -7    2.90    4.10 
  -2  -6   7   -1.30    1.40 
  -2  -6   7   15.00    4.90 
   1   6  -7   15.40    6.20 
   1   6  -7   16.00    4.90 
  -1  -6   7   21.80    4.40 
   0   6  -7    9.40    4.30 
   0   6  -7   11.80    4.20 
   0  -6   7    6.80    2.70 
   0  -6   7    4.80    4.70 
  -1   6  -7    1.10    4.20 
  -1   6  -7    5.20    3.50 
   1  -6   7   15.80    5.90 
  -2   6  -7    9.40    5.70 
  -2   6  -7   -0.20    3.30 
   2  -6   7    1.40    4.50 
   2  -6   7   -1.50    1.90 
  -3   6  -7   13.50    4.90 
   3  -6   7   -2.30    5.20 
   3  -6   7    3.60    5.40 
   3  -6   7    4.20    2.70 
   5   5  -7    9.00    4.40 
   5   5  -7    1.70    4.00 
   5   5  -7    5.60    4.10 
   4   5  -7    3.30    3.50 
   4   5  -7    5.80    3.00 
  -4  -5   7    3.00    4.20 
  -3  -5   7    2.60    2.10 
  -3  -5   7    3.20    3.50 
   2   5  -7    3.90    3.70 
   2   5  -7   11.00    3.90 
  -2  -5   7    8.50    4.30 
  -2  -5   7   12.30    3.30 
   1   5  -7    9.60    3.90 
   1   5  -7   12.70    4.60 
  -1  -5   7    9.40    3.20 
  -1  -5   7   10.00    4.20 
   0   5  -7    2.40    3.30 
   0   5  -7    4.00    3.10 
   0  -5   7    4.70    3.50 
  -1   5  -7   -2.90    3.40 
  -1   5  -7    1.50    2.90 
   1  -5   7    0.60    4.90 
   1  -5   7    2.10    1.90 
   1  -5   7   -5.40    4.00 
  -2   5  -7   -0.60    3.70 
  -2   5  -7    7.60    2.90 
   2  -5   7    6.40    4.20 
   2  -5   7    3.60    3.50 
   2  -5   7    5.90    2.60 
  -3   5  -7   10.10    4.70 
  -3   5  -7    6.30    3.20 
   3  -5   7    4.30    2.60 
   3  -5   7   13.40    4.10 
   3  -5   7   -3.10    4.80 
  -4   5  -7    2.00    2.70 
   4  -5   7   -2.70    5.50 
   4  -5   7    4.20    3.80 
   4  -5   7    4.50    3.10 
   6   4  -7    8.20    4.20 
   6   4  -7    6.50    4.10 
   6   4  -7    6.00    3.80 
   5   4  -7    6.00    3.40 
   5   4  -7    5.20    4.00 
   5   4  -7   10.90    4.10 
   4   4  -7   31.50    7.10 
   4   4  -7   36.20    5.80 
   4   4  -7   36.10    7.00 
  -4  -4   7   37.20    6.10 
   3   4  -7   64.49    7.50 
   3   4  -7   68.09    8.80 
   3   4  -7   60.09    8.60 
  -3  -4   7   51.69    7.60 
  -3  -4   7   65.69    7.60 
  -2  -4   7    9.60    3.60 
  -2  -4   7    8.10    3.10 
   1   4  -7   10.50    3.50 
   1   4  -7    6.00    5.70 
  -1  -4   7   12.30    3.90 
   0   4  -7   57.39    7.70 
   0   4  -7   69.19    8.20 
   0  -4   7   53.09    8.00 
   0  -4   7   78.59    7.30 
   0  -4   7   56.79    9.40 
  -1   4  -7   34.00    6.50 
  -1   4  -7   23.60    5.00 
   1  -4   7   28.70    4.50 
   1  -4   7   24.30    5.90 
   1  -4   7   18.40    5.10 
  -2   4  -7   12.00    4.40 
  -2   4  -7   16.30    4.40 
   2  -4   7   13.50    3.20 
   2  -4   7    6.90    3.70 
   2  -4   7    3.50    3.90 
   2  -4   7    7.40    4.00 
  -3   4  -7    1.70    3.60 
  -3   4  -7    6.60    3.30 
   3  -4   7    3.30    2.20 
   3  -4   7    4.70    3.80 
   3  -4   7    9.00    3.80 
   3  -4   7   -1.90    2.30 
  -4   4  -7   30.30    5.70 
  -4   4  -7   31.40    6.30 
   4  -4   7   30.00    7.40 
   4  -4   7   14.10    4.30 
   4  -4   7   18.40    4.70 
   4  -4   7   17.00    6.30 
  -5   4  -7    7.20    3.20 
   5  -4   7    4.90    5.00 
   5  -4   7   12.60    6.90 
   5  -4   7   12.40    4.00 
   5  -4   7   10.10    4.40 
   6   3  -7   -3.70    2.90 
   6   3  -7    5.70    2.60 
   6   3  -7    2.50    4.10 
   5   3  -7    2.80    3.20 
   5   3  -7    3.00    3.00 
   4   3  -7   25.60    4.50 
   4   3  -7   18.10    4.50 
  -4  -3   7   23.40    4.30 
   3   3  -7   42.00    5.20 
   3   3  -7   37.30    5.90 
   3   3  -7   31.00    6.60 
  -3  -3   7   31.40    5.10 
  -3  -3   7   25.60    5.20 
  -2  -3   7   14.00    4.70 
  -2  -3   7   21.40    4.00 
   1   3  -7    5.10    2.30 
  -1  -3   7    6.00    3.40 
  -1  -3   7    2.30    2.90 
  -1  -3   7    5.40    2.40 
   0   3  -7   14.50    3.50 
   0   3  -7   18.90    4.50 
   0  -3   7   12.20    3.00 
   0  -3   7   12.40    4.40 
   0  -3   7   11.80    4.00 
   0  -3   7   14.20    4.40 
  -1   3  -7   21.50    4.80 
  -1   3  -7   30.10    5.20 
   1  -3   7   14.90    4.60 
   1  -3   7   30.90    4.40 
   1  -3   7   24.80    5.80 
   1  -3   7   19.00    4.90 
  -2   3  -7   51.69    6.80 
  -2   3  -7   44.90    7.30 
   2  -3   7   37.20    7.10 
   2  -3   7   56.29    6.20 
   2  -3   7   49.90    7.80 
  -3   3  -7   30.80    5.90 
  -3   3  -7   22.80    4.80 
   3  -3   7   26.60    4.80 
   3  -3   7   15.30    5.30 
   3  -3   7   26.30    5.70 
  -4   3  -7    0.50    3.70 
  -4   3  -7    4.30    1.80 
  -4   3  -7    9.50    2.60 
   4  -3   7    3.10    2.90 
   4  -3   7    5.10    3.90 
  -5   3  -7   17.40    3.30 
  -5   3  -7    0.70    5.90 
  -5   3  -7   12.60    4.10 
   5  -3   7   14.00    5.10 
   5  -3   7   24.10    6.50 
   5  -3   7   14.30    4.60 
  -6   3  -7   36.60    5.00 
  -6   3  -7   36.70    6.80 
   6  -3   7   32.00    6.80 
   6  -3   7   22.50    6.40 
   6   2  -7   26.10    4.90 
   6   2  -7   21.50    6.50 
   6   2  -7   14.40    6.00 
   5   2  -7    4.50    2.70 
   5   2  -7    1.70    3.50 
   5   2  -7    1.30    2.20 
   4   2  -7    0.40    2.00 
   4   2  -7    3.80    2.10 
   4   2  -7    1.40    2.90 
   3   2  -7   29.60    4.20 
   3   2  -7   34.00    5.00 
   3   2  -7   20.30    4.80 
  -3  -2   7   17.20    3.80 
   2   2  -7    5.00    2.30 
  -2  -2   7    7.70    2.50 
  -2  -2   7    5.00    3.10 
  -2  -2   7    0.90    3.10 
   1   2  -7    4.20    2.20 
   1   2  -7    0.00    1.80 
  -1  -2   7    6.60    2.50 
  -1  -2   7    5.20    3.30 
  -1  -2   7    3.40    2.50 
  -1  -2   7    5.50    3.10 
   0   2  -7    3.50    1.80 
   0  -2   7    5.00    2.00 
   0  -2   7    4.00    2.60 
   0  -2   7    8.50    2.80 
  -1   2  -7   29.10    4.60 
  -1   2  -7   20.80    4.30 
   1  -2   7   26.30    6.00 
   1  -2   7   21.00    4.40 
   1  -2   7   27.70    4.20 
   1  -2   7   19.80    4.30 
  -2   2  -7   59.99    8.00 
  -2   2  -7   72.99    8.00 
   2  -2   7   85.19    8.40 
   2  -2   7   82.99    9.00 
   2  -2   7   71.99    7.40 
   2  -2   7   65.79    8.60 
  -3   2  -7  148.99   11.80 
  -3   2  -7  140.99   12.80 
  -3   2  -7  126.99   14.40 
   3  -2   7  132.19   13.60 
   3  -2   7  153.68   12.60 
  -4   2  -7   28.00    5.50 
  -4   2  -7   36.50    7.20 
  -4   2  -7   37.70    5.40 
   4  -2   7   38.60    6.50 
   4  -2   7   40.80    7.10 
  -5   2  -7    4.60    5.30 
  -5   2  -7   18.50    3.50 
  -5   2  -7   13.30    3.90 
   5  -2   7    4.60    5.10 
   5  -2   7   15.30    4.90 
   5  -2   7   16.30    5.10 
  -6   2  -7    8.10    2.50 
  -6   2  -7    5.60    3.00 
   6  -2   7    2.40    3.70 
   6  -2   7    1.30    4.80 
   6  -2   7    8.10    4.00 
  -7   2  -7   -2.70    2.30 
   7  -2   7   -3.90    4.50 
   7  -2   7    1.70    3.80 
   7  -2   7   -0.80    3.80 
   6   1  -7    2.70    1.90 
   6   1  -7    2.40    3.50 
   5   1  -7   11.90    4.80 
   5   1  -7   19.90    3.60 
   4   1  -7   88.19    7.40 
   4   1  -7   78.09    8.10 
   4   1  -7   72.09    9.90 
   3   1  -7   61.19    6.60 
   3   1  -7   62.99    8.10 
   3   1  -7   70.89    6.80 
  -3  -1   7   53.59    6.70 
   2   1  -7   13.10    2.90 
   2   1  -7   19.00    3.20 
  -2  -1   7    7.10    3.60 
  -2  -1   7   14.60    3.50 
   1   1  -7   24.20    3.50 
   1   1  -7   18.70    3.30 
  -1  -1   7   13.80    3.00 
  -1  -1   7   21.80    5.00 
  -1  -1   7   22.20    4.00 
   0   1  -7   23.40    3.70 
   0   1  -7   19.50    3.90 
   0  -1   7   24.80    3.70 
   0  -1   7   18.90    4.20 
   0  -1   7   16.40    3.70 
   0  -1   7   27.40    4.30 
  -1   1  -7   43.70    5.40 
   1  -1   7   47.20    5.90 
   1  -1   7   40.30    5.90 
   1  -1   7   44.50    6.30 
   1  -1   7   49.80    5.50 
  -2   1  -7   75.19    6.70 
  -2   1  -7   55.19    7.20 
  -2   1  -7   73.69    7.20 
   2  -1   7   67.39    7.80 
   2  -1   7   68.99    7.00 
   2  -1   7   55.59    7.90 
  -3   1  -7   89.09    8.80 
  -3   1  -7   88.39    8.00 
  -3   1  -7   75.79    9.10 
   3  -1   7   88.69    8.80 
   3  -1   7   91.29    9.50 
  -4   1  -7   37.10    7.00 
  -4   1  -7   44.20    5.20 
  -4   1  -7   45.10    6.00 
   4  -1   7   38.60    6.60 
   4  -1   7   45.50    6.80 
   4  -1   7   30.70    6.40 
  -5   1  -7   18.00    3.90 
  -5   1  -7   18.30    4.60 
  -5   1  -7   12.70    4.60 
   5  -1   7   13.70    4.20 
   5  -1   7   18.60    4.70 
  -6   1  -7   30.30    6.40 
  -6   1  -7   37.20    6.20 
  -6   1  -7   31.80    5.20 
   6  -1   7   27.40    6.30 
   6  -1   7   36.50    6.80 
  -7   1  -7   10.20    3.40 
   7  -1   7    7.00    4.50 
   7  -1   7    5.00    3.50 
   7  -1   7   12.40    5.20 
   8  -1   7   23.70    7.30 
   8  -1   7   11.80    5.80 
   6   0  -7    5.70    4.60 
   5   0  -7    1.20    3.50 
   4   0  -7    5.50    3.50 
  -3   0   7   69.59    7.40 
  -3   0   7   79.09   10.10 
   2   0  -7   51.79    5.00 
  -2   0   7   51.09    5.80 
  -2   0   7   49.00    8.00 
   1   0  -7    6.10    1.90 
  -1   0   7   11.70    2.80 
  -1   0   7    7.90    3.50 
   0   0  -7   36.40    4.50 
   0   0  -7   38.20    4.30 
   0   0   7   37.90    4.70 
   0   0   7   40.30    4.70 
   0   0   7   31.30    5.30 
   0   0   7   37.80    4.60 
  -1   0  -7   14.70    3.00 
  -1   0  -7   11.80    3.10 
  -1   0  -7   15.10    2.90 
   1   0   7   15.90    3.30 
   1   0   7   21.10    4.00 
  -2   0  -7   28.20    4.10 
  -2   0  -7   30.80    5.20 
  -2   0  -7   26.50    3.80 
   2   0   7   31.10    4.70 
   2   0   7   27.00    4.40 
  -3   0  -7   55.19    7.50 
  -3   0  -7   72.29    7.10 
  -3   0  -7   66.39    6.50 
   3   0   7   69.59    7.30 
   3   0   7   60.49    7.20 
   3   0   7   56.99    7.90 
  -4   0  -7   45.30    5.60 
  -4   0  -7   42.60    5.70 
  -4   0  -7   37.80    6.80 
   4   0   7   49.10    6.30 
   4   0   7   48.40    7.10 
  -5   0  -7    5.20    3.40 
  -5   0  -7    6.80    2.20 
  -5   0  -7    6.90    2.60 
   5   0   7    9.10    3.20 
   5   0   7    0.80    3.70 
   5   0   7    1.80    3.10 
  -6   0  -7    9.60    3.00 
  -6   0  -7   17.20    4.00 
   6   0   7   11.20    4.50 
   6   0   7   10.70    3.90 
   6   0   7    3.10    3.90 
  -7   0  -7   22.30    5.00 
   7   0   7   16.00    4.00 
   7   0   7   16.60    5.60 
   7   0   7   10.40    5.70 
   8   0   7    6.90    4.80 
   8   0   7   10.90    5.60 
   8   0   7   11.80    4.50 
   6  -1  -7   18.00    5.00 
  -6   1   7   10.90    3.10 
   5  -1  -7   36.50    7.10 
  -5   1   7   33.50    5.00 
  -4   1   7   35.20    4.90 
  -3   1   7   12.10    2.80 
  -3   1   7   19.00    5.00 
  -2   1   7   17.20    3.40 
  -2   1   7   13.90    4.80 
  -1   1   7   63.29    6.20 
  -1   1   7   56.49    7.50 
   0  -1  -7   47.30    4.60 
   0  -1  -7   45.70    5.00 
   0   1   7   48.40    6.20 
   0   1   7   55.49    5.50 
  -1  -1  -7  102.49    8.30 
  -1  -1  -7  101.89    8.50 
  -1  -1  -7   84.29    8.70 
   1   1   7  109.89    9.10 
   1   1   7   98.99    8.40 
   1   1   7   96.99    8.80 
  -2  -1  -7    1.40    1.30 
  -2  -1  -7    3.60    1.40 
   2   1   7    1.70    1.40 
   2   1   7    0.30    1.50 
   2   1   7    4.80    2.60 
  -3  -1  -7    4.70    2.50 
  -3  -1  -7    6.70    2.10 
  -3  -1  -7    9.30    2.80 
   3   1   7    3.00    2.50 
   3   1   7   -1.80    2.70 
   3   1   7    8.30    2.50 
  -4  -1  -7   27.50    4.70 
  -4  -1  -7   26.00    4.40 
   4   1   7   25.90    4.90 
   4   1   7   24.60    4.50 
  -5  -1  -7   25.40    4.60 
  -5  -1  -7   18.20    4.60 
  -5  -1  -7   21.10    4.10 
   5   1   7   29.80    6.30 
   5   1   7   24.60    4.80 
   5   1   7   17.30    5.00 
  -6  -1  -7    0.20    1.50 
  -6  -1  -7   -1.30    3.80 
  -6  -1  -7    1.30    2.00 
   6   1   7    2.70    2.10 
   6   1   7    1.40    2.90 
   6   1   7   -1.30    3.70 
  -7  -1  -7   28.20    5.10 
  -7  -1  -7   21.70    5.60 
   7   1   7   32.10    5.80 
   7   1   7   14.30    5.10 
   7   1   7   23.50    6.50 
  -8  -1  -7   -2.00    2.30 
   8   1   7   -6.70    7.90 
   8   1   7    0.30    2.50 
   8   1   7   10.30    5.10 
  -9  -1  -7   13.50    4.30 
   9   1   7    8.20    5.90 
   9   1   7    8.10    5.80 
  -6   2   7   -0.70    1.90 
  -5   2   7    3.60    2.20 
  -4   2   7   19.20    5.80 
  -4   2   7   19.90    3.90 
  -3   2   7  111.99    9.60 
  -3   2   7   95.99   14.60 
  -2   2   7  145.99   14.30 
  -2   2   7  157.88   12.40 
  -1   2   7   82.39    9.00 
  -1   2   7   83.99    7.60 
   0  -2  -7   30.10    4.00 
   0  -2  -7   28.60    3.10 
   0   2   7   29.70    4.70 
   0   2   7   33.60    4.20 
  -1  -2  -7   48.90    5.10 
  -1  -2  -7   61.89    6.30 
  -1  -2  -7   59.49    5.60 
   1   2   7   55.99    6.00 
   1   2   7   55.19    5.10 
   1   2   7   62.49    6.50 
  -2  -2  -7   22.90    3.20 
  -2  -2  -7   15.30    2.70 
  -2  -2  -7   10.60    2.90 
   2   2   7   15.50    3.60 
   2   2   7   17.00    2.80 
   2   2   7   11.20    2.70 
  -3  -2  -7   10.60    3.40 
  -3  -2  -7   14.90    3.20 
  -3  -2  -7   14.90    3.00 
   3   2   7   17.80    4.00 
   3   2   7   18.10    3.20 
   3   2   7   14.80    3.80 
  -4  -2  -7   21.30    3.90 
  -4  -2  -7   14.70    4.40 
   4   2   7   17.10    4.40 
   4   2   7   13.80    4.40 
  -5  -2  -7   -0.10    1.90 
  -5  -2  -7    1.90    2.00 
   5   2   7    3.30    3.70 
   5   2   7    0.60    2.70 
   5   2   7   -0.10    1.50 
  -6  -2  -7   12.80    5.30 
  -6  -2  -7   10.50    3.40 
  -6  -2  -7    7.10    4.30 
   6   2   7   15.80    5.40 
   6   2   7   13.60    5.00 
   6   2   7   20.80    4.50 
  -7  -2  -7    8.30    3.00 
  -7  -2  -7    8.90    5.10 
   7   2   7    9.40    4.90 
   7   2   7    5.30    2.90 
   7   2   7    3.40    4.60 
  -8  -2  -7   -1.00    2.70 
   8   2   7   -1.50    2.40 
   8   2   7    1.30    4.50 
   8   2   7   -4.30    3.50 
  -9  -2  -7   -2.00    2.10 
   9   2   7   -3.20    5.70 
   9   2   7    0.70    5.00 
   9   2   7   -0.50    3.30 
  -4   3   7    7.10    3.70 
  -3   3   7    4.40    1.70 
  -3   3   7   -2.40    2.50 
  -2   3   7   38.40    4.50 
  -2   3   7   32.00    6.30 
  -1   3   7   64.29    6.40 
  -1   3   7   64.29    7.80 
   0  -3  -7  114.29    9.20 
   0  -3  -7  128.19   10.00 
   0  -3  -7  120.59   10.10 
   0   3   7  120.49   10.90 
   0   3   7  121.19   10.20 
  -1  -3  -7  127.49   10.10 
  -1  -3  -7  121.09    9.70 
  -1  -3  -7  132.59   10.90 
   1   3   7  103.59    9.20 
   1   3   7  130.39   10.70 
   1   3   7  136.09   10.90 
  -2  -3  -7   44.30    4.70 
  -2  -3  -7   40.90    6.00 
  -2  -3  -7   43.00    5.00 
   2   3   7   58.29    6.90 
   2   3   7   45.50    5.80 
   2   3   7   41.40    4.50 
  -3  -3  -7   35.30    6.10 
  -3  -3  -7   43.40    5.00 
  -3  -3  -7   40.00    5.20 
   3   3   7   47.90    6.40 
   3   3   7   31.30    6.30 
   3   3   7   39.40    4.80 
  -4  -3  -7   32.30    6.00 
  -4  -3  -7   31.70    4.80 
  -4  -3  -7   33.80    4.90 
   4   3   7   33.50    4.60 
   4   3   7   19.40    5.10 
   4   3   7   31.70    5.80 
  -5  -3  -7   11.50    4.10 
  -5  -3  -7   16.30    3.60 
  -5  -3  -7   19.50    4.30 
   5   3   7   18.90    3.90 
   5   3   7    6.90    4.20 
   5   3   7   12.00    4.60 
  -6  -3  -7    6.90    3.90 
  -6  -3  -7    6.30    2.40 
   6   3   7    3.90    2.10 
   6   3   7    7.20    4.00 
   6   3   7    4.40    3.80 
  -7  -3  -7    4.40    2.30 
   7   3   7    4.40    4.50 
   7   3   7    1.10    3.70 
   7   3   7    5.00    2.20 
  -8  -3  -7    2.60    2.40 
   8   3   7    5.60    5.40 
   8   3   7    1.70    4.60 
   8   3   7    3.50    2.30 
  -9  -3  -7    2.70    2.80 
   9   3   7    7.10    6.50 
   9   3   7   10.30    5.70 
   9   3   7    4.70    6.10 
  -5   4   7    0.40    1.50 
  -5   4   7    2.40    3.80 
  -4   4   7   18.80    5.00 
  -3   4   7    9.80    2.40 
  -3   4   7   14.40    4.00 
  -2   4   7    6.40    2.00 
  -2   4   7   -0.40    2.50 
  -1   4   7   13.70    2.90 
  -1   4   7   15.40    3.40 
   0  -4  -7    6.40    1.80 
   0  -4  -7    5.00    2.50 
   0  -4  -7    7.40    1.90 
   0   4   7    8.40    2.40 
  -1  -4  -7   61.29    7.70 
  -1  -4  -7   74.29    6.60 
  -1  -4  -7   73.39    6.60 
   1   4   7   70.09    6.00 
   1   4   7   81.09    7.60 
   1   4   7   76.49    7.40 
  -2  -4  -7    5.20    2.70 
  -2  -4  -7    3.30    1.90 
   2   4   7    4.40    1.50 
   2   4   7    3.30    2.50 
   2   4   7    4.60    3.00 
  -3  -4  -7   15.70    3.90 
  -3  -4  -7   16.50    3.30 
  -3  -4  -7   14.40    3.10 
   3   4   7   10.40    4.00 
   3   4   7   15.10    4.30 
   3   4   7   17.70    3.30 
  -4  -4  -7   13.40    3.30 
  -4  -4  -7   16.40    3.80 
   4   4   7   13.00    4.60 
   4   4   7   16.60    3.40 
   4   4   7    9.90    4.30 
  -5  -4  -7    7.60    3.90 
  -5  -4  -7    9.80    3.00 
  -5  -4  -7   13.40    3.60 
   5   4   7    9.20    2.90 
   5   4   7    2.40    3.70 
   5   4   7    8.00    4.30 
  -6  -4  -7   20.50    5.30 
   6   4   7   15.70    5.30 
   6   4   7   24.20    7.10 
  -7  -4  -7    9.40    5.40 
  -7  -4  -7   10.40    3.50 
   7   4   7   15.10    5.90 
   7   4   7   16.90    4.70 
   7   4   7    4.90    4.30 
  -8  -4  -7    0.90    3.00 
   8   4   7    6.20    2.90 
   8   4   7   16.50    6.30 
   8   4   7    2.60    5.90 
  -9  -4  -7   -2.50    2.50 
   9   4   7   -2.70    4.00 
   9   4   7    8.30    4.00 
   9   4   7   10.20    5.70 
  -4   5   7    9.10    3.60 
  -4   5   7    6.70    1.90 
  -3   5   7   13.50    4.00 
  -3   5   7   19.70    3.00 
  -2   5   7    6.40    2.80 
  -2   5   7    4.80    1.70 
   1  -5  -7    6.70    2.80 
   1  -5  -7    7.10    2.00 
  -1   5   7    5.90    2.10 
  -1   5   7    8.90    2.60 
   0  -5  -7   13.00    2.50 
   0  -5  -7   18.70    3.50 
   0  -5  -7   16.60    3.70 
   0   5   7    9.00    3.10 
   0   5   7   16.40    3.40 
  -1  -5  -7   26.70    3.50 
  -1  -5  -7   30.40    4.10 
  -1  -5  -7   22.40    4.80 
   1   5   7   25.80    4.70 
   1   5   7   22.90    4.50 
  -2  -5  -7   35.10    4.40 
  -2  -5  -7   24.50    5.40 
  -2  -5  -7   30.50    4.40 
   2   5   7   27.40    5.30 
   2   5   7   36.70    6.40 
   2   5   7   21.10    5.80 
  -3  -5  -7   35.00    6.40 
  -3  -5  -7   22.30    4.40 
  -3  -5  -7   30.40    4.80 
   3   5   7   24.90    5.80 
   3   5   7   22.90    5.60 
   3   5   7   30.20    4.50 
  -4  -5  -7   18.70    5.20 
  -4  -5  -7   16.10    5.10 
  -4  -5  -7   19.60    4.00 
   4   5   7   23.20    6.10 
   4   5   7   20.60    3.90 
   4   5   7   12.90    4.70 
  -5  -5  -7    3.30    3.90 
  -5  -5  -7    2.10    2.30 
  -5  -5  -7    4.70    2.90 
   5   5   7    4.90    3.90 
   5   5   7    5.10    4.10 
   5   5   7    2.50    2.40 
  -6  -5  -7   19.50    4.40 
  -6  -5  -7   17.90    5.90 
   6   5   7   17.80    5.80 
   6   5   7   12.80    5.80 
   6   5   7   28.70    5.40 
  -7  -5  -7   21.10    6.30 
  -7  -5  -7   23.20    5.00 
   7   5   7   28.20    7.40 
   7   5   7   19.30    7.00 
   7   5   7   33.70    9.80 
  -8  -5  -7    5.70    3.50 
   8   5   7   12.70    6.20 
   8   5   7    6.90    3.20 
   8   5   7    5.70    4.70 
  -9  -5  -7    6.60    3.50 
   9   5   7   10.90    3.90 
   9   5   7    8.00    6.50 
   9   5   7    1.40    5.80 
  -4   6   7    7.40    2.00 
   3  -6  -7   -0.70    3.20 
   3  -6  -7    5.50    2.70 
  -3   6   7    8.00    2.70 
  -3   6   7    6.60    3.00 
   2  -6  -7    5.50    3.20 
   2  -6  -7    2.80    2.20 
   1  -6  -7    1.10    1.50 
  -1   6   7    3.90    1.90 
  -1   6   7    2.20    2.00 
   0  -6  -7    4.60    1.80 
   0   6   7    5.50    2.40 
   0   6   7    1.50    1.70 
  -1  -6  -7    4.50    3.80 
  -1  -6  -7   13.90    2.60 
  -1  -6  -7   12.70    3.30 
   1   6   7   13.30    3.50 
   1   6   7   14.20    2.60 
   1   6   7   18.00    4.20 
  -2  -6  -7   26.90    4.20 
  -2  -6  -7   24.60    5.60 
  -2  -6  -7   31.20    4.70 
   2   6   7   31.50    6.10 
   2   6   7   27.30    4.00 
   2   6   7   24.40    5.30 
  -3  -6  -7   40.00    5.60 
  -3  -6  -7   39.00    7.80 
  -3  -6  -7   45.40    5.60 
   3   6   7   42.90    7.90 
   3   6   7   36.50    7.20 
   3   6   7   40.50    5.50 
  -4  -6  -7   14.50    3.50 
  -4  -6  -7   10.80    4.50 
  -4  -6  -7    8.00    3.10 
   4   6   7    8.20    3.10 
   4   6   7    6.00    4.20 
   4   6   7   18.30    5.40 
  -5  -6  -7   38.80    6.90 
  -5  -6  -7   21.70    6.70 
  -5  -6  -7   21.50    4.80 
   5   6   7   32.30    6.10 
   5   6   7   22.80    6.50 
   5   6   7   19.30    6.40 
  -6  -6  -7   14.30    6.50 
  -6  -6  -7   22.30    5.00 
   6   6   7   15.10    6.10 
   6   6   7   21.20    6.50 
  -7  -6  -7   25.80    6.90 
  -7  -6  -7   26.60    6.10 
   7   6   7   14.70    6.80 
   7   6   7   36.00    6.60 
   7   6   7   28.10    7.90 
  -8  -6  -7    3.50    2.70 
   8   6   7    3.10    2.90 
   8   6   7    3.80    5.30 
   9   6   7    3.80    7.10 
   9   6   7    7.80    6.30 
   3  -7  -7   -3.10    2.30 
   3  -7  -7    6.00    3.90 
   2  -7  -7    9.00    3.70 
   2  -7  -7    1.60    2.30 
   1  -7  -7    6.60    4.40 
   1  -7  -7   13.30    3.20 
  -1   7   7   10.60    2.70 
  -1   7   7   12.60    2.80 
   0  -7  -7    6.00    2.30 
   0  -7  -7    9.60    3.80 
   0   7   7    7.70    2.50 
  -1  -7  -7   14.80    5.20 
  -1  -7  -7   26.50    3.30 
  -1  -7  -7   34.20    5.90 
   1   7   7   25.70    5.10 
   1   7   7   18.30    4.40 
  -2  -7  -7    2.80    1.60 
  -2  -7  -7   -3.50    3.00 
  -2  -7  -7    1.50    3.40 
   2   7   7    0.10    2.60 
   2   7   7    1.80    2.80 
  -3  -7  -7   10.10    2.80 
  -3  -7  -7   22.80    4.80 
  -3  -7  -7   11.90    5.40 
   3   7   7   15.00    4.90 
   3   7   7   22.20    6.50 
  -4  -7  -7    3.50    2.50 
  -4  -7  -7   -2.80    4.10 
  -4  -7  -7    3.40    2.40 
   4   7   7    0.10    3.30 
   4   7   7   -3.50    2.70 
  -5  -7  -7    5.30    3.10 
  -5  -7  -7    8.30    4.90 
   5   7   7   14.40    5.60 
   5   7   7   11.60    5.60 
  -6  -7  -7    2.00    2.80 
  -6  -7  -7   -2.60    5.50 
   6   7   7    3.40    4.20 
   6   7   7   -4.20    3.80 
  -7  -7  -7   14.80    7.80 
  -7  -7  -7   24.80    5.30 
   7   7   7   26.70    7.90 
   7   7   7   21.70    7.20 
  -8  -7  -7    9.10    4.10 
   8   7   7    8.70    5.90 
   8   7   7   19.10    6.10 
   9   7   7   12.60    7.40 
   9   7   7    5.70    6.80 
   2  -8  -7    4.60    2.60 
   2  -8  -7   -4.30    4.40 
   1  -8  -7   12.90    3.90 
   1  -8  -7    5.30    5.00 
   0  -8  -7    9.30    4.40 
   0  -8  -7   12.40    3.70 
   0   8   7   11.60    2.80 
   0   8   7   20.30    4.00 
   0   8   7    9.70    2.40 
  -1  -8  -7    2.40    2.00 
  -1  -8  -7    7.90    4.60 
  -1  -8  -7    1.70    1.10 
   1   8   7    2.00    2.50 
  -2  -8  -7   -1.20    1.10 
  -2  -8  -7    0.00    2.60 
   2   8   7   -0.60    2.80 
   2   8   7   -1.70    2.20 
  -3  -8  -7   18.80    4.60 
  -3  -8  -7   13.10    2.90 
  -3  -8  -7   25.50    6.90 
   3   8   7   19.90    5.40 
   3   8   7   16.50    5.70 
  -4  -8  -7  100.29   10.50 
  -4  -8  -7  102.89   14.60 
  -4  -8  -7  102.49   10.70 
   4   8   7   96.29   12.90 
   4   8   7   94.59   12.90 
  -5  -8  -7   41.90   12.50 
   5   8   7   31.50    8.70 
   5   8   7   57.39   10.00 
  -6  -8  -7    7.90    7.00 
  -6  -8  -7    5.20    3.50 
   6   8   7    9.30    5.50 
   6   8   7    6.60    5.40 
  -7  -8  -7   31.80   13.10 
  -7  -8  -7   11.80    4.40 
   7   8   7    8.30    6.70 
   7   8   7   10.70    6.20 
  -8  -8  -7   16.80    5.30 
   8   8   7   15.60    7.50 
   8   8   7   21.90    7.80 
   1  -9  -7    3.60    3.70 
   1  -9  -7    8.00    5.80 
   0  -9  -7   10.90    5.30 
   0  -9  -7   15.70    4.30 
   0   9   7   15.60    4.50 
  -1  -9  -7   10.10    3.60 
  -1  -9  -7   -6.60    4.80 
   1   9   7    6.90    2.70 
  -2  -9  -7   17.60    4.60 
  -2  -9  -7   -1.30    5.50 
  -2  -9  -7   10.60    2.20 
   2   9   7    4.60    3.50 
   2   9   7    8.90    3.70 
  -3  -9  -7    2.70    3.20 
  -3  -9  -7    3.20    3.30 
   3   9   7    2.60    3.70 
   3   9   7    5.50    3.40 
  -4  -9  -7    4.90    3.20 
   4   9   7   -3.00    4.00 
   4   9   7   -5.90    3.40 
  -5  -9  -7   10.40    7.90 
  -5  -9  -7    8.60    4.30 
   5   9   7   11.70    5.80 
   5   9   7    9.50    6.20 
  -6  -9  -7   14.20    4.60 
  -6  -9  -7    6.60    9.10 
   6   9   7    7.80    5.60 
   6   9   7    7.70    5.30 
  -7  -9  -7   15.80    5.20 
  -7  -9  -7   39.90   11.10 
   7   9   7   35.90    9.10 
   8   9   7    7.90    6.10 
  -1 -10  -7   -2.60    3.30 
  -2 -10  -7   18.10    7.60 
  -2 -10  -7    8.10    7.80 
  -2 -10  -7   20.60    3.30 
   2  10   7   34.50    5.70 
  -3 -10  -7   18.50    3.80 
  -3 -10  -7   13.90    4.60 
  -3 -10  -7   11.10    8.90 
   3  10   7   19.90    5.80 
  -4 -10  -7    5.00    3.70 
   4  10   7    0.80    4.10 
   4  10   7   -0.90   10.50 
  -5 -10  -7   -6.10    9.40 
  -5 -10  -7    1.90    3.90 
   5  10   7    9.90    5.30 
   5  10   7    7.70    5.90 
  -6 -10  -7    3.20    2.90 
  -6 -10  -7   -4.90   13.40 
   6  10   7    8.90    6.00 
   3   6  -8   -0.30    2.60 
  -3  -6   8    2.30    2.50 
   2   6  -8    1.60    5.60 
   2   6  -8    1.30    2.70 
  -2  -6   8    3.20    2.50 
   1   6  -8   14.40    4.90 
   1   6  -8   -1.30    6.70 
  -1  -6   8   19.80    4.40 
  -1  -6   8    1.10    5.20 
   0   6  -8   23.30    5.80 
   0   6  -8   13.70    5.60 
   0  -6   8   25.30    4.80 
   0  -6   8   19.80    6.50 
  -1   6  -8   -3.50    6.40 
  -1   6  -8    7.50    3.80 
   1  -6   8    7.80    2.90 
   1  -6   8   -2.70    5.20 
  -2   6  -8    3.80    2.70 
  -2   6  -8    4.30   12.50 
   2  -6   8  -10.50    5.30 
   2  -6   8    1.40    2.40 
  -4  -5   8   24.70    5.30 
   3   5  -8    2.50    2.60 
   3   5  -8    9.70    4.10 
  -3  -5   8    5.60    2.60 
  -3  -5   8    5.80    4.60 
   2   5  -8    4.20    3.00 
   2   5  -8    0.90    3.50 
  -2  -5   8    9.90    3.70 
  -2  -5   8    2.30    2.20 
   1   5  -8    6.90    3.00 
   1   5  -8   -2.10    3.20 
  -1  -5   8    4.50    2.30 
  -1  -5   8   -5.70    3.60 
   0   5  -8   16.40    5.20 
   0   5  -8   11.50    4.30 
   0  -5   8   12.50    3.40 
   0  -5   8   14.70    4.90 
  -1   5  -8   -1.10    3.80 
  -1   5  -8    4.10    3.10 
   1  -5   8    4.40    2.20 
   1  -5   8    6.50    4.20 
  -2   5  -8    5.00    4.70 
  -2   5  -8   10.80    3.90 
   2  -5   8    8.70    6.60 
   2  -5   8   14.10    3.50 
  -3   5  -8   16.10    5.70 
  -3   5  -8   13.70    4.50 
   3  -5   8   11.00    3.80 
   3  -5   8    5.90    5.60 
  -4   5  -8    2.60    3.80 
   4  -5   8    4.10    5.70 
   5   4  -8    5.60    3.70 
   5   4  -8    2.90    3.00 
   5   4  -8    3.50    3.90 
  -5  -4   8    5.40    2.20 
   4   4  -8   37.50    6.30 
  -4  -4   8   30.20    6.20 
   3   4  -8    3.00    2.90 
   3   4  -8    6.60    3.20 
  -3  -4   8    3.40    2.30 
  -3  -4   8    2.70    3.70 
   2   4  -8    6.80    3.00 
   2   4  -8    8.80    3.70 
  -2  -4   8    9.80    3.30 
  -2  -4   8    6.70    3.70 
   1   4  -8    7.20    3.20 
   1   4  -8    8.00    3.00 
  -1  -4   8    9.00    3.00 
  -1  -4   8    8.20    3.90 
   0   4  -8    7.00    3.60 
   0   4  -8    9.70    3.50 
   0  -4   8   13.40    3.30 
   0  -4   8   -0.20    4.50 
  -1   4  -8   15.50    4.00 
  -1   4  -8    7.50    3.90 
   1  -4   8   16.80    4.40 
   1  -4   8    9.70    4.50 
  -2   4  -8    3.40    4.40 
  -2   4  -8   14.90    4.00 
   2  -4   8   15.00    3.50 
   2  -4   8    2.70    4.80 
  -3   4  -8    8.60    3.00 
  -3   4  -8    7.90    4.20 
   3  -4   8   -1.20    5.20 
   3  -4   8    3.50    2.60 
  -4   4  -8    2.10    2.40 
  -4   4  -8   -6.40    4.60 
   4  -4   8    3.30    2.60 
   4  -4   8    1.30    4.50 
  -5   4  -8    6.90    3.90 
   5  -4   8   12.10    6.00 
   5   3  -8    7.70    4.40 
   4   3  -8    9.30    3.40 
  -4  -3   8   13.80    3.60 
   3   3  -8   29.40    5.00 
  -3  -3   8   30.10    5.00 
   2   3  -8   36.70    5.80 
   2   3  -8   33.10    5.60 
  -2  -3   8   46.00    6.00 
  -2  -3   8   34.30    6.60 
   1   3  -8   14.60    3.70 
   1   3  -8   19.20    4.70 
  -1  -3   8   28.30    4.90 
  -1  -3   8   20.30    4.60 
   0   3  -8   11.60    3.40 
   0  -3   8   15.70    4.40 
   0  -3   8   10.60    4.30 
  -1   3  -8    4.40    3.20 
  -1   3  -8    8.20    2.80 
   1  -3   8    9.00    2.80 
   1  -3   8    5.00    3.60 
  -2   3  -8   43.50    6.50 
  -2   3  -8   47.60    7.10 
   2  -3   8   49.10    6.10 
   2  -3   8   36.90    6.90 
  -3   3  -8   33.60    5.90 
  -3   3  -8   29.90    6.30 
   3  -3   8   35.20    5.50 
   3  -3   8   33.00    6.30 
  -4   3  -8    9.30    5.40 
  -4   3  -8   17.50    4.60 
   4  -3   8   15.20    4.00 
  -5   3  -8   45.70    7.10 
  -5   3  -8   26.10    9.20 
   5  -3   8   39.70    7.90 
  -6   3  -8    3.30    2.80 
   6  -3   8   10.50    4.50 
   6  -3   8   -4.50    7.40 
   6   2  -8    5.70    3.10 
   6   2  -8   14.00    4.70 
   5   2  -8   12.70    3.50 
   5   2  -8   21.40    5.90 
   5   2  -8   10.00    3.40 
  -5  -2   8   15.50    3.90 
   4   2  -8   23.50    4.20 
  -4  -2   8   24.00    4.90 
   3   2  -8   15.50    3.30 
  -3  -2   8   13.30    3.60 
   2   2  -8   45.30    6.00 
  -2  -2   8   52.49    6.20 
  -2  -2   8   46.40    5.80 
   1   2  -8   14.80    4.50 
   1   2  -8   18.00    3.50 
  -1  -2   8   18.00    3.80 
  -1  -2   8   15.50    3.90 
   0   2  -8   17.20    3.90 
   0   2  -8   26.60    4.60 
   0  -2   8   36.60    5.40 
   0  -2   8   27.20    4.40 
   0  -2   8   24.50    5.50 
  -1   2  -8    6.70    2.60 
  -1   2  -8    7.20    3.40 
   1  -2   8    7.30    3.50 
   1  -2   8    7.90    3.40 
   1  -2   8   12.30    3.70 
   1  -2   8   11.30    3.00 
  -2   2  -8    3.00    2.90 
  -2   2  -8    0.80    1.70 
   2  -2   8    2.40    2.50 
   2  -2   8    2.20    3.10 
   2  -2   8    0.00    1.50 
  -3   2  -8    4.80    1.90 
  -3   2  -8    6.00    2.80 
   3  -2   8    1.60    3.60 
   3  -2   8    8.30    3.10 
  -4   2  -8   13.00    3.00 
  -4   2  -8    8.20    4.20 
   4  -2   8    6.00    2.90 
   4  -2   8   17.00    5.00 
  -5   2  -8    3.30    2.60 
  -5   2  -8    4.60    5.40 
   5  -2   8    5.50    3.60 
   5  -2   8    3.40    3.10 
  -6   2  -8   12.50    3.80 
   6  -2   8   21.40    5.80 
   6  -2   8    1.80    5.00 
   6  -2   8    7.90    4.60 
  -7   2  -8   10.10    3.00 
   7  -2   8    3.10    5.40 
   7  -2   8   11.00    5.20 
   6   1  -8    0.70    3.90 
  -6  -1   8    1.00    2.10 
   5   1  -8   47.00    9.10 
  -5  -1   8   48.10    6.70 
  -4  -1   8   25.00    4.70 
   3   1  -8   23.50    3.60 
   3   1  -8   17.10    3.50 
  -3  -1   8   14.00    3.50 
   2   1  -8   37.00    4.60 
  -2  -1   8   32.70    6.50 
   1   1  -8   12.90    2.70 
   1   1  -8   12.60    3.10 
  -1  -1   8   13.40    3.00 
  -1  -1   8    8.70    3.00 
  -1  -1   8    9.90    3.90 
  -1  -1   8    8.80    2.60 
   0   1  -8    0.40    2.30 
   0   1  -8    5.00    2.10 
   0  -1   8   -0.30    2.50 
   0  -1   8    3.40    2.10 
   0  -1   8    1.10    2.50 
   0  -1   8    5.00    3.00 
  -1   1  -8    5.00    2.10 
   1  -1   8    5.50    2.30 
   1  -1   8    6.40    3.00 
   1  -1   8    5.50    2.60 
   1  -1   8   -0.30    2.80 
  -2   1  -8   19.70    3.90 
  -2   1  -8   22.10    4.10 
   2  -1   8   19.20    4.00 
  -3   1  -8  109.09    9.40 
  -3   1  -8  108.59   10.20 
  -3   1  -8   91.99   10.70 
   3  -1   8  111.99   10.90 
   3  -1   8  108.29   10.00 
   3  -1   8   79.79   10.70 
  -4   1  -8   47.00    6.20 
  -4   1  -8   43.80    7.80 
  -4   1  -8   49.30    5.60 
   4  -1   8   46.40    6.60 
   4  -1   8   28.70    6.40 
   4  -1   8   39.70    7.10 
  -5   1  -8    1.40    3.90 
  -5   1  -8    4.60    2.20 
  -5   1  -8    3.60    2.90 
   5  -1   8    3.40    3.00 
   5  -1   8    6.00    3.80 
   5  -1   8   -0.20    3.70 
  -6   1  -8   -6.80    4.50 
  -6   1  -8    0.80    1.60 
   6  -1   8   -2.20    3.00 
   6  -1   8    6.10    4.00 
   6  -1   8    4.00    3.60 
  -7   1  -8    1.60    2.20 
   7  -1   8    2.60    3.90 
   7  -1   8    2.70    5.00 
   7  -1   8    0.30    2.80 
  -5   0   8    3.30    2.40 
  -4   0   8    9.50    3.00 
  -3   0   8   69.69    7.40 
   2   0  -8  311.17   22.90 
  -2   0   8  303.37   30.70 
  -2   0   8  331.27   24.20 
   1   0  -8   60.49    5.70 
   1   0  -8   48.00    5.40 
  -1   0   8   56.39    6.20 
  -1   0   8   51.39    7.80 
   0   0  -8  100.59    9.60 
   0   0  -8  121.99    9.60 
   0   0   8  104.59   11.10 
   0   0   8  110.79   10.20 
   0   0   8  111.59    9.80 
   0   0   8  120.79   10.20 
  -1   0  -8   48.80    5.50 
  -1   0  -8   46.10    6.00 
  -2   0  -8   19.70    4.00 
  -2   0  -8    9.80    3.20 
  -2   0  -8   20.40    4.20 
   2   0   8   13.10    3.10 
   2   0   8   22.40    4.90 
   2   0   8   10.30    3.50 
  -3   0  -8   21.40    4.20 
  -3   0  -8   25.80    4.40 
   3   0   8   22.00    4.60 
   3   0   8   27.00    5.20 
  -4   0  -8   36.20    5.30 
  -4   0  -8   29.20    5.70 
  -4   0  -8   41.00    5.10 
   4   0   8   36.30    6.40 
   4   0   8   37.50    6.30 
  -5   0  -8   40.20    6.20 
  -5   0  -8   39.20    7.60 
  -5   0  -8   50.29    5.90 
   5   0   8   43.80    7.40 
  -6   0  -8   35.10    5.90 
   6   0   8   30.10    7.60 
   6   0   8   45.80    7.10 
  -7   0  -8   14.50    3.70 
   7   0   8   18.60    4.60 
   7   0   8   14.80    5.60 
   7   0   8    6.90    5.40 
   8   0   8    9.50    4.80 
   8   0   8   -1.60    5.30 
   8   0   8   -0.50    3.50 
  -6   1   8    7.90    2.80 
  -5   1   8   28.50    4.90 
  -4   1   8   16.30    3.70 
  -2   1   8  127.39   10.60 
  -2   1   8  100.49   12.50 
   1  -1  -8  198.68   14.10 
  -1   1   8  195.18   15.30 
  -1   1   8  170.38   16.70 
   0  -1  -8  121.69    9.30 
   0  -1  -8  107.79    9.50 
   0   1   8  110.49   10.10 
   0   1   8  113.69   11.40 
  -1  -1  -8   48.90    5.40 
  -1  -1  -8   56.59    5.80 
   1   1   8   52.79    6.20 
   1   1   8   58.79    6.30 
  -2  -1  -8    1.40    1.30 
  -2  -1  -8    2.30    1.40 
  -2  -1  -8    0.50    2.10 
   2   1   8    2.90    2.70 
   2   1   8   -1.70    1.20 
   2   1   8    0.90    1.80 
  -3  -1  -8  134.79   12.40 
  -3  -1  -8   98.69   11.40 
  -3  -1  -8  131.59   10.90 
   3   1   8  106.49   11.60 
   3   1   8  122.99   10.80 
   3   1   8  130.29   11.50 
  -4  -1  -8   24.10    4.90 
  -4  -1  -8   21.20    4.10 
  -4  -1  -8   17.20    4.40 
   4   1   8   18.30    4.90 
   4   1   8   25.80    4.90 
  -5  -1  -8    1.30    3.50 
  -5  -1  -8    2.50    2.00 
  -5  -1  -8    5.90    2.70 
   5   1   8    5.40    2.60 
   5   1   8    6.10    3.80 
   5   1   8    1.60    3.30 
  -6  -1  -8    7.60    3.00 
  -6  -1  -8   13.60    4.60 
   6   1   8    7.20    5.00 
   6   1   8   13.20    4.90 
   6   1   8    7.70    4.60 
  -7  -1  -8    0.50    1.70 
  -7  -1  -8    4.70    4.80 
   7   1   8   -6.00    3.80 
   7   1   8    3.60    3.50 
   7   1   8   -0.40    4.10 
  -8  -1  -8   17.80    4.60 
   8   1   8   13.40    4.20 
   8   1   8   22.10    6.90 
   8   1   8   10.10    6.30 
  -5   2   8   13.40    3.40 
  -4   2   8    9.00    2.70 
  -3   2   8    5.20    4.50 
  -3   2   8    8.70    2.40 
  -2   2   8    5.60    3.90 
  -2   2   8   12.30    2.90 
  -1   2   8    1.20    1.50 
  -1   2   8    0.40    2.70 
   0  -2  -8  104.79    9.00 
   0  -2  -8  103.19    8.30 
   0   2   8  113.59    9.60 
   0   2   8   92.69   10.40 
  -1  -2  -8   62.19    6.00 
  -1  -2  -8   53.49    6.50 
  -1  -2  -8   61.49    5.60 
   1   2   8   50.69    5.40 
   1   2   8   54.49    6.40 
   1   2   8   65.49    6.80 
  -2  -2  -8   97.39    8.30 
  -2  -2  -8   81.09    9.10 
  -2  -2  -8   92.99    8.20 
   2   2   8   95.69    9.60 
   2   2   8   93.29    9.00 
   2   2   8   86.29    7.90 
  -3  -2  -8  112.79    9.60 
  -3  -2  -8   89.09   10.40 
  -3  -2  -8  117.29    9.70 
   3   2   8  112.49    9.60 
   3   2   8   92.69   10.60 
   3   2   8  104.79   10.40 
  -4  -2  -8    4.50    3.20 
  -4  -2  -8   -0.40    1.40 
   4   2   8    1.70    2.80 
   4   2   8    4.90    3.10 
  -5  -2  -8   -4.70    3.10 
  -5  -2  -8    2.10    2.00 
  -5  -2  -8    2.20    1.80 
   5   2   8   -4.30    3.20 
   5   2   8    4.60    2.00 
   5   2   8    3.60    3.80 
  -6  -2  -8    3.10    2.20 
  -6  -2  -8    5.20    4.20 
   6   2   8   10.90    4.90 
   6   2   8    8.60    3.20 
   6   2   8   -3.70    3.70 
  -7  -2  -8    8.70    2.60 
   7   2   8    4.20    3.00 
   7   2   8   12.70    5.20 
   7   2   8    7.20    4.80 
   8   2   8   -2.70    4.30 
   8   2   8   -2.50    4.80 
   8   2   8    8.00    3.00 
  -9  -2  -8    8.40    3.20 
   9   2   8    4.50    4.10 
   9   2   8    0.50    5.90 
  -5   3   8    5.20    1.90 
  -4   3   8    5.50    3.50 
  -3   3   8    6.30    2.20 
  -3   3   8   12.20    4.20 
  -2   3   8   16.50    3.40 
  -2   3   8   23.60    8.00 
  -1   3   8   46.30    5.60 
  -1   3   8   53.49    7.30 
   0  -3  -8  117.49   10.20 
   0   3   8  110.19   11.20 
   0   3   8  122.79   10.40 
  -1  -3  -8   81.69    8.40 
  -1  -3  -8   87.39    7.80 
  -1  -3  -8   89.19    7.40 
   1   3   8   94.19    8.50 
   1   3   8   64.29    9.10 
  -2  -3  -8   11.50    2.80 
  -2  -3  -8   14.90    3.10 
  -2  -3  -8   10.80    3.20 
   2   3   8   12.40    3.60 
   2   3   8   11.40    2.20 
   2   3   8   10.80    4.00 
  -3  -3  -8   18.80    3.60 
  -3  -3  -8   17.70    3.40 
   3   3   8   21.20    4.80 
   3   3   8   18.00    3.50 
   3   3   8   23.20    4.80 
  -4  -3  -8    2.40    2.00 
  -4  -3  -8    1.60    1.70 
  -4  -3  -8   -0.90    2.90 
   4   3   8    2.30    3.10 
   4   3   8   -0.50    1.10 
   4   3   8   -1.10    2.50 
  -5  -3  -8   22.20    4.50 
  -5  -3  -8   19.00    4.40 
   5   3   8   15.30    4.90 
   5   3   8   24.30    4.50 
  -6  -3  -8   34.10    5.90 
  -6  -3  -8   30.80    6.70 
   6   3   8   30.40    6.70 
   6   3   8   24.80    6.40 
  -7  -3  -8    5.50    2.40 
  -7  -3  -8   -1.70    4.60 
   7   3   8    8.80    5.20 
   7   3   8    5.00    2.30 
   7   3   8    1.10    3.50 
  -8  -3  -8   10.80    3.70 
   8   3   8    0.50    4.60 
   8   3   8   15.30    6.20 
   8   3   8    9.60    3.20 
  -9  -3  -8    0.90    2.90 
   9   3   8    2.80    4.50 
   9   3   8   18.10    9.90 
   9   3   8    5.00    6.60 
  -5   4   8    3.30    1.80 
  -4   4   8   -0.50    4.30 
  -4   4   8    5.90    2.00 
  -3   4   8    9.80    4.30 
  -3   4   8    5.90    2.00 
  -2   4   8    2.90    1.60 
  -2   4   8    1.00    2.90 
  -1   4   8   20.90    3.80 
  -1   4   8   21.00    4.80 
   0  -4  -8    5.60    1.80 
   0  -4  -8   -1.10    3.00 
   0   4   8    7.50    2.60 
   0   4   8   11.00    3.30 
  -1  -4  -8    7.00    2.10 
  -1  -4  -8    4.60    2.60 
  -1  -4  -8    6.10    2.00 
   1   4   8   11.20    3.40 
  -2  -4  -8    9.80    2.40 
  -2  -4  -8    7.80    2.30 
  -2  -4  -8    5.50    3.10 
   2   4   8    3.60    3.20 
   2   4   8   10.30    3.00 
   2   4   8    7.40    3.10 
  -3  -4  -8   36.70    4.80 
  -3  -4  -8   38.40    5.10 
   3   4   8   41.70    6.80 
   3   4   8   33.20    7.20 
  -4  -4  -8   29.90    5.10 
  -4  -4  -8   32.60    4.80 
  -4  -4  -8   29.50    5.90 
   4   4   8   26.00    6.10 
   4   4   8   28.90    6.50 
   4   4   8   26.00    7.50 
  -5  -4  -8   20.60    5.20 
  -5  -4  -8   29.90    6.20 
  -5  -4  -8   36.60    5.30 
   5   4   8   29.30    6.20 
   5   4   8   42.40    7.70 
  -6  -4  -8   28.40    6.20 
  -6  -4  -8   40.00    5.70 
   6   4   8   28.50    5.50 
   6   4   8   18.10    5.70 
   6   4   8   25.70    6.90 
  -7  -4  -8   20.30    6.30 
  -7  -4  -8   20.30    5.20 
   7   4   8   22.20    4.90 
   7   4   8   15.50    6.10 
  -8  -4  -8   14.30    4.20 
  -8  -4  -8   16.70    8.60 
   8   4   8   22.70    6.90 
   8   4   8   17.70    4.70 
   8   4   8    7.60    4.80 
  -9  -4  -8   -0.40    2.50 
   9   4   8   -0.50    4.70 
   9   4   8    6.30    6.50 
  -4   5   8    6.10    4.20 
  -4   5   8    9.50    2.30 
  -3   5   8    6.10    1.90 
  -3   5   8    5.90    3.50 
  -2   5   8    3.80    1.80 
  -2   5   8    3.80    3.10 
  -1   5   8    1.30    1.40 
  -1   5   8    5.30    2.80 
   0  -5  -8    6.70    3.90 
   0  -5  -8    8.40    2.20 
   0   5   8    7.20    2.70 
   0   5   8    5.10    3.00 
  -1  -5  -8   17.10    3.40 
  -1  -5  -8   20.50    3.50 
   1   5   8   16.30    4.00 
   1   5   8   16.60    3.40 
  -2  -5  -8   16.20    3.40 
  -2  -5  -8    9.50    2.80 
  -2  -5  -8    6.60    3.30 
   2   5   8   12.20    3.70 
   2   5   8   10.00    2.30 
   2   5   8   16.30    4.30 
  -3  -5  -8    5.30    2.40 
  -3  -5  -8   11.40    3.60 
   3   5   8    1.40    3.50 
   3   5   8    5.60    2.30 
   3   5   8    5.40    3.70 
  -4  -5  -8    2.10    2.00 
  -4  -5  -8    2.30    1.70 
  -4  -5  -8   -0.40    3.30 
   4   5   8    0.80    3.60 
   4   5   8    1.30    1.90 
   4   5   8   -0.30    3.20 
  -5  -5  -8   25.10    4.60 
  -5  -5  -8   13.50    5.00 
   5   5   8   23.00    6.20 
   5   5   8   15.50    5.20 
   5   5   8   17.20    4.00 
  -6  -5  -8    4.00    2.20 
  -6  -5  -8   -0.60    4.10 
   6   5   8    0.10    2.00 
   6   5   8    4.50    4.00 
   6   5   8    3.20    4.10 
  -7  -5  -8   14.80    6.20 
  -7  -5  -8   20.30    5.40 
   7   5   8   15.50    5.90 
   7   5   8   18.00    7.00 
   7   5   8   20.20    4.80 
  -8  -5  -8   17.40    4.60 
  -8  -5  -8    6.70    7.00 
   8   5   8   10.60    6.20 
   8   5   8   18.60    6.60 
   9   5   8    8.60    7.90 
   9   5   8   10.00    5.60 
  -3   6   8   12.60    4.10 
  -3   6   8    7.90    2.10 
  -2   6   8    1.70    1.50 
  -2   6   8   -2.70    2.10 
   1  -6  -8   19.30    3.50 
   1  -6  -8   28.40    5.60 
  -1   6   8   26.80    4.10 
  -1   6   8   18.50    4.30 
   0  -6  -8    3.50    2.10 
   0   6   8    3.60    2.50 
   0   6   8    6.80    2.50 
  -1  -6  -8   16.80    3.80 
  -1  -6  -8   20.00    3.40 
  -1  -6  -8   11.30    3.90 
   1   6   8   15.10    3.30 
   1   6   8   21.40    4.50 
  -2  -6  -8   20.40    4.30 
  -2  -6  -8    9.00    4.50 
  -2  -6  -8   19.80    3.60 
   2   6   8   18.50    4.70 
   2   6   8   14.00    4.30 
  -3  -6  -8   22.70    4.60 
  -3  -6  -8   22.50    5.80 
   3   6   8   23.40    5.80 
   3   6   8   10.90    5.00 
  -4  -6  -8   10.60    3.10 
  -4  -6  -8   12.90    3.50 
  -4  -6  -8   18.00    5.50 
   4   6   8   17.00    8.00 
   4   6   8    7.00    4.30 
  -5  -6  -8   80.79    9.00 
  -5  -6  -8   73.09   11.40 
   5   6   8   68.99   10.70 
  -6  -6  -8   12.50    4.10 
  -6  -6  -8   11.90    5.90 
   6   6   8   15.10    5.50 
   6   6   8   18.50    6.60 
  -7  -6  -8   14.20    5.20 
  -7  -6  -8   14.80    6.50 
   7   6   8    9.20    5.90 
   7   6   8   25.00    7.00 
  -8  -6  -8    3.00    6.30 
  -8  -6  -8    2.10    3.00 
   8   6   8    1.80    5.30 
   8   6   8   -2.90    3.30 
  -9  -6  -8    9.30    4.10 
   9   6   8    3.10    5.00 
   9   6   8  -11.70    5.90 
   2  -7  -8   11.80    3.60 
   2  -7  -8    6.80    4.30 
  -2   7   8   23.20    4.30 
   1  -7  -8   10.60    2.80 
   1  -7  -8    6.00    3.40 
  -1   7   8    6.50    2.50 
   0  -7  -8   -0.80    1.80 
   0   7   8    2.30    2.30 
  -1  -7  -8    6.70    1.70 
  -1  -7  -8    4.10    2.50 
  -1  -7  -8    9.30    3.80 
   1   7   8    2.00    2.40 
   1   7   8    4.30    2.90 
  -2  -7  -8    8.50    2.40 
  -2  -7  -8    5.90    3.70 
  -2  -7  -8    8.50    3.20 
   2   7   8    8.70    3.60 
   2   7   8    7.70    3.70 
  -3  -7  -8   39.00    5.80 
  -3  -7  -8   52.19    6.50 
   3   7   8   37.60    7.60 
   3   7   8   41.40    8.50 
  -4  -7  -8   14.90    6.30 
   4   7   8   13.80    6.90 
   4   7   8   32.10    7.50 
  -5  -7  -8   33.80    5.80 
  -5  -7  -8   20.10    6.50 
   5   7   8   28.80    7.50 
   5   7   8   30.60    7.80 
  -6  -7  -8   37.10    8.10 
  -6  -7  -8   28.40    5.80 
   6   7   8   18.20    6.90 
   6   7   8   15.20    6.00 
  -7  -7  -8   29.10    6.10 
  -7  -7  -8   35.00    8.50 
   7   7   8   36.50    8.80 
   7   7   8   20.50    7.40 
  -8  -7  -8   -4.90    8.00 
  -8  -7  -8   15.80    4.80 
   8   7   8    7.20    6.30 
   8   7   8   13.60    7.10 
  -9  -7  -8    1.00    3.70 
   9   7   8    3.40    5.50 
   9   7   8    3.70    7.50 
   1  -8  -8   22.00    4.40 
   1  -8  -8   12.50    5.10 
   0  -8  -8    6.10    2.50 
   0  -8  -8    6.30    4.10 
   0   8   8    2.60    2.50 
   0   8   8    3.50    2.50 
  -1  -8  -8   -5.30    3.50 
  -1  -8  -8    1.40    1.10 
  -1  -8  -8    1.90    2.50 
   1   8   8   -1.40    2.50 
  -2  -8  -8    8.40    2.30 
  -2  -8  -8    3.70    4.70 
  -2  -8  -8    9.20    3.50 
   2   8   8   10.50    4.10 
   2   8   8    4.60    3.60 
  -3  -8  -8    9.50    2.90 
  -3  -8  -8   17.10    6.00 
  -3  -8  -8   17.50    4.40 
   3   8   8    6.20    4.50 
   3   8   8   13.90    5.00 
  -4  -8  -8   50.89    7.20 
  -4  -8  -8   34.80    9.50 
   4   8   8   30.90    8.50 
   4   8   8   39.50    8.50 
  -5  -8  -8   -1.90    5.00 
  -5  -8  -8    7.10    3.40 
   5   8   8    4.20    5.00 
   5   8   8    3.90    4.80 
  -6  -8  -8   10.70    7.30 
  -6  -8  -8   15.40    4.70 
   6   8   8   13.60    5.90 
   6   8   8    3.90    5.60 
  -7  -8  -8   32.80    6.90 
  -7  -8  -8   32.30    8.80 
   7   8   8   35.80   10.20 
   7   8   8   12.40    7.90 
  -8  -8  -8    3.40    3.60 
   8   8   8   17.60    7.70 
   8   8   8    4.80    6.20 
   0  -9  -8    6.50    2.60 
   0  -9  -8   -6.80    4.80 
  -1  -9  -8    4.90    3.50 
  -1  -9  -8   -5.10    4.70 
   1   9   8    6.70    3.10 
   1   9   8    9.00    2.40 
   1   9   8   14.10    4.00 
  -2  -9  -8   18.60    3.10 
  -2  -9  -8   11.50    6.60 
  -2  -9  -8   15.30    4.50 
   2   9   8    1.20    8.30 
   2   9   8   17.70    5.30 
  -3  -9  -8   13.90    3.30 
  -3  -9  -8   10.00    6.10 
  -3  -9  -8   22.50    5.40 
   3   9   8   18.20    5.40 
   3   9   8   22.10    5.80 
  -4  -9  -8    4.20    6.50 
  -4  -9  -8   20.10    5.40 
   4   9   8   22.10    7.80 
   4   9   8   15.10    6.00 
  -5  -9  -8   32.30   12.20 
  -5  -9  -8   50.89    8.10 
   5   9   8   46.70   10.10 
  -6  -9  -8   -5.70    8.50 
  -6  -9  -8    7.90    4.30 
   6   9   8   10.20    5.40 
   6   9   8   13.30    6.40 
  -7  -9  -8    2.50    3.50 
  -7  -9  -8    0.80   16.80 
   7   9   8   -2.80    4.40 
   7   9   8    2.40    6.70 
  -2 -10  -8   14.30    4.50 
   2  10   8   16.60    4.20 
  -3 -10  -8    9.80    9.10 
  -3 -10  -8    5.00    2.40 
  -3 -10  -8   13.30    6.10 
   3  10   8   11.00    4.60 
  -4 -10  -8   23.40    6.20 
  -4 -10  -8   10.80    9.50 
   4  10   8   16.20    5.80 
  -5 -10  -8   10.80    4.20 
  -5 -10  -8   -1.60   15.70 
   5  10   8   -4.40    7.00 
   5  10   8    7.00    4.70 
  -6 -10  -8    5.80    4.30 
   6  10   8   -9.30    5.20 
   3   5  -9    4.00    2.60 
  -3  -5   9    4.30    3.00 
   2   5  -9    9.50    4.90 
   2   5  -9   -1.60    4.50 
  -2  -5   9    9.10    6.10 
   1   5  -9    2.70    2.40 
   1   5  -9    0.20    4.20 
  -1  -5   9    0.20    4.00 
  -1  -5   9   -1.60    1.60 
   0   5  -9   13.40    4.20 
   0  -5   9    5.60    5.90 
   0  -5   9   15.40    4.10 
  -1   5  -9   -2.80    4.70 
  -1   5  -9    7.40    3.50 
   1  -5   9   16.00    4.20 
   1  -5   9    5.50    5.20 
  -2   5  -9    4.90    2.60 
  -2   5  -9   -5.20    4.90 
   2  -5   9   -1.20    5.30 
   2  -5   9   -2.00    2.10 
   3  -5   9    9.00    5.50 
   4   4  -9   -0.80    2.00 
   4   4  -9    5.40    3.80 
  -4  -4   9    1.70    2.30 
   3   4  -9   20.30    7.00 
   3   4  -9   12.10    4.10 
  -3  -4   9   13.30    4.40 
   2   4  -9   22.50    5.10 
   2   4  -9   12.70    4.90 
   1   4  -9    1.60    3.10 
   1   4  -9   11.70    3.80 
  -1  -4   9   17.80    4.00 
   0   4  -9   18.60    4.70 
   0   4  -9    2.00    3.90 
   0  -4   9    6.70    4.60 
  -1   4  -9   -5.50    3.50 
  -1   4  -9    4.20    2.50 
   1  -4   9    0.50    3.70 
   1  -4   9    5.50    2.50 
  -2   4  -9    9.50    3.90 
   2  -4   9    7.30    4.80 
   2  -4   9    6.10    2.70 
  -3   4  -9   -1.80    4.70 
  -3   4  -9    1.30    2.50 
   3  -4   9    4.00    2.50 
  -4   4  -9   14.10    4.50 
  -4   4  -9   -2.60    8.10 
   4  -4   9   -6.70    5.70 
   4  -4   9   12.80    4.20 
   4   3  -9    3.70    2.50 
   4   3  -9    3.50    3.00 
  -4  -3   9    4.60    2.70 
   3   3  -9   21.30    4.60 
  -3  -3   9   11.50    5.20 
  -3  -3   9   18.50    3.80 
   2   3  -9    8.50    3.00 
   2   3  -9    8.10    3.50 
  -2  -3   9   10.10    3.50 
  -2  -3   9    7.00    3.70 
   1   3  -9   12.70    3.80 
  -1  -3   9   16.50    4.60 
  -1  -3   9   11.40    3.50 
   0   3  -9   52.39    6.90 
   0   3  -9   34.70    5.90 
   0  -3   9   60.19    6.80 
   0  -3   9   42.70    7.30 
  -1   3  -9    4.00    3.30 
  -1   3  -9    4.30    2.80 
   1  -3   9   -8.90    4.60 
   1  -3   9    4.00    2.30 
  -2   3  -9    3.90    2.70 
  -2   3  -9   -3.30    3.20 
   2  -3   9    1.90    2.10 
   2  -3   9    2.40    3.70 
  -3   3  -9   22.80    5.20 
  -3   3  -9   41.70    7.50 
   3  -3   9   13.10    5.30 
   3  -3   9   28.00    5.00 
  -4   3  -9    0.80    5.60 
  -4   3  -9   -5.20    4.40 
   4  -3   9    2.80    2.70 
   4  -3   9    4.90    5.00 
   5  -3   9    5.70    6.20 
   5  -3   9   29.90    6.10 
   5   2  -9    4.60    3.00 
  -5  -2   9    5.90    2.60 
   4   2  -9    6.60    2.40 
  -4  -2   9    6.10    3.00 
   3   2  -9   30.80    5.00 
   3   2  -9   18.30    4.30 
  -3  -2   9   19.00    3.90 
   2   2  -9   25.90    4.40 
   2   2  -9   26.40    4.50 
  -2  -2   9   23.60    4.70 
   1   2  -9   -1.20    1.30 
   1   2  -9   -1.60    2.50 
  -1  -2   9    0.50    1.70 
  -1  -2   9    2.90    3.60 
   0   2  -9    2.40    2.70 
   0   2  -9    0.90    1.60 
   0  -2   9    3.20    1.90 
   0  -2   9   -1.00    3.00 
  -1   2  -9   16.80    4.40 
   1  -2   9   21.50    4.70 
  -2   2  -9   15.00    4.40 
   2  -2   9   14.20    4.00 
   2  -2   9    9.20    4.40 
  -3   2  -9   17.40    4.30 
  -3   2  -9    9.00    4.50 
   3  -2   9   24.80    5.00 
   3  -2   9    6.80    4.70 
  -4   2  -9    2.90    4.80 
  -4   2  -9    8.60    2.90 
   4  -2   9    3.40    4.50 
   4  -2   9    9.10    3.30 
  -5   2  -9    8.80    6.40 
  -5   2  -9   16.90    4.70 
   5  -2   9   15.10    4.70 
  -6   2  -9   23.20    5.70 
   6  -2   9    9.40    5.40 
   6  -2   9   22.40    6.10 
  -5  -1   9    3.40    2.40 
   4   1  -9   31.50    4.70 
  -4  -1   9   35.70    5.50 
   3   1  -9  105.39    8.60 
   3   1  -9   77.29    8.30 
  -3  -1   9  100.19    9.80 
   2   1  -9   11.70    3.00 
  -2  -1   9   12.90    3.30 
   1   1  -9   75.79    7.10 
   1   1  -9   72.89    7.30 
  -1  -1   9   72.29    7.60 
  -1  -1   9   56.29    6.80 
   0   1  -9   18.20    5.80 
   0   1  -9   39.80    5.30 
   0  -1   9   25.10    5.80 
   0  -1   9   31.30    5.30 
  -1   1  -9    7.80    2.80 
  -1   1  -9    7.00    2.40 
   1  -1   9    4.30    2.40 
   1  -1   9    3.20    3.30 
  -2   1  -9   -0.30    3.10 
  -2   1  -9   10.00    2.80 
   2  -1   9    7.10    2.60 
   2  -1   9    6.40    3.60 
  -3   1  -9   26.00    4.80 
  -3   1  -9   15.70    4.60 
   3  -1   9   20.10    5.20 
   3  -1   9   32.90    5.60 
  -4   1  -9    5.40    2.90 
  -4   1  -9    8.80    4.10 
   4  -1   9    3.70    4.00 
   4  -1   9    7.90    5.00 
  -5   1  -9   41.80    8.10 
  -5   1  -9   36.60    6.40 
   5  -1   9   39.40    7.20 
   5  -1   9   20.10    8.00 
  -6   1  -9   10.00    5.50 
   6  -1   9   10.30    4.60 
  -7   1  -9    3.50    2.70 
   7  -1   9    3.00    5.80 
   7  -1   9    4.70    4.70 
  -5   0   9    3.70    2.10 
  -4   0   9    2.80    1.90 
  -3   0   9   10.20    3.20 
  -2   0   9   15.50    3.80 
   1   0  -9   18.00    3.50 
   1   0  -9   16.50    4.10 
  -1   0   9   14.30    4.20 
   0   0  -9   47.30    5.30 
   0   0   9   50.49    7.00 
   0   0   9   43.50    5.90 
   0   0   9   48.70    5.90 
  -1   0  -9    1.60    1.50 
  -1   0  -9   -1.20    2.30 
   1   0   9    3.30    2.20 
   1   0   9    2.80    2.70 
   1   0   9    5.60    2.80 
   1   0   9    1.60    1.80 
  -2   0  -9   29.70    4.70 
  -2   0  -9   29.70    4.40 
   2   0   9   36.10    6.10 
   2   0   9   33.40    5.40 
  -3   0  -9   12.20    3.00 
  -3   0  -9   14.10    3.70 
   3   0   9   13.00    3.60 
   3   0   9    9.50    3.30 
   3   0   9    5.10    3.60 
  -4   0  -9   31.70    5.50 
   4   0   9   37.60    6.20 
   4   0   9   31.90    6.00 
  -5   0  -9   14.30    5.10 
  -5   0  -9   18.30    4.40 
   5   0   9   22.60    5.70 
   5   0   9   18.40    4.90 
   5   0   9    5.50    4.80 
  -6   0  -9    3.30    4.30 
  -6   0  -9    4.20    2.10 
   6   0   9    3.50    4.40 
   6   0   9    1.30    3.50 
  -7   0  -9    0.70    2.20 
   7   0   9    4.90    4.00 
   7   0   9   -3.30    4.70 
   8   0   9    4.40    4.90 
  -5   1   9    4.90    2.80 
  -4   1   9   10.50    3.10 
  -3   1   9   21.10    4.60 
  -2   1   9   21.40    4.30 
   1  -1  -9   47.80    4.80 
  -1   1   9   47.60    5.90 
   0  -1  -9  315.27   21.40 
   0  -1  -9  272.47   21.30 
   0   1   9  251.37   23.10 
   0   1   9  309.47   22.40 
  -1  -1  -9   37.80    6.00 
  -1  -1  -9   63.39    6.20 
  -1  -1  -9   55.59    5.70 
   1   1   9   48.30    6.90 
   1   1   9   52.89    6.50 
   1   1   9   53.39    6.50 
   1   1   9   44.90    5.50 
  -2  -1  -9  187.58   13.90 
  -2  -1  -9  177.08   13.90 
   2   1   9  161.98   14.20 
   2   1   9  151.78   13.70 
   2   1   9  151.98   14.30 
  -3  -1  -9   71.89    6.70 
  -3  -1  -9   45.10    7.60 
  -3  -1  -9   60.29    6.80 
   3   1   9   46.60    7.70 
   3   1   9   59.89    7.60 
   3   1   9   57.29    6.90 
  -4  -1  -9    1.80    2.00 
  -4  -1  -9    3.50    3.50 
   4   1   9    2.10    2.80 
   4   1   9    1.50    3.50 
   4   1   9    4.80    2.40 
  -5  -1  -9    6.60    4.40 
  -5  -1  -9    2.00    2.20 
   5   1   9    0.60    2.00 
   5   1   9    8.30    3.90 
   5   1   9   -4.60    3.20 
  -6  -1  -9    1.30    1.90 
  -6  -1  -9   12.40    5.00 
   6   1   9   -1.40    2.30 
   6   1   9    3.40    3.80 
   6   1   9    7.50    4.80 
  -7  -1  -9   12.30    5.80 
  -7  -1  -9    8.20    2.80 
   7   1   9    8.00    5.30 
   7   1   9   13.50    6.20 
  -8  -1  -9   11.30    3.20 
   8   1   9   15.60    6.20 
   8   1   9    2.90    6.40 
  -5   2   9    4.30    2.50 
  -4   2   9   16.70    3.80 
  -3   2   9    6.60    2.40 
  -1   2   9   45.40    5.60 
  -1   2   9   44.40    7.90 
   0  -2  -9  161.58   12.00 
   0  -2  -9  139.59   12.50 
   0   2   9  148.99   14.40 
   0   2   9  169.58   13.40 
  -1  -2  -9  440.26   30.80 
  -1  -2  -9  413.36   30.20 
   1   2   9  409.16   30.80 
   1   2   9  420.36   31.10 
  -2  -2  -9   40.90    4.90 
  -2  -2  -9   26.60    5.00 
  -2  -2  -9   37.90    4.90 
   2   2   9   42.50    6.00 
   2   2   9   38.10    6.10 
   2   2   9   36.70    4.80 
  -3  -2  -9    3.70    3.50 
  -3  -2  -9    1.00    1.70 
  -3  -2  -9    4.00    1.80 
   3   2   9    4.40    2.20 
   3   2   9    3.50    2.60 
   3   2   9    1.10    2.90 
  -4  -2  -9   32.30    6.20 
  -4  -2  -9   38.80    5.50 
  -4  -2  -9   37.90    6.00 
   4   2   9   34.60    5.50 
   4   2   9   42.60    7.00 
  -5  -2  -9   48.40    8.30 
  -5  -2  -9   43.30    6.30 
   5   2   9   54.69    8.40 
   5   2   9   61.79    7.30 
  -6  -2  -9    0.90    2.10 
  -6  -2  -9    8.70    4.30 
   6   2   9    9.20    4.40 
   6   2   9    1.50    2.30 
   6   2   9   -4.30    3.50 
  -7  -2  -9    1.50    2.90 
  -7  -2  -9    7.60    6.10 
   7   2   9   -1.90    4.00 
   7   2   9   -4.40    4.60 
  -8  -2  -9    0.70    2.40 
   8   2   9   -4.70    4.90 
   8   2   9   -2.80    3.60 
  -4   3   9   18.60    4.00 
  -3   3   9    1.70    1.70 
  -2   3   9   11.30    2.80 
  -2   3   9   -4.70    4.10 
  -1   3   9    7.50    2.50 
  -1   3   9    7.30    3.50 
   0   3   9   18.80    4.00 
   0   3   9   21.90    5.20 
  -1  -3  -9   43.30    6.60 
  -1  -3  -9   47.80    5.40 
  -1  -3  -9   43.80    5.00 
   1   3   9   40.10    5.90 
  -2  -3  -9  191.78   14.60 
  -2  -3  -9  185.28   14.40 
  -2  -3  -9  154.88   15.20 
   2   3   9  169.08   13.90 
   2   3   9  191.98   15.40 
   2   3   9  190.18   16.00 
  -3  -3  -9    3.70    3.30 
  -3  -3  -9    9.00    2.90 
  -3  -3  -9    9.00    2.60 
   3   3   9    5.50    2.20 
   3   3   9    5.10    3.50 
   3   3   9    7.20    3.60 
  -4  -3  -9  125.29   14.00 
  -4  -3  -9  164.48   13.50 
   4   3   9  164.88   13.10 
   4   3   9  173.78   14.80 
   4   3   9  131.29   14.70 
  -5  -3  -9   71.59    8.00 
  -5  -3  -9   73.29    9.90 
   5   3   9   77.89    8.10 
   5   3   9   64.99    9.50 
   5   3   9   47.00    9.50 
  -6  -3  -9    0.50    4.50 
  -6  -3  -9   -2.20    1.90 
   6   3   9    1.50    3.30 
   6   3   9    1.10    2.20 
   6   3   9    3.10    3.90 
  -7  -3  -9   10.50    3.50 
  -7  -3  -9   16.20    5.90 
   7   3   9   11.50    5.00 
   7   3   9    6.60    4.80 
  -8  -3  -9    5.00    2.70 
   8   3   9   -0.80    5.00 
   8   3   9    1.50    4.30 
  -9  -3  -9   -0.90    2.20 
   9   3   9    5.80    6.60 
   9   3   9    3.60    5.80 
  -4   4   9   -1.50    1.30 
  -3   4   9    3.60    2.30 
  -2   4   9    2.70    3.30 
  -2   4   9   11.00    3.00 
  -1   4   9   46.10    5.60 
  -1   4   9   48.90    7.30 
   0  -4  -9    8.10    2.60 
   0   4   9    5.80    3.00 
   0   4   9    8.10    2.60 
  -1  -4  -9   12.00    2.60 
  -1  -4  -9    9.60    3.30 
  -1  -4  -9   10.40    2.50 
   1   4   9    6.80    2.80 
  -2  -4  -9   17.00    3.50 
  -2  -4  -9    9.80    3.70 
  -2  -4  -9   19.90    3.60 
   2   4   9   11.90    4.10 
   2   4   9   17.20    3.00 
   2   4   9   19.70    4.70 
  -3  -4  -9   44.00    5.70 
  -3  -4  -9   45.20    5.70 
   3   4   9   46.80    7.50 
   3   4   9   47.60    7.40 
   3   4   9   44.20    5.20 
  -4  -4  -9   15.80    3.70 
  -4  -4  -9    9.40    3.50 
  -4  -4  -9    6.50    3.70 
   4   4   9   10.40    4.30 
   4   4   9   11.50    4.20 
   4   4   9   13.00    3.00 
  -5  -4  -9   -6.10    3.80 
  -5  -4  -9    3.00    2.20 
   5   4   9    3.80    2.50 
   5   4   9    1.50    3.20 
  -6  -4  -9   20.60    5.70 
  -6  -4  -9   24.70    5.10 
   6   4   9   15.40    5.50 
   6   4   9   22.30    6.10 
  -7  -4  -9   87.79   10.20 
  -7  -4  -9   84.79   12.60 
   7   4   9   83.09   12.20 
  -8  -4  -9   13.10    6.60 
  -8  -4  -9    1.50    2.20 
   8   4   9    5.90    4.60 
   8   4   9    5.40    6.00 
  -9  -4  -9    6.40    3.90 
   9   4   9    9.90    6.90 
   9   4   9    9.20    6.20 
  -3   5   9    6.50    2.10 
  -2   5   9   11.60    2.80 
  -2   5   9    8.70    3.70 
  -1   5   9   27.80    7.70 
  -1   5   9   15.40    3.40 
   0  -5  -9   45.70    4.80 
   0   5   9   43.20    5.70 
   0   5   9   36.40    8.20 
  -1  -5  -9   46.10    7.10 
  -1  -5  -9   66.79    7.10 
  -1  -5  -9   67.39    7.10 
   1   5   9   57.59    7.20 
  -2  -5  -9   14.60    3.30 
  -2  -5  -9   15.90    3.40 
  -2  -5  -9   12.50    3.40 
   2   5   9   16.30    7.70 
   2   5   9   17.00    4.40 
  -3  -5  -9   13.50    3.20 
  -3  -5  -9   14.40    3.50 
  -3  -5  -9    8.30    4.00 
   3   5   9   13.70    4.40 
  -4  -5  -9   55.29    6.80 
  -4  -5  -9   61.49    9.20 
   4   5   9   54.69    8.80 
  -5  -5  -9   23.50    6.00 
  -5  -5  -9   35.60    5.70 
   5   5   9   21.20    5.50 
   5   5   9   30.80    6.70 
  -6  -5  -9   17.50    4.40 
  -6  -5  -9    8.40    5.00 
   6   5   9   13.60    5.70 
   6   5   9   16.80    6.20 
  -7  -5  -9    4.50    5.80 
  -7  -5  -9   18.90    5.00 
   7   5   9   10.80    5.30 
   7   5   9   12.30    8.30 
  -8  -5  -9   -3.20    6.10 
  -8  -5  -9   -0.10    2.10 
   8   5   9    0.50    5.60 
   8   5   9    2.50    3.80 
  -9  -5  -9   11.40    3.70 
   9   5   9    2.30    5.10 
   9   5   9   14.80    6.80 
  -3   6   9   18.40    3.50 
  -2   6   9    7.30    4.10 
  -2   6   9   12.20    3.00 
  -1   6   9    2.80    3.10 
  -1   6   9    9.60    2.80 
   0  -6  -9   -1.20    2.40 
   0   6   9   -0.90    1.90 
   0   6   9    0.00    2.50 
  -1  -6  -9   29.20    4.30 
   1   6   9   25.10    5.20 
  -2  -6  -9    2.40    3.10 
  -2  -6  -9   10.20    2.70 
  -2  -6  -9    9.20    3.00 
   2   6   9    7.40    3.50 
  -3  -6  -9   13.60    3.40 
  -3  -6  -9   14.80    3.60 
   3   6   9   12.60    4.40 
   3   6   9   15.40    4.90 
  -4  -6  -9   23.40    5.70 
  -4  -6  -9   22.20    8.20 
   4   6   9   28.10    6.70 
   4   6   9   27.50    6.60 
  -5  -6  -9   25.20    5.50 
  -5  -6  -9   18.70    6.60 
   5   6   9   20.00    5.90 
   5   6   9   18.30    5.40 
  -6  -6  -9    4.90    5.80 
  -6  -6  -9    9.10    3.80 
   6   6   9   10.90    5.00 
   6   6   9    3.30    4.10 
  -7  -6  -9   17.70    6.50 
  -7  -6  -9   17.90    5.00 
   7   6   9   -0.40    5.10 
   7   6   9    9.30    5.00 
  -8  -6  -9   -4.40    7.20 
  -8  -6  -9    6.90    3.50 
   8   6   9   12.80    6.70 
   8   6   9    2.00    6.20 
  -9  -6  -9   -8.90    5.70 
   9   6   9   14.90    5.60 
  -2   7   9    4.10    2.00 
   1  -7  -9    7.50    2.60 
   1  -7  -9   12.00    3.70 
  -1   7   9    3.00    3.20 
  -1   7   9    6.00    2.70 
   0  -7  -9    1.20    1.70 
   0  -7  -9   -5.20    2.90 
   0   7   9   -0.70    2.10 
   0   7   9   -0.10    2.40 
  -1  -7  -9   -2.30    3.10 
  -1  -7  -9   -0.50    1.20 
  -1  -7  -9    0.40    1.90 
   1   7   9   -2.80    2.20 
  -2  -7  -9    2.20    1.80 
  -2  -7  -9    1.70    3.50 
  -2  -7  -9    1.90    1.50 
   2   7   9    0.60    2.90 
   2   7   9    2.60    2.80 
  -3  -7  -9   14.60    3.80 
  -3  -7  -9   11.40    3.30 
  -3  -7  -9    1.40    4.20 
   3   7   9   12.90    4.70 
   3   7   9   10.20    4.10 
  -4  -7  -9    5.80    4.80 
  -4  -7  -9    1.20    2.10 
   4   7   9    5.80    4.60 
   4   7   9    3.70    3.20 
  -5  -7  -9   -1.40    1.90 
  -5  -7  -9    1.90    4.80 
   5   7   9   -2.70    2.90 
   5   7   9   -1.30    4.20 
  -6  -7  -9    9.20    7.20 
  -6  -7  -9   12.20    4.50 
   6   7   9   10.60    5.80 
   6   7   9   14.60    4.70 
  -7  -7  -9   15.00    7.70 
  -7  -7  -9   14.20    5.30 
   7   7   9   17.30    7.00 
   7   7   9   17.20    6.50 
  -8  -7  -9    8.10    4.70 
  -8  -7  -9   13.70    7.70 
   8   7   9    2.80    5.70 
   8   7   9    5.40    5.30 
   1  -8  -9    8.60    3.40 
   1  -8  -9   16.00    5.10 
  -1   8   9   15.20    3.50 
   0  -8  -9   20.40    5.30 
   0  -8  -9   25.70    6.30 
   0   8   9   20.70    4.30 
   0   8   9   22.50    4.50 
  -1  -8  -9    4.50    4.00 
  -1  -8  -9    2.00    1.40 
  -1  -8  -9    0.90    2.20 
   1   8   9   -0.50    2.40 
  -2  -8  -9   13.20    5.90 
  -2  -8  -9   14.10    4.10 
  -2  -8  -9   14.10    3.00 
   2   8   9   20.20    5.10 
   2   8   9   10.70    4.30 
  -3  -8  -9    3.50    2.60 
  -3  -8  -9    3.20    4.60 
  -3  -8  -9    5.70    2.70 
   3   8   9    5.90    3.70 
   3   8   9   -1.50    3.00 
  -4  -8  -9   15.60    4.70 
  -4  -8  -9   15.40    6.40 
   4   8   9    7.50    4.60 
   4   8   9   13.80    5.70 
  -5  -8  -9  -10.00    5.60 
  -5  -8  -9    2.70    2.70 
   5   8   9   -1.20    3.10 
  -6  -8  -9    2.20    6.30 
  -6  -8  -9    1.90    3.10 
   6   8   9   15.60    6.00 
   6   8   9    6.90    4.90 
  -7  -8  -9    7.80    3.60 
   7   8   9   10.30    6.20 
   7   8   9   -5.40    6.60 
  -8  -8  -9   21.90   11.70 
   8   8   9   22.70    8.30 
   8   8   9   22.30    7.30 
  -1  -9  -9   30.40    5.20 
  -1  -9  -9   24.80    7.30 
   1   9   9   24.90    5.80 
   1   9   9   24.10    5.10 
  -2  -9  -9   13.90    2.80 
  -2  -9  -9   10.20    5.30 
  -2  -9  -9    6.70    4.50 
   2   9   9   16.60    4.50 
   2   9   9    5.50    3.50 
  -3  -9  -9    3.00    3.20 
  -3  -9  -9   11.90    7.40 
   3   9   9    1.50    3.30 
   3   9   9    3.90    3.40 
  -4  -9  -9    9.20    4.10 
  -4  -9  -9   15.90    6.20 
   4   9   9   11.00    5.30 
   4   9   9    0.00    4.20 
  -5  -9  -9   11.50    4.50 
  -5  -9  -9   12.20    8.00 
   5   9   9    1.10    4.80 
   5   9   9   13.00    5.80 
  -6  -9  -9    6.30    3.10 
  -6  -9  -9   -8.60    7.80 
   6   9   9   -3.90    4.40 
   6   9   9    1.60    5.70 
  -7  -9  -9   -1.00    3.30 
   7   9   9   -1.90    6.20 
   7   9   9   -5.40    4.70 
  -3 -10  -9    0.40    2.90 
   3  10   9    3.00    3.90 
  -4 -10  -9   11.00    4.70 
   4  10   9    9.00    5.80 
  -5 -10  -9   20.10   10.50 
   5  10   9   11.60    6.20 
   2   4 -10   -4.40    4.30 
   2   4 -10    5.80    3.20 
  -2  -4  10   11.50    3.30 
   1   4 -10    4.50    3.30 
  -1  -4  10    9.30    6.80 
  -1  -4  10    2.90    3.00 
   0   4 -10   17.10    5.10 
   0  -4  10   11.60    4.50 
   0  -4  10   15.70    4.20 
  -1   4 -10    1.30    1.90 
   1  -4  10    0.00    1.70 
  -2   4 -10    2.30    5.50 
  -2   4 -10    8.70    3.60 
   2  -4  10    7.60    3.20 
   2  -4  10   12.90    5.80 
  -3   4 -10   10.80    4.60 
   3  -4  10    4.20    2.80 
   3  -4  10    6.20    6.00 
   3   3 -10    5.80    2.40 
   3   3 -10   14.20    5.70 
  -3  -3  10    6.40    2.60 
   2   3 -10    1.20    3.60 
   2   3 -10   -0.90    1.80 
  -2  -3  10    1.60    2.00 
  -2  -3  10    5.70    4.70 
   1   3 -10   -2.30    2.80 
   1   3 -10    2.60    2.20 
  -1  -3  10    3.00    2.40 
  -1  -3  10   -6.70    3.90 
   0   3 -10    5.20    2.40 
   0  -3  10   -5.60    4.00 
   0  -3  10    0.70    1.80 
  -1   3 -10   11.40    3.60 
   1  -3  10   13.20    3.70 
  -2   3 -10    6.10    4.40 
  -2   3 -10    5.60    3.30 
   2  -3  10   10.20    3.50 
  -3   3 -10    6.40    4.40 
  -3   3 -10    3.30    2.50 
   3  -3  10    4.90    2.70 
  -4   3 -10   -4.00    6.30 
  -4   3 -10    9.60    2.90 
   4  -3  10   12.30    6.90 
   4  -3  10    8.00    3.80 
   4   2 -10   12.80    3.20 
   4   2 -10    6.00    3.40 
  -4  -2  10   13.90    3.70 
   3   2 -10    8.20    3.20 
   3   2 -10    3.00    2.30 
  -3  -2  10   10.10    3.50 
   2   2 -10    9.40    2.80 
   2   2 -10    2.10    3.20 
  -2  -2  10    4.50    2.30 
   1   2 -10    3.30    2.00 
  -1  -2  10    4.60    2.50 
  -1  -2  10    3.90    3.50 
   0   2 -10    1.50    2.00 
   0   2 -10    1.90    3.00 
   0  -2  10   -1.40    1.60 
   0  -2  10   -7.00    3.90 
  -1   2 -10    6.70    2.80 
  -1   2 -10    7.80    3.70 
   1  -2  10    2.30    3.90 
   1  -2  10    8.00    2.90 
  -2   2 -10   20.00    4.60 
   2  -2  10   26.30    4.90 
   2  -2  10   14.40    5.60 
  -3   2 -10    4.90    3.00 
  -3   2 -10    7.90    4.00 
   3  -2  10    4.40    2.70 
   3  -2  10    4.30    4.40 
  -4   2 -10    5.50    4.80 
   4  -2  10   -0.60    2.30 
   4  -2  10   13.40    5.30 
  -5   2 -10   -0.60    7.00 
  -5   2 -10    1.80    2.30 
   5  -2  10    0.20    2.80 
  -6   2 -10    0.50    2.90 
   6  -2  10    2.50    6.00 
   6  -2  10    7.10    4.30 
  -4  -1  10   17.40    4.50 
   3   1 -10    6.20    2.40 
   3   1 -10    9.80    2.80 
  -3  -1  10    6.00    2.80 
   2   1 -10   26.10    4.10 
   2   1 -10   20.90    3.90 
  -2  -1  10   21.30    4.30 
   1   1 -10    6.50    2.60 
   1   1 -10    5.40    2.90 
  -1  -1  10    6.10    2.70 
   0   1 -10    2.70    1.80 
   0   1 -10    2.40    2.50 
   0  -1  10    2.50    2.80 
   0  -1  10    2.20    1.90 
  -1   1 -10   -0.20    1.40 
  -1   1 -10   -0.60    2.70 
   1  -1  10    4.10    3.40 
   1  -1  10    2.60    2.00 
  -2   1 -10    1.70    2.30 
   2  -1  10    4.20    2.70 
   2  -1  10    3.60    3.30 
  -3   1 -10   34.60    5.50 
   3  -1  10   30.40    5.50 
  -4   1 -10   13.30    3.50 
   4  -1  10    9.50    4.00 
  -5   1 -10    1.30    1.90 
  -5   1 -10   -5.70    4.80 
   5  -1  10   -6.90    4.50 
   5  -1  10    0.90    2.70 
  -6   1 -10    7.50    6.40 
  -6   1 -10    5.20    3.10 
   6  -1  10    7.10    5.60 
   6  -1  10    6.30    4.30 
  -4   0  10    1.00    1.70 
  -3   0  10   15.50    4.00 
   2   0 -10   48.20    5.60 
   2   0 -10   64.59    5.90 
  -2   0  10   52.89    6.80 
   1   0 -10   83.59    7.40 
   1   0 -10   71.89    7.40 
  -1   0  10   77.79    8.50 
   0   0 -10    2.80    1.50 
   0   0 -10   -2.10    2.20 
   0   0  10   -0.80    2.30 
   0   0  10    0.30    1.50 
  -1   0 -10   65.89    7.70 
   1   0  10   77.99    8.90 
   1   0  10   92.99    8.80 
  -2   0 -10   14.10    5.80 
  -2   0 -10   31.50    4.70 
   2   0  10   19.50    4.90 
   2   0  10   27.90    5.10 
  -3   0 -10   13.60    5.30 
  -3   0 -10    2.30    3.50 
   3   0  10    0.70    4.10 
   3   0  10    7.80    3.10 
  -4   0 -10    4.20    4.40 
  -4   0 -10    5.80    3.80 
   4   0  10   12.20    4.00 
   4   0  10    4.20    2.80 
  -5   0 -10   -7.90    4.30 
  -5   0 -10    1.60    2.60 
   5   0  10   -3.20    4.40 
   5   0  10    3.60    3.10 
   6   0  10    0.00    3.20 
   6   0  10    1.80    5.10 
  -7   0 -10    4.50    6.70 
   7   0  10   10.70    4.70 
   7   0  10    1.90    5.80 
  -4   1  10   21.80    4.90 
  -3   1  10    4.60    2.30 
  -2   1  10    6.90    2.80 
   1  -1 -10    0.90    1.20 
  -1   1  10    1.70    1.80 
   0  -1 -10   79.39    7.20 
   0  -1 -10   64.39    7.20 
   0   1  10   80.99    8.30 
  -1  -1 -10   59.59    6.50 
   1   1  10   67.49    7.30 
   1   1  10   56.19    7.00 
  -2  -1 -10   42.00    6.50 
   2   1  10   49.10    7.20 
   2   1  10   56.19    6.90 
  -3  -1 -10   41.50    7.20 
  -3  -1 -10   64.09    7.20 
   3   1  10   66.79    7.80 
   3   1  10   52.69    8.00 
  -4  -1 -10   29.40    5.10 
  -4  -1 -10   13.60    4.80 
   4   1  10   20.10    5.20 
   4   1  10   17.90    4.60 
  -5  -1 -10    4.20    2.20 
   5   1  10   13.30    4.70 
   5   1  10    7.60    4.30 
  -6  -1 -10    9.40    3.40 
  -6  -1 -10   17.30    5.80 
   6   1  10   -0.80    4.90 
   6   1  10   21.30    6.50 
  -7  -1 -10   -5.10    5.30 
  -7  -1 -10    5.00    2.60 
   7   1  10    5.50    3.90 
   7   1  10    0.20    4.50 
   8   1  10  -12.90    6.60 
  -4   2  10    2.30    2.00 
  -3   2  10   -1.60    1.30 
  -2   2  10   19.40    4.30 
  -1   2  10   32.10    5.00 
   0  -2 -10   17.60    3.00 
   0   2  10   20.60    4.30 
  -1  -2 -10   55.99    7.00 
   1   2  10   58.89    7.20 
  -2  -2 -10   63.39    7.10 
   2   2  10   54.79    9.20 
   2   2  10   68.19    8.00 
  -3  -2 -10  191.58   15.70 
   3   2  10  176.08   16.60 
   3   2  10  202.08   17.70 
  -4  -2 -10   85.89    8.80 
  -4  -2 -10   65.89    9.50 
   4   2  10   88.69    9.80 
  -5  -2 -10    5.80    2.50 
  -5  -2 -10    1.80    4.00 
   5   2  10    9.10    4.20 
  -6  -2 -10   -1.20    1.80 
   6   2  10   -0.50    4.40 
   6   2  10   -0.30    3.30 
  -7  -2 -10    0.00    5.80 
  -7  -2 -10    7.70    2.50 
   7   2  10    3.90    3.60 
   7   2  10    1.70    5.20 
  -8  -2 -10    3.20    3.20 
   8   2  10  -10.90    6.20 
   8   2  10   -7.00    5.80 
  -4   3  10    1.40    1.50 
  -3   3  10   -1.10    1.50 
  -2   3  10   10.40    3.10 
  -1   3  10    5.70    2.40 
   0   3  10    6.90    3.10 
  -1  -3 -10   12.60    2.90 
  -1  -3 -10    8.00    3.30 
   1   3  10   14.10    3.70 
  -2  -3 -10  135.39   12.90 
  -2  -3 -10  121.59   14.10 
   2   3  10  163.78   17.50 
   2   3  10  154.48   13.30 
  -3  -3 -10   44.30    7.80 
   3   3  10   62.29    8.30 
  -4  -3 -10    4.30    2.20 
  -4  -3 -10   13.40    4.50 
   4   3  10    3.60    3.50 
   4   3  10    7.40    3.70 
  -5  -3 -10   15.40    5.40 
  -5  -3 -10   19.30    4.30 
   5   3  10   11.80    5.20 
   5   3  10   21.30    5.30 
  -6  -3 -10   33.80    6.70 
  -6  -3 -10   23.60    5.30 
   6   3  10   32.90    7.10 
   6   3  10   15.90    5.60 
  -7  -3 -10   16.60    5.90 
  -7  -3 -10    7.70    3.40 
   7   3  10    8.50    4.90 
   7   3  10   12.00    5.90 
  -8  -3 -10    4.30    3.60 
   8   3  10    4.20    7.40 
   8   3  10   10.30    6.50 
  -3   4  10    8.90    2.80 
  -2   4  10    9.00    2.80 
   0   4  10   44.80    6.00 
  -1  -4 -10   26.80    3.90 
  -1  -4 -10   21.30    4.40 
   1   4  10   34.30    5.30 
  -2  -4 -10    2.80    1.60 
  -2  -4 -10   -1.50    2.80 
   2   4  10    3.20    3.50 
   2   4  10    2.70    2.70 
  -3  -4 -10    9.90    3.50 
  -3  -4 -10    0.60    3.00 
   3   4  10    1.30    3.20 
   3   4  10    3.40    4.80 
  -4  -4 -10   24.70    5.50 
  -4  -4 -10   30.20    7.00 
   4   4  10   38.50    7.40 
   4   4  10   43.90    7.60 
  -5  -4 -10   19.60    5.20 
   5   4  10   19.40    5.20 
   5   4  10   14.80    4.80 
  -6  -4 -10   30.60    7.40 
  -6  -4 -10   29.30    9.00 
   6   4  10   37.50    7.50 
   6   4  10   23.50    5.90 
  -7  -4 -10   11.10    6.20 
  -7  -4 -10   21.20    6.50 
   7   4  10   11.40    5.20 
  -8  -4 -10    7.20    3.40 
  -8  -4 -10    2.10    6.50 
   8   4  10    4.40    5.20 
  -3   5  10   11.50    3.00 
  -2   5  10   10.80    3.10 
  -1   5  10   21.70    4.70 
   0  -5 -10    8.80    2.30 
   0   5  10    8.00    3.80 
   0   5  10    4.80    2.50 
  -1  -5 -10    3.10    1.80 
  -1  -5 -10    6.50    4.20 
  -1  -5 -10    4.90    1.90 
   1   5  10    3.60    2.70 
  -2  -5 -10    1.20    3.10 
  -2  -5 -10    4.70    1.90 
   2   5  10    0.00    2.50 
   2   5  10    2.80    2.70 
  -3  -5 -10    2.80    1.60 
   3   5  10    3.20    3.30 
  -4  -5 -10    5.20    2.70 
  -4  -5 -10    6.80    3.80 
   4   5  10    3.10    3.50 
   4   5  10   -1.10    3.10 
  -5  -5 -10   29.40    5.60 
  -5  -5 -10    7.20    4.70 
   5   5  10   17.20    5.30 
   5   5  10   20.10    5.90 
  -6  -5 -10   -2.70    5.20 
  -6  -5 -10    2.80    2.50 
   6   5  10    3.90    4.30 
  -7  -5 -10    5.30    3.70 
  -7  -5 -10   -8.00    5.40 
   7   5  10   11.90    6.20 
   7   5  10    1.40    4.10 
  -8  -5 -10    8.40    3.80 
  -8  -5 -10   17.20    7.60 
   8   5  10    8.80    5.60 
   8   5  10   11.80    5.40 
  -2   6  10   28.00    4.60 
  -2   6  10   19.10    7.60 
  -1   6  10    9.40    4.20 
  -1   6  10    6.60    3.10 
   0  -6 -10    0.00    2.50 
   0   6  10   -0.50    2.80 
   0   6  10    1.40    2.30 
  -1  -6 -10   11.00    3.10 
  -1  -6 -10   11.40    3.60 
  -1  -6 -10   16.30    3.30 
   1   6  10    7.30    3.30 
  -2  -6 -10   39.40    7.30 
  -2  -6 -10   48.70    5.80 
   2   6  10   43.60    7.30 
   2   6  10   45.00    6.70 
  -3  -6 -10   30.30    5.00 
   3   6  10   22.60    6.90 
  -4  -6 -10   27.90    5.30 
   4   6  10   20.30    5.50 
   4   6  10   24.00    6.20 
  -5  -6 -10   -4.40    4.60 
  -5  -6 -10    2.90    2.60 
   5   6  10   -2.40    3.10 
  -6  -6 -10   30.90    7.70 
  -6  -6 -10   47.50    7.40 
   6   6  10   36.10    8.20 
  -7  -6 -10   -0.80    6.00 
  -7  -6 -10    7.40    3.50 
   7   6  10   11.30    5.50 
   7   6  10    1.60    4.70 
  -8  -6 -10    0.20    3.80 
   8   6  10   -4.70    4.10 
   1  -7 -10    7.00    3.30 
  -1   7  10   11.30    4.40 
  -1   7  10   11.00    3.60 
   0  -7 -10    6.60    3.00 
   0  -7 -10    3.00    2.00 
   0   7  10    2.40    3.00 
   0   7  10    4.70    2.40 
  -1  -7 -10   10.90    2.60 
   1   7  10   10.30    3.60 
   1   7  10   12.50    3.60 
  -2  -7 -10    4.40    3.80 
  -2  -7 -10    3.50    2.30 
   2   7  10    4.10    2.60 
   2   7  10    0.90    2.60 
  -3  -7 -10    3.10    4.10 
  -3  -7 -10   10.40    3.10 
   3   7  10    4.20    4.20 
   3   7  10   -0.80    6.70 
   4   7  10    5.40    3.60 
   4   7  10    8.30    4.30 
  -5  -7 -10   29.80    7.20 
  -5  -7 -10   41.90    6.90 
   5   7  10   53.99   10.00 
   5   7  10   31.40    7.50 
  -6  -7 -10   -0.50    5.90 
  -6  -7 -10    5.40    3.50 
   6   7  10   12.20    5.80 
   6   7  10   13.40    5.20 
  -7  -7 -10   20.10    8.60 
  -7  -7 -10   19.60    5.20 
   7   7  10    6.30    6.40 
   7   7  10   29.60    8.20 
  -8  -7 -10   -1.60    9.40 
   8   7  10   16.40    6.80 
   8   7  10    9.20    5.20 
   0  -8 -10    7.20    2.20 
   0  -8 -10    5.10    4.50 
   0   8  10    9.30    3.90 
  -1  -8 -10    1.90    3.20 
   1   8  10    1.60    2.90 
   1   8  10    6.20    3.60 
  -2  -8 -10    6.10    4.20 
  -2  -8 -10    9.30    3.50 
   2   8  10    9.50    3.70 
  -3  -8 -10    8.70    3.70 
  -3  -8 -10   10.00    5.20 
   3   8  10    8.90    4.20 
  -4  -8 -10   10.30    3.70 
  -4  -8 -10   -3.00    7.00 
   4   8  10    9.30    4.90 
   4   8  10   -2.00    4.60 
  -5  -8 -10    5.20    3.60 
  -5  -8 -10    5.10    6.00 
   5   8  10    7.00    4.50 
   5   8  10    5.50    4.80 
  -6  -8 -10   19.40    7.70 
  -6  -8 -10    9.10    3.90 
   6   8  10    7.60    6.40 
   6   8  10    8.20    5.60 
  -7  -8 -10    9.10    4.10 
  -7  -8 -10    8.50    9.70 
   7   8  10    9.60   10.20 
   7   8  10   -3.30    5.80 
  -1  -9 -10    4.50    2.70 
  -1  -9 -10   -4.80    5.40 
   1   9  10   11.20    3.90 
  -2  -9 -10    5.20    3.10 
  -2  -9 -10   -1.20    5.00 
   2   9  10    1.00    4.00 
  -3  -9 -10    1.80    3.00 
  -3  -9 -10    1.10    6.30 
   3   9  10    0.20    3.80 
   3   9  10    3.20    4.60 
  -4  -9 -10   10.70    7.30 
  -4  -9 -10   18.30    5.00 
   4   9  10   10.80    5.60 
   4   9  10   11.60    4.80 
  -5  -9 -10   10.20    3.80 
  -5  -9 -10    2.70    7.70 
   5   9  10   -5.00    5.10 
   5   9  10    7.30    5.30 
  -6  -9 -10    3.60    3.50 
   6   9  10    3.10    4.40 
   2   3 -11    1.10    2.00 
   2   3 -11   -1.20    4.20 
  -2  -3  11    4.50    2.30 
   1   3 -11    8.00    3.10 
  -1  -3  11    3.10    2.70 
   0   3 -11   -2.70    3.20 
   0   3 -11   -0.90    3.80 
   0  -3  11    4.60    3.00 
   0  -3  11    0.20    9.40 
  -1   3 -11   11.00    3.60 
   1  -3  11   13.60    5.70 
   1  -3  11   14.70    4.20 
  -2   3 -11    5.40    3.10 
  -2   3 -11   15.50    5.40 
   2  -3  11    6.00    3.00 
  -3   3 -11    3.10    2.20 
   3  -3  11   -4.60    6.30 
   3  -3  11   -2.60    2.60 
   3   2 -11    1.10    3.40 
   3   2 -11    5.90    2.50 
  -3  -2  11    3.40    2.40 
   2   2 -11    7.20    2.80 
   2   2 -11   12.90    4.00 
  -2  -2  11    7.10    3.20 
   1   2 -11    5.90    2.30 
  -1  -2  11   -2.20    5.20 
  -1  -2  11    5.20    2.60 
   0   2 -11    7.10    2.90 
   0  -2  11    6.00    3.00 
   0  -2  11    3.70    4.30 
  -1   2 -11    0.10    1.90 
   1  -2  11   -0.60    3.90 
   1  -2  11    0.50    1.70 
  -2   2 -11    8.10    3.90 
  -2   2 -11    1.20    1.90 
   2  -2  11    0.10    2.30 
   2  -2  11    1.70    4.20 
  -3   2 -11    3.20    2.20 
  -3   2 -11    8.40    4.60 
   3  -2  11    4.50    4.40 
   3  -2  11    6.30    3.40 
  -4   2 -11   -2.00    1.50 
  -4   2 -11   -5.30    5.30 
   4  -2  11   -0.20    2.80 
   4  -2  11    1.90    5.70 
   5  -2  11   19.30    8.30 
   5  -2  11   -0.50    2.90 
   3   1 -11   25.80    5.00 
  -3  -1  11   17.40    4.00 
   2   1 -11    2.60    3.00 
   2   1 -11    4.90    2.40 
  -2  -1  11    2.40    2.20 
   1   1 -11    0.20    2.90 
   1   1 -11    0.60    1.40 
  -1  -1  11    0.60    1.70 
   0   1 -11   -1.40    2.60 
   0   1 -11    2.60    1.80 
   0  -1  11    6.70    3.30 
   0  -1  11    4.80    2.50 
  -1   1 -11   11.10    3.50 
   1  -1  11   13.30    3.90 
   1  -1  11   18.70    5.00 
  -2   1 -11    6.70    4.10 
  -2   1 -11    6.30    2.60 
   2  -1  11   -0.70    3.70 
   2  -1  11    5.00    2.80 
  -3   1 -11    9.20    3.10 
  -3   1 -11    0.60    4.00 
   3  -1  11   11.60    3.80 
   3  -1  11    5.20    4.50 
  -4   1 -11    7.20    3.00 
   4  -1  11    5.00    3.10 
  -5   1 -11    1.70    2.20 
  -5   1 -11    5.70    5.80 
   5  -1  11   -0.60    5.00 
   5  -1  11   -1.40    2.70 
  -6   1 -11    6.60    3.80 
   6  -1  11    8.10    4.70 
  -3   0  11    1.10    2.10 
  -2   0  11    1.50    1.90 
   1   0 -11    0.50    2.40 
   1   0 -11    7.00    2.20 
  -1   0  11    6.90    2.80 
   0   0 -11    1.80    1.50 
   0   0 -11   -4.40    2.30 
   0   0  11    4.10    2.40 
  -1   0 -11   -1.10    1.70 
  -1   0 -11    1.20    3.20 
   1   0  11    2.70    2.40 
   1   0  11   -5.60    3.10 
  -2   0 -11   13.30    3.50 
  -2   0 -11    6.50    3.70 
   2   0  11    7.70    3.00 
   2   0  11    2.70    4.00 
  -3   0 -11    5.00    4.20 
  -3   0 -11    9.20    3.40 
   3   0  11    7.30    3.30 
   3   0  11   13.10    4.50 
  -4   0 -11    5.10    4.70 
  -4   0 -11    6.90    2.80 
   4   0  11    6.10    4.20 
   4   0  11    3.40    2.90 
  -5   0 -11    4.10    3.00 
  -5   0 -11   -4.40    5.40 
   5   0  11   14.20    5.40 
   5   0  11    4.50    3.30 
  -6   0 -11  -11.20    6.60 
  -6   0 -11    7.20    2.50 
   6   0  11    2.20    3.80 
   6   0  11   11.40    9.80 
  -3   1  11    0.60    1.70 
  -2   1  11   13.10    3.60 
   1  -1 -11    5.00    1.80 
  -1   1  11    4.10    2.70 
   0  -1 -11    3.20    2.00 
   0  -1 -11    0.80    2.30 
   0   1  11    0.20    2.10 
  -1  -1 -11    9.00    2.80 
  -1  -1 -11    2.00    2.70 
   1   1  11   10.90    3.50 
   1   1  11    6.40    3.00 
  -2  -1 -11    7.90    2.70 
   2   1  11   11.60    3.90 
   2   1  11    7.80    3.10 
  -3  -1 -11    4.60    2.20 
   3   1  11   -4.40    3.50 
   3   1  11    4.20    2.90 
  -4  -1 -11    8.60    2.80 
  -4  -1 -11    5.90    4.30 
   4   1  11    8.90    4.20 
   4   1  11    0.90    5.30 
  -5  -1 -11    9.30    5.70 
   5   1  11    1.00    4.40 
   5   1  11    7.80    3.50 
  -6  -1 -11    1.30    5.60 
  -6  -1 -11    8.90    3.20 
   6   1  11    6.20    4.00 
   6   1  11    6.00    5.40 
  -7  -1 -11   -0.40    2.30 
  -7  -1 -11    0.90    7.50 
   7   1  11    3.00    5.50 
   7   1  11    5.00    4.70 
  -3   2  11    0.70    1.70 
  -2   2  11    7.40    2.90 
  -1   2  11    4.00    2.50 
   0  -2 -11    4.40    1.70 
   0  -2 -11    8.30    2.40 
   0   2  11    7.20    2.70 
  -1  -2 -11   10.60    2.60 
   1   2  11    9.50    3.40 
  -2  -2 -11   51.99    5.80 
  -2  -2 -11   34.10    6.00 
   2   2  11   38.20    6.80 
   2   2  11   40.50    6.50 
  -3  -2 -11   60.39    7.20 
   3   2  11   52.49    8.30 
   3   2  11   67.29    8.40 
  -4  -2 -11   18.90    5.40 
   4   2  11   17.50    5.20 
  -5  -2 -11    7.10    4.20 
  -5  -2 -11   10.80    2.70 
   5   2  11    6.60    3.90 
   5   2  11    7.70    4.40 
  -6  -2 -11   -1.20    2.00 
   6   2  11    2.50    4.00 
   6   2  11    0.60    5.00 
  -7  -2 -11    1.40    2.20 
  -7  -2 -11   13.30    7.90 
   7   2  11   -3.90    2.90 
  -3   3  11    3.60    2.10 
  -2   3  11    2.80    2.40 
  -1   3  11    9.70    3.10 
   0   3  11    9.50    3.20 
  -1  -3 -11   14.50    3.00 
  -1  -3 -11   21.20    5.20 
   1   3  11   16.00    4.20 
  -2  -3 -11    1.90    1.80 
  -2  -3 -11    7.70    3.20 
   2   3  11   -1.60    1.80 
   2   3  11    0.50    2.90 
  -3  -3 -11   -1.00    1.90 
  -3  -3 -11    4.90    3.50 
   3   3  11    0.60    4.00 
   3   3  11   -0.90    2.40 
  -4  -3 -11   61.29    7.50 
   4   3  11   46.90    8.10 
   4   3  11   50.99    8.50 
  -5  -3 -11   24.40    6.40 
   5   3  11   23.70    5.90 
  -6  -3 -11   24.60    5.60 
   6   3  11   11.50    5.70 
   6   3  11   41.30    8.30 
  -7  -3 -11   10.40    6.70 
  -7  -3 -11   12.10    4.30 
   7   3  11   15.60    5.80 
  -8  -3 -11   31.80   14.90 
   8   3  11   11.70    6.70 
  -3   4  11    4.90    2.60 
  -2   4  11   12.60    3.60 
  -1   4  11    5.10    2.50 
   0   4  11   12.90    3.50 
  -1  -4 -11    6.40    3.20 
  -1  -4 -11   14.90    3.10 
   1   4  11   23.00    4.90 
  -2  -4 -11   12.50    3.00 
  -2  -4 -11    9.90    3.70 
   2   4  11    8.10    3.50 
   2   4  11   10.90    3.80 
  -3  -4 -11    0.80    3.50 
  -3  -4 -11    2.70    1.70 
   3   4  11   -1.00    3.00 
   3   4  11    0.80    2.50 
  -4  -4 -11   37.80    5.80 
   4   4  11   30.10    6.50 
  -5  -4 -11   -1.50    4.60 
  -5  -4 -11    9.10    3.20 
   5   4  11    9.10    4.60 
   5   4  11    2.90    5.50 
  -6  -4 -11   -4.40    5.70 
  -6  -4 -11    5.30    3.10 
   6   4  11    9.40    4.50 
   6   4  11   12.40    5.50 
  -7  -4 -11    3.10    6.70 
  -7  -4 -11   13.50    4.30 
   7   4  11   17.60    6.60 
   7   4  11    0.90    5.50 
  -8  -4 -11    7.60    3.50 
  -8  -4 -11    7.50    8.70 
   8   4  11    7.20    5.30 
   8   4  11   14.70    6.50 
  -2   5  11   13.70    3.60 
  -1   5  11    3.20    2.30 
   0   5  11    3.50    2.40 
  -1  -5 -11   42.10    5.50 
   1   5  11   49.80    7.00 
  -2  -5 -11   33.10    4.90 
   2   5  11   30.70    6.00 
  -3  -5 -11   18.40    3.90 
   3   5  11   21.20    5.30 
   3   5  11   11.00    4.60 
  -4  -5 -11    1.90    2.00 
  -4  -5 -11    3.30    3.90 
   4   5  11    8.50    4.10 
   4   5  11    4.70    3.90 
  -5  -5 -11    3.90    5.00 
  -5  -5 -11   13.60    3.80 
   5   5  11   16.40    5.40 
  -6  -5 -11    9.90    3.50 
  -6  -5 -11   -1.30    5.80 
   6   5  11   12.50    5.30 
   6   5  11   18.40    5.70 
  -7  -5 -11   20.60    7.70 
  -7  -5 -11   15.70    4.50 
   7   5  11   33.90    8.50 
  -8  -5 -11   19.30   10.10 
   8   5  11    1.10    4.30 
   8   5  11   17.00    6.80 
  -1   6  11    7.60    3.10 
   0  -6 -11   20.80    4.00 
   0   6  11   18.20    4.30 
  -1  -6 -11   11.30    3.80 
   1   6  11   12.20    3.90 
  -2  -6 -11    5.10    2.50 
  -2  -6 -11    7.40    3.90 
   2   6  11    5.30    3.50 
  -3  -6 -11    2.20    2.10 
  -3  -6 -11    5.80    3.90 
   3   6  11    1.40    3.80 
   3   6  11   -2.50    2.80 
  -4  -6 -11    6.00    4.30 
  -4  -6 -11    3.80    2.20 
   4   6  11    9.70    4.40 
   4   6  11    8.50    4.20 
  -5  -6 -11   11.90    4.50 
  -5  -6 -11   11.00    3.70 
   5   6  11   14.00    5.40 
   5   6  11    4.20    4.10 
  -6  -6 -11   35.80    6.90 
  -6  -6 -11    9.00    6.50 
   6   6  11   39.50    8.80 
  -7  -6 -11   19.80    8.00 
  -7  -6 -11   -1.00    2.70 
   7   6  11    5.00    4.90 
  -8  -6 -11    4.30    3.40 
   8   6  11   11.80    6.80 
   8   6  11    1.10    6.20 
   0   7  11    3.30    3.00 
  -1  -7 -11    2.80    2.20 
  -1  -7 -11   -3.00    3.30 
   1   7  11   -2.50    2.10 
  -2  -7 -11    2.60    3.70 
  -2  -7 -11   11.20    3.50 
   2   7  11    8.30    4.10 
  -3  -7 -11    8.80    3.20 
   3   7  11    5.10    3.90 
   3   7  11    7.30    3.90 
  -4  -7 -11   11.10    3.50 
  -4  -7 -11    0.90    4.70 
   4   7  11    9.90    4.60 
   4   7  11    8.70    4.70 
  -5  -7 -11    6.90    3.10 
   5   7  11    2.80    3.70 
  -6  -7 -11    4.40    3.20 
  -6  -7 -11   15.00    6.80 
   6   7  11    0.40    4.10 
   6   7  11    2.00    4.60 
  -7  -7 -11   15.80    5.00 
  -7  -7 -11   16.00    8.70 
   7   7  11    8.80    5.80 
   7   7  11    6.80    5.00 
  -1  -8 -11   -0.10    4.30 
  -1  -8 -11    0.70    1.90 
   1   8  11   -2.40    2.90 
  -2  -8 -11    3.30    2.50 
  -2  -8 -11    4.60    4.60 
   2   8  11    3.60    3.40 
  -3  -8 -11    4.80    5.00 
   3   8  11   17.10    5.30 
   3   8  11   13.70    4.80 
  -4  -8 -11    1.00    2.50 
  -4  -8 -11    7.80    5.00 
   4   8  11   -5.00    3.30 
   4   8  11   -1.00    5.10 
  -5  -8 -11    8.00    4.00 
  -5  -8 -11   -1.40    7.00 
   5   8  11    3.40    4.80 
   5   8  11   21.40    5.90 
  -6  -8 -11    3.30    8.00 
  -6  -8 -11   -2.20    2.50 
   6   8  11    1.80    4.50 
   6   8  11   -3.00    7.00 
  -7  -8 -11   -1.40    3.10 
   7   8  11    2.90    5.00 
  -3  -9 -11   14.00    4.60 
  -3  -9 -11   13.00    6.80 
   3   9  11   22.30    6.20 
  -4  -9 -11   13.30    9.60 
  -4  -9 -11    7.70    3.80 
   4   9  11    7.30    4.60 
  -5  -9 -11    5.70    4.00 
   5   9  11   13.30    6.10 
   1   2 -12    1.10    4.30 
   1   2 -12    1.30    2.00 
  -1  -2  12    7.70    3.10 
   0   2 -12    5.60    2.40 
   0  -2  12   12.20    3.80 
  -1   2 -12   14.20    4.10 
  -1   2 -12    0.50    4.20 
   1  -2  12    7.10    3.20 
  -2   2 -12    1.20    5.10 
  -2   2 -12    2.90    4.10 
   2  -2  12    8.50    5.60 
  -3   2 -12    0.70    2.30 
   2   1 -12    6.60    3.70 
   2   1 -12    7.80    2.80 
  -2  -1  12   14.10    4.00 
   1   1 -12    1.70    1.60 
   1   1 -12   -2.80    3.30 
  -1  -1  12   -3.30    1.60 
   0   1 -12   -0.40    3.20 
   0  -1  12    7.70    4.90 
  -1   1 -12   11.10    3.20 
  -1   1 -12    4.90    3.80 
   1  -1  12   11.80    3.60 
   1  -1  12    1.80    4.60 
  -2   1 -12    2.70    2.40 
   2  -1  12    0.60    4.30 
   2  -1  12    0.80    2.00 
  -3   1 -12   -7.50    4.30 
  -3   1 -12    4.60    2.90 
   3  -1  12    0.30    5.30 
   3  -1  12    7.80    3.50 
  -4   1 -12   -8.80    7.60 
  -4   1 -12    7.90    3.20 
   4  -1  12    0.70    5.30 
   4  -1  12    4.00    3.60 
   5  -1  12    8.30    4.60 
  -2   0  12   20.80    4.70 
   1   0 -12   -1.70    2.50 
   1   0 -12    4.10    3.20 
   0   0 -12    5.80    4.40 
   0   0 -12    1.30    1.90 
   0   0  12   -1.70    1.90 
  -1   0 -12    9.70    3.10 
  -1   0 -12    6.00    3.30 
   1   0  12    7.30    3.40 
   1   0  12    8.90    3.10 
  -2   0 -12    3.80    2.50 
   2   0  12    3.40    2.60 
  -3   0 -12   22.10    5.80 
   3   0  12   47.40    7.30 
   3   0  12   29.60    6.60 
  -4   0 -12   13.70    5.80 
  -4   0 -12   11.20    3.30 
   4   0  12   14.40    4.70 
   4   0  12   13.20    6.90 
  -5   0 -12   -1.90    6.10 
  -5   0 -12   -0.40    1.90 
   5   0  12   -0.10    3.00 
   5   0  12   -5.80    5.30 
  -2   1  12    6.10    2.90 
  -1   1  12    6.80    2.90 
   0  -1 -12    2.70    1.60 
   0  -1 -12    9.50    2.80 
   0   1  12    5.30    2.50 
  -1  -1 -12    4.40    2.10 
   1   1  12    7.50    3.20 
  -2  -1 -12    0.30    3.40 
  -2  -1 -12    8.50    3.10 
   2   1  12   12.00    4.20 
   2   1  12    4.50    3.70 
  -3  -1 -12    5.60    7.00 
  -3  -1 -12   12.50    3.60 
   3   1  12    8.50    4.80 
   3   1  12   14.60    4.20 
  -4  -1 -12    3.80    5.10 
   4   1  12   26.50    6.40 
  -5  -1 -12   14.20    6.20 
  -5  -1 -12   11.30    3.50 
   5   1  12   23.20    5.80 
   5   1  12    4.70    5.20 
  -6  -1 -12    8.70    3.60 
  -6  -1 -12   -0.10    7.30 
   6   1  12    0.00    5.30 
   6   1  12   10.90    6.80 
  -2   2  12    5.30    3.30 
  -1   2  12    4.70    2.60 
   0  -2 -12   -0.60    2.30 
   0  -2 -12    6.70    1.90 
   0   2  12    4.30    2.80 
  -1  -2 -12    7.70    4.40 
  -1  -2 -12    3.60    2.20 
   1   2  12    7.30    3.00 
  -2  -2 -12    8.10    3.80 
   2   2  12   14.80    4.30 
   2   2  12    7.00    3.00 
  -3  -2 -12   14.70    3.50 
   3   2  12   13.50    4.10 
   3   2  12   18.30    4.60 
  -4  -2 -12    0.40    3.50 
  -4  -2 -12   -1.40    1.90 
   4   2  12    1.90    2.30 
   4   2  12    6.60    3.90 
  -5  -2 -12   10.40    5.00 
  -5  -2 -12    9.80    3.10 
   5   2  12    7.00    4.20 
   5   2  12   -2.90    5.20 
  -6  -2 -12    9.80    3.40 
  -6  -2 -12   -5.40    5.60 
   6   2  12    7.30    3.80 
   6   2  12    4.80    6.10 
  -7  -2 -12   10.60    4.00 
   7   2  12   15.00    5.80 
  -2   3  12   10.70    3.40 
  -1   3  12    0.90    2.00 
   0  -3 -12    3.00    1.60 
   0   3  12    7.00    3.00 
  -1  -3 -12   13.00    3.00 
   1   3  12   11.90    3.90 
  -2  -3 -12    9.80    3.50 
  -2  -3 -12    3.50    1.80 
   2   3  12    5.20    2.90 
  -3  -3 -12    2.60    1.80 
  -3  -3 -12   -0.10    3.90 
   3   3  12    0.60    4.50 
   3   3  12    0.20    2.50 
  -4  -3 -12   30.90    5.60 
   4   3  12   19.60    5.60 
  -5  -3 -12    4.90    5.30 
   5   3  12   25.00    6.50 
   5   3  12   10.20    4.90 
  -6  -3 -12    0.90    2.20 
   6   3  12    4.60    5.40 
   6   3  12    2.20    4.20 
  -7  -3 -12   20.00    8.70 
  -7  -3 -12    1.20    2.70 
   7   3  12    7.70    4.80 
  -2   4  12    7.10    2.70 
  -1   4  12    9.80    3.50 
   0   4  12   11.40    3.60 
  -1  -4 -12   12.80    3.00 
   1   4  12   11.80    3.90 
  -2  -4 -12    9.90    3.80 
  -2  -4 -12   11.10    3.00 
   2   4  12   13.30    4.00 
  -3  -4 -12   13.10    3.40 
  -3  -4 -12    6.70    4.40 
   3   4  12   15.90    4.80 
   3   4  12    4.70    3.50 
  -4  -4 -12   10.10    5.10 
  -4  -4 -12    9.80    3.40 
   4   4  12    6.50    4.80 
   4   4  12   10.00    4.70 
  -5  -4 -12   -2.70    4.70 
  -5  -4 -12    2.90    2.50 
   5   4  12    3.20    4.10 
  -6  -4 -12   14.00    4.40 
  -6  -4 -12   24.90    7.00 
   6   4  12   22.40    5.80 
   6   4  12   19.90    6.20 
  -7  -4 -12   -9.30    7.90 
  -7  -4 -12   18.20    4.80 
   7   4  12    8.70    6.10 
   7   4  12   15.10    5.80 
  -1   5  12   10.20    3.30 
   0   5  12    4.20    2.80 
  -1  -5 -12    5.90    3.90 
  -1  -5 -12   16.20    3.40 
   1   5  12   10.70    3.90 
  -2  -5 -12   16.40    3.70 
  -2  -5 -12   12.20    5.80 
   2   5  12   11.20    4.30 
  -3  -5 -12    2.40    1.90 
   3   5  12   -2.20    2.60 
   3   5  12    6.80    3.50 
  -4  -5 -12   11.40    4.40 
  -4  -5 -12   -2.40    1.60 
   4   5  12   -5.10    3.30 
   4   5  12   -2.10    2.80 
  -5  -5 -12   -1.10    2.00 
   5   5  12   -0.60    2.80 
  -6  -5 -12   12.20    6.30 
   6   5  12    1.20    3.80 
   6   5  12    9.10    5.80 
  -7  -5 -12    8.10    8.40 
  -7  -5 -12   -0.40    2.60 
   7   5  12   10.70    6.50 
   7   5  12    4.50    4.10 
   0   6  12   16.20    4.50 
  -1  -6 -12   13.90    3.40 
   1   6  12   14.80    4.50 
  -2  -6 -12   -0.60    3.80 
  -2  -6 -12    3.30    2.40 
   2   6  12    7.90    3.60 
  -3  -6 -12    8.00    2.90 
  -3  -6 -12   13.40    4.50 
   3   6  12   10.80    4.20 
   3   6  12    5.30    3.40 
  -4  -6 -12    2.70    2.40 
   4   6  12    5.20    4.30 
   4   6  12   -4.00    4.20 
   5   6  12   16.70    4.50 
   5   6  12   11.20    5.30 
  -6  -6 -12    7.60    3.10 
  -6  -6 -12   -7.10    6.20 
   6   6  12    9.90    5.90 
   6   6  12   -5.00    4.80 
   7   6  12   12.10    6.70 
   7   6  12   10.30    5.90 
  -1  -7 -12    3.40    4.30 
  -1  -7 -12   -0.50    2.00 
   1   7  12   -4.40    2.20 
  -2  -7 -12   19.90    4.80 
  -2  -7 -12    5.50    5.10 
   2   7  12   16.40    5.20 
  -3  -7 -12   11.70    4.00 
   3   7  12   11.80    4.50 
   3   7  12   13.50    4.70 
  -4  -7 -12    4.50    2.70 
  -4  -7 -12    1.20    5.60 
   4   7  12    1.70    3.80 
   4   7  12   -3.80    4.20 
  -5  -7 -12    8.70    3.10 
   5   7  12    7.90    5.00 
   5   7  12    6.20    4.90 
  -6  -7 -12    3.10    7.00 
  -6  -7 -12   -1.40    2.90 
   6   7  12    3.20    4.40 
   7   7  12    8.30    5.80 
  -2  -8 -12    5.40    4.80 
  -2  -8 -12   14.30    3.80 
   2   8  12    5.60    4.50 
  -3  -8 -12   10.00    3.50 
   3   8  12    7.30    4.20 
  -4  -8 -12    4.70    3.70 
   4   8  12   -0.80    3.30 
  -5  -8 -12    7.70    4.40 
  -5  -8 -12   12.50   10.10 
   5   8  12   11.10    5.50 
   6   8  12    1.10    4.50 
  -1   1 -13    0.20    1.90 
  -1   1 -13    6.50    4.60 
   1  -1  13    4.70    2.80 
  -2   1 -13    7.00    3.00 
   2  -1  13    2.90    3.10 
   0   0 -13    0.90    3.50 
   0   0 -13    4.20    2.50 
   0   0  13    2.70    2.60 
  -1   0 -13   11.90    3.50 
  -1   0 -13    4.90    3.90 
   1   0  13   18.60    5.10 
   1   0  13    2.30    4.80 
  -2   0 -13   11.50    3.40 
  -2   0 -13   -4.80    4.10 
   2   0  13   -2.40    5.00 
   2   0  13   14.10    4.40 
  -3   0 -13   -6.10    5.80 
  -3   0 -13    2.70    3.90 
   3   0  13    6.30    3.60 
  -4   0 -13    3.40    5.30 
   4   0  13   11.40    4.70 
   1  -1 -13   -1.80    2.90 
   1  -1 -13    3.40    1.60 
  -1   1  13    3.20    2.70 
   0  -1 -13    5.90    2.30 
   0  -1 -13   -3.60    2.90 
   0   1  13    2.90    3.00 
  -1  -1 -13    3.50    3.00 
   1   1  13   -0.90    2.20 
  -2  -1 -13    4.40    2.50 
   2   1  13    4.30    4.70 
   2   1  13    1.70    3.60 
  -3  -1 -13   -5.30    4.30 
  -3  -1 -13    1.80    2.20 
   3   1  13   13.30    6.10 
  -4  -1 -13    1.60    2.10 
  -4  -1 -13   -6.20    5.20 
   4   1  13    7.30    4.10 
  -5  -1 -13    3.10    2.60 
   5   1  13    7.90    4.10 
  -1   2  13    3.30    2.80 
   0  -2 -13    7.00    3.30 
   0   2  13    5.80    3.40 
  -1  -2 -13    9.20    3.40 
  -1  -2 -13    9.00    2.60 
   1   2  13    7.70    3.20 
  -2  -2 -13   -5.50    3.30 
  -2  -2 -13   -2.50    1.50 
   2   2  13   -6.10    4.10 
   2   2  13   -2.00    2.00 
  -3  -2 -13    3.30    1.90 
  -3  -2 -13    5.70    4.40 
   3   2  13    7.90    3.90 
   3   2  13    7.20    4.00 
  -4  -2 -13    3.80    5.40 
  -4  -2 -13   11.20    3.40 
   4   2  13    4.00    4.40 
   4   2  13   12.80    5.20 
  -5  -2 -13   -1.10    2.30 
  -5  -2 -13    6.30    5.80 
   5   2  13   -1.20    5.40 
   5   2  13    1.80    3.30 
  -6  -2 -13    0.90    2.80 
   6   2  13    5.20    4.80 
  -1   3  13   21.50    4.90 
   0   3  13   13.60    4.00 
  -1  -3 -13   -1.60    1.70 
   1   3  13    2.00    2.50 
  -2  -3 -13    0.50    1.80 
  -2  -3 -13    2.80    3.30 
   2   3  13   -1.30    2.30 
  -3  -3 -13    3.20    2.30 
  -3  -3 -13   -3.00    3.40 
   3   3  13    1.20    4.30 
   3   3  13    0.80    2.80 
  -4  -3 -13    6.40    3.00 
  -4  -3 -13    3.40    4.50 
   4   3  13   12.90    4.50 
   4   3  13   -0.90    3.90 
  -5  -3 -13    5.60    5.60 
  -5  -3 -13    9.40    3.30 
   5   3  13    7.00    4.50 
   5   3  13   11.60    5.10 
  -6  -3 -13    0.60    2.50 
   6   3  13   -3.60    2.90 
   0   4  13    8.30    3.50 
  -1  -4 -13    6.90    3.70 
   1   4  13   11.20    4.00 
  -2  -4 -13   -0.70    3.50 
  -2  -4 -13    4.60    2.20 
   2   4  13    1.60    2.90 
  -3  -4 -13   -1.10    1.60 
  -3  -4 -13    6.40    4.50 
   3   4  13   -3.40    3.40 
   3   4  13    1.00    3.00 
  -4  -4 -13   12.00    4.70 
  -4  -4 -13   -0.80    2.20 
   4   4  13    5.40    3.50 
   4   4  13    3.20    3.90 
  -5  -4 -13    3.60    3.20 
   5   4  13    6.50    4.90 
   5   4  13   -0.50    4.40 
  -6  -4 -13    0.40    8.90 
   6   4  13    3.90    5.50 
   0   5  13    7.70    3.40 
  -1  -5 -13    3.80    2.10 
   1   5  13    2.80    2.80 
  -2  -5 -13    9.30    4.30 
  -2  -5 -13    9.30    4.50 
   2   5  13    8.90    4.30 
  -3  -5 -13   -1.10    1.80 
  -3  -5 -13   -4.40    4.40 
   3   5  13   -2.70    2.70 
  -4  -5 -13   29.70    5.60 
   4   5  13   21.10    6.20 
  -5  -5 -13   -5.80    6.10 
  -5  -5 -13   16.00    4.00 
   5   5  13    0.50    4.00 
   5   5  13   24.90    9.30 
  -6  -5 -13    0.90   10.80 
  -6  -5 -13   -2.70    2.40 
   6   5  13   11.60    5.10 
  -1  -6 -13    5.00    2.20 
  -1  -6 -13   11.00    4.30 
   1   6  13   -2.10    2.80 
  -2  -6 -13    5.60    2.70 
  -2  -6 -13   -4.70    4.90 
   2   6  13    4.90    3.70 
  -3  -6 -13    8.10    3.70 
  -3  -6 -13    7.90    5.20 
   3   6  13   10.30    4.40 
  -4  -6 -13    9.30    5.20 
  -4  -6 -13    6.30    3.40 
   4   6  13    0.00    4.40 
   4   6  13    5.30    4.50 
  -5  -6 -13    0.10    4.00 
   5   6  13    0.90    4.20 
  -6  -6 -13    0.40    3.30 
   6   6  13    0.90    4.70 
  -2  -7 -13   -1.10    4.80 
  -2  -7 -13   10.60    3.80 
   2   7  13   13.80    4.60 
  -3  -7 -13   10.70    3.70 
  -3  -7 -13    2.60    8.60 
   3   7  13    5.50    4.50 
  -4  -7 -13    9.70    3.30 
  -4  -7 -13   -5.30    5.70 
   4   7  13    9.20    5.40 
  -5  -7 -13    6.30    3.50 
   5   7  13   10.00    5.40 
  -2  -1 -14    6.90    5.60 
   2   1  14   18.90    5.20 
  -1  -2 -14   -2.90    3.50 
  -1  -2 -14   -2.10    2.00 
   1   2  14    2.30    3.10 
  -2  -2 -14   -1.10    5.10 
  -2  -2 -14    3.60    2.40 
   2   2  14    2.30    2.80 
  -3  -2 -14   -5.70    4.80 
  -3  -2 -14    4.40    2.40 
   3   2  14    7.00    3.60 
  -4  -2 -14    6.90    3.20 
   4   2  14    4.30    3.30 
  -1  -3 -14    0.20    2.00 
   1   3  14   -0.50    2.30 
  -2  -3 -14   -1.00    1.80 
  -2  -3 -14    7.30    4.10 
   2   3  14    1.80    2.80 
  -3  -3 -14    3.60    4.90 
  -3  -3 -14    0.90    1.90 
   3   3  14    4.70    2.90 
  -4  -3 -14    5.80    6.10 
  -4  -3 -14    8.50    3.30 
   4   3  14    3.70    3.60 
   1   4  14   27.80    6.20 
  -2  -4 -14   -3.70    3.80 
  -2  -4 -14    6.00    2.20 
   2   4  14   16.30    4.80 
  -3  -4 -14    7.10    2.60 
   3   4  14    1.10    5.20 
   3   4  14    5.50    3.60 
  -4  -4 -14   -3.50    6.00 
  -4  -4 -14   11.70    3.90 
   4   4  14   21.60    5.40 
  -5  -4 -14    3.40    3.00 
   5   4  14    8.90    5.60 
  -2  -5 -14   14.40    3.50 
   2   5  14   10.10    4.50 
  -3  -5 -14   -0.20    8.50 
  -3  -5 -14    8.50    3.00 
   3   5  14    9.10    4.70 
  -4  -5 -14    7.10    5.80 
  -4  -5 -14    3.40    2.30 
   4   5  14    5.60    4.30 
   5   5  14    0.80    3.40 
   0   0   0    0.00    0.00 
  
_computing_structure_solution     'SHELXT 2014/5 (Sheldrick, 2014)' 
;
_shelx_hkl_checksum              54606
loop_
_space_group_symop_operation_xyz
'x, y, z'
loop_
_atom_site_label
_atom_site_type_symbol
_atom_site_fract_x
_atom_site_fract_y
_atom_site_fract_z
_atom_site_U_iso_or_equiv
_atom_site_adp_type
_atom_site_occupancy
_atom_site_site_symmetry_order
_atom_site_calc_flag
_atom_site_refinement_flags_posn
_atom_site_refinement_flags_adp
N1 N 0.4965(8) 0.3874(8) 0.5575(5) 0.0351(14) Uani 1 1 d . .
N2 N 0.5821(8) 0.5753(7) 0.2991(5) 0.0344(14) Uani 1 1 d . .
O1 O 0.5974(7) 0.1226(6) 0.4842(4) 0.0360(12) Uani 1 1 d . .
O2 O 0.4123(8) 0.8043(7) 0.1246(5) 0.0456(14) Uani 1 1 d . .
O3 O 0.2427(7) 0.6065(6) 0.3065(5) 0.0410(13) Uani 1 1 d . .
S1 S 0.3783(2) 0.7106(2) 0.26114(16) 0.0362(5) Uani 1 1 d . .
C1 C 0.6334(10) 0.0200(9) 0.6063(7) 0.0340(16) Uani 1 1 d . .
C2 C 0.7180(10) -0.1625(9) 0.6166(7) 0.0369(17) Uani 1 1 d . .
C3 C 0.7626(11) -0.2632(10) 0.7371(7) 0.0402(18) Uani 1 1 d . .
H3 H 0.8227 -0.3880 0.7492 0.048 Uiso 1 1 calc R U
C4 C 0.7222(11) -0.1873(10) 0.8388(8) 0.0453(19) Uani 1 1 d . .
H4 H 0.7589 -0.2600 0.9186 0.054 Uiso 1 1 calc R U
C5 C 0.6290(11) -0.0069(10) 0.8282(7) 0.0391(17) Uani 1 1 d . .
H5 H 0.5985 0.0438 0.9002 0.047 Uiso 1 1 calc R U
C6 C 0.5807(11) 0.0995(9) 0.7075(7) 0.0357(16) Uani 1 1 d . .
C7 C 0.4878(10) 0.2944(9) 0.6784(7) 0.0335(16) Uani 1 1 d . .
C8 C 0.3844(10) 0.3891(10) 0.7822(7) 0.0348(16) Uani 1 1 d . .
C9 C 0.2735(11) 0.3141(10) 0.8995(7) 0.0391(17) Uani 1 1 d . .
H9 H 0.2630 0.1986 0.9130 0.047 Uiso 1 1 calc R U
C10 C 0.1803(11) 0.4069(11) 0.9949(8) 0.0452(19) Uani 1 1 d . .
H10 H 0.1013 0.3575 1.0724 0.054 Uiso 1 1 calc R U
C11 C 0.2014(12) 0.5726(11) 0.9780(8) 0.0440(18) Uani 1 1 d . .
H11 H 0.1435 0.6331 1.0463 0.053 Uiso 1 1 calc R U
C12 C 0.3073(11) 0.6501(11) 0.8615(8) 0.0453(18) Uani 1 1 d . .
H12 H 0.3170 0.7658 0.8484 0.054 Uiso 1 1 calc R U
C13 C 0.3974(11) 0.5589(9) 0.7656(7) 0.0379(17) Uani 1 1 d . .
H13 H 0.4702 0.6122 0.6863 0.045 Uiso 1 1 calc R U
C14 C 0.5765(10) 0.3035(8) 0.4591(7) 0.0310(15) Uani 1 1 d . .
C15 C 0.6237(10) 0.3845(9) 0.3305(7) 0.0328(16) Uani 1 1 d . .
C16 C 0.7081(10) 0.2933(9) 0.2249(6) 0.0328(16) Uani 1 1 d . .
C17 C 0.8523(10) 0.1306(9) 0.2342(7) 0.0372(17) Uani 1 1 d . .
H17 H 0.8986 0.0758 0.3130 0.045 Uiso 1 1 calc R U
C18 C 0.9294(11) 0.0472(9) 0.1356(7) 0.0386(17) Uani 1 1 d . .
H18 H 1.0277 -0.0639 0.1462 0.046 Uiso 1 1 calc R U
C19 C 0.8654(12) 0.1234(11) 0.0186(8) 0.0458(19) Uani 1 1 d . .
H19 H 0.9181 0.0641 -0.0504 0.055 Uiso 1 1 calc R U
C20 C 0.7246(11) 0.2858(10) 0.0042(8) 0.0410(18) Uani 1 1 d . .
H20 H 0.6804 0.3399 -0.0753 0.049 Uiso 1 1 calc R U
C21 C 0.6482(11) 0.3698(10) 0.1051(7) 0.0393(17) Uani 1 1 d . .
H21 H 0.5525 0.4825 0.0935 0.047 Uiso 1 1 calc R U
C22 C 0.7540(10) 0.6412(9) 0.2350(7) 0.0378(17) Uani 1 1 d . .
H22A H 0.8060 0.6172 0.1481 0.057 Uiso 1 1 calc R U
H22B H 0.8534 0.5800 0.2877 0.057 Uiso 1 1 calc R U
H22C H 0.7160 0.7698 0.2268 0.057 Uiso 1 1 calc R U
C23 C 0.7588(12) -0.2426(10) 0.5044(8) 0.0452(19) Uani 1 1 d . .
H23A H 0.6573 -0.1775 0.4536 0.068 Uiso 1 1 calc R U
H23B H 0.7608 -0.3679 0.5375 0.068 Uiso 1 1 calc R U
H23C H 0.8849 -0.2348 0.4485 0.068 Uiso 1 1 calc R U
C24 C 0.3013(10) 0.8685(9) 0.3531(7) 0.0359(17) Uani 1 1 d . .
C25 C 0.2149(11) 0.8265(10) 0.4839(7) 0.0388(18) Uani 1 1 d . .
H25 H 0.2066 0.7090 0.5253 0.047 Uiso 1 1 calc R U
C26 C 0.1414(11) 0.9540(10) 0.5535(8) 0.0418(18) Uani 1 1 d . .
H26 H 0.0792 0.9244 0.6426 0.050 Uiso 1 1 calc R U
C27 C 0.1560(11) 1.1280(10) 0.4961(8) 0.0424(19) Uani 1 1 d . .
C28 C 0.2441(11) 1.1665(10) 0.3658(8) 0.045(2) Uani 1 1 d . .
H28 H 0.2530 1.2839 0.3246 0.054 Uiso 1 1 calc R U
C29 C 0.3197(11) 1.0402(9) 0.2933(8) 0.0400(18) Uani 1 1 d . .
H29 H 0.3832 1.0692 0.2045 0.048 Uiso 1 1 calc R U
C30 C 0.0705(13) 1.2640(11) 0.5753(10) 0.055(2) Uani 1 1 d . .
H30A H -0.0705 1.3070 0.5837 0.083 Uiso 1 1 calc R U
H30B H 0.1248 1.3641 0.5321 0.083 Uiso 1 1 calc R U
H30C H 0.1011 1.2100 0.6622 0.083 Uiso 1 1 calc R U
loop_
_atom_site_aniso_label
_atom_site_aniso_U_11
_atom_site_aniso_U_22
_atom_site_aniso_U_33
_atom_site_aniso_U_23
_atom_site_aniso_U_13
_atom_site_aniso_U_12
N1 0.037(3) 0.037(3) 0.030(3) 0.000(3) -0.002(3) -0.020(3)
N2 0.039(3) 0.028(3) 0.034(3) -0.003(2) 0.004(3) -0.020(3)
O1 0.050(3) 0.029(2) 0.033(3) -0.001(2) -0.006(2) -0.023(2)
O2 0.061(4) 0.039(3) 0.035(3) 0.002(2) -0.013(3) -0.020(3)
O3 0.038(3) 0.035(3) 0.054(3) -0.006(2) -0.006(2) -0.024(2)
S1 0.0383(10) 0.0298(9) 0.0395(11) -0.0025(7) -0.0066(8) -0.0154(7)
C1 0.038(4) 0.034(4) 0.031(4) 0.004(3) -0.007(3) -0.024(3)
C2 0.034(4) 0.033(4) 0.041(4) -0.004(3) 0.001(3) -0.017(3)
C3 0.043(4) 0.034(4) 0.041(4) 0.002(3) -0.006(3) -0.021(3)
C4 0.049(5) 0.043(4) 0.037(4) 0.004(3) -0.008(4) -0.020(4)
C5 0.042(4) 0.045(4) 0.030(4) -0.008(3) 0.001(3) -0.021(3)
C6 0.043(4) 0.027(4) 0.039(4) 0.001(3) -0.007(3) -0.022(3)
C7 0.030(3) 0.032(4) 0.037(4) 0.000(3) 0.000(3) -0.020(3)
C8 0.035(4) 0.038(4) 0.031(4) -0.002(3) -0.003(3) -0.019(3)
C9 0.040(4) 0.037(4) 0.038(4) -0.008(3) 0.007(3) -0.023(3)
C10 0.040(4) 0.049(5) 0.042(4) -0.009(4) 0.007(4) -0.023(4)
C11 0.045(4) 0.045(4) 0.043(4) -0.016(3) 0.003(3) -0.021(4)
C12 0.043(4) 0.039(4) 0.055(5) -0.017(4) -0.001(4) -0.018(3)
C13 0.043(4) 0.032(4) 0.038(4) -0.003(3) 0.001(3) -0.022(3)
C14 0.034(4) 0.026(3) 0.033(4) -0.004(3) -0.004(3) -0.013(3)
C15 0.035(4) 0.027(3) 0.037(4) -0.004(3) -0.008(3) -0.014(3)
C16 0.033(4) 0.027(3) 0.035(4) 0.003(3) -0.002(3) -0.020(3)
C17 0.035(4) 0.037(4) 0.035(4) -0.002(3) -0.003(3) -0.015(3)
C18 0.037(4) 0.032(4) 0.045(4) -0.006(3) -0.005(3) -0.015(3)
C19 0.046(5) 0.044(4) 0.053(5) -0.018(4) 0.000(4) -0.023(4)
C20 0.046(4) 0.039(4) 0.041(4) -0.007(3) -0.014(4) -0.014(4)
C21 0.043(4) 0.033(4) 0.044(4) -0.006(3) -0.009(4) -0.017(3)
C22 0.037(4) 0.034(4) 0.042(4) -0.006(3) -0.001(3) -0.020(3)
C23 0.048(4) 0.036(4) 0.051(5) -0.005(3) -0.002(4) -0.022(3)
C24 0.030(4) 0.030(4) 0.044(4) -0.005(3) -0.003(3) -0.011(3)
C25 0.044(4) 0.028(4) 0.042(4) -0.003(3) -0.003(3) -0.017(3)
C26 0.039(4) 0.040(4) 0.047(5) -0.008(3) 0.000(4) -0.022(3)
C27 0.035(4) 0.038(4) 0.060(5) -0.015(4) -0.008(4) -0.015(3)
C28 0.044(4) 0.029(4) 0.064(5) -0.005(4) -0.010(4) -0.020(3)
C29 0.043(4) 0.031(4) 0.047(5) -0.002(3) -0.005(4) -0.022(3)
C30 0.052(5) 0.042(4) 0.078(6) -0.021(4) -0.002(4) -0.023(4)
loop_
_atom_type_symbol
_atom_type_description
_atom_type_scat_dispersion_real
_atom_type_scat_dispersion_imag
_atom_type_scat_source
C C 0.0033 0.0016 'International Tables Vol C Tables 4.2.6.8 and 6.1.1.4'
H H 0.0000 0.0000 'International Tables Vol C Tables 4.2.6.8 and 6.1.1.4'
N N 0.0061 0.0033 'International Tables Vol C Tables 4.2.6.8 and 6.1.1.4'
O O 0.0106 0.0060 'International Tables Vol C Tables 4.2.6.8 and 6.1.1.4'
S S 0.1246 0.1234 'International Tables Vol C Tables 4.2.6.8 and 6.1.1.4'
loop_
_geom_angle_atom_site_label_1
_geom_angle_atom_site_label_2
_geom_angle_atom_site_label_3
_geom_angle
C7 N1 C14 119.8(6)
C15 N2 C22 114.7(5)
C15 N2 S1 122.4(5)
C22 N2 S1 115.5(4)
C1 O1 C14 116.0(5)
O3 S1 O2 118.6(3)
O3 S1 N2 106.4(3)
O2 S1 N2 109.7(3)
O3 S1 C24 108.5(3)
O2 S1 C24 107.4(3)
N2 S1 C24 105.6(3)
C6 C1 O1 119.7(6)
C6 C1 C2 124.4(6)
O1 C1 C2 115.8(6)
C3 C2 C1 115.5(7)
C3 C2 C23 122.8(7)
C1 C2 C23 121.7(7)
C4 C3 C2 121.8(7)
C4 C3 H3 119.1
C2 C3 H3 119.1
C3 C4 C5 121.6(7)
C3 C4 H4 119.2
C5 C4 H4 119.2
C4 C5 C6 118.2(7)
C4 C5 H5 120.9
C6 C5 H5 120.9
C1 C6 C5 118.2(6)
C1 C6 C7 116.6(6)
C5 C6 C7 125.1(7)
N1 C7 C8 118.0(6)
N1 C7 C6 120.1(7)
C8 C7 C6 121.9(6)
C13 C8 C9 118.4(7)
C13 C8 C7 119.3(6)
C9 C8 C7 122.3(7)
C10 C9 C8 120.4(7)
C10 C9 H9 119.8
C8 C9 H9 119.8
C9 C10 C11 120.1(7)
C9 C10 H10 120.0
C11 C10 H10 120.0
C10 C11 C12 120.1(7)
C10 C11 H11 119.9
C12 C11 H11 119.9
C13 C12 C11 119.7(7)
C13 C12 H12 120.2
C11 C12 H12 120.2
C12 C13 C8 121.2(7)
C12 C13 H13 119.4
C8 C13 H13 119.4
N1 C14 C15 125.3(6)
N1 C14 O1 119.8(6)
C15 C14 O1 114.5(6)
C14 C15 N2 116.2(6)
C14 C15 C16 125.0(6)
N2 C15 C16 118.8(6)
C17 C16 C21 116.2(7)
C17 C16 C15 123.2(6)
C21 C16 C15 120.7(6)
C18 C17 C16 122.6(7)
C18 C17 H17 118.7
C16 C17 H17 118.7
C17 C18 C19 120.3(7)
C17 C18 H18 119.8
C19 C18 H18 119.8
C20 C19 C18 119.1(8)
C20 C19 H19 120.5
C18 C19 H19 120.5
C21 C20 C19 120.0(7)
C21 C20 H20 120.0
C19 C20 H20 120.0
C20 C21 C16 121.8(7)
C20 C21 H21 119.1
C16 C21 H21 119.1
N2 C22 H22A 109.5
N2 C22 H22B 109.5
H22A C22 H22B 109.5
N2 C22 H22C 109.5
H22A C22 H22C 109.5
H22B C22 H22C 109.5
C2 C23 H23A 109.5
C2 C23 H23B 109.5
H23A C23 H23B 109.5
C2 C23 H23C 109.5
H23A C23 H23C 109.5
H23B C23 H23C 109.5
C25 C24 C29 119.9(7)
C25 C24 S1 120.0(6)
C29 C24 S1 120.1(6)
C26 C25 C24 120.1(7)
C26 C25 H25 120.0
C24 C25 H25 120.0
C25 C26 C27 121.4(7)
C25 C26 H26 119.3
C27 C26 H26 119.3
C28 C27 C26 117.5(7)
C28 C27 C30 122.9(7)
C26 C27 C30 119.6(7)
C29 C28 C27 122.2(7)
C29 C28 H28 118.9
C27 C28 H28 118.9
C28 C29 C24 118.9(7)
C28 C29 H29 120.6
C24 C29 H29 120.6
C27 C30 H30A 109.5
C27 C30 H30B 109.5
H30A C30 H30B 109.5
C27 C30 H30C 109.5
H30A C30 H30C 109.5
H30B C30 H30C 109.5
loop_
_geom_bond_atom_site_label_1
_geom_bond_atom_site_label_2
_geom_bond_distance
N1 C7 1.306(8)
N1 C14 1.352(9)
N2 C15 1.441(8)
N2 C22 1.484(8)
N2 S1 1.626(6)
O1 C1 1.391(8)
O1 C14 1.393(8)
O2 S1 1.451(5)
O3 S1 1.451(5)
S1 C24 1.746(8)
C1 C6 1.368(10)
C1 C2 1.394(10)
C2 C3 1.392(10)
C2 C23 1.497(11)
C3 C4 1.368(11)
C3 H3 0.9500
C4 C5 1.387(11)
C4 H4 0.9500
C5 C6 1.413(10)
C5 H5 0.9500
C6 C7 1.479(10)
C7 C8 1.467(10)
C8 C13 1.397(10)
C8 C9 1.406(10)
C9 C10 1.376(11)
C9 H9 0.9500
C10 C11 1.388(11)
C10 H10 0.9500
C11 C12 1.391(11)
C11 H11 0.9500
C12 C13 1.370(10)
C12 H12 0.9500
C13 H13 0.9500
C14 C15 1.362(9)
C15 C16 1.457(10)
C16 C17 1.390(10)
C16 C21 1.406(10)
C17 C18 1.351(10)
C17 H17 0.9500
C18 C19 1.392(11)
C18 H18 0.9500
C19 C20 1.378(11)
C19 H19 0.9500
C20 C21 1.375(10)
C20 H20 0.9500
C21 H21 0.9500
C22 H22A 0.9800
C22 H22B 0.9800
C22 H22C 0.9800
C23 H23A 0.9800
C23 H23B 0.9800
C23 H23C 0.9800
C24 C25 1.384(10)
C24 C29 1.402(10)
C25 C26 1.366(11)
C25 H25 0.9500
C26 C27 1.407(10)
C26 H26 0.9500
C27 C28 1.380(11)
C27 C30 1.495(11)
C28 C29 1.380(11)
C28 H28 0.9500
C29 H29 0.9500
C30 H30A 0.9800
C30 H30B 0.9800
C30 H30C 0.9800
loop_
_geom_torsion_atom_site_label_1
_geom_torsion_atom_site_label_2
_geom_torsion_atom_site_label_3
_geom_torsion_atom_site_label_4
_geom_torsion
C15 N2 S1 O3 17.9(6)
C22 N2 S1 O3 166.1(5)
C15 N2 S1 O2 -111.5(5)
C22 N2 S1 O2 36.6(6)
C15 N2 S1 C24 133.1(5)
C22 N2 S1 C24 -78.7(5)
C14 O1 C1 C6 22.9(9)
C14 O1 C1 C2 -159.0(6)
C6 C1 C2 C3 -5.0(11)
O1 C1 C2 C3 176.9(6)
C6 C1 C2 C23 175.4(7)
O1 C1 C2 C23 -2.6(10)
C1 C2 C3 C4 1.1(11)
C23 C2 C3 C4 -179.3(7)
C2 C3 C4 C5 2.1(12)
C3 C4 C5 C6 -1.7(11)
O1 C1 C6 C5 -176.6(6)
C2 C1 C6 C5 5.5(11)
O1 C1 C6 C7 -0.3(9)
C2 C1 C6 C7 -178.3(7)
C4 C5 C6 C1 -1.9(10)
C4 C5 C6 C7 -177.7(7)
C14 N1 C7 C8 -174.6(6)
C14 N1 C7 C6 5.5(9)
C1 C6 C7 N1 -14.7(10)
C5 C6 C7 N1 161.3(7)
C1 C6 C7 C8 165.5(6)
C5 C6 C7 C8 -18.6(11)
N1 C7 C8 C13 -37.1(10)
C6 C7 C8 C13 142.8(7)
N1 C7 C8 C9 143.7(7)
C6 C7 C8 C9 -36.5(10)
C13 C8 C9 C10 0.2(11)
C7 C8 C9 C10 179.4(7)
C8 C9 C10 C11 -2.6(12)
C9 C10 C11 C12 3.9(13)
C10 C11 C12 C13 -2.8(12)
C11 C12 C13 C8 0.3(12)
C9 C8 C13 C12 1.0(11)
C7 C8 C13 C12 -178.3(7)
C7 N1 C14 C15 -168.3(7)
C7 N1 C14 O1 18.6(9)
C1 O1 C14 N1 -33.0(9)
C1 O1 C14 C15 153.3(6)
N1 C14 C15 N2 -0.6(10)
O1 C14 C15 N2 172.8(6)
N1 C14 C15 C16 -179.3(6)
O1 C14 C15 C16 -6.0(10)
C22 N2 C15 C14 119.7(7)
S1 N2 C15 C14 -91.9(7)
C22 N2 C15 C16 -61.4(8)
S1 N2 C15 C16 86.9(7)
C14 C15 C16 C17 -41.2(10)
N2 C15 C16 C17 140.1(7)
C14 C15 C16 C21 140.1(7)
N2 C15 C16 C21 -38.6(9)
C21 C16 C17 C18 -1.3(10)
C15 C16 C17 C18 180.0(6)
C16 C17 C18 C19 0.0(11)
C17 C18 C19 C20 0.9(11)
C18 C19 C20 C21 -0.5(11)
C19 C20 C21 C16 -0.8(11)
C17 C16 C21 C20 1.7(10)
C15 C16 C21 C20 -179.6(6)
O3 S1 C24 C25 35.4(7)
O2 S1 C24 C25 164.7(6)
N2 S1 C24 C25 -78.3(6)
O3 S1 C24 C29 -142.0(6)
O2 S1 C24 C29 -12.7(7)
N2 S1 C24 C29 104.3(6)
C29 C24 C25 C26 2.3(11)
S1 C24 C25 C26 -175.1(6)
C24 C25 C26 C27 -1.8(11)
C25 C26 C27 C28 1.2(11)
C25 C26 C27 C30 179.0(7)
C26 C27 C28 C29 -1.3(11)
C30 C27 C28 C29 -179.0(7)
C27 C28 C29 C24 1.9(11)
C25 C24 C29 C28 -2.4(11)
S1 C24 C29 C28 175.0(5)
