#------------------------------------------------------------------------------
#$Date: 2019-11-04 13:12:03 +0200 (Mon, 04 Nov 2019) $
#$Revision: 222839 $
#$URL: file:///home/coder/svn-repositories/cod/cif/4/03/42/4034296.cif $
#------------------------------------------------------------------------------
#
# This file is available in the Crystallography Open Database (COD),
# http://www.crystallography.net/
#
# All data on this site have been placed in the public domain by the
# contributors.
#
data_4034296
loop_
_publ_author_name
'Han, Yi'
'Hu, Zhenzhu'
'Liu, Meifang'
'Li, Mengwei'
'Wang, Tingting'
'Chen, Yulan'
_publ_section_title
;
 Synthesis, Characterization, and Properties of Diazapyrenes via
 Bischler-Napieralski Reaction.
;
_journal_issue                   7
_journal_name_full               'The Journal of organic chemistry'
_journal_page_first              3953
_journal_page_last               3959
_journal_paper_doi               10.1021/acs.joc.8b03096
_journal_volume                  84
_journal_year                    2019
_chemical_formula_moiety         '2(C8 H5 Br N)'
_chemical_formula_sum            'C16 H10 Br2 N2'
_chemical_formula_weight         390.08
_space_group_crystal_system      triclinic
_space_group_IT_number           2
_space_group_name_Hall           '-P 1'
_space_group_name_H-M_alt        'P -1'
_atom_sites_solution_hydrogens   geom
_atom_sites_solution_primary     direct
_audit_creation_date             2018-10-11
_audit_creation_method
;
Olex2 1.2
(compiled 2018.05.29 svn.r3508 for OlexSys, GUI svn.r5506)
;
_audit_update_record
;
????
;
_cell_angle_alpha                110.57(3)
_cell_angle_beta                 103.01(3)
_cell_angle_gamma                93.22(3)
_cell_formula_units_Z            2
_cell_length_a                   7.9089(16)
_cell_length_b                   8.3573(17)
_cell_length_c                   11.052(2)
_cell_measurement_reflns_used    2143
_cell_measurement_temperature    113(2)
_cell_measurement_theta_max      27.8704
_cell_measurement_theta_min      2.0395
_cell_volume                     659.0(3)
_computing_cell_refinement       crystalclear
_computing_data_collection       crystalclear
_computing_data_reduction        crystalclear
_computing_molecular_graphics    'Olex2 (Dolomanov et al., 2009)'
_computing_publication_material  'Olex2 (Dolomanov et al., 2009)'
_computing_structure_refinement  'ShelXL (Sheldrick, 2015)'
_computing_structure_solution    'ShelXS (Sheldrick, 2008)'
_diffrn_ambient_temperature      113.15
_diffrn_measured_fraction_theta_full 0.999
_diffrn_measured_fraction_theta_max 0.999
_diffrn_measurement_device_type  'Rigaku Saturn 70 CCD'
_diffrn_measurement_method       '\w scans'
_diffrn_radiation_monochromator  confocal
_diffrn_radiation_type           MoK\a
_diffrn_radiation_wavelength     0.71073
_diffrn_reflns_av_R_equivalents  0.0608
_diffrn_reflns_av_unetI/netI     0.0786
_diffrn_reflns_Laue_measured_fraction_full 0.999
_diffrn_reflns_Laue_measured_fraction_max 0.999
_diffrn_reflns_limit_h_max       9
_diffrn_reflns_limit_h_min       -9
_diffrn_reflns_limit_k_max       9
_diffrn_reflns_limit_k_min       -9
_diffrn_reflns_limit_l_max       13
_diffrn_reflns_limit_l_min       -13
_diffrn_reflns_number            6381
_diffrn_reflns_point_group_measured_fraction_full 0.999
_diffrn_reflns_point_group_measured_fraction_max 0.999
_diffrn_reflns_theta_full        25.017
_diffrn_reflns_theta_max         25.017
_diffrn_reflns_theta_min         2.039
_diffrn_standards_decay_%        0
_diffrn_standards_interval_count 0
_diffrn_standards_interval_time  0
_diffrn_standards_number         0
_exptl_absorpt_coefficient_mu    6.140
_exptl_absorpt_correction_T_max  0.5788
_exptl_absorpt_correction_T_min  0.1926
_exptl_absorpt_correction_type   multi-scan
_exptl_absorpt_process_details   crystalclear
_exptl_crystal_colour            yellow
_exptl_crystal_colour_primary    yellow
_exptl_crystal_density_diffrn    1.966
_exptl_crystal_density_method    'not measured'
_exptl_crystal_description       needle
_exptl_crystal_F_000             380
_exptl_crystal_size_max          0.4
_exptl_crystal_size_mid          0.1
_exptl_crystal_size_min          0.1
_refine_diff_density_max         1.257
_refine_diff_density_min         -0.660
_refine_diff_density_rms         0.124
_refine_ls_extinction_method     none
_refine_ls_goodness_of_fit_ref   0.934
_refine_ls_hydrogen_treatment    constr
_refine_ls_matrix_type           full
_refine_ls_number_parameters     183
_refine_ls_number_reflns         2323
_refine_ls_number_restraints     0
_refine_ls_restrained_S_all      0.934
_refine_ls_R_factor_all          0.0443
_refine_ls_R_factor_gt           0.0343
_refine_ls_shift/su_max          0.000
_refine_ls_shift/su_mean         0.000
_refine_ls_structure_factor_coef Fsqd
_refine_ls_weighting_details
'w=1/[\s^2^(Fo^2^)+(0.0283P)^2^] where P=(Fo^2^+2Fc^2^)/3'
_refine_ls_weighting_scheme      calc
_refine_ls_wR_factor_gt          0.0777
_refine_ls_wR_factor_ref         0.0795
_reflns_Friedel_coverage         0.000
_reflns_number_gt                1727
_reflns_number_total             2323
_reflns_threshold_expression     'I > 2\s(I)'
_cod_data_source_file            jo8b03096_si_002.cif
_cod_data_source_block           r20171229a1
_cod_database_code               4034296
_shelx_shelxl_version_number     2018/3
_shelx_space_group_comment
;
The symmetry employed for this shelxl refinement is uniquely defined
by the following loop, which should always be used as a source of
symmetry information in preference to the above space-group names.
They are only intended as comments.
;
_shelx_estimated_absorpt_t_max   0.579
_shelx_estimated_absorpt_t_min   0.193
_olex2_refinement_description
;
1. Fixed Uiso
 At 1.2 times of:
  All C(H) groups
 At 1.5 times of:
  All C(H,H,H) groups
2.a Aromatic/amide H refined with riding coordinates:
 C2(H2), C6(H6), C10(H10), C14(H14)
2.b Idealised Me refined as rotating group:
 C8(H8A,H8B,H8C), C16(H16A,H16B,H16C)
;
_shelx_res_file
;
TITL R20171229A1 in P-1
    r20171229a1.res
    created by SHELXL-2018/3 at 15:08:25 on 11-Oct-2018
CELL 0.71073 7.9089 8.3573 11.0516 110.571 103.01 93.216
ZERR 2 0.0016 0.0017 0.0022 0.03 0.03 0.03
LATT 1
SFAC C H Br N
UNIT 32 20 4 4

L.S. 4
PLAN  20
SIZE 0.4 0.1 0.1
TEMP -160
CONF
HTAB
BOND $H
fmap 2
acta
OMIT -3 50.04
REM <olex2.extras>
REM <HklSrc "%.\\R20171229A1.hkl">
REM </olex2.extras>

WGHT    0.028300
FVAR       0.62332
BR1   3    0.363961    0.191727    0.980297    11.00000    0.02324    0.02861 =
         0.01034    0.00659    0.00784    0.00287
BR2   3    0.871224    0.358935    0.129041    11.00000    0.02916    0.01368 =
         0.01627    0.00055    0.00573   -0.00202
N1    4    0.629077    0.274573    0.481174    11.00000    0.01592    0.01327 =
         0.01707    0.00824    0.00502    0.00304
N2    4    0.877679    0.805724    0.603407    11.00000    0.01605    0.01737 =
         0.01079    0.00779    0.00507    0.00388
C1    1    0.411395    0.124897    0.808709    11.00000    0.00963    0.02410 =
         0.00889    0.00725    0.00086    0.00356
C2    1    0.373779   -0.049329    0.725643    11.00000    0.01466    0.01496 =
         0.01379    0.00995    0.00493    0.00010
AFIX  43
H2    2    0.325093   -0.132110    0.754043    11.00000   -1.20000
AFIX   0
C3    1    0.407901   -0.099959    0.602272    11.00000    0.00733    0.01552 =
         0.01238    0.00663   -0.00079    0.00163
C4    1    0.481603    0.026250    0.563302    11.00000    0.00483    0.01449 =
         0.01149    0.00638    0.00051    0.00244
C5    1    0.519782    0.201770    0.647264    11.00000    0.00612    0.01377 =
         0.01300    0.00777    0.00116    0.00158
C6    1    0.482418    0.250295    0.774310    11.00000    0.01099    0.01263 =
         0.01202    0.00330    0.00197    0.00481
AFIX  43
H6    2    0.506382    0.367684    0.834146    11.00000   -1.20000
AFIX   0
C7    1    0.593160    0.323138    0.599469    11.00000    0.00708    0.01486 =
         0.01351    0.00784    0.00350    0.00352
C8    1    0.634245    0.510952    0.683261    11.00000    0.02036    0.01434 =
         0.01598    0.00519    0.00613    0.00062
AFIX 137
H8A   2    0.689301    0.572025    0.637563    11.00000   -1.50000
H8B   2    0.714839    0.528454    0.769875    11.00000   -1.50000
H8C   2    0.525663    0.556113    0.697549    11.00000   -1.50000
AFIX   0

C9    1    0.926268    0.585626    0.264142    11.00000    0.01807    0.01102 =
         0.01430    0.00303    0.00345   -0.00189
C10   1    0.996948    0.717597    0.233627    11.00000    0.01036    0.01471 =
         0.00822    0.00042    0.00150    0.00471
AFIX  43
H10   2    1.023569    0.694276    0.149981    11.00000   -1.20000
AFIX   0
C11   1    1.028288    0.887066    0.329721    11.00000    0.00998    0.01687 =
         0.01162    0.00976    0.00132    0.00429
C12   1    0.987980    0.915164    0.452195    11.00000    0.00723    0.01293 =
         0.01438    0.00642    0.00213    0.00361
C13   1    0.919151    0.776680    0.480846    11.00000    0.01032    0.01287 =
         0.01182    0.00605    0.00215    0.00428
C14   1    0.888340    0.609712    0.385457    11.00000    0.00970    0.01437 =
         0.01370    0.00790    0.00200    0.00221
AFIX  43
H14   2    0.842632    0.514773    0.402772    11.00000   -1.20000
AFIX   0
C15   1    0.904785    0.963563    0.691694    11.00000    0.01055    0.01294 =
         0.01190    0.00636    0.00209    0.00401
C16   1    0.857575    0.986755    0.820913    11.00000    0.01862    0.01612 =
         0.01275    0.00553    0.00546    0.00051
AFIX 137
H16A  2    0.814474    0.873805    0.819703    11.00000   -1.50000
H16B  2    0.765864    1.060884    0.830818    11.00000   -1.50000
H16C  2    0.961679    1.040662    0.896267    11.00000   -1.50000
AFIX   0
HKLF 4




REM  R20171229A1 in P-1
REM wR2 = 0.0795, GooF = S = 0.934, Restrained GooF = 0.934 for all data
REM R1 = 0.0343 for 1727 Fo > 4sig(Fo) and 0.0443 for all 2323 data
REM 183 parameters refined using 0 restraints

END

WGHT      0.0285      0.0000

REM Instructions for potential hydrogen bonds
HTAB C8 N2
EQIV $3 -x+1, -y+1, -z+2
HTAB C16 Br1_$3

REM Highest difference peak  1.257,  deepest hole -0.660,  1-sigma level  0.124
Q1    1   0.8752  0.2330 -0.0100  11.00000  0.05    1.26
Q2    1   0.4515  0.3268  1.0246  11.00000  0.05    0.46
Q3    1   0.9841  0.4106  0.0530  11.00000  0.05    0.46
Q4    1   0.7205  0.3029  0.0060  11.00000  0.05    0.45
Q5    1   0.3904  0.0434  0.7625  11.00000  0.05    0.44
Q6    1   0.2193  0.1429  0.8625  11.00000  0.05    0.43
Q7    1   0.6126  0.6584  0.8614  11.00000  0.05    0.43
Q8    1   0.2458  0.1360  1.0552  11.00000  0.05    0.41
Q9    1   0.7588  0.3138  0.1992  11.00000  0.05    0.39
Q10   1   0.8856  0.6366 -0.0115  11.00000  0.05    0.39
Q11   1   0.3916  0.0234  1.0209  11.00000  0.05    0.38
Q12   1   0.9139  0.2094  0.1585  11.00000  0.05    0.38
Q13   1   0.6751  0.5288  0.3168  11.00000  0.05    0.38
Q14   1   1.1105  0.7918  0.1262  11.00000  0.05    0.37
Q15   1   0.7950  0.4853  0.3239  11.00000  0.05    0.37
Q16   1   0.8006  1.1607  0.8571  11.00000  0.05    0.37
Q17   1   0.9900  0.5176  0.1652  11.00000  0.05    0.36
Q18   1   1.0565  0.8655  0.3750  11.00000  0.05    0.36
Q19   1   0.9128  0.7610  0.5581  11.00000  0.05    0.35
Q20   1   0.8264  0.5018  0.0963  11.00000  0.05    0.35
;
_shelx_res_checksum              22193
_shelx_hkl_file
;
   0   0   1  209.46    8.92
   0   0  -1  195.10    7.46
   0   0   1  195.63    7.79
   0   0  -1  188.75    7.25
   0   0  -2  247.91   20.08
   0   0   2  309.11   14.08
   0   0  -2  275.06   15.34
   0   0   2  274.84   12.09
   0   0   2  250.87   11.20
   0   0  -2  301.90   11.70
   0   0  -3   60.04    9.91
   0   0   3   57.79    7.79
   0   0  -3   62.10    8.70
   0   0   3   59.47    6.81
   0   0   3   50.63    6.76
   0   0  -3   59.97    7.18
   0   0  -4   -0.32   10.29
   0   0  -4    0.76    5.21
   0   0   4    2.09    5.92
   0   0  -5  370.01   27.38
   0   0  -5  274.91   22.79
   0   0   5  328.74   21.94
   0   0  -6  600.91   45.70
   0   0  -6  588.53   35.71
   0   0   6  686.40   44.15
   0   0  -7 1258.68   90.13
   0   0  -7 1263.23   83.44
   0   0   7 1339.12   92.01
   0   0  -8 1071.70   60.61
   0   0   8 1106.56   56.64
   0   0   8 1067.03   60.58
   0   0  -9  271.30   42.10
   0   0   9  246.85   34.87
   0   0   9  242.13   37.40
   0   0 -10   40.06   28.73
   0   0  10   38.91   22.79
   0   0  10   44.26   30.63
   0   0 -11  103.82  130.27
   0   0  11  135.49   24.65
   0   0  11  140.68   44.71
   0   0 -12   63.82   34.33
   0   0  12   67.81   23.00
   0   0  12   89.89   86.77
   0   0 -13    5.31   15.72
   0   0  13    3.31   11.64
   0   0  13   20.08   31.91
   0   1 -13  304.69   60.83
   0  -1  13  327.35   62.72
   0  -1  13  345.28  126.80
   0   1 -12  122.76   32.10
   0  -1  12   89.96   20.77
   0  -1  12   98.57   33.76
   0   1 -11   32.93   48.21
   0  -1  11   47.77   18.65
   0  -1  11   29.82   26.43
   0   1 -10   16.34   27.93
   0  -1  10   11.22   18.22
   0  -1  10    7.51   13.95
   0   1  -9  131.44   32.03
   0  -1   9  111.70   29.12
   0  -1   9  123.27   29.60
   0   1  -8  764.20   51.45
   0  -1   8  667.71   39.36
   0  -1   8  562.68   38.16
   0   1  -7 1159.36   82.65
   0  -1   7 1174.11   79.61
   0  -1   7 1080.12   76.23
   0   1  -6 1595.05   82.43
   0  -1   6 1308.04   65.57
   0  -1   6 1428.79   71.08
   0   1  -5  146.62   15.77
   0  -1   5  174.99   16.54
   0  -1   5  183.12   16.27
   0   1  -4  364.77   22.98
   0  -1   4  389.14   21.66
   0  -1   4  331.33   20.61
   0   1  -3 1129.70   38.71
   0  -1   3 1081.73   36.79
   0  -1   3 1252.02   39.48
   0  -1   3 1156.06   38.62
   0  -1   3 1237.72   39.78
   0   1  -3 1094.79   34.64
   0   1  -2 1271.64   39.22
   0  -1   2 1346.62   40.41
   0  -1   2 1238.77   37.19
   0   1  -2 1308.46   39.44
   0   1  -1  475.25   17.03
   0  -1   1  402.36   14.48
   0   1  -1  432.07   15.03
   0  -1   1  388.75   14.17
   0  -1   1  388.49   12.57
   0  -1   0  313.05   12.43
   0   1   0  304.06   12.50
   0  -1   0  333.36   12.46
   0   1   0  297.98   11.57
   0  -1   0  352.32   12.76
   0  -1  -1   19.40    4.59
   0   1   1   18.40    4.85
   0  -1  -1   22.05    4.01
   0   1   1   17.70    3.37
   0   1   1   20.26    3.28
   0  -1  -1   18.93    2.95
   0  -1  -2   37.79    7.44
   0   1   2   54.95    8.08
   0  -1  -2   50.89    8.36
   0   1   2   50.98    6.11
   0   1   2   41.71    7.24
   0  -1  -2   47.13    5.25
   0  -1  -3   46.81    9.82
   0  -1  -3   57.23    7.78
   0   1   3   46.10    8.10
   0   1   3   59.20    8.95
   0  -1  -4 1657.96   45.77
   0  -1  -4 1589.08   36.32
   0   1   4 1509.40   35.43
   0  -1  -5 3081.11  140.63
   0  -1  -5 2962.08  134.77
   0   1   5 2730.34  125.50
   0  -1  -6 1906.30  124.93
   0  -1  -6 2318.07  142.13
   0   1   6 2781.56  303.06
   0  -1  -7  604.71   55.34
   0  -1  -7  598.32   50.26
   0   1   7  665.96   60.26
   0  -1  -8  111.37   55.85
   0  -1  -8  113.51   28.55
   0   1   8  111.32   96.75
   0  -1  -9   47.77   49.24
   0  -1  -9   24.30   38.06
   0   1   9   23.56   42.90
   0  -1 -10  102.13   32.68
   0   1  10  107.43   22.02
   0   1  10  130.58   35.98
   0  -1 -11  331.54   52.89
   0   1  11  296.86   45.94
   0   1  11  363.69   68.91
   0  -1 -12  581.38  104.47
   0   1  12  498.82   83.56
   0   1  12  590.76  107.50
   0   2 -13    8.41   17.20
   0  -2  13   12.53   20.23
   0  -2  13    4.56   24.59
   0   2 -12  148.47   48.53
   0  -2  12  101.63   22.40
   0  -2  12  129.60  100.81
   0   2 -11   86.04   96.11
   0  -2  11   75.85   92.89
   0  -2  11   80.71   26.13
   0   2 -10 1314.33  161.95
   0  -2  10 1507.81  179.76
   0  -2  10 1362.59  173.54
   0   2  -9 1751.45  129.00
   0  -2   9 1598.32  115.57
   0  -2   9 1874.74   71.78
   0   2  -8 1059.18   88.26
   0  -2   8 1028.88   80.79
   0  -2   8 1139.54   94.90
   0   2  -7  464.82   42.57
   0  -2   7  481.50   39.00
   0  -2   7  575.93   47.30
   0   2  -6   27.90   14.97
   0  -2   6   19.40   22.71
   0  -2   6   31.99   20.78
   0   2  -5   73.38   12.69
   0  -2   5   66.52   14.81
   0  -2   5   92.54   14.90
   0   2  -4  862.34   36.17
   0  -2   4  885.41   35.76
   0  -2   4 1131.49   41.18
   0   2  -4  863.69   30.81
   0   2  -3 1406.50   48.06
   0  -2   3 1281.58   43.47
   0  -2   3 1259.01   41.87
   0  -2   3 1362.13   42.73
   0   2  -3 1302.40   39.43
   0   2  -1 1998.29   59.90
   0  -2   1 2137.83   61.68
   0  -2   1 1918.29   61.54
   0   2  -1 2075.76   58.74
   0   2  -1 1735.61   47.49
   0   2  -1 2186.22   58.38
   0  -2   0  997.68   34.84
   0   2   0 1098.11   37.32
   0  -2   0 1072.46   35.47
   0   2   0 1094.55   35.30
   0   2   0 1034.93   29.99
   0  -2   0 1121.45   34.14
   0  -2  -1   43.31    9.24
   0   2   1   36.56    6.64
   0  -2  -1   32.78    6.38
   0   2   1   36.46    7.36
   0   2   1   33.26    5.76
   0  -2  -1   55.00    7.59
   0  -2  -2  108.22   16.30
   0  -2  -2  113.03   11.58
   0   2   2  106.03   10.74
   0   2   2  112.80   10.29
   0  -2  -3  363.44   25.37
   0  -2  -3  405.53   20.62
   0   2   3  427.62   19.95
   0  -2  -4   89.95   15.02
   0  -2  -4  105.91   11.53
   0   2   4  107.32   14.39
   0  -2  -5  966.22   84.53
   0  -2  -5  997.09   65.73
   0   2   5  890.20   61.88
   0  -2  -6 1020.47   83.95
   0  -2  -6  878.23   68.90
   0   2   6 1165.70  109.28
   0  -2  -7  142.77   79.94
   0  -2  -7  132.50   21.42
   0   2   7  172.20   31.01
   0  -2  -8  447.75   68.08
   0  -2  -8  403.51   53.75
   0   2   8  384.99   57.26
   0  -2  -9  306.29   52.25
   0  -2  -9  291.74   43.38
   0   2   9  283.63   51.03
   0  -2 -10  544.66   68.85
   0  -2 -10  494.68   57.20
   0   2  10  568.16   74.78
   0  -2 -11  253.06   85.23
   0   2  11  271.12   40.13
   0   2  11  302.10   59.31
   0   3 -14   51.21   91.25
   0  -3  14   44.61   66.26
   0  -3  14   84.44   35.82
   0   3 -13   13.72   32.52
   0  -3  13    2.97   11.65
   0  -3  13    5.23   22.69
   0   3 -12  112.11  129.46
   0  -3  12   92.81   86.81
   0  -3  12  117.12   31.63
   0   3 -11    1.32   14.33
   0  -3  11   19.75   24.91
   0  -3  11    7.09   28.29
   0   3 -10   78.68   27.84
   0  -3  10   92.48   22.87
   0  -3  10   89.96   24.71
   0   3  -9  220.57   30.23
   0  -3   9  195.32   34.97
   0  -3   9  246.49   32.47
   0   3  -8  331.42   39.35
   0  -3   8  309.39   42.13
   0  -3   8  292.68   42.12
   0   3  -7   45.41   17.51
   0  -3   7   55.06   16.26
   0  -3   7   49.11   14.20
   0   3  -6  431.30   33.03
   0  -3   6  376.58   29.21
   0  -3   6  333.04   25.79
   0   3  -5 1273.53   42.25
   0  -3   5 1389.04   42.44
   0  -3   5 1365.71   37.71
   0   3  -4  954.11   32.79
   0  -3   4  916.24   34.24
   0  -3   4 1039.36   28.60
   0   3  -4  862.19   19.29
   0   3  -3 2994.85   90.27
   0  -3   3 3113.93   93.28
   0  -3   3 3287.53   89.57
   0   3  -2   38.22   13.65
   0  -3   2   33.63    9.01
   0   3  -2   37.70    4.58
   0  -3   1  163.11   16.99
   0  -3   1  156.26   13.16
   0   3  -1  174.56   12.79
   0   3  -1  158.41   14.25
   0  -3   1  145.05    9.81
   0  -3   0   25.11   16.03
   0  -3   0   23.16    8.29
   0   3   0   20.15    5.97
   0   3   0   18.57    4.62
   0  -3   0   20.69    4.79
   0  -3  -1  526.37   26.41
   0  -3  -1  558.78   22.87
   0   3   1  523.36   19.98
   0  -3  -2 2088.29   51.80
   0  -3  -2 2060.04   45.97
   0   3   2 1818.87   40.60
   0  -3  -3 2515.17  117.11
   0  -3  -3 2781.10  123.37
   0   3   3 2914.32  130.88
   0  -3  -4 1769.46  115.60
   0  -3  -4 1960.94  121.76
   0   3   4 2259.74  140.85
   0  -3  -5  629.86   61.09
   0  -3  -5  663.27   55.09
   0   3   5  570.71   50.37
   0  -3  -6  206.48   34.49
   0  -3  -6  198.18   28.88
   0   3   6  293.67   40.50
   0  -3  -7  127.74   52.80
   0  -3  -7  103.82   19.67
   0   3   7  105.51   26.30
   0  -3  -8    1.68   10.85
   0  -3  -8    4.65    7.43
   0   3   8   -4.28   27.20
   0  -3  -9  160.51   89.71
   0  -3  -9  141.32   25.84
   0   3   9  130.03   35.83
   0  -3 -10  474.92   68.67
   0  -3 -10  472.43   58.32
   0   3  10  592.11   83.98
   0  -3 -11  331.61   65.25
   0   3  11  405.54   72.55
   0   4 -14   26.41   32.82
   0  -4  14    7.14   28.08
   0  -4  14   17.66   25.17
   0   4 -13  209.00   42.99
   0  -4  13  262.17   43.28
   0  -4  13  265.73   49.45
   0   4 -12  794.11   91.78
   0  -4  12  833.26   91.17
   0  -4  12  817.40   89.96
   0   4 -11 1067.06  152.68
   0  -4  11  905.75  132.07
   0  -4  11  927.71  127.83
   0   4 -10  411.03   62.33
   0  -4  10  396.60   57.72
   0  -4  10  378.73   69.50
   0   4  -9  609.94   62.55
   0  -4   9  647.59   56.46
   0  -4   9  651.80   56.70
   0   4  -8   11.41   17.87
   0  -4   8    3.52   18.26
   0  -4   8   11.08   12.72
   0   4  -7    9.87   20.62
   0  -4   7    1.35   10.25
   0  -4   7    0.71    9.71
   0   4  -6   38.19   17.63
   0  -4   6   32.60   16.54
   0  -4   6   41.83   26.48
   0   4  -5  200.52   59.74
   0  -4   5  159.44   26.61
   0  -4   5  170.19   18.46
   0   4  -5  169.29   17.56
   0   4  -4 4587.93   75.99
   0  -4   4 3941.03   73.79
   0  -4   4 4206.21   46.38
   0   4  -3  467.88   36.64
   0  -4   3  495.70   27.60
   0   4  -3  576.90   15.98
   0   4  -2  566.23   42.37
   0  -4   2  532.67   25.65
   0   4  -2  563.00   17.38
   0   4  -2  476.64   13.36
   0  -4   1   26.40   10.59
   0  -4   1   27.68    9.31
   0   4  -1   20.85    3.96
   0  -4   1   30.07    7.51
   0  -4   0  219.02   21.14
   0  -4   0  222.99   17.56
   0   4   0  191.25   19.42
   0  -4  -1 1085.00   58.80
   0  -4  -1  925.59   48.95
   0   4   1  888.91   43.73
   0  -4  -2  199.78   25.76
   0  -4  -2  194.43   19.27
   0   4   2  210.50   20.57
   0  -4  -3   55.48   16.95
   0  -4  -3   57.19   13.07
   0   4   3   67.30   15.20
   0  -4  -4  289.63   33.34
   0  -4  -4  259.82   23.69
   0   4   4  260.95   24.32
   0  -4  -5   16.20   15.65
   0  -4  -5   37.40   15.79
   0   4   5   38.11   31.76
   0  -4  -6   -0.53   22.02
   0  -4  -6    1.56   10.47
   0   4   6    1.89   19.00
   0  -4  -7  591.82   82.37
   0  -4  -7  477.34   60.92
   0   4   7  662.78   90.37
   0  -4  -8  835.95   92.02
   0  -4  -8  693.27   69.10
   0   4   8  745.39   91.98
   0  -4  -9  480.32   67.78
   0  -4  -9  544.88   65.63
   0   4   9  483.89   75.38
   0  -4 -10   34.38   77.47
   0   4  10   65.50   38.03
   0   5 -14   99.05   35.99
   0  -5  14   62.19  101.87
   0   5 -13  117.20   35.42
   0  -5  13   94.51  118.49
   0  -5  13  117.20   32.43
   0   5 -12   29.48   49.16
   0  -5  12   21.04   33.47
   0  -5  12   16.81   26.62
   0   5 -11   62.56   67.86
   0  -5  11   66.98   72.42
   0  -5  11   52.59   17.94
   0   5 -10  163.54   34.73
   0  -5  10  120.04  101.54
   0  -5  10  137.54   25.67
   0   5  -9  110.99   31.12
   0  -5   9  109.95   23.83
   0  -5   9   99.52   16.92
   0   5  -8  741.75   69.36
   0  -5   8  736.16   63.53
   0  -5   8  675.41   55.43
   0   5  -7 1536.19  119.74
   0  -5   7 1430.81  109.05
   0  -5   7 1564.72  114.69
   0   5  -6 1572.64  106.96
   0  -5   6 1690.12  113.11
   0  -5   6 1480.41   92.64
   0   5  -6 1517.68   90.96
   0   5  -5  906.98   68.29
   0  -5   5  761.05   58.33
   0  -5   5  942.00   58.30
   0   5  -4  451.91   40.56
   0  -5   4  515.61   39.22
   0   5  -4  541.98   26.12
   0   5  -4  444.97   21.94
   0   5  -3   13.40   16.40
   0  -5   3   18.88   14.07
   0   5  -3   15.92    5.25
   0  -5   2   18.89   11.96
   0  -5   2   22.54   19.49
   0   5  -2   19.59    4.63
   0   5  -2   26.10   13.31
   0  -5   1  246.06   26.73
   0  -5   1  225.25   22.04
   0   5  -1  208.61   14.48
   0  -5   1  217.51   18.66
   0  -5   0  742.41   55.68
   0  -5   0  775.02   55.39
   0   5   0  778.02   51.74
   0  -5  -1 1423.57  108.13
   0  -5  -1 1522.39   98.91
   0   5   1 1765.51  117.06
   0  -5  -2 1907.39  144.34
   0  -5  -2 1908.53  138.97
   0   5   2 2043.96  148.20
   0  -5  -3  774.75   54.60
   0  -5  -3  744.81   44.51
   0   5   3  729.20   41.10
   0  -5  -4    8.39   23.68
   0  -5  -4   11.28   17.52
   0   5   4    5.79    7.86
   0  -5  -5   -2.06   20.47
   0  -5  -5    4.04   13.03
   0   5   5    4.05   12.26
   0  -5  -6   51.15   58.08
   0  -5  -6   58.46   26.12
   0   5   6   65.79   30.44
   0  -5  -7    0.60   16.21
   0  -5  -7    1.05    6.82
   0   5   7    4.06   15.06
   0  -5  -8  101.78   33.06
   0  -5  -8   79.42   16.64
   0   5   8   75.65  121.43
   0  -5  -9  172.91   41.67
   0   5   9  234.63   59.65
   0   6 -13  386.71   68.21
   0  -6  13  330.71   55.86
   0   6 -12  268.82   61.54
   0  -6  12  290.43   55.50
   0   6 -11  163.78   37.10
   0  -6  11  163.71   49.60
   0   6 -10   37.39   49.06
   0  -6  10   30.83   30.36
   0  -6  10   24.04   46.83
   0   6  -9    6.44   29.86
   0  -6   9    4.41   22.55
   0  -6   9    0.68    8.81
   0   6  -8   24.28   37.50
   0  -6   8   16.78   21.52
   0  -6   8   15.09   11.28
   0   6  -7    5.52   24.88
   0  -6   7   -1.39   20.54
   0  -6   7    0.81    3.85
   0   6  -6  172.00   29.69
   0  -6   6  155.98   24.02
   0  -6   6  186.01   12.97
   0   6  -6  175.07   10.63
   0   6  -5  365.12   38.85
   0  -6   5  322.57   30.62
   0   6  -5  477.14   33.02
   0   6  -5  363.09   25.82
   0   6  -4  390.33   41.93
   0  -6   4  339.99   37.00
   0   6  -4  371.85   27.37
   0   6  -4  388.52   27.47
   0  -6   3    5.50   18.59
   0  -6   3    6.34   16.55
   0   6  -3    5.74    5.71
   0  -6   2  772.11   67.67
   0  -6   2  831.27   70.17
   0   6  -2  729.83   57.21
   0   6  -2  902.25   65.41
   0  -6   1 1647.95  128.29
   0  -6   1 1642.58  125.12
   0   6  -1 1694.39  120.29
   0  -6   0  343.60   36.28
   0  -6   0  363.70   32.15
   0   6   0  389.27   24.21
   0  -6  -1   31.22   23.45
   0  -6  -1   35.34   19.43
   0   6   1   29.76   20.36
   0  -6  -2   54.73   21.40
   0  -6  -2   64.00   17.08
   0   6   2   69.11   12.91
   0  -6  -3    5.29   19.28
   0  -6  -3    6.99   12.84
   0   6   3    8.06   16.80
   0  -6  -4   10.96   19.66
   0  -6  -4   12.68   14.54
   0   6   4   13.07   25.75
   0  -6  -5  347.41   52.47
   0  -6  -5  332.57   44.26
   0   6   5  455.10   63.83
   0  -6  -6  719.40  101.21
   0  -6  -6  796.08   41.82
   0   6   6  770.68   96.41
   0  -6  -7  698.96  101.86
   0   6   7  682.96   90.08
   0  -6  -8   33.69   81.89
   0   6   8   49.92  102.78
   0   7 -13   33.73   57.01
   0  -7  13   13.95   24.04
   0   7 -12    3.87   35.28
   0  -7  12   -4.74   27.29
   0   7 -11   -4.92   32.88
   0  -7  11   -5.59   30.37
   0   7 -10  142.56   36.17
   0  -7  10  141.41   32.64
   0   7  -9  549.13   77.87
   0  -7   9  556.88   76.35
   0   7  -8 1074.70  114.66
   0  -7   8  949.45  107.00
   0   7  -7  867.32  114.47
   0  -7   7  798.14  103.63
   0   7  -6  303.64   45.07
   0  -7   6  336.82   46.03
   0   7  -5    6.77   15.73
   0  -7   5    8.88   23.43
   0  -7   4  133.80   31.37
   0  -7   4  156.41   30.02
   0   7  -4  244.41   17.12
   0  -7   3  184.15   37.91
   0  -7   3  212.04   38.51
   0   7  -3  259.72   19.91
   0  -7   2  310.75   43.74
   0  -7   2  314.52   39.18
   0   7  -2  379.27   29.35
   0  -7   1  115.52   23.96
   0  -7   1  136.17   27.68
   0   7  -1  147.94   30.16
   0  -7   0  770.56   99.48
   0  -7   0  747.40   94.44
   0   7   0  885.30  104.69
   0  -7  -1  463.58   61.63
   0  -7  -1  484.53   53.75
   0   7   1  515.50   56.40
   0  -7  -2   21.56   20.98
   0  -7  -2   30.05   18.38
   0   7   2   29.95   28.21
   0  -7  -3  148.64   33.10
   0  -7  -3  157.31   25.56
   0   7   3  229.17   82.03
   0  -7  -4  260.63   50.80
   0  -7  -4  243.99   34.49
   0   7   4  291.34   46.88
   0  -7  -5  116.35   32.87
   0  -7  -5   89.74   17.74
   0   7   5   80.21   99.20
   0  -7  -6    4.74   19.00
   0   7   6    6.05   14.91
   0   8 -12    8.01   31.16
   0  -8  12   17.46   34.94
   0   8 -11   92.91   38.20
   0  -8  11   77.76   31.46
   0   8 -10  205.48   48.34
   0  -8  10  151.32   31.50
   0   8  -9   -5.15   26.83
   0  -8   9   12.06   26.56
   0   8  -8   33.65   33.21
   0  -8   8   44.95   24.36
   0   8  -7  190.46   38.36
   0  -8   7  166.27   73.11
   0  -8   6   44.57   25.44
   0  -8   5   56.46   23.22
   0  -8   5   53.80   30.28
   0  -8   4  321.97   45.43
   0  -8   4  318.20   51.81
   0  -8   3  937.70  102.81
   0  -8   3 1013.21  108.50
   0  -8   2  672.63   77.21
   0  -8   2  753.24   83.65
   0  -8   1  124.61   36.01
   0  -8   1  123.21   26.63
   0   8  -1  183.09   30.20
   0  -8   0    4.23   22.26
   0  -8   0    6.21   16.69
   0   8   0    6.19    7.71
   0  -8  -1   44.05   24.49
   0  -8  -1   52.45   19.45
   0   8   1   64.85   60.87
   0  -8  -2    1.83   24.82
   0  -8  -2    3.43   16.80
   0   8   2    6.72   18.01
   0  -8  -3  191.89   45.82
   0  -8  -3  182.75   33.92
   0   8   3  228.63   44.17
   0  -8  -4  332.61   55.36
   0   8   4  440.75   61.80
   0  -8  -5  298.41   58.18
   0   8   5  325.63   54.47
   0   9 -11  134.71   41.68
   0  -9  11   89.42  128.04
   0   9 -10  266.31   52.38
   0  -9  10  227.71  108.58
   0   9  -9  438.03   78.84
   0  -9   9  408.41   70.27
   0   9  -8   57.74   91.50
   0  -9   8   73.21   32.66
   0   9  -7   10.93   15.80
   0  -9   7   13.72   28.86
   0  -9   6   70.37   27.09
   0  -9   6   74.92   29.21
   0  -9   5   10.00   28.11
   0  -9   5   13.42   27.22
   0  -9   4   -0.08   26.86
   0  -9   4   -4.76   19.42
   0  -9   3   47.23   35.43
   0  -9   3   37.26   20.95
   0  -9   2  273.53   49.78
   0  -9   2  308.22   44.80
   0  -9   1  166.59   35.97
   0  -9   1  180.57   34.65
   0  -9   0    8.38   26.02
   0  -9   0   -4.90   18.57
   0  -9  -1  155.91   40.49
   0  -9  -1  219.29   37.20
   0  -9  -2  175.44   44.58
   0  -9  -3  123.98   35.48
   0  10 -10    9.52   37.38
   0 -10  10   34.58   31.72
   0  10  -9    4.32   16.84
   0 -10   9    8.81   37.39
   0  10  -8    5.60   13.21
   0 -10   8    5.44   26.94
   0 -10   7   -4.36   26.70
   0 -10   7   10.20   29.23
   0 -10   6  226.49   44.17
   0 -10   6  233.73   46.70
   0 -10   5  452.54   72.87
   0 -10   5  517.52   89.46
   0 -10   4  188.76   40.78
   0 -10   4  203.11   45.86
   0 -10   3  113.52   29.06
   0 -10   3  109.70   33.13
   0 -10   2   20.75   26.13
   0 -10   2   16.31   24.48
   0 -10   1  114.72   27.58
   0 -10   1  127.46   31.19
   0 -10   0   17.65   23.30
   0 -10   0    6.88   18.77
  -1 -10   1   20.69   27.27
  -1 -10   1   24.48   20.80
  -1 -10   2    5.07   23.18
  -1 -10   2   15.13   19.75
  -1 -10   3   72.71   27.56
  -1 -10   3   80.55   35.24
  -1 -10   4   -4.66   24.78
  -1 -10   4    9.42   24.83
  -1 -10   5    3.28   26.49
  -1 -10   5   15.28   25.50
  -1 -10   6  282.33   53.24
  -1 -10   6  318.60   61.13
  -1 -10   7  186.36   44.69
  -1 -10   7  180.33   46.13
  -1 -10   8  170.42   39.25
  -1 -10   8  164.55  114.39
   1  10  -9  125.81  160.08
  -1 -10   9  180.28   54.80
   1  10 -10   23.45   38.75
  -1 -10  10    9.49   24.89
  -1  -9  -2    6.17   25.91
  -1  -9  -2    4.67   17.43
   1   9   2   -6.60   21.88
  -1  -9  -1   28.31   24.08
  -1  -9  -1   30.63   26.95
  -1  -9   0  279.37   54.06
  -1  -9   0  295.24   48.98
  -1  -9   1  602.95   82.54
  -1  -9   1  601.36   79.97
  -1  -9   2  327.35   47.46
  -1  -9   2  331.37   47.04
  -1  -9   3    4.38   24.07
  -1  -9   3    0.89   23.26
  -1  -9   4   72.55   28.32
  -1  -9   4   67.12   25.60
  -1  -9   5  114.42   28.87
  -1  -9   5  104.04   29.55
  -1  -9   6   -3.05   25.77
  -1  -9   6    4.53   15.14
   1   9  -7   38.52   53.83
  -1  -9   7   39.91   28.47
   1   9  -8  172.39   35.60
  -1  -9   8  182.11   54.37
   1   9  -9   54.11   87.96
  -1  -9   9   74.81   32.78
   1   9 -10    2.73   14.93
  -1  -9  10    3.83   29.65
   1   9 -11   21.68   57.31
  -1  -9  11   46.38   39.66
  -1  -8  -4    8.22   25.13
  -1  -8  -4    0.97   17.82
   1   8   4   -6.47   28.13
  -1  -8  -3  221.29   38.82
  -1  -8  -3  217.85   36.10
   1   8   3  200.73   31.08
  -1  -8  -2  516.12   73.23
  -1  -8  -2  505.48   66.04
   1   8   2  570.10   78.74
  -1  -8  -1  306.51   53.18
  -1  -8  -1  337.40   45.26
   1   8   1  433.50   52.23
  -1  -8   0   35.61   64.18
  -1  -8   0   30.93   17.67
   1   8   0   62.96   63.43
  -1  -8   1   24.85   21.99
  -1  -8   1   22.96   23.14
   1   8  -1   20.12   20.14
  -1  -8   2    0.70   22.19
  -1  -8   2   -5.44   19.79
   1   8  -2   -0.38    8.72
  -1  -8   3   16.04   23.28
  -1  -8   3   16.37   23.98
   1   8  -3   10.84   14.75
  -1  -8   4  265.27   31.64
  -1  -8   4  281.04   47.32
  -1  -8   5  429.23   58.66
  -1  -8   5  564.40   76.23
   1   8  -6  721.27   96.49
  -1  -8   6  674.86   89.28
   1   8  -7  958.71  122.80
  -1  -8   7  920.60  120.71
   1   8  -8  112.22   29.38
  -1  -8   8   66.70   30.08
   1   8  -9   29.20   38.58
  -1  -8   9   20.25   23.37
   1   8 -10   12.71   33.08
  -1  -8  10   -1.32   26.56
   1   8 -11   -1.46   29.13
  -1  -8  11    5.61   24.59
   1   8 -12  198.07   87.08
  -1  -8  12  245.33   49.24
  -1  -7  -6    2.04   24.66
   1   7   6    2.81   24.66
  -1  -7  -5   54.78   84.09
  -1  -7  -5   62.56   22.26
   1   7   5   68.43   76.03
  -1  -7  -4   44.55   62.29
  -1  -7  -4   55.63   25.39
   1   7   4   45.46   38.16
  -1  -7  -3   33.29   23.53
  -1  -7  -3   67.06   24.22
   1   7   3   42.37   39.08
  -1  -7  -2  347.37   60.87
  -1  -7  -2  353.80   54.73
   1   7   2  412.03   58.81
  -1  -7  -1  526.94   66.50
  -1  -7  -1  550.65   65.66
   1   7   1  616.04   62.02
  -1  -7   0  309.38   46.36
  -1  -7   0  290.27   43.78
   1   7   0  347.79   45.57
  -1  -7   1   27.91   16.66
  -1  -7   1   27.62   17.63
   1   7  -1   40.43   35.58
  -1  -7   2   49.72   23.13
  -1  -7   2   50.33   26.31
   1   7  -2   68.55   13.04
  -1  -7   3 1295.91   99.20
  -1  -7   3 1313.70  102.79
   1   7  -3 1081.80   72.69
  -1  -7   4  145.65   26.38
  -1  -7   4  185.57   33.76
   1   7  -4  172.84   22.77
   1   7  -5   17.10   21.69
  -1  -7   5   12.09   23.46
   1   7  -5   13.53   13.39
   1   7  -6  108.29   25.51
  -1  -7   6   95.36   27.30
   1   7  -6   95.13   12.16
   1   7  -7   79.15   79.72
  -1  -7   7   86.36   28.96
   1   7  -8   65.74   24.32
  -1  -7   8   56.59   24.93
   1   7  -9  162.99   40.66
  -1  -7   9  141.06   72.21
   1   7 -10  274.28   48.49
  -1  -7  10  257.34   49.44
   1   7 -11  744.03   94.71
  -1  -7  11  649.46   80.39
   1   7 -12  323.82   64.61
  -1  -7  12  251.39   47.37
   1   7 -13   72.32   99.89
  -1  -7  13   50.79   31.03
  -1  -6  -7    2.70   19.19
  -1  -6  -7   11.34   15.28
   1   6   7    8.73   20.55
  -1  -6  -6   30.85   26.74
  -1  -6  -6   12.81   16.76
   1   6   6    2.61   10.71
  -1  -6  -5  258.49   43.75
  -1  -6  -5  267.59   37.03
   1   6   5  290.24   43.06
  -1  -6  -4  773.31  127.00
  -1  -6  -4  804.12  107.63
   1   6   4  886.21  117.95
  -1  -6  -3 1090.23  115.72
  -1  -6  -3 1155.40  120.06
   1   6   3 1373.77  160.61
  -1  -6  -2  244.08   41.45
  -1  -6  -2  274.89   46.15
   1   6   2  303.07   44.07
  -1  -6  -1   48.55   18.11
  -1  -6  -1   43.95   19.40
   1   6   1   47.70   12.75
  -1  -6   0   19.63   13.20
  -1  -6   0   28.19   14.24
   1   6   0   29.72   31.39
  -1  -6   1  544.93   40.52
  -1  -6   1  479.64   38.46
   1   6  -1  549.05   27.86
  -1  -6   2 1175.22   93.94
  -1  -6   2 1122.57   91.31
   1   6  -2 1255.01   91.58
  -1  -6   3  972.17   79.70
  -1  -6   3 1068.83   88.17
   1   6  -3 1198.18   87.57
   1   6  -4 1463.30  113.72
  -1  -6   4 1334.15  106.46
   1   6  -4 1429.96  103.85
   1   6  -4 1302.84   94.87
   1   6  -5  916.26   76.77
  -1  -6   5  886.25   77.96
   1   6  -5  942.62   69.71
   1   6  -5 1023.99   77.37
   1   6  -6  194.74   32.49
  -1  -6   6  178.85   26.44
  -1  -6   6  193.62   26.20
   1   6  -7    9.92   21.57
  -1  -6   7    5.08   17.03
  -1  -6   7    8.29    7.08
   1   6  -8   80.12   24.66
  -1  -6   8   53.02   28.73
  -1  -6   8   52.66   16.94
   1   6  -9    6.43   23.46
  -1  -6   9    5.08   23.45
  -1  -6   9    5.93   16.24
   1   6 -10    3.56   24.90
  -1  -6  10   16.07   27.47
  -1  -6  10   -0.90   12.62
   1   6 -11  154.16   34.86
  -1  -6  11  138.11   32.14
  -1  -6  11  144.45   30.66
   1   6 -12  322.84   56.25
  -1  -6  12  335.44   56.15
   1   6 -13    0.61   29.22
  -1  -6  13   -4.31   31.48
   1   6 -14   59.70  123.21
  -1  -6  14   65.70  111.06
  -1  -5  -8   34.88   46.21
  -1  -5  -8   19.83   46.77
   1   5   8   39.40   32.11
  -1  -5  -7   54.91   95.16
  -1  -5  -7   83.84   23.34
   1   5   7  129.25   37.22
  -1  -5  -6  260.09   47.35
  -1  -5  -6  244.00   28.60
   1   5   6  244.73   28.93
  -1  -5  -5   -2.09   23.79
  -1  -5  -5    2.87   16.60
   1   5   5    6.09   15.89
  -1  -5  -4  117.53   27.02
  -1  -5  -4  116.69   23.22
   1   5   4  142.94   27.61
  -1  -5  -3  223.09   32.16
  -1  -5  -3  241.73   31.43
   1   5   3  247.23   34.49
  -1  -5  -2  291.04   30.88
  -1  -5  -2  261.47   29.15
   1   5   2  321.05   43.55
  -1  -5  -1    3.94   16.40
  -1  -5  -1    0.69   16.43
   1   5   1   -0.86   11.80
  -1  -5   0  273.68   30.86
  -1  -5   0  245.64   27.38
   1   5   0  249.41   22.86
  -1  -5   1 1621.94  106.51
  -1  -5   1 1449.54   97.83
   1   5  -1 1555.59  103.20
  -1  -5   2 1111.45   75.36
  -1  -5   2 1064.95   74.49
   1   5  -2 1073.54   69.36
   1   5  -3  654.05   42.17
  -1  -5   3  551.48   42.40
   1   5  -3  555.99   33.85
   1   5  -3  578.26   33.86
   1   5  -4   50.43   18.12
  -1  -5   4   59.33   69.47
  -1  -5   4   61.39   12.85
   1   5  -4   57.52   10.49
   1   5  -5    6.16   16.94
  -1  -5   5    6.54   20.26
  -1  -5   5   11.59   12.44
   1   5  -5    2.67    5.51
   1   5  -6   -3.91   18.14
  -1  -5   6    3.84   21.21
  -1  -5   6   -0.20    7.95
   1   5  -7  237.26   38.30
  -1  -5   7  294.17   44.16
  -1  -5   7  261.86   37.48
   1   5  -8  967.62   79.66
  -1  -5   8  770.12   63.68
  -1  -5   8  732.58   60.21
   1   5  -9 3312.19  333.72
  -1  -5   9 3321.63  331.96
  -1  -5   9 3581.88   89.74
   1   5 -10  177.89   31.76
  -1  -5  10  127.62   25.79
  -1  -5  10  156.58   97.82
   1   5 -11  286.03   49.63
  -1  -5  11  243.27   30.78
  -1  -5  11  302.92   54.86
   1   5 -12   28.29   29.65
  -1  -5  12   44.67   33.69
  -1  -5  12   36.26   22.02
   1   5 -13   11.22   34.27
  -1  -5  13    5.02   24.18
  -1  -5  13   10.91   21.04
   1   5 -14   28.91   31.64
  -1  -5  14   23.37   21.32
  -1  -5  14   24.21   22.55
  -1  -4  -9   16.24   26.31
  -1  -4  -9   13.79   29.79
   1   4   9   16.14   31.89
  -1  -4  -8    5.91   15.03
  -1  -4  -8    3.92    8.16
   1   4   8    6.70   30.05
  -1  -4  -7  319.59   59.25
  -1  -4  -7  316.61   49.41
   1   4   7  302.55   46.85
  -1  -4  -6  867.52   93.85
  -1  -4  -6  971.70   97.97
   1   4   6 1081.02  109.78
  -1  -4  -5 2097.18  223.13
  -1  -4  -5 2071.22  209.53
   1   4   5 2272.66  233.35
  -1  -4  -4  750.09   51.44
  -1  -4  -4  740.42   42.97
   1   4   4  729.37   42.05
  -1  -4  -3   82.44   19.61
  -1  -4  -3   75.48   17.15
   1   4   3   96.11   34.58
  -1  -4  -2   15.55   14.81
  -1  -4  -2   10.95   15.26
  -1  -4  -1  127.12   18.98
  -1  -4  -1  130.83   16.31
   1   4   1  126.20   13.36
  -1  -4   0  157.11   22.16
  -1  -4   0  174.58   19.29
   1   4   0  190.92   18.01
  -1  -4   1 1100.75   38.05
  -1  -4   1 1077.34   39.86
   1   4  -1  977.57   31.35
  -1  -4   2 1513.03   42.35
  -1  -4   2 1567.64   47.80
   1   4  -2 1755.28   41.92
   1   4  -2 1467.33   37.41
   1   4  -3  619.85   26.82
  -1  -4   3  590.31   29.27
  -1  -4   3  607.71   25.15
   1   4  -3  601.21   24.19
   1   4  -4  160.15   16.38
  -1  -4   4  164.58   19.90
  -1  -4   4  169.69   13.95
   1   4  -4  164.05   13.09
   1   4  -5   34.32   13.37
  -1  -4   5   30.36   16.32
  -1  -4   5   32.52   12.31
   1   4  -5   35.22    8.45
   1   4  -6  535.79   47.01
  -1  -4   6  671.79   54.61
  -1  -4   6  694.43   52.48
   1   4  -7  506.24   43.07
  -1  -4   7  347.70   36.94
  -1  -4   7  327.57   31.80
   1   4  -8   29.60   21.38
  -1  -4   8   27.95   19.37
  -1  -4   8   17.41   16.98
   1   4  -9  316.11   40.00
  -1  -4   9  284.37   35.84
  -1  -4   9  355.87   46.74
   1   4 -10  287.49   45.67
  -1  -4  10  296.87   53.26
  -1  -4  10  299.88   51.28
   1   4 -11    8.41   26.35
  -1  -4  11    8.64   23.65
  -1  -4  11    3.46   21.10
   1   4 -12   87.90   30.67
  -1  -4  12   77.77   29.99
  -1  -4  12   81.58   26.91
   1   4 -13  353.42   63.05
  -1  -4  13  303.36   51.26
  -1  -4  13  307.69   55.37
   1   4 -14  425.08   82.15
  -1  -4  14  497.10   88.89
  -1  -4  14  496.37   91.79
  -1  -3 -10    7.41   28.52
  -1  -3 -10    1.07   12.36
   1   3  10  -11.08   28.91
  -1  -3  -9  235.52   43.23
  -1  -3  -9  233.63   38.31
   1   3   9  283.90   57.58
  -1  -3  -8  498.62   79.17
  -1  -3  -8  407.04   58.67
   1   3   8  395.53   63.73
  -1  -3  -7   46.19   64.52
  -1  -3  -7   55.71   21.09
   1   3   7   46.36   45.13
  -1  -3  -6   52.53   21.02
  -1  -3  -6   50.49   14.71
   1   3   6   59.24   56.37
  -1  -3  -5   44.48   54.20
  -1  -3  -5   47.59   16.41
   1   3   5   45.92   53.73
  -1  -3  -4   17.57   32.27
  -1  -3  -4   22.34   12.84
   1   3   4   25.51   32.24
  -1  -3  -3  139.86   19.87
  -1  -3  -3  129.53   16.00
   1   3   3  134.04   16.36
  -1  -3  -2   12.33    9.51
  -1  -3  -2    8.86   13.08
   1   3   2   13.65   12.92
  -1  -3  -1 5018.31   66.84
  -1  -3  -1 5141.44   71.41
  -1  -3   0 2912.74   55.87
  -1  -3   0 2803.26   58.56
   1   3   0 3138.88   58.06
  -1  -3   1 1670.23   55.87
  -1  -3   1 1714.53   58.58
   1   3  -1 1827.03   58.67
   1   3  -1 1601.51   53.00
   1   3  -2  853.63   33.07
  -1  -3   2  835.55   35.57
  -1  -3   2  809.79   32.45
   1   3  -2  935.36   36.59
   1   3  -3   10.58    7.73
  -1  -3   3   11.55   12.99
  -1  -3   3    9.51   11.82
   1   3  -3   12.75    7.12
   1   3  -4  132.04   13.78
  -1  -3   4  129.12   14.55
  -1  -3   4  133.46   13.51
   1   3  -4  142.12   12.00
   1   3  -5  302.08   21.93
  -1  -3   5  289.62   22.88
  -1  -3   5  359.52   22.89
   1   3  -6 1393.13   83.73
  -1  -3   6 1458.82   73.65
  -1  -3   6 1511.72   77.54
   1   3  -7 3782.46  406.62
  -1  -3   7 2877.81  315.11
  -1  -3   7 2995.98  324.26
   1   3  -8 1340.26  103.32
  -1  -3   8 1157.59   92.30
  -1  -3   8 1169.94   96.25
   1   3  -9  304.27   97.11
  -1  -3   9  419.85   45.73
  -1  -3   9  361.68   41.39
   1   3 -10    4.38   24.12
  -1  -3  10   12.92   18.52
  -1  -3  10   -0.54   21.43
   1   3 -11   12.41   18.81
  -1  -3  11   15.35   22.80
  -1  -3  11   11.51   22.97
   1   3 -12    6.61   20.64
  -1  -3  12    7.31   23.25
  -1  -3  12   10.14   26.36
   1   3 -13   40.67   29.36
  -1  -3  13   27.50   45.77
  -1  -3  13   21.29   32.27
   1   3 -14   61.26   29.08
  -1  -3  14   74.74   62.66
  -1  -3  14   58.17   82.75
  -1  -2 -11    7.51   22.29
  -1  -2 -11   -5.76   17.48
   1   2  11   -0.97   26.28
  -1  -2 -10    1.88   28.25
  -1  -2 -10   11.08   16.32
   1   2  10    9.30   24.97
  -1  -2  -9  271.39   50.37
  -1  -2  -9  196.80   67.79
   1   2   9  219.94   36.21
  -1  -2  -8  485.02   59.29
  -1  -2  -8  448.69   53.85
   1   2   8  419.12   51.59
  -1  -2  -7 2067.60  213.80
  -1  -2  -7 1899.04  192.78
   1   2   7 1872.03  213.49
  -1  -2  -6  909.79   52.88
  -1  -2  -6  822.48   44.61
   1   2   6  985.66   59.34
  -1  -2  -5  104.10   20.32
  -1  -2  -5  118.63   19.17
   1   2   5  119.52   17.34
  -1  -2  -4   45.38   12.11
  -1  -2  -4   45.10   16.75
   1   2   4   52.22   15.93
  -1  -2  -3 1217.87   42.90
  -1  -2  -3 1196.09   39.35
   1   2   3 1257.18   34.25
  -1  -2  -2   48.00    9.01
  -1  -2  -2   50.57   13.37
   1   2   2   47.44   26.46
  -1  -2  -1  397.82   20.57
   1   2   1  435.77   20.31
  -1  -2  -1  414.95   21.73
   1   2   1  416.30   22.21
  -1  -2   0  696.08   26.69
   1   2   0  664.90   25.47
  -1  -2   0  651.30   28.25
   1   2   0  695.20   27.61
   1   2   0  721.57   29.75
  -1  -2   0  638.73   28.75
  -1  -2   1  320.31   14.73
  -1  -2   1  283.33   13.98
  -1  -2   1  313.87   18.24
   1   2  -1  317.27   16.23
  -1  -2   1  239.05   15.64
   1   2  -1  283.71   17.83
   1   2  -2   78.30    8.26
  -1  -2   2   75.55    7.86
  -1  -2   2   89.00   12.46
   1   2  -2   63.82    7.39
  -1  -2   2   83.34   10.80
   1   2  -2   70.57    9.05
   1   2  -3  246.30   16.02
  -1  -2   3  252.28   14.17
  -1  -2   3  279.27   18.21
  -1  -2   3  266.85   17.72
   1   2  -3  300.97   18.32
   1   2  -4 1532.67   51.89
  -1  -2   4 1524.50   53.50
  -1  -2   4 1505.64   55.86
   1   2  -4 1582.12   58.55
   1   2  -5 1335.85   40.29
  -1  -2   5 1598.54   40.70
  -1  -2   5 1610.81   49.79
   1   2  -6 1297.64   66.90
  -1  -2   6 1187.45   60.55
  -1  -2   6 1232.02   69.13
   1   2  -7  287.53   31.20
  -1  -2   7  285.11   26.76
  -1  -2   7  276.29   32.38
   1   2  -8   21.28   18.21
  -1  -2   8   13.34   18.50
  -1  -2   8   14.11   20.06
   1   2  -9    6.82   15.48
  -1  -2   9    6.52   14.67
  -1  -2   9    1.66   21.94
   1   2 -10   70.22   66.14
  -1  -2  10   73.97   46.21
  -1  -2  10   80.00   29.03
   1   2 -11  859.85  116.09
  -1  -2  11  932.88  114.32
  -1  -2  11 1059.40  139.17
   1   2 -12  806.84   89.52
  -1  -2  12  804.33   82.67
  -1  -2  12  772.16  158.89
   1   2 -13  705.85   91.46
  -1  -2  13  621.88   77.58
  -1  -2  13  646.72   91.47
   1   2 -14  201.21   43.40
  -1  -2  14  235.59   41.40
  -1  -2  14  244.50   54.83
  -1  -1 -12   12.96   27.93
   1   1  12   14.48   24.31
   1   1  12    7.46   32.67
  -1  -1 -11  276.73   48.65
   1   1  11  267.49   42.16
   1   1  11  295.75   56.89
  -1  -1 -10  668.87   80.07
  -1  -1 -10  535.33   73.12
   1   1  10  588.39   77.33
  -1  -1  -9  273.05   45.10
  -1  -1  -9  275.50   40.28
   1   1   9  404.95   64.04
  -1  -1  -8  634.66   74.95
  -1  -1  -8  561.29   63.33
   1   1   8  559.51   66.83
  -1  -1  -7    8.67   25.87
  -1  -1  -7   13.46   15.60
   1   1   7   14.29   19.54
  -1  -1  -6    4.03   19.21
  -1  -1  -6    8.48   16.99
   1   1   6    4.65   17.86
  -1  -1  -5   68.72   14.29
  -1  -1  -5   56.59   13.42
   1   1   5   64.27   13.24
  -1  -1  -4  761.46   34.17
  -1  -1  -4  635.95   26.76
   1   1   4  708.53   26.11
  -1  -1  -3 3127.93   60.16
  -1  -1  -3 3444.36   60.78
   1   1   3 3506.91   54.15
  -1  -1  -2 4728.12   68.65
  -1  -1  -2 4464.81   66.59
  -1  -1  -1 3760.55   50.00
   1   1   1 3937.80   51.33
  -1  -1  -1 3652.61   54.25
   1   1   1 3906.40   55.88
   1   1   1 4059.69   60.65
  -1  -1  -1 3612.57   57.97
  -1  -1   0 1165.55   33.14
   1   1   0 1214.01   34.59
  -1  -1   0 1045.58   34.32
   1   1   0 1013.12   32.97
   1   1   0 1253.63   40.64
   1   1   0 1067.22   38.03
   1   1  -1   21.09    2.81
  -1  -1   1   18.44    2.35
   1   1  -1   22.29    5.06
  -1  -1   1   18.72    4.46
  -1  -1   1   20.57   15.96
   1   1  -1   15.57    4.87
   1   1  -2  327.09   13.56
  -1  -1   2  290.18   12.56
  -1  -1   2  388.95   16.64
   1   1  -2  331.62   14.00
  -1  -1   2  353.77   20.31
   1   1  -2  342.92   17.91
   1   1  -3    3.72   10.42
  -1  -1   3    1.55    2.73
  -1  -1   3    5.16    7.52
   1   1  -3    1.31    5.35
  -1  -1   3    3.12   10.76
   1   1  -3    4.08    7.31
   1   1  -4 1355.26   57.59
  -1  -1   4 1364.18   45.44
   1   1  -4 1239.75   40.23
  -1  -1   4 1407.68   53.60
   1   1  -5 5866.28   81.59
  -1  -1   5 5752.22   66.77
  -1  -1   5 5185.87   92.41
   1   1  -6  146.25   17.73
  -1  -1   6  147.30   13.69
  -1  -1   6  169.06   29.65
   1   1  -7  468.03   41.29
  -1  -1   7  585.37   43.87
  -1  -1   7  526.44   47.07
   1   1  -8    1.98    8.33
  -1  -1   8    3.73    9.13
  -1  -1   8   -0.24   16.97
   1   1  -9  222.41   60.35
  -1  -1   9  200.54   29.65
  -1  -1   9  235.06   40.01
   1   1 -10  299.72   49.97
  -1  -1  10  317.23   45.55
  -1  -1  10  332.63   57.42
   1   1 -11   16.54   24.71
  -1  -1  11   17.38   28.10
  -1  -1  11   -0.65   27.43
   1   1 -12   -1.36   23.82
  -1  -1  12   13.26   18.12
  -1  -1  12   12.19   32.68
   1   1 -13    5.52   29.78
  -1  -1  13   20.32   21.15
  -1  -1  13   12.38   30.15
  -1   0 -12   -0.25   27.77
   1   0  12    5.76   19.79
   1   0  12   -2.01   27.95
  -1   0 -11   64.98   31.05
   1   0  11   51.51   25.05
   1   0  11   41.29   28.61
  -1   0 -10  127.97   27.66
   1   0  10  104.91   27.31
   1   0  10  120.68   24.40
  -1   0  -9  831.90   90.03
  -1   0  -9  811.80   87.17
   1   0   9  898.14   94.92
  -1   0  -8  494.69  101.06
  -1   0  -8  508.52  102.34
   1   0   8  408.75   37.58
  -1   0  -7   32.58   38.80
  -1   0  -7   29.38   48.67
   1   0   7   26.44   30.70
  -1   0  -6  246.43   27.02
  -1   0  -6  255.93   27.32
   1   0   6  261.47   24.16
  -1   0  -5  739.40   45.42
  -1   0  -5  672.55   47.95
   1   0   5  637.52   33.77
  -1   0  -4 1152.76   37.75
  -1   0  -4 1013.41   46.81
   1   0   4 1095.37   27.26
  -1   0  -3  219.68   16.65
  -1   0  -3  240.16   14.80
   1   0   3  227.65   12.91
  -1   0  -2   87.30   16.90
   1   0   2   74.24    7.19
  -1   0  -2   68.28    9.43
   1   0   2   70.09    8.03
   1   0   2   94.27   10.73
  -1   0  -2   62.92    7.36
  -1   0  -1  262.94   11.10
   1   0   1  220.31    9.91
  -1   0  -1  199.68   10.96
   1   0   1  271.41   12.62
   1   0   1  251.89   13.43
  -1   0  -1  205.88   11.40
   1   0   0    5.63    2.96
  -1   0   0    4.77    2.80
   1   0   0    4.54    2.49
  -1   0   0    6.66    6.90
   1   0   0    7.19    9.84
   1   0  -1  673.06   19.86
  -1   0   1  690.14   20.49
  -1   0   1  645.82   19.40
   1   0  -1  729.29   21.10
  -1   0   1  673.45   25.91
   1   0  -1  667.48   24.73
   1   0  -2 3543.04   39.02
  -1   0   2 3605.25   66.64
   1   0  -3 3698.02   58.05
  -1   0   3 3973.60   52.87
   1   0  -3 3755.58   57.37
   1   0  -4 1724.56   58.08
  -1   0   4 1891.62   55.67
  -1   0   4 1901.93   56.71
  -1   0   4 2024.81   71.73
   1   0  -5 2138.01   53.06
  -1   0   5 2004.85   41.37
  -1   0   5 2016.67   59.74
   1   0  -6    6.48   16.61
  -1   0   6    2.70   10.95
  -1   0   6   10.17   22.41
   1   0  -7   12.83   20.16
  -1   0   7   13.19   14.20
  -1   0   7    5.88   33.44
   1   0  -8   77.32   73.34
  -1   0   8   59.66   12.63
  -1   0   8   70.16   24.14
   1   0  -9  944.95  157.19
  -1   0   9 1027.82  108.65
  -1   0   9 1165.25  133.49
   1   0 -10  969.63  106.39
  -1   0  10  890.69   92.46
  -1   0  10  837.83   95.84
   1   0 -11  924.55  115.58
  -1   0  11  954.49  112.38
  -1   0  11  887.46  115.70
   1   0 -12  317.17  125.62
  -1   0  12  334.72   53.64
  -1   0  12  376.99   71.37
   1   0 -13    7.61   24.82
  -1   0  13    1.86   18.46
  -1   0  13   -1.45   34.54
  -1   1 -13  273.19   56.45
   1  -1  13  209.25   45.58
   1  -1  13  220.82   55.22
  -1   1 -12  667.72   84.87
   1  -1  12  629.50   76.42
   1  -1  12  671.72   91.98
  -1   1 -11  545.30   67.63
   1  -1  11  512.82  107.27
   1  -1  11  483.22   91.26
  -1   1 -10  671.61   89.25
   1  -1  10  837.81  106.21
   1  -1  10  810.91  106.57
  -1   1  -9   71.91  101.41
   1  -1   9   84.94   25.00
   1  -1   9   70.03   20.93
  -1   1  -8    7.05   15.43
   1  -1   8   10.36   19.08
   1  -1   8    8.81   13.51
  -1   1  -7    1.30   19.35
  -1   1  -7    2.84    7.97
   1  -1   7    2.62    9.17
  -1   1  -6 1596.09   92.96
  -1   1  -6 1515.82   81.66
   1  -1   6 1386.55   69.52
  -1   1  -5 1105.22   38.45
  -1   1  -5  944.15   34.06
   1  -1   5 1084.70   34.63
  -1   1  -4 2675.36   69.96
  -1   1  -4 2723.56   52.71
   1  -1   4 2806.59   51.71
  -1   1  -3 3131.06   91.02
   1  -1   3 3171.13   86.75
  -1   1  -2  657.49   25.47
   1  -1   2  594.48   22.72
  -1   1  -2  574.03   21.96
  -1   1  -2  526.90   20.37
  -1   1  -1   -0.32    4.44
   1  -1   1    0.17    3.43
  -1   1  -1    0.38    1.38
   1  -1   1    0.59    1.62
   1  -1   1   -0.22    2.58
   1  -1   1    0.10    3.98
   1  -1   0  240.08   11.50
   1  -1   0  250.16    8.96
   1  -1   0  267.65    9.28
  -1   1   0  256.76   12.25
   1  -1   0  258.84   12.17
   1  -1  -1  266.64   13.96
  -1   1   1  226.20   12.45
  -1   1   1  270.33   15.29
   1  -1  -1  267.11   13.82
   1  -1  -2   60.21    7.80
  -1   1   2   51.69    6.99
   1  -1  -2   82.90    4.82
  -1   1   2   64.72    5.03
  -1   1   2   58.26   10.61
   1  -1  -2   58.27    7.39
   1  -1  -3 1085.66   46.33
   1  -1  -3 1149.17   34.63
  -1   1   3  965.38   31.14
  -1   1   3 1063.42   45.05
   1  -1  -4  615.88   27.76
   1  -1  -4  751.23   21.25
  -1   1   4  647.23   19.75
  -1   1   4  822.11   40.32
   1  -1  -5  253.63   24.20
   1  -1  -5  267.36   18.85
  -1   1   5  276.62   32.97
   1  -1  -6   52.44   18.01
   1  -1  -6   65.59   36.23
  -1   1   6   65.41   25.52
   1  -1  -7  605.08   56.10
  -1   1   7  651.80   52.59
  -1   1   7  723.55   67.65
   1  -1  -8 1668.29  122.85
  -1   1   8 1505.25  103.78
  -1   1   8 1853.58   83.82
   1  -1  -9  221.14  118.54
  -1   1   9  188.71   29.16
  -1   1   9  233.62   55.27
   1  -1 -10  102.66   74.23
  -1   1  10  105.09   16.30
  -1   1  10   94.85  108.06
   1  -1 -11   10.84   19.87
  -1   1  11    4.12    9.17
  -1   1  11    4.62   31.13
   1  -1 -12    5.96   26.80
  -1   1  12    4.48   20.37
  -1   1  12   17.76   38.75
  -1   2 -13    6.44   25.44
   1  -2  13   -4.75   21.87
   1  -2  13    5.43   15.70
  -1   2 -12   -2.25   26.84
   1  -2  12    3.89    9.93
   1  -2  12    4.96   26.36
  -1   2 -11   80.80  107.76
   1  -2  11  106.65   28.67
   1  -2  11  114.57   34.24
  -1   2 -10  148.21   31.20
   1  -2  10  130.80   25.16
   1  -2  10  129.67   22.29
  -1   2  -9  -11.56   23.07
   1  -2   9    1.71   11.39
   1  -2   9    2.05   13.28
  -1   2  -8  470.97   40.73
   1  -2   8  416.47   34.62
   1  -2   8  442.23   32.46
  -1   2  -7  246.42   31.53
   1  -2   7  230.54   26.41
   1  -2   7  288.26   42.19
  -1   2  -6 3237.42  149.94
   1  -2   6 3859.47  295.15
   1  -2   6 2796.24  122.34
  -1   2  -5 1050.88   39.22
   1  -2   5 1170.76   40.14
   1  -2   5 1073.13   26.04
  -1   2  -4   49.29   11.13
   1  -2   4   56.90   13.14
   1  -2   4   65.10    7.72
  -1   2  -4   39.21    7.72
  -1   2  -3  166.81   15.06
   1  -2   3  203.90   16.13
   1  -2   3  204.47   10.31
  -1   2  -3  190.63   11.78
  -1   2  -2    7.65    9.28
   1  -2   2    5.65    4.77
   1  -2   2    7.33   11.95
  -1   2  -2    4.28    3.62
   1  -2   2    5.58    4.27
  -1   2  -1 1332.16   43.79
   1  -2   1 1212.44   39.60
   1  -2   1 1286.34   39.85
  -1   2  -1 1171.76   36.66
  -1   2  -1 1137.31   31.64
   1  -2   1 1230.77   33.79
   1  -2   0 3385.16   95.74
   1  -2   0 3388.81   43.24
  -1   2   0 3163.32   87.03
   1  -2   0 3591.00   42.17
   1  -2  -1 4578.72   51.43
   1  -2  -1 4104.23   48.73
   1  -2  -3  721.98   34.52
   1  -2  -3  738.57   19.46
  -1   2   3  715.85   19.70
  -1   2   3  592.69   28.28
   1  -2  -4   51.40   13.73
   1  -2  -4   69.05    7.44
  -1   2   4   60.91    8.17
  -1   2   4   54.25   14.56
   1  -2  -5   18.59   19.86
   1  -2  -5    9.89   15.30
  -1   2   5    7.80   14.87
   1  -2  -6    3.72   18.33
   1  -2  -6    2.64    3.91
  -1   2   6    5.00   13.85
   1  -2  -7  513.99   38.18
   1  -2  -7  512.24   31.33
  -1   2   7  573.40   53.97
   1  -2  -8  332.09   45.45
   1  -2  -8  369.80   43.63
  -1   2   8  403.65   58.45
   1  -2  -9  677.95   91.56
  -1   2   9  712.45   87.40
  -1   2   9  807.26  109.51
   1  -2 -10  444.44   63.81
  -1   2  10  374.25   42.40
  -1   2  10  467.94   76.07
   1  -2 -11   14.94   22.54
  -1   2  11   20.00   39.53
  -1   2  11   19.99   58.45
   1  -2 -12  132.51   38.30
  -1   2  12  143.92   99.90
  -1   3 -13  504.00   74.87
   1  -3  13  462.81   67.81
   1  -3  13  451.33   68.37
  -1   3 -12  503.00   76.49
   1  -3  12  546.10   73.62
   1  -3  12  587.71   79.25
  -1   3 -11   67.04   62.57
   1  -3  11   53.90   70.38
   1  -3  11   37.33   22.67
  -1   3 -10    5.29   11.37
   1  -3  10   -1.30   18.98
   1  -3  10    3.50   19.31
  -1   3  -9   30.60   22.37
   1  -3   9   12.36   31.48
   1  -3   9   39.23   19.39
  -1   3  -8  147.29   26.38
   1  -3   8  174.19   24.58
   1  -3   8  180.31   21.37
  -1   3  -7  409.42   40.09
   1  -3   7  411.72   38.45
   1  -3   7  472.10   37.52
  -1   3  -6  762.21   50.90
   1  -3   6  943.75   54.38
   1  -3   6  810.09   43.03
   1  -3   5 1145.49   60.69
   1  -3   5 1157.33   55.14
  -1   3  -4  310.19   23.78
   1  -3   4  360.40   19.97
   1  -3   4  282.44   11.77
  -1   3  -4  207.51   10.23
  -1   3  -3   78.74   13.24
   1  -3   3   48.48    9.04
   1  -3   3   67.53    6.13
  -1   3  -2  433.98   23.40
   1  -3   2  503.86   23.39
  -1   3  -1  923.27   38.22
   1  -3   1  793.15   29.83
  -1   3  -1  834.00   30.38
  -1   3  -1  868.93   28.20
   1  -3   1  801.07   22.17
   1  -3   0  594.12   28.81
   1  -3   0  521.66   21.78
  -1   3   0  608.82   23.19
  -1   3   0  494.45   22.70
   1  -3   0  600.30   18.96
   1  -3  -1  292.25   20.01
   1  -3  -1  280.71   13.51
  -1   3   1  326.91   14.11
   1  -3  -1  327.18   11.57
   1  -3  -2 1542.08   46.29
   1  -3  -3   25.28   18.46
   1  -3  -3   22.97    6.74
  -1   3   3   19.88    6.22
  -1   3   3    9.09   11.43
   1  -3  -4  134.99   23.53
   1  -3  -4  153.98   17.58
  -1   3   4  132.52   20.42
   1  -3  -5  877.66   78.34
   1  -3  -5  849.38   63.20
  -1   3   5  736.51   73.85
   1  -3  -6 2345.61  108.43
   1  -3  -6 2350.74   89.31
  -1   3   6 2321.04  107.65
   1  -3  -7  553.42   67.33
   1  -3  -7  644.81   68.45
  -1   3   7  678.18   85.74
   1  -3  -8  318.21   57.10
   1  -3  -8  311.62   40.83
  -1   3   8  320.27   57.25
   1  -3  -9   28.82   51.42
   1  -3  -9   20.08   32.12
  -1   3   9   25.74   59.06
   1  -3 -10    1.24   29.36
  -1   3  10    3.13   12.53
  -1   3  10    2.29   32.91
   1  -3 -11   13.17   39.47
  -1   3  11   10.52   29.09
  -1   4 -13    2.26   27.57
   1  -4  13   -2.74   28.49
   1  -4  13    8.63   30.92
  -1   4 -12   -1.03   27.08
   1  -4  12    2.20   37.67
   1  -4  12   -0.20   20.75
  -1   4 -11    7.71   33.21
   1  -4  11    2.53   22.94
   1  -4  11    7.15   21.64
  -1   4 -10  172.55   34.24
   1  -4  10  170.04   27.14
   1  -4  10  168.64   26.94
  -1   4  -9  978.98  107.97
   1  -4   9 1036.85  111.38
   1  -4   9  934.58  101.70
  -1   4  -8 1641.31   97.74
   1  -4   8 2041.15   92.09
   1  -4   8 1916.50   82.98
  -1   4  -7 1099.56   90.97
   1  -4   7 1136.97   91.09
   1  -4   7 1006.31   80.72
  -1   4  -6  522.35   50.30
   1  -4   6  396.87   43.38
   1  -4   6  421.53   33.54
  -1   4  -6  246.95   21.19
  -1   4  -5   66.15   46.51
   1  -4   5   51.00   36.59
   1  -4   5   43.91   15.20
  -1   4  -5   35.07    8.94
  -1   4  -4    1.17   17.20
   1  -4   4   -5.63   11.89
   1  -4   4    0.26    1.69
  -1   4  -4    1.86    2.86
  -1   4  -3  639.94   32.46
   1  -4   3  640.76   29.62
  -1   4  -2 1179.45   42.07
   1  -4   2 1134.06   33.54
   1  -4   1 1766.60   51.94
   1  -4   1 1918.64   45.45
  -1   4  -1 1930.50   34.63
   1  -4   0 4533.60   81.35
   1  -4  -1   22.39   19.72
   1  -4  -1   11.95    6.64
  -1   4   1    6.27   16.66
   1  -4  -2   78.29   19.00
   1  -4  -2   70.66   12.62
  -1   4   2   26.60   27.84
   1  -4  -3   36.67   18.65
   1  -4  -3   42.34   11.64
  -1   4   3   27.83   27.89
   1  -4  -4   78.63   31.01
   1  -4  -4   93.16   16.20
  -1   4   4   53.45   16.95
   1  -4  -5    7.47   15.11
   1  -4  -5    5.58    8.87
  -1   4   5    3.29   14.93
   1  -4  -6   36.42   56.13
   1  -4  -6   29.82   29.92
  -1   4   6   33.90   19.69
   1  -4  -7  405.33   61.08
   1  -4  -7  438.66   55.19
  -1   4   7  478.97   75.99
   1  -4  -8  271.13   48.03
   1  -4  -8  292.61   39.87
  -1   4   8  324.91   93.16
   1  -4  -9    1.44   15.88
  -1   4   9   14.11   38.88
   1  -4 -10  146.27   39.49
  -1   4  10  196.53   55.83
  -1   5 -13   35.84   56.32
   1  -5  13   41.45   31.16
  -1   5 -12    9.64   30.49
   1  -5  12   -5.76   27.42
   1  -5  12   -1.96   17.83
  -1   5 -11  203.17   42.80
   1  -5  11  261.58   47.53
   1  -5  11  214.29   31.92
  -1   5 -10  240.12   45.92
   1  -5  10  211.30   39.74
   1  -5  10  203.36   33.03
  -1   5  -9   85.19   28.19
   1  -5   9  100.74   43.51
   1  -5   9   99.33   18.46
  -1   5  -8  174.95   36.63
   1  -5   8  185.19   37.91
   1  -5   8  160.90   27.63
  -1   5  -7  368.77   37.01
   1  -5   7  397.38   37.06
   1  -5   7  330.74   23.82
  -1   5  -6   24.64   19.26
   1  -5   6   31.46   39.23
   1  -5   6   24.46   13.94
  -1   5  -5  112.48   26.05
   1  -5   5  143.43   21.51
  -1   5  -4  661.89   72.22
   1  -5   4  627.67   50.39
  -1   5  -3 1639.78   88.05
   1  -5   3 1637.48   83.37
   1  -5   2 1020.36   62.39
   1  -5   2 1092.34   58.41
  -1   5  -2  923.14   40.01
  -1   5  -2  940.45   40.96
   1  -5   1  265.60   26.96
   1  -5   1  296.95   23.74
  -1   5  -1  319.13   22.04
   1  -5   1  298.83   18.22
   1  -5   0  167.68   31.23
   1  -5   0  127.14   16.93
  -1   5   0  110.31   26.27
   1  -5  -1    3.84   18.16
   1  -5  -1    7.48   10.00
  -1   5   1    2.05    5.06
   1  -5  -2   83.05   28.69
   1  -5  -2   80.82   15.69
  -1   5   2   45.73   43.86
   1  -5  -3  682.19   52.90
   1  -5  -3  587.34   33.88
  -1   5   3  439.19   60.33
   1  -5  -4 1919.82   71.71
   1  -5  -4 2132.12   51.37
  -1   5   4 1557.17  115.40
   1  -5  -5  992.32  143.86
   1  -5  -5  821.93   98.60
  -1   5   5  730.76   95.44
   1  -5  -6  472.84   73.65
   1  -5  -6  457.75   57.56
  -1   5   6  478.08   75.63
   1  -5  -7   13.36   38.30
  -1   5   7    1.72   36.17
   1  -5  -8   36.00   26.03
  -1   5   8   16.71   29.04
   1  -5  -9   11.54   26.09
  -1   5   9   16.82   31.77
  -1   6 -13   18.83   38.97
  -1   6 -12  105.60   39.88
   1  -6  12  141.34   34.93
  -1   6 -11   91.27  113.75
   1  -6  11   75.66   88.08
  -1   6 -10 2222.10   93.50
   1  -6  10 2026.50  260.61
  -1   6  -9  434.28   58.32
   1  -6   9  434.27   59.50
  -1   6  -8  237.00   46.78
   1  -6   8  206.95   39.37
   1  -6   8  190.44   27.09
  -1   6  -7   12.78   23.14
   1  -6   7   -3.87   21.76
   1  -6   7    2.68    4.39
  -1   6  -6   14.69   24.95
   1  -6   6   13.09   18.57
  -1   6  -5   16.22   12.83
   1  -6   5   13.15   14.21
  -1   6  -4  257.43   39.44
   1  -6   4  312.84   30.66
  -1   6  -3  604.08   55.64
   1  -6   3  695.67   58.96
   1  -6   2  850.44   74.57
   1  -6   2 1018.00   81.04
  -1   6  -2  947.42   67.17
  -1   6  -2 1003.35   71.25
   1  -6   1  356.81   46.51
   1  -6   1  353.15   74.74
  -1   6  -1  428.07   37.03
   1  -6   1  405.90   34.01
   1  -6   0    8.54   21.00
   1  -6   0   -3.98   12.11
  -1   6   0    1.87    6.96
   1  -6  -1  298.96   31.32
   1  -6  -1  295.67   25.36
  -1   6   1  276.82   28.15
   1  -6  -2  252.77   38.54
   1  -6  -2  252.53   28.45
  -1   6   2  199.68   50.73
   1  -6  -3  194.59   37.84
   1  -6  -3  240.44   33.70
  -1   6   3  177.55   31.20
   1  -6  -4   20.46   22.87
   1  -6  -4    3.98    9.82
  -1   6   4   10.12   21.49
   1  -6  -5  191.77   33.18
   1  -6  -5  193.41   20.22
  -1   6   5  239.20   40.99
   1  -6  -6   86.04   28.95
  -1   6   6   83.16   31.22
   1  -6  -7   48.18   56.23
  -1   6   7   41.09   59.31
   1  -6  -8   27.75   51.01
  -1   6   8   51.24   35.85
  -1   7 -13  220.66   61.94
   1  -7  13  195.10   41.77
  -1   7 -12  100.89   41.11
   1  -7  12  102.91   46.97
  -1   7 -11   14.20   30.70
   1  -7  11   30.71   26.19
  -1   7 -10   -1.71   23.61
   1  -7  10   -8.81   24.46
  -1   7  -9   25.06   28.39
   1  -7   9   22.39   35.12
  -1   7  -8   -2.08   30.99
   1  -7   8    9.68   23.81
  -1   7  -7  131.69   36.58
   1  -7   7   98.46   22.94
  -1   7  -6  585.42   86.61
   1  -7   6  609.72   76.83
  -1   7  -5  877.13  105.03
   1  -7   5  875.21   96.46
  -1   7  -4  692.06   71.39
   1  -7   4  709.02   60.41
   1  -7   3  993.80   87.02
   1  -7   3 1090.87   83.42
   1  -7   2  430.93   54.23
   1  -7   2  460.87   46.44
  -1   7  -2  467.09   34.37
   1  -7   1   43.33   23.16
   1  -7   1   35.78   17.43
  -1   7  -1   43.09   13.53
   1  -7   0   25.39   21.47
   1  -7   0   29.11   16.42
  -1   7   0   28.04   18.25
   1  -7  -1  171.37  103.61
   1  -7  -1  175.56   30.88
  -1   7   1  246.99   42.66
   1  -7  -2  901.53  100.01
   1  -7  -2  886.01   90.06
  -1   7   2 1058.23  112.26
   1  -7  -3  627.39   96.22
   1  -7  -3  756.70  100.65
  -1   7   3  823.11  114.87
   1  -7  -4  290.81   49.37
  -1   7   4  346.70   54.31
   1  -7  -5   16.25   28.64
  -1   7   5   22.95   40.88
   1  -7  -6   13.85   31.30
  -1   7   6   11.37   29.94
   1  -7  -7   27.49   48.08
  -1   7   7   37.01  107.32
  -1   8 -12  308.47   66.97
   1  -8  12  280.33   69.26
  -1   8 -11  137.00   38.32
   1  -8  11  143.71   87.11
  -1   8 -10   93.54   33.76
   1  -8  10   58.59   31.45
  -1   8  -9   44.10   61.47
   1  -8   9   66.06   27.65
  -1   8  -8   46.74   51.07
   1  -8   8   49.22   30.70
  -1   8  -7  152.76   31.07
   1  -8   7  156.89   32.45
  -1   8  -6   -3.89   24.58
   1  -8   6   -7.07   21.60
  -1   8  -5   74.42   28.46
   1  -8   5   78.47   28.68
   1  -8   4  699.58   80.15
   1  -8   4  731.42   79.84
   1  -8   3   19.28   25.69
   1  -8   3   18.60   33.18
   1  -8   2   11.75   24.59
   1  -8   2    4.35   16.83
   1  -8   1  269.07   51.80
   1  -8   1  267.03   41.27
   1  -8   0  445.70   70.35
   1  -8   0  469.29   66.91
  -1   8   0  556.10   76.82
   1  -8  -1  358.75   53.29
   1  -8  -1  357.50   49.16
  -1   8   1  407.69   56.84
   1  -8  -2   73.48   27.99
   1  -8  -2   71.31   20.96
  -1   8   2   64.49   78.85
   1  -8  -3   25.32   30.69
  -1   8   3   36.62   23.33
   1  -8  -4   53.19   70.67
  -1   8   4   66.93   37.77
   1  -8  -5   -9.71   32.55
  -1   8   5    8.95   28.30
  -1   9 -11    3.19   21.02
   1  -9  11    0.29   28.65
  -1   9 -10    9.98   13.72
   1  -9  10    9.59   30.32
  -1   9  -9   47.56   63.08
   1  -9   9   27.68   41.29
  -1   9  -8  587.87   90.23
   1  -9   8  448.54   66.55
  -1   9  -7  381.82   63.54
   1  -9   7  352.03   57.62
  -1   9  -6  320.29   50.15
   1  -9   6  274.59   49.53
   1  -9   5  249.88   45.48
   1  -9   5  228.62   36.31
   1  -9   4    2.72   25.01
   1  -9   4    2.81   20.84
   1  -9   3    0.54   24.85
   1  -9   3    1.28   10.81
   1  -9   2   33.67   25.79
   1  -9   2   26.46   17.66
   1  -9   1    5.27   26.53
   1  -9   1   16.59   17.43
   1  -9   0  160.86   32.22
   1  -9   0  144.16   23.65
   1  -9  -1  433.77   79.64
   1  -9  -2  184.12   47.10
   1  -9  -3    3.69   21.24
  -1  10  -9  171.56   54.35
   1 -10   9  136.14   40.01
  -1  10  -8   23.72   37.50
   1 -10   8   40.83   25.07
   1 -10   7   10.50   32.43
   1 -10   7    7.35   11.65
   1 -10   6   43.48   33.00
   1 -10   6   43.69   27.46
   1 -10   5   36.37   35.42
   1 -10   5   41.84   24.47
   1 -10   4   -1.76   33.28
   1 -10   4    5.19   22.34
   1 -10   3  208.78   46.17
   1 -10   3  207.61   37.23
   1 -10   2  449.68   75.14
   1 -10   2  453.35   60.16
   1 -10   1  232.21   50.83
   1 -10   0   17.43   34.65
  -2 -10   2  136.16   32.74
  -2 -10   2  158.74   35.71
  -2 -10   3   96.65   30.36
  -2 -10   3  124.69   41.88
  -2 -10   4    1.34   24.00
  -2 -10   4    3.88   23.36
  -2 -10   5   16.68   24.89
  -2 -10   5    8.56   26.83
  -2 -10   6   32.68   23.72
  -2 -10   6   25.50   25.91
  -2 -10   7  174.57   43.43
  -2 -10   7  136.07   35.71
  -2 -10   8    5.57   24.02
  -2 -10   8    1.82   27.34
   2  10  -9   89.45   30.32
  -2 -10   9   83.95   62.00
  -2  -9  -1   11.34   21.93
  -2  -9  -1   12.04   20.17
   2   9   1   19.61   25.40
  -2  -9   0  149.48   35.01
  -2  -9   0  136.94   38.42
  -2  -9   1   14.56   20.73
  -2  -9   1   17.83   24.34
  -2  -9   2  136.46   26.07
  -2  -9   2  160.63   42.93
  -2  -9   3  287.54   45.52
  -2  -9   3  342.04   56.75
  -2  -9   4  649.62   85.82
  -2  -9   4  681.07   95.70
  -2  -9   5  322.04   50.57
  -2  -9   5  352.57   58.49
  -2  -9   6    6.65   19.10
  -2  -9   6    5.54   31.14
  -2  -9   7    8.79   18.99
  -2  -9   7   24.37   49.07
   2   9  -8   21.16   47.59
  -2  -9   8   19.97   36.90
   2   9  -9   22.69   45.89
  -2  -9   9   23.33   34.50
   2   9 -10   52.37   74.70
  -2  -9  10   71.90   36.94
   2   9 -11  241.83  122.77
  -2  -9  11  245.30   66.76
  -2  -8  -3  135.43   34.03
  -2  -8  -3  129.19   38.11
   2   8   3  179.76   88.39
  -2  -8  -2  182.62   38.02
  -2  -8  -2  183.66   43.62
   2   8   2  208.04   32.15
  -2  -8  -1   12.15   18.94
  -2  -8  -1    4.54   22.76
   2   8   1    1.09    5.59
  -2  -8   0  245.18   42.41
  -2  -8   0  225.91   41.03
   2   8   0  300.80   34.81
  -2  -8   1  314.62   46.71
  -2  -8   1  333.96   51.24
   2   8  -1  434.62   66.71
  -2  -8   2   73.07   28.72
  -2  -8   2   79.61   25.67
   2   8  -2   90.14   17.86
  -2  -8   3   18.34   20.42
  -2  -8   3   15.62   20.14
   2   8  -3   18.00   18.09
  -2  -8   4    8.70   20.31
  -2  -8   4   13.62   23.13
   2   8  -4    0.87   10.71
  -2  -8   5   83.18   23.10
  -2  -8   5  113.49   31.14
   2   8  -5  105.13   21.74
  -2  -8   6   14.66   20.65
  -2  -8   6   19.46   28.42
   2   8  -7   67.36   80.67
  -2  -8   7   80.36  102.43
   2   8  -8  902.44  113.69
  -2  -8   8  628.95   84.90
   2   8  -9  454.28   60.62
  -2  -8   9  453.02   63.67
   2   8 -10  326.44   57.21
  -2  -8  10  310.99   53.46
   2   8 -11  152.08   32.41
  -2  -8  11  152.37   36.79
   2   8 -12   -0.22   24.87
  -2  -8  12    3.67   14.73
  -2  -7  -5  399.52   76.32
  -2  -7  -5  403.03   73.85
   2   7   5  422.85   73.10
  -2  -7  -4  216.87   42.99
  -2  -7  -4  220.99   41.05
   2   7   4  277.56   44.39
  -2  -7  -3   13.26   21.68
  -2  -7  -3    9.10   21.53
   2   7   3    8.29   15.83
  -2  -7  -2   34.59   54.24
  -2  -7  -2   40.72   25.49
   2   7   2   49.90   53.78
  -2  -7  -1   22.17   16.66
  -2  -7  -1   13.94   19.60
   2   7   1   18.98   17.01
  -2  -7   0   90.47   61.88
  -2  -7   0   80.72   21.58
   2   7   0  112.23   18.69
  -2  -7   1  837.09  105.89
  -2  -7   1  857.82  111.65
   2   7  -1  852.90  101.96
  -2  -7   2 1049.92  129.45
  -2  -7   2 1092.89  137.89
   2   7  -2 1280.12  151.31
  -2  -7   3  356.86   49.00
  -2  -7   3  373.45   51.35
   2   7  -3  325.62   38.26
  -2  -7   4   86.32   26.54
  -2  -7   4   88.23   26.79
   2   7  -4   87.85   61.82
  -2  -7   5   85.09   36.37
   2   7  -5   59.91   18.40
   2   7  -6  311.22   78.45
  -2  -7   6  317.25   91.38
   2   7  -6  308.27   44.91
   2   7  -7   18.43   18.66
  -2  -7   7   20.20   27.75
  -2  -7   7   15.93   18.84
   2   7  -8    8.70   18.67
  -2  -7   8    7.69   22.24
  -2  -7   8    2.78    6.51
   2   7  -9  206.84   43.50
  -2  -7   9  224.71   47.05
   2   7 -10   95.99   32.42
  -2  -7  10   60.13   75.22
   2   7 -11   17.78   29.44
  -2  -7  11   11.01   29.04
   2   7 -12  148.00   34.80
  -2  -7  12   94.33  146.39
   2   7 -13   44.81   56.04
  -2  -7  13   62.69   36.63
  -2  -6  -7   16.23   34.15
  -2  -6  -7   20.18   17.94
   2   6   7   10.82   18.66
  -2  -6  -6   32.84   35.22
  -2  -6  -6   60.27   29.90
   2   6   6   41.49   64.89
  -2  -6  -5  181.57   42.99
  -2  -6  -5  159.89   30.30
   2   6   5  196.42   52.09
  -2  -6  -4  155.96   31.73
  -2  -6  -4  133.85   26.36
   2   6   4  162.65   27.92
  -2  -6  -3   19.63   31.84
  -2  -6  -3   21.46   22.09
   2   6   3   36.98   38.89
  -2  -6  -2  494.52   57.73
  -2  -6  -2  499.36   59.73
   2   6   2  507.07   53.94
  -2  -6  -1  788.22   98.39
  -2  -6  -1  945.29  106.10
   2   6   1  957.91  100.68
  -2  -6   0  233.51   31.78
  -2  -6   0  208.08   37.30
   2   6   0  173.52   31.92
  -2  -6   1  423.25   39.32
  -2  -6   1  447.78   47.91
   2   6  -1  489.19   42.95
  -2  -6   2  300.80   26.47
  -2  -6   2  332.26   34.01
   2   6  -2  367.90   30.72
  -2  -6   3  178.34   24.62
  -2  -6   3  189.05   33.05
   2   6  -3  190.68   29.51
  -2  -6   4    6.52   15.74
  -2  -6   4    3.65   15.53
   2   6  -4    4.28    9.83
   2   6  -5  377.08   32.88
  -2  -6   5  448.09   50.30
   2   6  -6 1199.63   89.86
  -2  -6   6 1348.77  104.48
  -2  -6   6 1411.65  100.26
   2   6  -7 1411.64  104.99
  -2  -6   7 1216.14   95.64
  -2  -6   7 1400.12  101.12
   2   6  -8  844.83   94.87
  -2  -6   8  919.58  101.80
  -2  -6   8  958.31  103.46
   2   6  -9  305.85   49.50
  -2  -6   9  229.18   33.31
  -2  -6   9  233.86   28.35
   2   6 -10   20.65   22.86
  -2  -6  10   11.43   34.37
  -2  -6  10    6.62   15.60
   2   6 -11   -0.47   27.05
  -2  -6  11   -8.31   23.52
  -2  -6  11    4.84   16.80
   2   6 -12   20.81   31.12
  -2  -6  12   31.15   28.44
  -2  -6  12   25.08   46.23
   2   6 -13  119.93   33.86
  -2  -6  13  100.45   36.89
   2   6 -14  458.14   71.01
  -2  -6  14  366.32   59.08
  -2  -5  -8  522.71   75.83
  -2  -5  -8  485.88   65.18
   2   5   8  434.62   63.46
  -2  -5  -7  679.85   84.98
  -2  -5  -7  662.87   81.78
   2   5   7  661.53   78.92
  -2  -5  -6  371.47   64.27
  -2  -5  -6  353.46   51.24
   2   5   6  424.26   57.53
  -2  -5  -5   13.43   18.06
  -2  -5  -5    9.36   18.62
   2   5   5   10.27   17.90
  -2  -5  -4   13.80   14.78
  -2  -5  -4   11.70   19.38
   2   5   4   15.20   23.99
  -2  -5  -3   93.30   20.08
  -2  -5  -3  104.91   28.78
   2   5   3   99.15   15.26
  -2  -5  -2   10.32   12.85
  -2  -5  -2    9.65   29.33
   2   5   2    4.18    8.89
  -2  -5  -1  324.63   27.97
  -2  -5  -1  354.15   36.05
   2   5   1  275.78   21.81
  -2  -5   0 1412.90  108.16
  -2  -5   0 1395.40  108.14
   2   5   0 1501.18  118.64
  -2  -5   1  752.43   56.37
  -2  -5   1  766.91   61.26
   2   5  -1  788.70   60.20
  -2  -5   2    8.53   14.74
  -2  -5   2   18.10   18.86
   2   5  -2   20.34   21.73
  -2  -5   3  406.12   35.46
  -2  -5   3  427.86   42.89
   2   5  -3  458.32   42.14
   2   5  -4  557.11   44.05
  -2  -5   4  596.23   51.65
  -2  -5   4  549.04   43.12
   2   5  -5  372.70   35.64
  -2  -5   5  336.62   36.52
  -2  -5   5  316.75   30.71
   2   5  -6   35.49   15.85
  -2  -5   6   35.46   20.44
  -2  -5   6   21.67   22.40
   2   5  -7    4.97   16.35
  -2  -5   7    7.60   26.19
  -2  -5   7    4.34   11.72
   2   5  -8   13.41   11.45
  -2  -5   8   27.86   27.82
  -2  -5   8   11.06   13.14
   2   5  -9   93.69   24.72
  -2  -5   9   72.60   25.91
  -2  -5   9   73.47   30.51
   2   5 -10  255.33   33.52
  -2  -5  10  254.41   36.13
  -2  -5  10  229.19   32.51
   2   5 -11  436.33   69.58
  -2  -5  11  533.64   79.84
  -2  -5  11  507.25   76.97
   2   5 -12  688.99   80.55
  -2  -5  12  600.00   71.18
  -2  -5  12  653.91   78.87
   2   5 -13  422.79   61.65
  -2  -5  13  528.73   74.79
  -2  -5  13  421.95   61.65
   2   5 -14  310.31   63.05
  -2  -5  14  293.05   63.98
  -2  -5  14  287.90   70.20
  -2  -4  -9  113.59  140.41
  -2  -4  -9  128.01   28.82
   2   4   9  114.46  157.30
  -2  -4  -8    4.75   15.64
  -2  -4  -8    5.81   15.05
   2   4   8    7.13    9.37
  -2  -4  -7   15.23   24.37
  -2  -4  -7    9.22   19.20
   2   4   7   12.20   14.50
  -2  -4  -6    8.65   22.06
  -2  -4  -6    8.84   17.63
   2   4   6    4.85   14.86
  -2  -4  -5   -5.14   18.94
  -2  -4  -5    0.61   19.59
   2   4   5    2.72    7.52
  -2  -4  -4  574.22   97.33
  -2  -4  -4  581.22   70.01
   2   4   4  571.44   63.37
  -2  -4  -3 1673.61   76.71
  -2  -4  -3 1670.77   80.86
   2   4   3 1604.36   83.50
  -2  -4  -2 1720.83  127.34
  -2  -4  -2 1582.53  118.77
   2   4   2 1413.46  103.40
  -2  -4  -1 1033.85   71.67
  -2  -4  -1 1035.40   73.66
   2   4   1 1027.45   70.45
  -2  -4   0  241.94   24.54
  -2  -4   0  246.67   24.66
   2   4   0  231.05   23.14
  -2  -4   1   20.64   17.00
  -2  -4   1   10.99   12.59
   2   4  -1   17.99   15.00
  -2  -4   2    3.20    9.54
  -2  -4   2    5.94   17.66
   2   4  -2    8.30   22.03
   2   4  -3  708.07   40.30
  -2  -4   3  683.13   46.16
  -2  -4   3  718.99   42.39
   2   4  -4  807.26   43.57
  -2  -4   4  995.05   60.67
  -2  -4   4  807.51   46.56
   2   4  -5 1837.76   88.03
  -2  -4   5 2043.14  102.59
  -2  -4   5 2144.31  105.62
   2   4  -6 2119.50  134.44
  -2  -4   6 2030.81  132.49
  -2  -4   6 1904.29  125.16
   2   4  -7  891.27   73.50
  -2  -4   7  958.36   78.83
  -2  -4   7  779.47   68.59
   2   4  -8   89.44   20.54
  -2  -4   8  113.30   24.60
  -2  -4   8   94.23   22.62
   2   4  -9  409.01   43.24
  -2  -4   9  333.30   41.38
  -2  -4   9  319.63   39.70
   2   4 -10   25.80   20.99
  -2  -4  10   48.07   37.49
  -2  -4  10   45.20   22.03
   2   4 -11   16.07   24.05
  -2  -4  11   11.55   24.28
  -2  -4  11   13.33   26.99
   2   4 -12   78.71   27.25
  -2  -4  12  106.24   29.64
  -2  -4  12  128.77   31.92
   2   4 -13   76.81   89.18
  -2  -4  13   93.49   31.11
  -2  -4  13   99.77   40.41
   2   4 -14    2.30   16.42
  -2  -4  14   -1.88   24.04
  -2  -4  14   10.33   27.01
  -2  -3 -10  271.46   85.35
  -2  -3 -10  283.44   42.99
   2   3  10  315.82   69.49
  -2  -3  -9  472.46   66.38
  -2  -3  -9  492.92   64.06
   2   3   9  437.11   56.80
  -2  -3  -8  413.37   56.77
  -2  -3  -8  362.28   48.77
   2   3   8  430.84   61.36
  -2  -3  -7   -0.51   24.98
  -2  -3  -7    3.25   13.26
   2   3   7    5.00   21.57
  -2  -3  -6   29.06   29.10
  -2  -3  -6   34.50   24.35
   2   3   6   28.57   22.66
  -2  -3  -5  277.91   32.49
  -2  -3  -5  279.71   36.69
   2   3   5  291.39   31.38
  -2  -3  -4  108.54   18.16
  -2  -3  -4  121.93   22.84
   2   3   4  122.54   18.34
  -2  -3  -3   87.83   22.10
  -2  -3  -3   84.34   18.38
   2   3   3   71.93   25.63
  -2  -3  -2  662.58   46.12
  -2  -3  -2  685.05   44.57
   2   3   2  724.49   57.54
  -2  -3  -1  160.82   20.94
  -2  -3  -1  173.52   23.33
   2   3   1  178.72   24.21
  -2  -3   0   14.79    9.21
  -2  -3   0   13.49   13.41
   2   3   0   35.43   14.55
  -2  -3   1  604.15   22.68
  -2  -3   1  568.30   21.41
  -2  -3   1  499.46   26.16
   2   3  -1  770.93   38.52
  -2  -3   2  600.10   19.94
  -2  -3   2  627.56   28.27
  -2  -3   2  705.34   31.36
   2   3  -3 5752.76   67.49
  -2  -3   3 6084.25   89.76
  -2  -3   3 5564.51   79.78
   2   3  -4  328.35   18.14
  -2  -3   4  316.95   23.71
  -2  -3   4  307.48   23.11
   2   3  -5  173.05   19.98
  -2  -3   5  129.44   19.56
  -2  -3   5  136.38   19.10
   2   3  -6   11.54   13.63
  -2  -3   6   20.20   11.88
  -2  -3   6   12.55   14.38
   2   3  -7    2.33   12.51
  -2  -3   7    0.68   15.45
  -2  -3   7    0.87   12.26
   2   3  -8  695.72   63.69
  -2  -3   8  791.46   66.15
  -2  -3   8  827.34   76.69
   2   3  -9  726.51   62.40
  -2  -3   9  631.50   54.70
  -2  -3   9  637.13   64.77
   2   3 -10 1229.69  151.08
  -2  -3  10 1352.22  162.37
  -2  -3  10 1484.94  184.74
   2   3 -11 1181.63  144.41
  -2  -3  11 1346.87  162.54
  -2  -3  11 1215.62  156.95
   2   3 -12  471.36   65.91
  -2  -3  12  502.13   69.72
  -2  -3  12  477.69   77.07
   2   3 -13   33.53   36.92
  -2  -3  13   27.55   19.08
  -2  -3  13   21.72   33.03
   2   3 -14    8.10   16.80
  -2  -3  14    0.06   24.53
  -2  -3  14   11.95   28.51
  -2  -2 -10  166.85  102.05
  -2  -2 -10  133.83   26.98
   2   2  10  200.34  139.74
  -2  -2  -9   13.28   22.49
  -2  -2  -9   14.45   22.42
   2   2   9   14.47   17.66
  -2  -2  -8  103.67   92.08
  -2  -2  -8  111.01   19.96
   2   2   8  155.08   60.79
  -2  -2  -7  285.82   47.84
  -2  -2  -7  246.00   41.18
   2   2   7  310.64   48.73
  -2  -2  -6  421.49   41.60
  -2  -2  -6  403.63   39.20
   2   2   6  473.70   44.64
  -2  -2  -5 1631.01  124.42
  -2  -2  -5 1530.24  117.24
   2   2   5 1420.82  108.42
  -2  -2  -4 2243.43  141.34
  -2  -2  -4 2149.81  136.79
   2   2   4 2325.54  143.42
  -2  -2  -3 1837.87   87.36
  -2  -2  -3 1790.18   89.54
   2   2   3 2403.68  144.46
  -2  -2  -2  472.66   29.35
  -2  -2  -2  402.15   26.75
   2   2   2  455.07   27.76
  -2  -2  -1   15.88   21.08
   2   2   1   18.98    5.03
  -2  -2  -1   16.77    9.02
   2   2   1   15.27   13.18
  -2  -2   0  185.64   11.85
   2   2   0  169.48   10.51
  -2  -2   0  155.34   14.66
   2   2   0  177.85   19.55
  -2  -2   1   38.02    4.85
  -2  -2   1   37.92    5.61
  -2  -2   1   37.47   10.64
  -2  -2   1   41.78   11.51
   2   2  -2 2139.35   60.53
  -2  -2   2 2071.26   57.96
  -2  -2   2 2212.73   73.25
   2   2  -3 1306.33   41.74
  -2  -2   3 1444.27   52.04
  -2  -2   3 1130.46   43.10
  -2  -2   3 1181.76   49.45
   2   2  -4 1060.21   28.63
  -2  -2   4 1333.42   32.15
  -2  -2   4 1152.90   34.81
  -2  -2   4 1380.76   49.08
   2   2  -5  246.88   18.63
  -2  -2   5  309.53   21.26
  -2  -2   5  279.08   26.42
   2   2  -6   34.24   37.55
  -2  -2   6   36.55   39.61
  -2  -2   6   33.28   18.51
   2   2  -7  401.10   68.06
  -2  -2   7  503.52   42.06
  -2  -2   7  502.47   52.23
   2   2  -8  335.16   38.25
  -2  -2   8  350.45   34.52
  -2  -2   8  408.45   54.15
   2   2  -9  227.07   52.48
  -2  -2   9  225.64   27.07
  -2  -2   9  207.40   39.15
   2   2 -10    5.44   13.66
  -2  -2  10    7.47   17.25
  -2  -2  10    6.60   33.68
   2   2 -11   98.97   92.55
  -2  -2  11  125.14   26.71
  -2  -2  11  137.28   38.77
   2   2 -12    5.65   17.36
  -2  -2  12    2.58   15.15
  -2  -2  12    1.63   37.98
   2   2 -13  106.35   34.83
  -2  -2  13  118.46   23.90
  -2  -2  13  108.85   36.19
   2   2 -14  286.96   59.32
  -2  -2  14  316.22   50.04
  -2  -2  14  322.65   64.06
  -2  -1 -11  258.30   50.37
  -2  -1 -11  226.62   37.84
   2   1  11  237.55   81.58
  -2  -1 -10  187.02   41.43
  -2  -1 -10  161.00   58.53
   2   1  10  224.51   49.02
  -2  -1  -9  363.04   57.72
  -2  -1  -9  285.32   43.61
   2   1   9  283.88   45.03
  -2  -1  -8  132.80   78.18
  -2  -1  -8  113.51   24.46
   2   1   8  154.05   33.61
  -2  -1  -7  645.32   73.93
  -2  -1  -7  640.66   72.46
   2   1   7  647.61   83.24
  -2  -1  -6  808.07   50.13
  -2  -1  -6  864.90   50.08
   2   1   6  887.70   56.37
  -2  -1  -5  181.94   28.48
  -2  -1  -5  184.86   27.71
   2   1   5  212.49   25.53
  -2  -1  -4  116.87   15.62
  -2  -1  -4  116.28   16.59
   2   1   4  118.43   23.18
  -2  -1  -3  110.54   13.26
  -2  -1  -3  111.55   13.99
   2   1   3  115.88   17.87
  -2  -1  -2   51.12    8.76
   2   1   2   45.27    6.31
  -2  -1  -2   43.61   13.07
   2   1   2   48.25   10.90
  -2  -1  -1  963.34   32.22
   2   1   1 1020.51   32.84
  -2  -1  -1  827.84   34.14
   2   1   1 1031.33   42.86
  -2  -1   0 2087.32   64.52
   2   1   0 2152.70   65.46
   2   1   0 1986.94   64.72
   2   1   0 1828.30   64.66
   2   1  -1 8030.50  106.00
  -2  -1   2 1299.00   45.53
   2   1  -2 1617.83   49.75
  -2  -1   2 1465.34   54.15
   2   1  -2 1608.52   56.76
   2   1  -3  983.77   32.61
  -2  -1   3  932.84   31.56
  -2  -1   3 1038.88   37.38
   2   1  -3  932.36   31.31
  -2  -1   3  962.24   43.54
   2   1  -4  181.09   15.37
  -2  -1   4  150.35   11.75
  -2  -1   4  116.83   11.61
   2   1  -4  135.42    9.92
  -2  -1   4  118.77   17.29
   2   1  -5   41.45   10.77
  -2  -1   5   45.71   10.01
  -2  -1   5   46.18   17.43
   2   1  -6  456.09   32.34
  -2  -1   6  452.29   29.23
  -2  -1   6  573.49   45.80
   2   1  -7 1483.02   99.44
  -2  -1   7 1120.34   74.79
  -2  -1   7 1219.36  100.11
   2   1  -8 2190.86  116.68
  -2  -1   8 1894.72  137.76
  -2  -1   8 1901.94  150.34
   2   1  -9 1842.53   62.82
  -2  -1   9 1781.21  123.94
  -2  -1   9 1617.23  125.46
   2   1 -10  128.40   28.79
  -2  -1  10  141.50   27.10
  -2  -1  10  149.73   37.47
   2   1 -11  154.76   29.69
  -2  -1  11  159.43   22.75
  -2  -1  11  188.74   46.89
   2   1 -12   16.76   28.86
  -2  -1  12   19.41   32.09
  -2  -1  12   20.79   31.84
   2   1 -13    3.81   14.85
  -2  -1  13    5.97   16.72
  -2  -1  13    8.61   32.19
  -2   0 -12  180.86   91.36
   2   0  12  244.53   52.76
   2   0  12  193.88   39.48
  -2   0 -11   78.90   94.57
   2   0  11  111.90   27.48
   2   0  11  100.14   40.77
  -2   0 -10    7.42   22.60
  -2   0 -10    2.82   13.33
   2   0  10    9.05   14.74
  -2   0  -9   40.96   23.69
  -2   0  -9   29.06   40.84
   2   0   9   47.30   39.82
  -2   0  -8  336.23   53.61
  -2   0  -8  312.39   99.13
   2   0   8  319.74   49.89
  -2   0  -7 1403.78  103.03
  -2   0  -7 1298.08   93.58
   2   0   7 1306.27   90.70
  -2   0  -6 2002.82  151.24
  -2   0  -6 2100.22  107.84
   2   0   6 1945.99  143.34
  -2   0  -5 1224.89   73.09
  -2   0  -5 1357.30   70.44
   2   0   5 1332.42   65.59
  -2   0  -4   56.28   11.49
  -2   0  -4   64.37   13.40
   2   0   4   66.76   10.55
  -2   0  -3   84.19   10.93
  -2   0  -3  110.51   12.65
   2   0   3   84.69   11.34
  -2   0  -2   74.18    9.58
   2   0   2   74.24    8.31
  -2   0  -2   81.52   13.11
   2   0   2   63.09    9.96
  -2   0  -1  326.45   14.63
   2   0   1  355.46   14.58
  -2   0  -1  333.59   21.87
   2   0   1  338.88   18.16
   2   0   1  354.39   22.17
   2   0   1  315.69   23.31
  -2   0   0 1583.53   42.42
   2   0   0 1621.02   43.37
  -2   0   0 1654.97   50.60
   2   0   0 1591.48   48.98
  -2   0   0 1690.67   56.18
   2   0   0 1644.82   55.32
   2   0  -1 1233.54   33.84
  -2   0   1 1059.53   33.43
   2   0  -1 1335.39   40.50
  -2   0   1 1281.76   47.69
   2   0  -1 1217.33   44.64
   2   0  -2 1001.77   31.18
  -2   0   2  931.23   29.67
  -2   0   2  909.54   29.14
   2   0  -2  946.76   29.21
  -2   0   2  860.96   40.31
   2   0  -2  946.96   38.39
   2   0  -3  274.51   16.18
  -2   0   3  222.43   14.81
  -2   0   3  253.00   12.47
   2   0  -3  233.24   10.42
  -2   0   3  229.04   23.84
   2   0  -4  109.21   12.25
  -2   0   4  113.36    9.65
   2   0  -4  111.79    7.93
  -2   0   4  112.19   25.57
   2   0  -5 1465.97   43.75
  -2   0   5 1640.06   33.79
  -2   0   5 1642.79   35.01
  -2   0   5 1934.81   67.36
   2   0  -6 1499.68   77.82
  -2   0   6 1532.33   71.35
  -2   0   6 1468.43  100.96
   2   0  -7 1076.60   76.36
  -2   0   7 1064.05   70.10
  -2   0   7 1092.11   86.85
   2   0  -8  213.90   25.02
  -2   0   8  233.27   21.70
  -2   0   8  222.88  109.47
   2   0  -9    9.38   22.10
  -2   0   9   10.65   16.40
  -2   0   9   11.99   39.54
   2   0 -10   19.26   47.25
  -2   0  10   12.59   14.49
  -2   0  10   20.38   29.65
   2   0 -11  113.78   30.21
  -2   0  11  103.70   21.67
  -2   0  11   89.42  130.04
   2   0 -12  559.00   83.15
  -2   0  12  466.91   66.71
  -2   0  12  462.27   82.16
   2   0 -13  787.62   61.08
  -2   0  13  698.66  125.90
  -2   1 -12   39.29   30.70
   2  -1  12   54.02   31.70
   2  -1  12   36.21   45.68
  -2   1 -11   13.54   27.82
   2  -1  11   28.03   23.21
   2  -1  11   14.93   25.32
  -2   1 -10  113.98   29.30
   2  -1  10  137.53   30.78
   2  -1  10  142.61   30.51
  -2   1  -9  688.27   84.70
  -2   1  -9  560.27   62.81
   2  -1   9  657.24   69.49
  -2   1  -8  893.23  101.26
  -2   1  -8  768.21   84.02
   2  -1   8  929.27   99.72
  -2   1  -7  419.28   46.24
  -2   1  -7  493.17   33.58
   2  -1   7  499.66   30.44
  -2   1  -6  324.68   34.33
  -2   1  -6  276.99   56.43
   2  -1   6  266.07   37.45
  -2   1  -5    7.38   12.80
  -2   1  -5    5.97   14.44
   2  -1   5    3.99   12.27
  -2   1  -4   39.35   10.54
  -2   1  -4   35.37   36.44
   2  -1   4   33.57    8.02
  -2   1  -3  382.34   19.65
  -2   1  -3  311.84   19.04
   2  -1   3  342.75   20.85
  -2   1  -2  227.53   16.04
   2  -1   2  207.30   12.48
  -2   1  -2  205.65   14.04
   2  -1   2  210.65   17.48
  -2   1  -2  175.02   14.52
  -2   1   0  314.86   16.25
   2  -1   0  328.09   14.72
  -2   1   0  337.56   14.09
   2  -1   0  326.93   14.05
  -2   1   0  297.68   17.56
   2  -1   0  344.60   20.04
   2  -1  -1  208.21   13.79
  -2   1   1  299.55   14.79
  -2   1   1  277.49   10.66
   2  -1  -1  215.91    8.59
  -2   1   1  245.95   18.43
   2  -1  -1  230.55   16.13
   2  -1  -2   64.97   11.67
  -2   1   2   63.43    7.63
  -2   1   2   49.74    2.47
   2  -1  -2   51.56    2.25
  -2   1   2   51.31   14.42
   2  -1  -2   48.52    8.67
   2  -1  -3    6.38   13.29
  -2   1   3    3.82    2.27
  -2   1   3   11.33   16.15
   2  -1  -4  198.98   34.06
  -2   1   4  178.41    8.65
  -2   1   4  184.50    8.97
  -2   1   4  175.47   22.31
   2  -1  -5  353.30   29.46
  -2   1   5  461.91   24.62
  -2   1   5  389.46   21.22
  -2   1   5  392.27   35.96
   2  -1  -6 1133.50   78.65
  -2   1   6 1062.08   67.08
  -2   1   6 1191.60  111.84
   2  -1  -7 1050.94   85.72
  -2   1   7 1056.63   82.12
  -2   1   7 1213.86  108.65
   2  -1  -8  309.01   37.09
  -2   1   8  311.91   27.11
  -2   1   8  364.25   54.73
   2  -1  -9   43.31   26.64
  -2   1   9   35.09   10.98
  -2   1   9   33.60   30.82
   2  -1 -10  257.98   50.13
  -2   1  10  191.43   28.68
  -2   1  10  236.16   50.13
   2  -1 -11  145.52   42.11
  -2   1  11  154.31   23.34
  -2   1  11  163.40   41.07
   2  -1 -12   27.05   40.58
  -2   1  12   26.89   46.12
   2  -1 -13   20.91   46.51
  -2   1  13   39.47   35.11
  -2   2 -12   24.59   49.34
   2  -2  12   42.78   26.19
   2  -2  12   27.88   20.33
  -2   2 -11    3.00   11.42
   2  -2  11   -6.94   24.33
   2  -2  11    5.14   23.06
  -2   2 -10   34.70   22.92
   2  -2  10   16.75   20.65
   2  -2  10   30.60   17.23
  -2   2  -9  293.72   48.71
   2  -2   9  257.36   43.12
   2  -2   9  271.04   67.93
  -2   2  -8  547.73   57.47
   2  -2   8  478.77   46.21
   2  -2   8  472.98   45.15
  -2   2  -7  615.13   61.93
   2  -2   7  634.04   56.05
   2  -2   7  706.07   55.86
  -2   2  -6  133.65   21.10
   2  -2   6  159.32   24.79
   2  -2   6  141.07   16.44
  -2   2  -5  319.15   29.08
  -2   2  -5  220.62   23.34
   2  -2   5  257.71   20.39
  -2   2  -4 1055.96   37.49
  -2   2  -4 1099.76   40.74
   2  -2   4  936.67   22.46
  -2   2  -3  834.72   31.86
  -2   2  -3  802.12   29.29
   2  -2   3  712.35   21.18
  -2   2  -3  654.91   25.88
  -2   2  -2   34.43   13.31
   2  -2   2   31.35    8.14
   2  -2   2   25.85    7.51
   2  -2   2   29.53    5.86
  -2   2  -1   84.45   10.52
   2  -2   1   82.98   10.27
   2  -2   1   67.10    6.78
   2  -2   1   74.28    7.51
  -2   2  -1   72.12   14.67
   2  -2   1   72.50    9.98
   2  -2   0   21.85    5.56
   2  -2   0   19.22    9.91
   2  -2   0   19.69    3.56
   2  -2   0   19.41    3.09
  -2   2   0   20.76    8.73
   2  -2   0   23.79    5.59
   2  -2  -1   17.22    8.18
   2  -2  -1   18.52    2.41
   2  -2  -1   18.02    2.67
  -2   2   1   14.00   11.66
   2  -2  -1   13.47    5.52
   2  -2  -2   83.62   11.49
  -2   2   2   85.51   14.99
   2  -2  -3 1431.82   39.93
   2  -2  -3 1420.68   18.80
  -2   2   3 1562.48   54.74
   2  -2  -4 3350.08  152.61
   2  -2  -4 3120.89  130.82
  -2   2   4 3198.33  133.51
  -2   2   4 2760.27  137.20
   2  -2  -5 3082.08  339.96
  -2   2   5 2654.24  282.32
  -2   2   5 2603.15  276.71
  -2   2   5 2481.64  180.07
   2  -2  -6  915.07   75.18
  -2   2   6  863.64   63.16
  -2   2   6  825.46   80.79
   2  -2  -7  184.61   56.58
  -2   2   7  162.86   14.93
  -2   2   7  220.36   45.44
   2  -2  -8   63.25   26.11
  -2   2   8   84.36   14.32
  -2   2   8   76.34   29.50
   2  -2  -9   91.47  103.81
  -2   2   9   95.89   20.81
  -2   2   9   99.29   44.92
   2  -2 -10  352.73  104.88
  -2   2  10  341.93   44.77
  -2   2  10  339.63   65.03
   2  -2 -11  558.39   83.00
  -2   2  11  635.87  104.02
   2  -2 -12  392.12   74.71
  -2   2  12  368.35   81.07
  -2   3 -13   96.04   38.71
   2  -3  13   57.14  102.81
   2  -3  13   94.28   35.79
  -2   3 -12   40.48   73.50
   2  -3  12   22.22   42.45
   2  -3  12   46.22   25.26
  -2   3 -11  709.02   85.26
   2  -3  11  799.99   90.52
   2  -3  11  674.47   73.62
  -2   3 -10 1131.39  142.13
   2  -3  10 1008.65  126.60
   2  -3  10  843.69  103.42
  -2   3  -9  627.15   86.72
   2  -3   9  658.95   87.34
   2  -3   9  607.90   76.85
  -2   3  -8  298.46   38.32
   2  -3   8  340.71   39.79
   2  -3   8  378.61   37.09
  -2   3  -7    3.09   22.08
   2  -3   7    0.68   12.32
   2  -3   7    2.82    7.12
  -2   3  -6   15.43   22.63
   2  -3   6   16.45   22.00
   2  -3   6   23.86   22.57
  -2   3  -5  359.87   32.91
   2  -3   5  398.41   29.64
   2  -3   5  386.16   21.20
  -2   3  -4  838.25   50.30
   2  -3   4  951.65   51.71
   2  -3   4  881.26   40.73
  -2   3  -4  818.29   43.08
  -2   3  -3 3720.86   72.94
   2  -3   3 3727.30   59.05
  -2   3  -2 1300.57   39.06
   2  -3   2 1179.22   31.45
   2  -3   2 1226.97   26.97
   2  -3   2 1181.64   23.32
  -2   3  -1  958.79   34.82
   2  -3   1  952.32   24.10
  -2   3  -1 1084.70   26.54
  -2   3  -1 1005.22   25.28
   2  -3   1 1005.22   23.27
   2  -3   0   33.26    9.38
   2  -3   0   34.10    5.01
  -2   3   0   39.89    4.83
  -2   3   0   36.97    9.48
   2  -3   0   43.73   13.71
   2  -3  -1  124.78   13.50
   2  -3  -1  103.29    7.42
  -2   3   1  109.52    6.64
  -2   3   1   93.06   15.35
   2  -3  -1  111.09    8.89
   2  -3  -2  615.46   30.63
   2  -3  -2  555.65   14.54
  -2   3   2  533.52   33.07
   2  -3  -3   19.64   13.57
   2  -3  -3   20.15    4.65
  -2   3   3   17.54   18.77
   2  -3  -4  516.84   43.25
   2  -3  -4  632.80   39.97
  -2   3   4  776.27   48.85
  -2   3   4  462.18   43.40
   2  -3  -5  823.48   74.22
   2  -3  -5  876.66   67.28
  -2   3   5  886.61   64.64
  -2   3   5  553.76   55.87
   2  -3  -6  191.13   61.62
   2  -3  -6  144.24   12.62
  -2   3   6  111.59   30.70
   2  -3  -7  343.00   52.87
   2  -3  -7  322.33   35.68
  -2   3   7  308.40   60.50
   2  -3  -8  378.33   50.23
  -2   3   8  359.97   39.71
  -2   3   8  317.91   53.23
   2  -3  -9  604.40   79.95
  -2   3   9  665.37   96.05
   2  -3 -10  390.35   66.40
  -2   3  10  485.80   86.15
   2  -3 -11   84.34  130.28
  -2   3  11  102.96   40.87
  -2   4 -13   41.47   97.95
   2  -4  13   63.89   31.74
   2  -4  13   42.75   91.09
  -2   4 -12   15.68   35.80
   2  -4  12   26.72   38.54
   2  -4  12   13.25   32.46
  -2   4 -11   21.54   38.76
   2  -4  11   21.55   37.83
   2  -4  11    9.08   22.25
  -2   4 -10   59.60   65.75
   2  -4  10   72.49   80.66
   2  -4  10   73.31   20.84
  -2   4  -9   89.32   26.45
   2  -4   9   94.78   94.43
   2  -4   9   87.59   23.74
  -2   4  -8   28.04   22.68
   2  -4   8   20.64   29.63
   2  -4   8   27.10   27.95
  -2   4  -7  283.35   33.65
   2  -4   7  295.68   28.09
   2  -4   7  311.77   22.58
  -2   4  -6 1001.93  102.14
   2  -4   6 1135.72   89.08
   2  -4   6 1196.43   86.49
  -2   4  -5  508.91   47.49
   2  -4   5  737.48   55.16
   2  -4   5  566.03   35.48
  -2   4  -5  589.18   41.25
  -2   4  -4 2156.33  106.13
   2  -4   4 2243.74  106.47
   2  -4   4 1800.69   78.21
   2  -4   4 2237.28   92.77
  -2   4  -3   29.24   12.39
   2  -4   3   31.07   37.15
   2  -4   3   30.58    3.10
   2  -4   3   33.86    3.84
  -2   4  -2   30.74   35.60
   2  -4   2   29.76   10.22
   2  -4   2   31.40    3.41
   2  -4   2   27.59    3.90
   2  -4   1   15.07   14.86
   2  -4   1    8.99    6.30
  -2   4  -1    8.07    4.76
   2  -4   1   11.14    2.99
   2  -4   0  457.29   33.62
   2  -4   0  485.09   28.24
  -2   4   0  446.61   24.96
  -2   4   0  410.24   26.70
   2  -4  -1 1540.82   80.75
   2  -4  -1 1379.66   62.65
  -2   4   1 1503.18   67.11
  -2   4   1 1354.50   70.82
   2  -4  -2 1998.83  100.38
   2  -4  -2 1883.23   84.54
  -2   4   2 2107.16   90.92
  -2   4   2 1799.89   94.96
   2  -4  -3 2382.18  173.85
   2  -4  -3 1859.81  111.61
  -2   4   3 1918.81  115.00
  -2   4   3 1314.46   96.59
   2  -4  -4  704.24   63.58
   2  -4  -4  734.21   54.16
  -2   4   4  734.67   54.45
   2  -4  -5  149.25   28.75
   2  -4  -5  139.25   18.85
  -2   4   5   56.78   56.46
   2  -4  -6   45.38   65.21
   2  -4  -6   63.18   26.09
  -2   4   6   29.44   32.70
   2  -4  -7    6.65   17.76
   2  -4  -7    7.99    9.93
  -2   4   7    8.69   27.95
   2  -4  -8   97.22   34.56
  -2   4   8   74.23  107.87
   2  -4  -9  366.49   57.75
  -2   4   9  441.14   85.01
   2  -4 -10  500.98   74.27
  -2   4  10  403.26   75.92
  -2   5 -13  381.03   69.99
   2  -5  13  390.36   64.68
  -2   5 -12  481.51   70.04
   2  -5  12  453.00   73.14
  -2   5 -11  148.82  122.12
   2  -5  11  146.27  107.97
   2  -5  11  168.14   30.02
  -2   5 -10  425.80   70.49
   2  -5  10  362.82   57.95
   2  -5  10  352.68   52.11
  -2   5  -9   22.29   24.23
   2  -5   9   28.98   25.65
   2  -5   9   27.33   31.03
  -2   5  -8   12.47   22.92
   2  -5   8    9.42   19.92
   2  -5   8    8.32   21.69
  -2   5  -7    8.69   21.94
   2  -5   7    7.36   15.72
   2  -5   7    7.05    5.60
  -2   5  -6   75.87   75.79
   2  -5   6   67.68   16.04
   2  -5   6   54.71    7.65
   2  -5   6   61.50   17.91
  -2   5  -5 2029.64  152.32
   2  -5   5 1944.10  144.75
   2  -5   5 1742.54  119.27
   2  -5   5 1869.82  127.73
  -2   5  -4  294.50   32.44
   2  -5   4  319.61   35.32
  -2   5  -3  338.09   34.97
   2  -5   3  360.89   32.35
  -2   5  -2    5.17   14.97
   2  -5   2    9.20    7.85
   2  -5   1  273.55   31.62
   2  -5   1  231.46   21.86
  -2   5  -1  239.92   23.14
   2  -5   1  218.39   18.04
   2  -5   0 1058.19   79.25
   2  -5   0 1009.77   66.04
  -2   5   0 1101.61   76.44
   2  -5   0 1092.95   66.28
   2  -5  -1  242.88   35.48
   2  -5  -1  207.12   21.73
  -2   5   1  225.80   24.92
   2  -5  -2   10.14   27.59
   2  -5  -2    4.94    6.65
  -2   5   2    9.57   18.74
   2  -5  -3  150.60   23.48
   2  -5  -3  187.04   16.88
  -2   5   3  123.39   23.13
   2  -5  -4   52.15   36.37
   2  -5  -4   30.57    8.43
  -2   5   4   19.04   38.56
   2  -5  -5   11.51   23.69
   2  -5  -5    3.34    6.04
  -2   5   5   -4.26   21.51
   2  -5  -6  519.23   75.69
  -2   5   6  309.91   54.75
   2  -5  -7  677.92   91.51
  -2   5   7  596.07   87.75
   2  -5  -8  590.04   87.30
  -2   5   8  573.78   96.52
   2  -5  -9   56.35   93.27
  -2   5   9   47.33   31.85
  -2   6 -12   45.58   86.36
   2  -6  12   52.43   29.02
  -2   6 -11   32.44   60.34
   2  -6  11   44.03   25.60
  -2   6 -10   74.08  120.95
   2  -6  10   56.07   75.59
  -2   6  -9  457.32   79.13
   2  -6   9  416.41   61.32
  -2   6  -8  862.38  104.06
   2  -6   8  806.41   88.05
  -2   6  -7  885.03  105.38
   2  -6   7  907.83   99.01
  -2   6  -6  644.54   60.18
   2  -6   6  513.36   51.01
  -2   6  -5  278.33   35.30
   2  -6   5  304.64   31.38
  -2   6  -4   31.83   41.38
   2  -6   4   44.83   18.76
  -2   6  -3    5.17   12.33
   2  -6   3    8.46   13.88
   2  -6   2  122.32   27.15
   2  -6   2  138.14   26.44
   2  -6   1  409.23   47.57
   2  -6   1  393.11   35.59
  -2   6  -1  391.94   32.94
   2  -6   1  379.56   30.39
   2  -6   0  979.49   63.08
   2  -6   0  926.93   45.16
  -2   6   0  956.59   49.68
   2  -6  -1 1341.40  102.66
   2  -6  -1 1440.02   98.74
  -2   6   1 1541.48  110.82
   2  -6  -2  627.84   77.21
   2  -6  -2  678.03   71.10
  -2   6   2  707.54   82.75
   2  -6  -3    8.98   22.23
   2  -6  -3    7.87    7.28
  -2   6   3    5.01   20.53
   2  -6  -4    9.15   18.94
   2  -6  -4    1.63    6.99
  -2   6   4    1.88   17.99
   2  -6  -5   89.37   31.36
  -2   6   5   55.51   92.52
   2  -6  -6   24.73   30.35
  -2   6   6   18.87   22.09
   2  -6  -7   40.74   63.95
  -2   6   7   38.03   31.22
   2  -6  -8  211.97   49.98
  -2   6   8  184.13   83.62
  -2   7 -12  101.03   37.92
   2  -7  12   63.34  104.88
  -2   7 -11   26.51   43.74
   2  -7  11   15.78   28.53
  -2   7 -10    9.96   34.33
   2  -7  10   -4.39   26.78
  -2   7  -9   18.69   33.34
   2  -7   9   14.17   27.76
  -2   7  -8   -6.04   33.24
   2  -7   8    0.47   19.99
  -2   7  -7   59.42   27.48
   2  -7   7   36.78   18.80
  -2   7  -6  181.76   41.30
   2  -7   6  125.67   24.50
  -2   7  -5  203.72   36.70
   2  -7   5  197.70   34.62
  -2   7  -4    8.42   32.36
   2  -7   4    4.00   15.85
   2  -7   3  674.45   80.34
   2  -7   3  676.39   77.11
   2  -7   2 1186.15  128.76
   2  -7   2 1357.88  142.55
   2  -7   1  268.98   42.12
   2  -7   1  246.15   34.75
  -2   7  -1  229.52   28.54
   2  -7   0   35.65   19.57
   2  -7   0   46.09   15.19
  -2   7   0   37.47   47.68
   2  -7  -1   27.17   32.60
   2  -7  -1   26.94   12.06
  -2   7   1   36.97   44.03
   2  -7  -2   16.52   35.40
   2  -7  -2    6.58    9.31
  -2   7   2    6.16   18.55
   2  -7  -3    2.45   31.80
  -2   7   3   12.50   21.01
   2  -7  -4  220.21   40.91
  -2   7   4  332.01   57.80
   2  -7  -5  637.95   91.78
  -2   7   5  589.37   88.38
   2  -7  -6  714.01   99.21
  -2   7   6  634.85   92.12
   2  -7  -7   56.85  126.05
  -2   7   7   64.86   40.81
  -2   8 -11   74.84   39.65
   2  -8  11   65.36   39.99
  -2   8 -10  234.21   66.05
   2  -8  10  221.70  117.05
  -2   8  -9  566.48   80.41
   2  -8   9  579.02   75.82
  -2   8  -8  341.16   80.63
   2  -8   8  331.86   57.77
  -2   8  -7  248.19   51.83
   2  -8   7  220.99   29.26
  -2   8  -6    2.69   15.44
   2  -8   6    1.26   19.00
  -2   8  -5  112.45   34.51
   2  -8   5  109.69   32.71
   2  -8   4   96.73   29.80
   2  -8   4  119.19   25.45
   2  -8   3  104.87   30.24
   2  -8   3  111.40   20.64
   2  -8   2   57.23   41.40
   2  -8   2   41.93   19.71
   2  -8   1  428.52   65.91
   2  -8   1  520.94   68.54
   2  -8   0  351.79   61.73
   2  -8   0  387.47   56.08
   2  -8  -1   15.37   32.64
   2  -8  -1   15.92   11.57
  -2   8   1   11.36   28.91
   2  -8  -2  159.45   67.29
  -2   8   2  126.98   25.21
   2  -8  -3  180.05   38.07
  -2   8   3  281.36   53.08
   2  -8  -4   91.91   27.45
  -2   8   4  141.46   34.10
   2  -8  -5   -8.51   28.47
  -2   8   5    1.15   26.92
  -2   9 -10    5.30   21.09
   2  -9  10    3.09   22.61
  -2   9  -9   31.08   59.12
   2  -9   9   36.74   26.77
  -2   9  -8   88.96  135.49
   2  -9   8   83.90   29.39
  -2   9  -7    8.18   15.10
   2  -9   7   10.50   17.79
  -2   9  -6   12.70   24.79
   2  -9   6   16.28   19.67
   2  -9   5  205.93   54.32
   2  -9   5  164.66   30.64
   2  -9   4  626.27   94.07
   2  -9   4  652.80   84.70
   2  -9   3  360.99   66.06
   2  -9   3  428.62   56.72
   2  -9   2  130.79   36.31
   2  -9   2   99.07   25.19
   2  -9   1    9.06   31.55
   2  -9   1   -2.79   14.28
   2  -9   0   25.51   28.02
   2  -9  -1    8.00   32.61
   2  -9  -2  107.48   29.04
   2  -9  -3  266.09   63.38
  -2  10  -9   41.74   57.82
   2 -10   9   41.03   26.05
  -2  10  -8    7.07   19.10
   2 -10   8   13.75   23.17
   2 -10   7   34.80   25.45
   2 -10   7   37.58   25.25
   2 -10   6   16.66   26.33
   2 -10   6   15.15   23.40
   2 -10   5   -7.52   27.62
   2 -10   5    4.71   32.15
   2 -10   4   14.16   28.20
   2 -10   4   11.78   19.99
   2 -10   3  111.70   32.19
   2 -10   3  115.36   23.79
   2 -10   2   83.47   31.00
   2 -10   1   10.21   27.50
   2 -10   0  184.20   50.87
  -3 -10   3  178.68   37.61
  -3 -10   3  219.68   45.61
  -3 -10   4    9.02   21.62
  -3 -10   4    0.90   27.93
  -3 -10   5   -0.95   21.55
  -3 -10   5   11.62   25.25
  -3 -10   6   50.47   26.03
  -3 -10   6   37.09   30.98
  -3 -10   7    9.69   31.28
  -3 -10   7    1.84   30.15
  -3 -10   8   35.85   33.30
  -3 -10   8   35.02   29.72
  -3  -9   0   17.80   30.63
  -3  -9   0   21.90   33.17
   3   9   0   28.37   56.85
  -3  -9   1    7.72   22.96
  -3  -9   1   15.03   22.74
   3   9  -1   20.27   25.04
  -3  -9   2   38.25   74.63
  -3  -9   2   41.11   25.25
  -3  -9   3    8.45   17.30
  -3  -9   3    9.94   25.48
  -3  -9   4   19.75   19.82
  -3  -9   4   19.46   29.75
  -3  -9   5  353.07   57.94
  -3  -9   5  329.16   60.56
  -3  -9   6  221.79   43.91
  -3  -9   6  278.00   65.48
  -3  -9   7  328.36   56.32
  -3  -9   7  298.75   55.11
  -3  -9   8  349.64   65.61
  -3  -9   9   10.28   35.16
   3   9 -10   -5.13   20.62
  -3  -9  10   -1.62   36.93
   3   9 -11    3.96    8.71
  -3  -9  11    9.62   31.73
  -3  -8  -3    2.53   18.52
  -3  -8  -2    6.51   19.28
  -3  -8  -2   13.85   24.11
   3   8   2    7.42   23.14
  -3  -8  -1  243.01   41.14
  -3  -8  -1  243.62   42.39
   3   8   1  311.84   41.69
  -3  -8   0  580.48   74.90
  -3  -8   0  583.80   79.65
   3   8   0  682.04   79.92
  -3  -8   1  390.56   47.56
  -3  -8   1  379.22   59.84
   3   8  -1  385.05   55.15
  -3  -8   2   -5.10   14.61
  -3  -8   2    7.73   23.50
   3   8  -2    2.16   11.92
  -3  -8   3   70.22   19.02
  -3  -8   3   51.30   24.13
   3   8  -3   58.71   67.10
  -3  -8   4  194.35   25.37
  -3  -8   4  180.58   31.75
   3   8  -4  230.41   30.16
  -3  -8   5    7.92   16.07
  -3  -8   5   23.81   28.72
   3   8  -5   20.38   16.70
  -3  -8   6   30.44   20.08
  -3  -8   6   16.37   26.42
   3   8  -6   47.23   21.72
   3   8  -7  129.16   26.58
  -3  -8   7  120.15   33.62
   3   8  -8  128.22   26.26
  -3  -8   8  111.95   67.16
   3   8  -9    6.35   15.39
  -3  -8   9    0.67   33.24
   3   8 -10   68.84   73.66
  -3  -8  10   68.39   31.30
   3   8 -11  113.30   58.66
  -3  -8  11  112.38   33.64
   3   8 -12  417.28  120.76
  -3  -8  12  457.35   88.08
  -3  -7  -4  180.54   41.67
  -3  -7  -4  197.18   43.80
   3   7   4  211.82   44.78
  -3  -7  -3  497.42   63.80
  -3  -7  -3  518.14   67.78
   3   7   3  588.08   88.59
  -3  -7  -2  367.42   52.51
  -3  -7  -2  408.80   63.30
   3   7   2  461.39   59.47
  -3  -7  -1   62.21   66.79
  -3  -7  -1   85.75   35.39
   3   7   1   74.32   80.16
  -3  -7   0    2.47   15.61
  -3  -7   0    6.29   22.98
   3   7   0    1.11    9.16
  -3  -7   1    5.05   14.43
  -3  -7   1   11.83   21.70
   3   7  -1   15.86   17.19
  -3  -7   2   18.23   22.71
  -3  -7   2   30.55   21.83
   3   7  -2    9.86   15.16
  -3  -7   3  226.35   31.12
  -3  -7   3  227.43   35.45
   3   7  -3  236.19   41.45
  -3  -7   4  575.31   77.50
  -3  -7   4  556.20   83.99
   3   7  -4  667.32   87.93
  -3  -7   5  758.51   97.25
  -3  -7   5  745.59  103.58
   3   7  -5  740.04   93.25
   3   7  -6 1108.86  111.22
  -3  -7   6 1188.27  129.11
   3   7  -6 1263.37  128.82
   3   7  -7  176.70   25.77
  -3  -7   7  171.44   33.88
  -3  -7   7  151.74   21.85
   3   7  -8   44.38   32.60
  -3  -7   8   63.25   32.58
  -3  -7   8   51.71   14.46
   3   7  -9    9.85   21.04
  -3  -7   9    7.29   30.86
  -3  -7   9    2.44   13.28
   3   7 -10   11.61   21.11
  -3  -7  10    8.91   31.21
  -3  -7  10    3.75   22.32
   3   7 -11  271.52   54.55
  -3  -7  11  185.47   43.76
   3   7 -12  117.42   39.61
  -3  -7  12  113.99   36.89
   3   7 -13  365.62   74.93
  -3  -7  13  366.89   79.72
  -3  -6  -6   32.56   58.77
  -3  -6  -6   47.02   28.64
   3   6   6   35.17   55.90
  -3  -6  -5   47.25   83.55
  -3  -6  -5   63.87   25.71
   3   6   5   49.81   59.86
  -3  -6  -4   11.31   20.55
  -3  -6  -4    6.83   22.75
   3   6   4   16.58   21.10
  -3  -6  -3  242.86   32.86
  -3  -6  -3  222.82   39.49
   3   6   3  239.35   60.04
  -3  -6  -2  435.75   65.04
  -3  -6  -2  466.10   72.69
   3   6   2  480.92   67.06
  -3  -6  -1  241.69   27.62
  -3  -6  -1  279.57   32.64
   3   6   1  215.71   22.35
  -3  -6   0   76.91   23.29
  -3  -6   0   63.14   22.32
   3   6   0   60.41   76.59
  -3  -6   1   77.50   17.91
  -3  -6   1   77.90   23.89
   3   6  -1  109.21   20.95
  -3  -6   2 1516.02  107.13
  -3  -6   2 1652.83  125.61
   3   6  -2 1441.42  106.29
  -3  -6   3  277.40   32.53
  -3  -6   3  343.83   46.08
   3   6  -3  269.74   33.23
  -3  -6   4   34.31   12.52
  -3  -6   4   55.84   30.95
   3   6  -4   61.59   19.05
   3   6  -5   35.15   38.23
  -3  -6   5   35.96   21.22
  -3  -6   5   48.47   21.06
   3   6  -6   61.22   16.33
  -3  -6   6   66.20   29.39
  -3  -6   6   90.91   20.52
   3   6  -7   29.42   45.99
  -3  -6   7   46.58   24.03
  -3  -6   7   54.25   29.29
   3   6  -8  226.20   37.43
  -3  -6   8  197.91   39.20
  -3  -6   8  210.44   36.26
   3   6  -9  451.39   56.41
  -3  -6   9  434.71   61.83
  -3  -6   9  433.82   56.87
   3   6 -10 1118.72  148.90
  -3  -6  10 1052.62  143.71
  -3  -6  10  970.23  134.29
   3   6 -11  459.28   66.67
  -3  -6  11  423.61   87.76
  -3  -6  11  442.65   67.69
   3   6 -12  189.74   46.58
  -3  -6  12  188.72   43.23
  -3  -6  12  138.10   34.27
   3   6 -13   11.39   25.08
  -3  -6  13   19.31   26.31
  -3  -6  13    8.29   21.63
   3   6 -14    0.26   27.18
  -3  -6  14   -1.30   17.82
  -3  -5  -7   14.95   25.23
  -3  -5  -7   13.91   19.00
   3   5   7    5.15   23.00
  -3  -5  -6  156.68   33.03
  -3  -5  -6  163.29   31.82
   3   5   6  173.20   34.73
  -3  -5  -5  641.24   72.44
  -3  -5  -5  697.15   79.89
   3   5   5  725.57   74.96
  -3  -5  -4 1061.80  143.54
  -3  -5  -4 1100.44  149.81
   3   5   4 1178.23  152.60
  -3  -5  -3  291.65   39.91
  -3  -5  -3  286.08   41.62
   3   5   3  285.92   26.71
  -3  -5  -2   60.48   22.11
  -3  -5  -2   58.87   28.64
   3   5   2   49.75   15.76
  -3  -5  -1   19.82   13.01
  -3  -5  -1   24.65   22.58
   3   5   1   24.76   28.93
  -3  -5   0  415.91   30.67
  -3  -5   0  367.57   33.85
   3   5   0  441.41   38.27
  -3  -5   1  743.21   40.61
  -3  -5   1  709.46   47.23
   3   5  -1  777.57   52.63
  -3  -5   2  932.70   72.42
  -3  -5   2  938.58   80.22
   3   5  -2 1082.11   92.09
  -3  -5   3 1257.55   94.45
  -3  -5   3 1346.76  107.59
   3   5  -3 1342.11  108.21
   3   5  -4  936.52   72.26
  -3  -5   4  892.33   74.83
  -3  -5   4  951.24   79.36
   3   5  -5  182.03   26.39
  -3  -5   5  184.29   34.41
  -3  -5   5  214.13   63.44
   3   5  -6   10.19   16.02
  -3  -5   6    9.65   24.79
  -3  -5   6   14.22   16.35
   3   5  -7  104.70   24.93
  -3  -5   7  125.93   38.96
  -3  -5   7   93.62   22.74
   3   5  -8    9.47   16.29
  -3  -5   8   16.31   29.16
  -3  -5   8   16.82   14.56
   3   5  -9   16.00   19.96
  -3  -5   9   22.47   27.36
  -3  -5   9   14.35   18.31
   3   5 -10  171.64   53.22
  -3  -5  10  162.06   35.36
  -3  -5  10  182.23   32.63
   3   5 -11  527.17   77.85
  -3  -5  11  405.65   71.01
  -3  -5  11  360.64   99.36
   3   5 -12    6.41   24.24
  -3  -5  12   10.95   27.21
  -3  -5  12   -0.13   23.08
   3   5 -13  130.12   36.44
  -3  -5  13  146.32   31.55
  -3  -5  13  147.82   35.64
   3   5 -14  124.09   33.68
  -3  -5  14  117.21   34.34
  -3  -5  14  110.03   34.59
  -3  -4  -8   75.10   27.80
  -3  -4  -8   56.98   21.66
   3   4   8   42.94   51.96
  -3  -4  -7  214.28   44.58
  -3  -4  -7  185.30   35.59
   3   4   7  187.55   33.83
  -3  -4  -6    0.97   11.14
  -3  -4  -6   -4.55   20.84
   3   4   6    5.54   13.85
  -3  -4  -5   36.93   47.93
  -3  -4  -5   46.90   29.03
   3   4   5   33.87   33.81
  -3  -4  -4  142.16   27.99
  -3  -4  -4  137.29   30.62
   3   4   4  145.95   27.94
  -3  -4  -3  161.67   26.26
  -3  -4  -3  148.20   32.87
   3   4   3  151.23   26.44
  -3  -4  -2   17.72   10.91
  -3  -4  -2   24.91   19.93
   3   4   2   12.24   19.48
  -3  -4  -1  149.82   23.23
  -3  -4  -1  191.07   36.90
   3   4   1  164.25   33.40
  -3  -4   0 1761.06  110.67
  -3  -4   0 1747.93  117.07
   3   4   0 1584.45  105.85
  -3  -4   1 1160.58   74.26
  -3  -4   1 1167.53   83.08
   3   4  -1 1281.74   91.85
  -3  -4   2  788.22   52.98
  -3  -4   2  651.59   53.57
   3   4  -2  818.35   66.24
  -3  -4   3   85.12   14.19
  -3  -4   3  100.67   27.56
  -3  -4   3  111.13   39.63
   3   4  -4   -2.56    7.72
  -3  -4   4   -8.97   20.06
  -3  -4   4   -1.65   11.74
   3   4  -5   -1.15    9.55
  -3  -4   5   -1.59   17.62
  -3  -4   5   -1.31   14.04
   3   4  -6  205.31   25.45
  -3  -4   6  286.10   33.12
  -3  -4   6  233.93   30.07
   3   4  -7 1115.36   86.08
  -3  -4   7  922.60   79.04
  -3  -4   7  940.04   82.84
   3   4  -8 4379.66  476.88
  -3  -4   8 3562.51  398.12
  -3  -4   8 4208.28  463.02
   3   4  -9  192.04   29.88
  -3  -4   9  174.87   29.79
  -3  -4   9  189.54   39.51
   3   4 -10  436.93   55.21
  -3  -4  10  516.72   61.77
  -3  -4  10  470.83   65.41
   3   4 -11   41.67   28.26
  -3  -4  11   38.67   27.46
  -3  -4  11   22.03   28.31
   3   4 -12   15.08   22.15
  -3  -4  12    9.15   21.70
  -3  -4  12    7.70   14.78
   3   4 -13   19.80   29.77
  -3  -4  13   21.13   20.60
   3   4 -14   17.00   25.39
  -3  -4  14   12.13   31.20
  -3  -4  14   14.79   21.91
  -3  -3  -9    5.22   12.03
  -3  -3  -9   -1.07   17.38
   3   3   9   -1.81   26.01
  -3  -3  -8  178.50   35.15
  -3  -3  -8  170.21   69.02
   3   3   8  180.51   35.90
  -3  -3  -7  721.28   92.49
  -3  -3  -7  613.03   78.66
   3   3   7  637.76   79.78
  -3  -3  -6 1589.46   66.83
  -3  -3  -6 1350.39  160.98
   3   3   6 1519.72  179.55
  -3  -3  -5  644.47   84.91
  -3  -3  -5  592.75   80.06
   3   3   5  653.61   83.08
  -3  -3  -4   70.36   22.66
  -3  -3  -4   64.71   19.59
   3   3   4   60.61   54.78
  -3  -3  -3   25.95   30.31
  -3  -3  -3   26.71   15.57
   3   3   3   34.60   37.89
  -3  -3  -2   48.78   14.81
  -3  -3  -2   50.12   16.91
   3   3   2   55.42   54.66
  -3  -3  -1   22.18   25.29
  -3  -3  -1   25.59   16.75
   3   3   1   22.20   18.04
  -3  -3   0  748.66   38.91
  -3  -3   0  712.45   47.22
   3   3   0  653.78   45.58
  -3  -3   1 1449.73   65.44
  -3  -3   1 1554.31   71.17
  -3  -3   1 1384.25   74.64
   3   3  -1 1523.99   83.58
  -3  -3   2  458.81   24.19
  -3  -3   2  431.38   23.76
  -3  -3   2  459.22   35.92
  -3  -3   2  533.67   43.79
   3   3  -3  152.17   11.39
  -3  -3   3  134.48    9.11
  -3  -3   3  149.13   20.66
  -3  -3   3  129.43   18.24
   3   3  -4   23.78    7.35
  -3  -3   4   18.35   12.60
  -3  -3   4   27.55   11.81
  -3  -3   4   32.96   43.94
   3   3  -5  780.14   42.71
  -3  -3   5  930.74   55.48
  -3  -3   5  850.06   57.05
   3   3  -6  615.01   45.72
  -3  -3   6  465.56   41.39
  -3  -3   6  561.62   53.42
   3   3  -7    6.92   11.83
  -3  -3   7    4.94   19.39
  -3  -3   7    8.80   22.08
   3   3  -8  528.68   37.37
  -3  -3   8  449.01   38.08
  -3  -3   8  402.30   41.79
   3   3  -9  200.18   53.93
  -3  -3   9  181.63   29.79
  -3  -3   9  232.51   79.92
   3   3 -10   10.21   22.63
  -3  -3  10    4.98   19.58
  -3  -3  10    0.99   16.77
   3   3 -11   98.05   26.36
  -3  -3  11  103.98   32.32
  -3  -3  11   99.72   40.93
   3   3 -12  452.37   58.63
  -3  -3  12  538.37   65.13
  -3  -3  12  489.77   74.13
   3   3 -13  780.25  112.05
  -3  -3  13  757.94  105.47
  -3  -3  13  792.36  119.99
   3   3 -14  401.82   79.35
  -3  -3  14  556.52   96.53
  -3  -3  14  473.12   92.21
  -3  -2 -10  141.14   34.92
  -3  -2 -10  140.50   29.38
   3   2  10  153.22   31.61
  -3  -2  -9  279.45   44.41
  -3  -2  -9  244.42   39.84
   3   2   9  288.88   46.17
  -3  -2  -8   55.55   55.26
  -3  -2  -8   42.82   48.67
   3   2   8   38.11   41.23
  -3  -2  -7  112.70   26.86
  -3  -2  -7  102.63   32.02
   3   2   7   96.84   23.23
  -3  -2  -6    8.13   15.71
  -3  -2  -6   13.58   20.50
   3   2   6   10.93   18.91
  -3  -2  -5    6.33   11.61
  -3  -2  -5    5.79   21.42
   3   2   5   12.39   14.69
  -3  -2  -4  133.78   24.57
  -3  -2  -4  129.72   27.07
   3   2   4  109.73   19.83
  -3  -2  -3    6.78   13.06
  -3  -2  -3    6.94   18.85
   3   2   3    6.26   19.13
  -3  -2  -2 3591.33  272.80
  -3  -2  -2 3557.02  274.91
   3   2   2 3441.10  173.03
  -3  -2  -1 2449.11  109.79
   3   2   1 2416.92  105.74
  -3  -2  -1 2299.29  110.40
   3   2   1 2351.07  116.32
  -3  -2   0 1494.82   30.30
  -3  -2   0 1405.30   46.63
   3   2   0 1627.28   61.51
  -3  -2   1  648.09   17.14
  -3  -2   1  507.89   27.81
  -3  -2   1  667.99   33.59
  -3  -2   2   24.69    3.88
  -3  -2   2   25.38    9.54
  -3  -2   2   34.59   32.40
   3   2  -3   86.41    7.28
  -3  -2   3  105.85    7.26
  -3  -2   3  105.35   15.87
  -3  -2   3   90.93   16.10
   3   2  -4  190.92   13.31
  -3  -2   4  294.79   13.97
  -3  -2   4  227.78   19.26
  -3  -2   4  228.58   24.72
   3   2  -5 1925.85   87.29
  -3  -2   5 1381.75   70.55
  -3  -2   5 1593.96   87.70
   3   2  -6 2828.42  127.38
  -3  -2   6 2866.12  131.59
  -3  -2   6 3290.77  162.38
   3   2  -7 1180.19   88.12
  -3  -2   7 1046.82   75.32
  -3  -2   7 1075.20   86.02
   3   2  -8  441.30   44.49
  -3  -2   8  461.40   45.23
  -3  -2   8  544.13   63.17
   3   2  -9    4.66   18.48
  -3  -2   9    3.83   15.92
  -3  -2   9   14.60   29.98
   3   2 -10   12.40   24.03
  -3  -2  10   26.91   29.41
  -3  -2  10   21.62   33.70
   3   2 -11   41.51   53.55
  -3  -2  11   40.70   37.48
  -3  -2  11   44.15   36.77
   3   2 -12   12.96   35.76
  -3  -2  12   17.48   14.36
  -3  -2  12   24.21   37.81
   3   2 -13   46.55  102.82
  -3  -2  13   60.81   20.53
  -3  -2  13   68.42   35.90
   3   2 -14   75.66   29.73
  -3  -2  14   73.39   25.46
  -3  -2  14   59.87   37.75
  -3  -1 -10   73.80   56.58
  -3  -1 -10   93.59   33.35
   3   1  10   81.52   24.65
  -3  -1  -9  267.06   47.73
  -3  -1  -9  278.53   46.11
   3   1   9  305.40   88.48
  -3  -1  -8  974.26  132.37
  -3  -1  -8 1030.50  136.43
   3   1   8  963.06  135.22
  -3  -1  -7  526.40   61.80
  -3  -1  -7  539.13   62.00
   3   1   7  571.04   69.37
  -3  -1  -6   54.65   16.92
  -3  -1  -6   67.60   20.60
   3   1   6   66.97   20.39
  -3  -1  -5   45.60   62.79
  -3  -1  -5   61.25   17.29
   3   1   5   64.27   28.27
  -3  -1  -4  623.49   47.45
  -3  -1  -4  665.93   51.90
   3   1   4  730.68   68.68
  -3  -1  -3    2.54   15.80
  -3  -1  -3   12.30   26.26
   3   1   3    8.78   19.33
  -3  -1  -2  114.66   26.74
   3   1   2  111.20   10.20
  -3  -1  -2  105.61   22.70
   3   1   2   95.02   20.06
  -3  -1  -1  328.94   13.85
   3   1   1  356.54   14.67
  -3  -1  -1  338.60   22.34
   3   1   1  292.94   22.30
  -3  -1   0  221.77    8.27
   3   1   0  228.79    8.19
  -3  -1   0  282.68   21.86
  -3  -1   0  204.08   21.15
  -3  -1   1   42.41    9.67
  -3  -1   1   51.97   13.01
   3   1  -2  254.04   10.00
  -3  -1   2  331.76   20.25
  -3  -1   2  249.56   23.03
   3   1  -3 1421.60   25.90
   3   1  -4 1973.60   38.40
  -3  -1   4 2152.84   41.12
  -3  -1   4 1973.33   44.53
  -3  -1   4 1768.37   61.57
   3   1  -5 1855.85   86.46
  -3  -1   5 1931.12   89.59
  -3  -1   5 1809.24   97.34
   3   1  -6  228.32   26.52
  -3  -1   6  306.58   26.05
  -3  -1   6  277.99   48.20
   3   1  -7    2.88    8.66
  -3  -1   7   -4.93   12.02
  -3  -1   7   -3.36   20.75
   3   1  -8    6.89   16.31
  -3  -1   8    4.33   18.74
  -3  -1   8   14.11   25.69
   3   1  -9   67.62   22.93
  -3  -1   9   81.24   18.38
  -3  -1   9   88.17   31.03
   3   1 -10 1152.47  118.90
  -3  -1  10  944.76   95.65
  -3  -1  10 1040.04  116.30
   3   1 -11 1198.42  172.03
  -3  -1  11 1013.71  132.87
  -3  -1  11 1009.52  145.39
   3   1 -12  740.53   95.81
  -3  -1  12  776.92   93.11
  -3  -1  12  866.67   84.51
   3   1 -13  435.64   61.76
  -3  -1  13  382.44   53.50
  -3  -1  13  375.53   67.83
  -3   0 -11  316.47   69.46
  -3   0 -11  360.25   67.72
   3   0  11  452.19   84.94
  -3   0 -10  166.05   37.54
  -3   0 -10  172.47   41.00
   3   0  10  177.71   34.33
  -3   0  -9  414.70   65.07
  -3   0  -9  412.73  114.92
   3   0   9  527.79   67.45
  -3   0  -8   15.29   21.41
  -3   0  -8   29.11   28.68
   3   0   8   26.27   11.94
  -3   0  -7    7.86   16.56
  -3   0  -7   12.62   27.67
   3   0   7    5.95   11.22
  -3   0  -6   21.65   31.61
  -3   0  -6   30.98   38.40
   3   0   6   37.17   30.73
  -3   0  -5  389.53   39.66
  -3   0  -5  408.67   39.66
   3   0   5  345.35   31.65
  -3   0  -4 1738.14  110.67
  -3   0  -4 1495.65   98.12
   3   0   4 1755.09  123.35
  -3   0  -3 2606.90  119.35
  -3   0  -3 2071.73   99.50
   3   0   3 2466.95  116.87
  -3   0  -2 2610.88   47.70
   3   0   2 2476.10   46.61
  -3   0  -2 2367.76   56.68
   3   0   2 2538.74   66.03
  -3   0  -1  651.22   18.06
   3   0   1  678.90   17.79
  -3   0  -1  637.18   28.50
   3   0   1  780.52   37.51
  -3   0   0   38.68    3.75
   3   0   0   43.86    4.64
  -3   0   0   40.23   12.08
  -3   0   0   44.72   53.19
   3   0  -1  197.51    8.09
   3   0  -1  169.00    7.53
  -3   0   1  146.62   12.69
   3   0  -1  256.29   14.84
  -3   0   1  195.16   19.46
  -3   0   2    7.65    3.43
  -3   0   2    8.16    4.61
   3   0  -2    9.80   11.01
  -3   0   2    7.39   10.38
   3   0  -3  655.69   19.91
  -3   0   3  788.08   22.00
  -3   0   3  710.79   21.44
   3   0  -3  781.74   19.23
  -3   0   3  756.40   40.85
  -3   0   4 4451.79   50.00
   3   0  -4 4323.01   47.92
  -3   0   4 4283.32   95.18
   3   0  -5   75.33   10.96
  -3   0   5   66.32    9.76
   3   0  -5   71.64    7.18
  -3   0   5   83.94   24.59
   3   0  -6  526.56   41.49
  -3   0   6  540.64   38.91
  -3   0   6  514.15   52.45
   3   0  -7    1.35   16.14
  -3   0   7    2.90    8.62
  -3   0   7   -1.76   28.62
   3   0  -8  194.50   32.30
  -3   0   8  223.50   18.86
  -3   0   8  201.49   41.48
   3   0  -9  736.51   84.21
  -3   0   9  543.55   66.26
  -3   0   9  632.04   85.08
   3   0 -10   54.79   62.07
  -3   0  10   42.49   14.23
  -3   0  10   80.08   49.93
   3   0 -11   15.19   30.36
  -3   0  11   23.12   13.28
  -3   0  11   43.99   49.08
   3   0 -12    6.42   12.66
  -3   0  12    7.95   14.44
  -3   0  12   -0.73   38.39
   3   0 -13   15.20   20.15
  -3   0  13    8.04   17.81
  -3   1 -11   21.29   23.07
   3  -1  11   44.68   29.35
   3  -1  11   34.61   24.84
  -3   1 -10  304.78   51.98
  -3   1 -10  228.03   40.44
   3  -1  10  266.19   78.88
  -3   1  -9  242.69   42.09
  -3   1  -9  225.77   57.63
   3  -1   9  262.24   74.17
  -3   1  -8   14.80   19.62
  -3   1  -8   12.60   12.52
   3  -1   8   19.52   18.51
  -3   1  -7  109.02   22.99
  -3   1  -7  116.82   26.23
   3  -1   7  118.89   21.26
  -3   1  -6  555.70   38.03
  -3   1  -6  610.01   40.24
   3  -1   6  534.43   38.05
  -3   1  -5  606.55   49.77
  -3   1  -5  638.50   49.06
   3  -1   5  575.43   62.27
  -3   1  -4  221.71   21.02
  -3   1  -4  209.01   22.01
   3  -1   4  209.65   42.36
  -3   1  -3    6.63   15.01
  -3   1  -3    1.64   11.14
   3  -1   3   -0.09    8.52
  -3   1  -2  130.80   11.60
   3  -1   2  114.77    9.35
  -3   1  -2  122.36   14.62
   3  -1   2  115.06   14.36
  -3   1  -1    1.64    7.25
  -3   1  -1    8.47   12.73
  -3   1  -1    3.53    8.97
  -3   1   0  652.49   27.13
   3  -1   0  645.41   24.73
  -3   1   0  644.09   25.19
  -3   1   0  717.24   36.16
   3  -1  -1 3016.06   82.84
  -3   1   1 2666.75   89.46
  -3   1   2 3314.11   94.00
  -3   1   2 3211.98  111.26
   3  -1  -3 1998.55   42.02
  -3   1   3 1954.76   26.03
   3  -1  -3 1844.44   23.42
  -3   1   3 1851.30   62.10
   3  -1  -4 1687.63   44.23
  -3   1   4 1380.72   24.72
  -3   1   4 1478.87   60.29
   3  -1  -5   18.26   21.68
  -3   1   5   18.21    3.41
  -3   1   5   18.89    5.68
  -3   1   5   18.26   20.01
   3  -1  -6    5.58   14.34
  -3   1   6    9.93    4.96
  -3   1   6    7.86    5.12
  -3   1   6    9.58   27.54
   3  -1  -7   39.62   17.15
  -3   1   7   49.77   10.96
  -3   1   7   38.19   31.55
   3  -1  -8  849.41   71.39
  -3   1   8  845.47   60.60
  -3   1   8  856.87   88.51
   3  -1  -9 1030.79  128.09
  -3   1   9  954.85  114.13
  -3   1   9  999.36  133.75
   3  -1 -10  878.78  135.47
  -3   1  10 1020.05  131.60
  -3   1  10 1044.50  149.56
   3  -1 -11  497.62   62.20
  -3   1  11  457.56   79.65
   3  -1 -12    3.67   27.65
  -3   1  12   15.04   44.27
   3  -1 -13    6.91   15.75
  -3   1  13   -7.50   37.77
  -3   2 -12  294.96   60.35
   3  -2  12  296.51   69.67
   3  -2  12  283.75   56.47
  -3   2 -11  471.23   78.26
   3  -2  11  473.41   76.18
   3  -2  11  565.36   84.37
  -3   2 -10   41.80   46.22
   3  -2  10   53.02   25.23
   3  -2  10   42.52   60.90
  -3   2  -9   -5.51   27.40
   3  -2   9    5.90   35.77
   3  -2   9    2.91   11.09
  -3   2  -8    4.94   12.10
  -3   2  -8    8.66   16.76
   3  -2   8    4.18    9.42
  -3   2  -7  802.83   68.85
  -3   2  -7  802.94   65.51
   3  -2   7  928.69   65.68
  -3   2  -6  363.11   75.91
  -3   2  -6  370.66   39.75
   3  -2   6  403.47   41.88
  -3   2  -5 1424.67   94.36
  -3   2  -5 1176.47   81.09
   3  -2   5 1053.28   72.68
  -3   2  -4 1487.70   76.62
  -3   2  -4 1573.23   86.63
   3  -2   4 1791.35   85.69
  -3   2  -3  431.83   29.54
  -3   2  -3  416.24   26.34
   3  -2   3  336.08   24.40
  -3   2  -2    0.97   10.27
  -3   2  -2    2.65    6.74
   3  -2   2    2.15   11.84
  -3   2  -1  226.81   16.66
  -3   2  -1  232.09   13.41
  -3   2  -1  275.39   19.55
   3  -2   1  275.88   18.32
   3  -2   0  306.61   18.30
  -3   2   0  299.85   12.44
   3  -2   0  342.16   14.23
  -3   2   0  276.32   20.00
   3  -2   0  292.73   18.68
   3  -2  -1    2.50    9.00
   3  -2  -1   -0.09    2.59
   3  -2  -1    0.23    3.20
  -3   2   1    4.09   12.62
   3  -2  -2  438.64   23.44
  -3   2   2  382.28   27.25
   3  -2  -3  623.07   28.75
  -3   2   3  494.85   34.62
   3  -2  -4  162.22   22.70
  -3   2   4  216.08   31.16
   3  -2  -5   42.23   57.56
  -3   2   5   51.73    6.10
  -3   2   5   45.87    5.91
  -3   2   5   81.73   38.57
   3  -2  -6  742.08   62.34
  -3   2   6  508.54   38.22
  -3   2   6  575.78   81.17
   3  -2  -7 1938.60   66.86
  -3   2   7 1689.55  111.06
  -3   2   7 1791.77  145.43
   3  -2  -8  282.34   44.35
  -3   2   8  205.09   28.00
  -3   2   8  179.03   76.95
   3  -2  -9  142.08   31.28
  -3   2   9  149.03   23.12
  -3   2   9  195.01   60.08
   3  -2 -10   14.20   27.61
  -3   2  10   16.44   40.99
   3  -2 -11   18.31   32.81
  -3   2  11  -11.53   38.14
   3  -2 -12    8.57   27.85
  -3   2  12    4.60   46.31
  -3   3 -12   13.46   32.71
   3  -3  12   12.54   46.31
   3  -3  12   19.22   39.12
  -3   3 -11   45.63   62.21
   3  -3  11   49.66   26.46
   3  -3  11   37.76   57.64
  -3   3 -10    2.49   14.58
   3  -3  10    4.54   18.77
   3  -3  10    2.35    8.35
  -3   3  -9  197.70   39.58
   3  -3   9  169.66   37.24
   3  -3   9  167.92   46.91
  -3   3  -8  212.94   37.73
   3  -3   8  237.42  106.95
   3  -3   8  241.63   33.32
  -3   3  -7 1989.92   72.49
   3  -3   7 1758.60  128.97
   3  -3   7 1790.32  122.60
  -3   3  -6  564.69   57.58
   3  -3   6  658.80   60.48
   3  -3   6  670.40   51.07
  -3   3  -5   69.40   18.04
   3  -3   5   87.17   16.58
   3  -3   5   89.44   13.85
  -3   3  -4   41.87   36.19
   3  -3   4   37.18   35.69
   3  -3   4   42.23   25.87
  -3   3  -3    1.53   12.42
   3  -3   3   10.24   19.52
   3  -3   3    1.50    4.49
   3  -3   3    4.88    8.34
  -3   3  -2  747.89   32.18
   3  -3   2  709.81   27.19
   3  -3   2  697.64   28.07
   3  -3   2  739.39   28.93
  -3   3  -1 1791.19   48.85
   3  -3   1 1791.13   52.82
  -3   3  -1 1687.01   40.40
   3  -3   1 1870.14   44.27
   3  -3   0 2357.39   57.03
   3  -3   0 2356.61   38.75
   3  -3   0 2499.80   41.62
  -3   3   0 2361.64   56.10
   3  -3   0 2603.42   53.50
   3  -3  -1 2147.22   55.02
   3  -3  -1 1928.99   28.33
   3  -3  -1 1992.90   29.12
  -3   3   1 2040.37   57.21
   3  -3  -2  901.84   51.99
  -3   3   2  741.64   49.80
   3  -3  -3   43.24   15.16
  -3   3   3   63.41   19.78
   3  -3  -4    7.39   12.65
  -3   3   4    8.71   32.34
   3  -3  -5    9.45   22.08
  -3   3   5    0.07    1.21
  -3   3   5    0.08    1.63
  -3   3   5    5.39   27.19
   3  -3  -6  188.52   35.24
  -3   3   6  191.51   22.72
  -3   3   6  166.33   40.48
   3  -3  -7  317.48   82.33
  -3   3   7  284.01   30.77
  -3   3   7  207.30   59.92
   3  -3  -8  635.11  106.61
  -3   3   8  509.99   71.23
   3  -3  -9  384.01   65.21
  -3   3   9  334.15   66.15
   3  -3 -10   15.26   39.97
  -3   3  10   16.44   39.20
   3  -3 -11  147.31   37.49
  -3   3  11  112.12   41.89
  -3   4 -12   20.88   53.26
   3  -4  12   11.39   23.47
   3  -4  12   24.23   44.41
  -3   4 -11    3.63   17.21
   3  -4  11   -3.53   26.41
   3  -4  11   -0.48   13.82
  -3   4 -10   24.18   38.93
   3  -4  10   24.15   27.89
   3  -4  10   12.11   18.41
  -3   4  -9   74.30   27.07
   3  -4   9   77.31   25.07
   3  -4   9   98.37   44.90
  -3   4  -8  111.58   26.84
   3  -4   8  112.92   27.11
   3  -4   8   79.68   25.69
  -3   4  -7  398.90   44.85
   3  -4   7  390.89   40.75
   3  -4   7  384.37   31.11
  -3   4  -6  574.31   44.23
   3  -4   6  528.35   36.69
   3  -4   6  461.84   39.75
  -3   4  -5  195.05   33.21
   3  -4   5  159.35   25.90
   3  -4   5  173.13   22.13
  -3   4  -4   24.35   15.13
   3  -4   4   27.02   27.56
   3  -4   4   29.42    7.39
   3  -4   4   25.57   10.54
  -3   4  -3  514.52   42.09
   3  -4   3  496.47   38.28
   3  -4   3  476.25   34.13
   3  -4   3  503.68   35.14
  -3   4  -2  708.84   48.93
   3  -4   2  690.72   38.23
   3  -4   2  662.63   34.74
   3  -4   1  345.28   31.71
   3  -4   1  351.99   25.40
  -3   4  -1  331.46   30.53
   3  -4   1  369.90   22.44
   3  -4   0  302.63   27.47
   3  -4   0  330.82   22.48
   3  -4   0  297.75   18.67
  -3   4   0  288.34   24.62
   3  -4   0  301.96   20.65
   3  -4  -1  918.11   69.30
   3  -4  -1  777.60   49.91
   3  -4  -1  981.43   60.36
  -3   4   1  968.99   69.89
   3  -4  -2   18.71   13.68
   3  -4  -2    9.55    3.48
  -3   4   2   11.06   18.74
   3  -4  -3  129.26   23.50
   3  -4  -3  119.47   12.97
  -3   4   3  140.25   29.99
   3  -4  -4  579.28   44.34
  -3   4   4  641.18   84.49
   3  -4  -5 2500.48   88.44
  -3   4   5 2048.21   21.13
  -3   4   5 1566.21  150.13
   3  -4  -6  514.33   78.39
  -3   4   6  227.96   44.32
   3  -4  -7  327.00   54.00
  -3   4   7  131.91  149.75
   3  -4  -8   32.21   31.88
  -3   4   8   22.80   32.97
   3  -4  -9   -6.59   28.27
  -3   4   9    2.85   31.81
   3  -4 -10   11.08   27.18
  -3   4  10   10.40   34.27
  -3   5 -12    2.24   35.57
   3  -5  12   -2.94   29.84
  -3   5 -11   65.91   39.75
   3  -5  11   47.76   30.38
  -3   5 -10  487.64   73.10
   3  -5  10  582.55   71.56
  -3   5  -9  773.49  130.07
   3  -5   9  740.09  104.03
   3  -5   9  824.41  106.71
  -3   5  -8  608.09   76.14
   3  -5   8  484.04   58.64
   3  -5   8  579.11   58.96
  -3   5  -7  277.66   44.99
   3  -5   7  271.69   38.93
   3  -5   7  304.84   34.91
  -3   5  -6   18.81   27.54
   3  -5   6    4.52   20.32
   3  -5   6    6.52    8.21
  -3   5  -5    6.38   24.36
   3  -5   5   -4.95   17.47
   3  -5   5    0.22    1.95
   3  -5   5    0.68    1.82
  -3   5  -4  216.17   35.89
   3  -5   4  233.81   42.39
   3  -5   4  226.16   26.29
   3  -5   4  268.66   29.18
  -3   5  -3  626.52   57.76
   3  -5   3  528.72   46.99
   3  -5   3  548.38   39.28
   3  -5   3  599.14   42.72
  -3   5  -2  859.41   66.06
   3  -5   2 1044.04   69.15
  -3   5  -2  961.81   59.77
   3  -5   2  958.46   57.57
   3  -5   1 1933.09  128.47
   3  -5   1 1995.01  122.78
  -3   5  -1 2218.15  135.71
   3  -5   1 1881.06  110.92
   3  -5   0   62.38   22.17
   3  -5   0   61.62   11.01
  -3   5   0   57.64   15.16
   3  -5  -1   40.32   16.90
   3  -5  -1   47.43   10.03
  -3   5   1   42.33   10.04
  -3   5   1   56.38   14.83
   3  -5  -2   40.29   16.77
   3  -5  -2   37.24    6.52
  -3   5   2   46.37   19.55
   3  -5  -3   77.53   22.98
   3  -5  -3   96.52   12.99
  -3   5   3   73.70   10.66
  -3   5   3   88.88   24.22
   3  -5  -4   15.73   24.93
  -3   5   4   11.70   26.33
   3  -5  -5   18.04   39.24
  -3   5   5   15.93   32.40
   3  -5  -6  298.62   48.40
  -3   5   6  156.94   40.55
   3  -5  -7  195.05   35.10
  -3   5   7   96.34   34.75
   3  -5  -8    1.65   26.23
  -3   5   8    2.84   31.17
   3  -5  -9  188.29  131.41
  -3   5   9  121.21   47.61
  -3   6 -12  129.93   43.22
   3  -6  12  135.84   40.27
  -3   6 -11   79.88  136.84
   3  -6  11   96.29  115.26
  -3   6 -10  163.13   37.85
   3  -6  10  146.59   75.99
  -3   6  -9   52.74   28.33
   3  -6   9   43.60   52.49
  -3   6  -8  115.04   29.60
   3  -6   8  117.94   64.22
  -3   6  -7   23.85   32.14
   3  -6   7   12.19   20.70
  -3   6  -6   64.58   56.78
   3  -6   6   63.88   22.21
  -3   6  -5  406.92   46.21
   3  -6   5  416.52   39.87
  -3   6  -4 1163.32  115.98
   3  -6   4 1007.76   75.80
  -3   6  -3  793.25   57.69
   3  -6   3  589.19   35.77
   3  -6   2  209.53   29.45
   3  -6   2  236.92   21.02
   3  -6   2  250.76    9.99
   3  -6   1   67.02   26.48
   3  -6   1   72.97   14.30
  -3   6  -1   76.96   11.75
   3  -6   0    6.52   23.74
   3  -6   0    4.69    9.67
  -3   6   0    3.05    8.75
   3  -6  -1   44.40   24.25
   3  -6  -1   43.58   10.69
  -3   6   1   49.58   18.61
   3  -6  -2  403.43   54.83
   3  -6  -2  470.97   49.37
  -3   6   2  391.38   53.87
   3  -6  -3 1503.09  186.12
  -3   6   3 1526.23  206.27
   3  -6  -4  703.00   96.15
  -3   6   4  575.43   83.89
   3  -6  -5  379.06   82.55
  -3   6   5  307.52   56.41
   3  -6  -6   21.13   32.13
  -3   6   6   19.90   37.35
   3  -6  -7    5.81   28.84
  -3   6   7   29.79   33.62
   3  -6  -8   17.54   31.87
  -3   6   8   33.53   37.62
  -3   7 -11  940.68   81.89
   3  -7  11  812.82  102.12
  -3   7 -10  190.88   48.55
   3  -7  10  207.80  119.92
  -3   7  -9  111.16   36.93
   3  -7   9   98.65   38.40
  -3   7  -8    3.88   30.09
   3  -7   8    9.21   14.62
  -3   7  -7    8.07   21.74
   3  -7   7    9.58   18.58
  -3   7  -6   -3.26   25.35
   3  -7   6   -0.86   18.73
  -3   7  -5  114.61   29.63
   3  -7   5   86.64   19.99
  -3   7  -4  269.36   53.23
   3  -7   4  257.54   39.69
   3  -7   3  299.41   50.98
   3  -7   3  384.43   48.02
   3  -7   2  264.29   45.50
   3  -7   2  307.89   40.99
   3  -7   1   12.59   30.21
   3  -7   1    6.51   14.55
  -3   7  -1    3.90    6.29
   3  -7   0  206.19   40.32
   3  -7   0  188.18   27.56
  -3   7   0  218.69   33.37
   3  -7  -1  205.60   41.59
   3  -7  -1  210.86   17.55
  -3   7   1  239.47   30.43
   3  -7  -2  261.09   50.71
  -3   7   2  262.19   42.87
   3  -7  -3    6.99   24.04
  -3   7   3   30.55   26.09
   3  -7  -4  103.66   30.91
  -3   7   4  132.03   35.96
   3  -7  -5   52.64   61.68
  -3   7   5   87.06   38.47
   3  -7  -6   25.64   48.66
  -3   7   6   35.45   31.21
   3  -7  -7   28.16   34.63
  -3   7   7   17.74   35.70
  -3   8 -11   -3.23   28.39
   3  -8  11   10.88   29.78
  -3   8 -10    5.22   29.03
   3  -8  10   -3.77   23.75
  -3   8  -9   -9.94   27.45
   3  -8   9    5.29   27.19
  -3   8  -8   31.41   50.21
   3  -8   8   64.33   26.22
  -3   8  -7  232.94   46.18
   3  -8   7  273.10   47.39
  -3   8  -6  554.04   90.05
   3  -8   6  462.75   64.85
  -3   8  -5  301.02   59.27
   3  -8   5  319.36   52.95
   3  -8   4  779.43  107.34
   3  -8   4  783.52   98.75
   3  -8   3  242.38   45.50
   3  -8   3  285.93   43.00
   3  -8   2   37.90   24.54
   3  -8   2   33.70   14.34
   3  -8   1   -0.36   25.30
   3  -8   1    4.94   10.02
   3  -8   0   97.15   37.27
   3  -8  -1  610.66   86.39
   3  -8  -2  453.08   59.61
   3  -8  -3  217.57   85.62
   3  -8  -4    6.42   18.12
  -3   8   4   14.83   36.63
   3  -8  -5   12.56   27.50
  -3   8   5   13.16   19.59
  -3   9 -10   23.05   40.99
   3  -9  10   45.64   28.60
  -3   9  -9   28.92   58.61
   3  -9   9   25.14   21.91
  -3   9  -8   82.73  155.40
   3  -9   8  116.44   26.91
  -3   9  -7   -7.81   26.49
   3  -9   7    8.23   25.38
  -3   9  -6   29.20   29.64
   3  -9   6   14.66   40.41
   3  -9   5  317.60   67.42
   3  -9   4    8.77   29.36
   3  -9   4   10.73   18.71
   3  -9   3   -3.78   27.33
   3  -9   3   -0.80   15.06
   3  -9   2  163.43   34.75
   3  -9   2  163.11   27.85
   3  -9   1  308.52   59.32
   3  -9   0  266.29   59.26
   3  -9  -1   77.56   44.85
   3  -9  -2   57.07   34.03
   3  -9  -3   29.47   35.30
  -3  10  -8  138.87   48.53
   3 -10   8  142.88   36.14
   3 -10   7  125.80   48.12
   3 -10   7  112.11   34.18
   3 -10   6  142.60   46.03
   3 -10   6  130.65   36.07
   3 -10   5    2.48   36.98
   3 -10   5    9.42   20.12
   3 -10   4   18.31   49.06
   3 -10   4    5.03   12.53
   3 -10   3   20.97   36.38
   3 -10   2   11.64   34.61
   3 -10   1   80.00   40.08
   3 -10   0  242.65   59.52
  -4  -9   1  151.16   38.17
   4   9  -1  172.68   31.89
  -4  -9   2  159.94   42.34
   4   9  -2  144.04   37.10
  -4  -9   3    5.72   20.51
  -4  -9   3   14.67   25.66
   4   9  -3    2.65   22.13
  -4  -9   4   13.49   27.39
  -4  -9   4   11.85   31.48
  -4  -9   5   15.58   21.40
  -4  -9   5   20.73   31.98
  -4  -9   6  160.90   33.18
  -4  -9   6  171.82   45.29
  -4  -9   7    3.89   20.29
  -4  -9   7   11.52   35.96
  -4  -9   8   84.89   31.63
  -4  -9   8   81.63   41.25
   4   9  -9  224.75   49.29
  -4  -9   9  235.10   59.10
   4   9 -10  356.41   56.32
  -4  -9  10  288.86   55.11
  -4  -8  -1   86.98   30.23
  -4  -8  -1   77.88   30.19
   4   8   1   85.88  108.09
  -4  -8   0    5.41   16.79
  -4  -8   0    7.94   27.21
   4   8   0    7.45   20.70
  -4  -8   1   96.63   24.82
  -4  -8   1  110.08   40.56
   4   8  -1  150.42   39.80
  -4  -8   2  379.11   52.62
  -4  -8   2  356.34   61.81
   4   8  -2  381.24   53.63
  -4  -8   3  551.36   69.42
  -4  -8   3  595.37   85.43
   4   8  -3  822.08   48.20
  -4  -8   4  340.77   41.93
  -4  -8   4  379.54   61.02
   4   8  -4  358.12   47.70
  -4  -8   5    6.75   24.33
   4   8  -5   17.50   19.67
  -4  -8   6   20.09   14.44
  -4  -8   6   46.38   37.63
   4   8  -6   25.67   22.47
  -4  -8   7   31.85   21.58
  -4  -8   7   32.22   34.18
   4   8  -7   38.17   20.32
   4   8  -8   12.56   23.66
  -4  -8   8    7.22   33.43
   4   8  -8   11.60   18.98
   4   8  -9   74.24   20.39
  -4  -8   9   56.49   48.06
   4   8 -10  313.03   46.33
  -4  -8  10  339.23   65.69
   4   8 -11   37.67   51.98
  -4  -8  11   39.52   66.02
   4   8 -12   48.31   25.40
  -4  -8  12   57.67   38.58
  -4  -7  -3   83.18   29.27
  -4  -7  -3  109.94   33.92
   4   7   3  110.56   48.32
  -4  -7  -2    3.71   15.08
  -4  -7  -2   -1.02   26.16
   4   7   2    3.70   10.65
  -4  -7  -1  177.59   30.29
  -4  -7  -1  179.13   38.46
   4   7   1  193.93   32.11
  -4  -7   0  302.26   40.83
  -4  -7   0  333.20   52.96
   4   7   0  387.99   62.27
  -4  -7   1  108.91   20.75
  -4  -7   1  115.25   30.46
   4   7  -1  164.11   44.32
  -4  -7   2   45.04   25.62
  -4  -7   2   43.94   33.10
   4   7  -2   54.38   19.66
  -4  -7   3    2.29    9.07
  -4  -7   3    3.99   25.30
   4   7  -3    2.91   18.15
  -4  -7   4   63.76   19.22
  -4  -7   4   54.42   25.53
   4   7  -4   71.15   20.05
  -4  -7   5   10.69   14.72
  -4  -7   5   21.84   28.49
   4   7  -5   10.51   23.53
  -4  -7   6   80.00   20.56
  -4  -7   6   76.95   32.58
   4   7  -6   83.53   22.93
   4   7  -7 1039.93  136.96
  -4  -7   7 1066.34  147.25
  -4  -7   7 1082.76  144.52
   4   7  -8  612.15   85.56
  -4  -7   8  571.28   91.32
  -4  -7   8  508.31   73.23
   4   7  -9  495.18   67.84
  -4  -7   9  397.18   64.37
  -4  -7   9  420.61   57.41
   4   7 -10  220.37   44.28
  -4  -7  10  198.04   43.63
  -4  -7  10  206.77   38.95
   4   7 -11    2.89   12.50
  -4  -7  11    1.35   31.59
  -4  -7  11   -3.25   19.46
   4   7 -12    7.40   25.16
  -4  -7  12   -1.41   29.03
   4   7 -13  106.44   36.81
  -4  -7  13  110.17   34.20
  -4  -6  -5  193.35   57.09
  -4  -6  -5  194.58   42.36
   4   6   5  198.12   43.02
  -4  -6  -4   13.41   20.65
  -4  -6  -4   15.39   25.06
   4   6   4   17.18   16.04
  -4  -6  -3   22.29   36.15
  -4  -6  -3   27.71   28.86
   4   6   3   20.57   22.17
  -4  -6  -2   22.69   27.17
  -4  -6  -2   27.44   37.19
   4   6   2   30.44   38.65
  -4  -6  -1   37.08   30.86
  -4  -6  -1   40.83   23.32
   4   6   1   49.52   49.13
  -4  -6   0  792.21   96.22
  -4  -6   0  736.62   95.83
   4   6   0  816.26  104.28
  -4  -6   1  894.49   90.72
  -4  -6   1  907.36  100.08
   4   6  -1  898.79   98.90
  -4  -6   2  246.68   36.18
  -4  -6   2  262.69   52.07
   4   6  -2  272.74   48.76
  -4  -6   3  115.41   18.23
  -4  -6   3   82.94   25.59
   4   6  -3  108.64   25.96
  -4  -6   4   72.25   15.61
  -4  -6   4   71.75   30.20
   4   6  -4   85.88   25.22
  -4  -6   5  294.00   42.10
  -4  -6   5  258.55   44.97
  -4  -6   5  272.01   43.18
   4   6  -6    3.25    9.76
  -4  -6   6   13.99   27.26
  -4  -6   6    2.64    5.43
   4   6  -7    5.93    7.45
  -4  -6   7    7.62   22.37
  -4  -6   7    3.73    8.10
   4   6  -8  144.13   22.12
  -4  -6   8  144.91   30.08
  -4  -6   8  116.74   41.93
   4   6  -9   63.50   17.92
  -4  -6   9   67.99   27.76
  -4  -6   9   37.71   44.35
   4   6 -10   16.07   21.28
  -4  -6  10   22.84   31.53
  -4  -6  10   21.73   34.32
   4   6 -11  167.87   60.29
  -4  -6  11  175.52   37.90
  -4  -6  11  144.27   74.03
   4   6 -12   99.47  113.92
  -4  -6  12  124.58   35.45
  -4  -6  12  126.20   33.57
   4   6 -13  309.01   63.14
  -4  -6  13  286.76   67.39
  -4  -6  13  285.03   62.84
  -4  -5  -6   95.30   31.50
  -4  -5  -6   62.34   24.93
   4   5   6   49.00   85.54
  -4  -5  -5  105.99   30.14
  -4  -5  -5  118.84   30.99
   4   5   5  110.03   25.98
  -4  -5  -4   30.23   29.08
  -4  -5  -4   45.76   35.91
   4   5   4   30.89   30.17
  -4  -5  -3  334.11   49.58
  -4  -5  -3  329.01   54.91
   4   5   3  287.09   45.51
  -4  -5  -2  725.08   89.83
  -4  -5  -2  745.15   99.24
   4   5   2  821.73  108.89
  -4  -5  -1  280.04   41.07
  -4  -5  -1  270.38   47.68
   4   5   1  235.75   52.44
  -4  -5   0  495.16   55.35
  -4  -5   0  475.95   67.46
   4   5   0  523.15   65.74
  -4  -5   1  334.55   30.79
  -4  -5   1  320.42   43.09
   4   5  -1  315.16   39.28
  -4  -5   2  102.27   18.08
  -4  -5   2   97.19   29.48
   4   5  -2  124.45   28.56
  -4  -5   3    1.84    8.17
  -4  -5   3    6.19   18.90
   4   5  -3    0.81   19.03
  -4  -5   4  282.86   22.63
  -4  -5   4  267.23   30.53
  -4  -5   4  368.67   34.62
   4   5  -5 1208.33   84.65
  -4  -5   5 1459.96  112.40
  -4  -5   5 1107.37   86.11
   4   5  -6 1547.70  107.09
  -4  -5   6 1540.24  119.72
  -4  -5   6 1556.09  115.84
   4   5  -7 1063.12  110.85
  -4  -5   7 1149.39  129.49
  -4  -5   7 1004.75  113.88
   4   5  -8  286.78   43.20
  -4  -5   8  243.62   49.77
  -4  -5   8  234.94   50.82
   4   5  -9    0.57   14.29
  -4  -5   9    6.56   27.48
  -4  -5   9    1.35   16.47
   4   5 -10   37.72   18.96
  -4  -5  10   27.14   27.09
  -4  -5  10   32.72   36.85
   4   5 -11   39.12   51.12
  -4  -5  11   40.16   39.96
  -4  -5  11   41.29   23.09
   4   5 -12  107.55   24.53
  -4  -5  12   80.05   26.83
  -4  -5  12   96.17   28.03
   4   5 -13  503.76   68.53
  -4  -5  13  535.17   76.94
  -4  -5  13  448.25   70.78
   4   5 -14   33.63   23.83
  -4  -5  14   27.79   53.14
  -4  -5  14   47.80   31.90
  -4  -4  -7  249.24   48.34
  -4  -4  -7  250.70   47.77
   4   4   7  261.09   39.98
  -4  -4  -6   15.26   25.09
  -4  -4  -6   12.41   25.79
   4   4   6   15.28   16.68
  -4  -4  -5   20.90   26.59
  -4  -4  -5    8.63   24.36
   4   4   5   10.11   22.80
  -4  -4  -4   79.59   17.45
  -4  -4  -4   79.38   30.58
   4   4   4   74.98   73.03
  -4  -4  -3    3.79   10.65
  -4  -4  -3    2.80   24.29
   4   4   3    8.38   15.66
  -4  -4  -2  192.86   29.03
  -4  -4  -2  197.79   44.76
   4   4   2  193.63   34.41
  -4  -4  -1  820.52   60.84
  -4  -4  -1  926.87   80.25
   4   4   1  907.78   76.63
  -4  -4   0  534.55   30.08
  -4  -4   0  567.02   43.65
   4   4   0  576.18   55.64
  -4  -4   1   10.03    8.31
  -4  -4   1    2.72   19.58
   4   4  -1   14.89   21.34
  -4  -4   2  385.61   35.01
  -4  -4   2  425.95   43.60
   4   4  -2  363.93   45.64
  -4  -4   3  592.41   45.33
  -4  -4   3  627.15   57.37
  -4  -4   3  643.22   60.87
  -4  -4   4  412.49   46.65
  -4  -4   4  552.67   55.05
   4   4  -5   72.98   13.06
  -4  -4   5   54.23   26.93
  -4  -4   5   76.03   65.05
   4   4  -6    9.33    9.22
  -4  -4   6   10.10   34.81
  -4  -4   6   12.21   22.83
   4   4  -7   72.15   18.90
  -4  -4   7   57.22   40.84
  -4  -4   7   55.68   21.90
   4   4  -8  108.78   20.84
  -4  -4   8  103.16   27.73
  -4  -4   8   87.64   28.85
   4   4  -9  249.01   39.25
  -4  -4   9  239.44   46.20
  -4  -4   9  217.91   47.32
   4   4 -10  728.05   81.23
  -4  -4  10  766.14   89.11
  -4  -4  10  732.17   88.96
   4   4 -11  790.53  107.80
  -4  -4  11  918.79  126.91
  -4  -4  11  796.26  117.61
   4   4 -12  649.70   85.92
  -4  -4  12  681.57   89.41
  -4  -4  12  646.89   99.34
   4   4 -13  365.79   60.23
  -4  -4  13  404.21   62.04
  -4  -4  13  406.79   69.95
   4   4 -14    0.07   23.06
  -4  -4  14   11.02   26.65
  -4  -4  14   45.38   34.99
  -4  -3  -8   -2.12   24.55
  -4  -3  -8    4.23   17.23
   4   3   8    6.19   24.62
  -4  -3  -7    5.52   18.67
  -4  -3  -7    1.31   23.57
   4   3   7    3.03   17.42
  -4  -3  -6   -1.38   15.67
  -4  -3  -6   -1.10   22.07
   4   3   6    3.81   23.76
  -4  -3  -5  318.28   45.95
  -4  -3  -5  335.79   53.64
   4   3   5  337.19   54.76
  -4  -3  -4  900.17  109.07
  -4  -3  -4 1026.35  130.93
   4   3   4 1322.73  162.34
  -4  -3  -3 1274.29  130.37
  -4  -3  -3 1274.08  135.84
   4   3   3 1294.62  139.67
  -4  -3  -2  841.10   41.23
  -4  -3  -2  887.29   60.61
   4   3   2  966.20   62.81
  -4  -3  -1  190.48   24.38
  -4  -3  -1  179.94   30.51
   4   3   1  184.07   37.31
  -4  -3   0    4.89    8.23
   4   3   0    2.16    4.55
  -4  -3   0    3.50   19.86
   4   3   0    3.90   21.13
  -4  -3   1   -0.14    3.27
  -4  -3   1    0.16    3.44
  -4  -3   1   10.36   18.34
   4   3  -1    9.98   20.81
  -4  -3   2  419.01   27.67
  -4  -3   2  422.89   38.20
  -4  -3   2  495.35   45.99
  -4  -3   3  405.34   26.84
  -4  -3   3  414.87   27.76
  -4  -3   3  380.57   38.23
  -4  -3   3  501.46   45.43
   4   3  -4 1725.22  106.30
  -4  -3   4 1647.13  100.41
  -4  -3   4 1904.57  123.97
  -4  -3   4 1657.97  114.27
   4   3  -5 1690.91  103.82
  -4  -3   5 1599.74  107.23
  -4  -3   5 1709.26  120.67
   4   3  -6  702.92   55.13
  -4  -3   6  597.65   55.34
  -4  -3   6  668.42   65.85
   4   3  -7   57.50   12.57
  -4  -3   7   61.17   24.11
  -4  -3   7   43.15   22.30
   4   3  -8  500.16   43.82
  -4  -3   8  481.92   47.17
  -4  -3   8  491.37   55.96
   4   3  -9   18.81   13.45
  -4  -3   9   14.26   20.77
  -4  -3   9   22.81   32.39
   4   3 -10    3.46   16.48
  -4  -3  10   -0.04   13.56
  -4  -3  10    5.93   32.47
   4   3 -11   73.38   20.80
  -4  -3  11   62.33   21.09
  -4  -3  11   65.32   31.63
   4   3 -12   62.70   86.56
  -4  -3  12   67.02   67.30
  -4  -3  12  105.21   42.93
   4   3 -13    2.65   15.55
  -4  -3  13   -1.15   19.14
  -4  -3  13   16.60   33.19
   4   3 -14    2.07   17.27
  -4  -3  14   12.64   34.19
  -4  -3  14    6.35   32.47
  -4  -2  -9  224.73   54.54
  -4  -2  -9  220.48   50.01
   4   2   9  236.09   64.17
  -4  -2  -8   13.19   24.13
  -4  -2  -8    0.52   20.05
   4   2   8   -0.92   21.82
  -4  -2  -7   17.04   27.72
  -4  -2  -7    2.98   22.60
   4   2   7   14.43   15.18
  -4  -2  -6  167.44   31.44
  -4  -2  -6  177.39   35.74
   4   2   6  204.36   37.11
  -4  -2  -5  108.96   18.06
  -4  -2  -5   95.78   27.89
   4   2   5  111.92   20.37
  -4  -2  -4   10.45   13.60
  -4  -2  -4   21.06   22.51
   4   2   4   15.83   17.57
  -4  -2  -3  249.59   40.61
  -4  -2  -3  274.89   29.96
   4   2   3  235.60   26.98
  -4  -2  -2   97.01   15.81
  -4  -2  -2  106.23   27.72
   4   2   2   90.75   23.27
  -4  -2  -1    0.69    3.85
   4   2   1    4.31    6.30
  -4  -2  -1    0.99   17.57
   4   2   1    7.15   24.40
  -4  -2   0  411.25   24.80
   4   2   0  435.19   22.23
  -4  -2   0  499.37   42.08
   4   2   0  414.36   42.37
  -4  -2   1  489.15   21.30
  -4  -2   1  573.93   24.87
  -4  -2   1  595.01   39.02
  -4  -2   1  599.92   46.88
  -4  -2   2 3882.35  297.78
  -4  -2   2 4778.30  366.83
   4   2  -3  369.58   17.50
  -4  -2   3  308.30   15.68
  -4  -2   3  325.66   27.85
  -4  -2   3  362.94   34.77
   4   2  -4  191.69   13.02
  -4  -2   4  177.13   11.75
  -4  -2   4  224.76   25.25
  -4  -2   4  178.85   32.04
   4   2  -5   38.33   28.59
  -4  -2   5   24.97   15.52
  -4  -2   5   31.52   22.40
   4   2  -6    3.32    5.94
  -4  -2   6    2.02    8.80
  -4  -2   6    6.99   19.90
   4   2  -7  603.75   52.06
  -4  -2   7  604.58   53.99
  -4  -2   7  708.44   69.61
   4   2  -8  871.17   56.88
  -4  -2   8  757.58   46.16
  -4  -2   8  677.40   57.46
   4   2  -9 1591.55  162.15
  -4  -2   9 1099.08  121.73
  -4  -2   9 1438.79  162.85
   4   2 -10 1521.51  149.03
  -4  -2  10 1233.24  138.26
  -4  -2  10 1335.61  171.00
   4   2 -11  494.58  131.17
  -4  -2  11  570.48   79.53
  -4  -2  11  574.46  112.65
   4   2 -12   44.12   64.62
  -4  -2  12   32.67   17.94
  -4  -2  12   39.81   58.65
   4   2 -13    8.48   20.78
  -4  -2  13    9.60   31.90
  -4  -2  13    3.47   34.19
   4   2 -14    4.88   23.14
  -4  -2  14   -0.88   37.35
  -4  -1 -10   21.54   37.07
  -4  -1 -10   15.59   19.67
   4   1  10   18.51   27.17
  -4  -1  -9  123.36   32.57
  -4  -1  -9  140.99   31.63
   4   1   9  105.04  107.16
  -4  -1  -8  187.36   31.76
  -4  -1  -8  184.57   35.60
   4   1   8  232.96   35.87
  -4  -1  -7  187.88   30.05
  -4  -1  -7  209.07   44.75
   4   1   7  183.61   24.26
  -4  -1  -6  738.01   80.45
  -4  -1  -6  743.71   82.36
   4   1   6  752.65   78.29
  -4  -1  -5 1218.89  126.31
  -4  -1  -5 1215.79  129.02
   4   1   5 1147.23  119.99
  -4  -1  -4 1219.55   56.82
  -4  -1  -4 1237.66   66.06
   4   1   4 1284.70   67.55
  -4  -1  -3  273.32   34.06
  -4  -1  -3  303.85   44.61
   4   1   3  329.76   39.96
  -4  -1  -2   12.32   12.52
  -4  -1  -2    3.09   17.87
   4   1   2   16.13   24.75
  -4  -1  -1  109.80    8.69
   4   1   1  110.83   12.50
  -4  -1  -1  110.32   17.43
   4   1   1  103.84   21.69
  -4  -1   0   21.11    3.80
   4   1   0   22.67    2.94
  -4  -1   0   29.27   13.95
   4   1   0   25.84   19.00
  -4  -1   1  690.78   32.48
  -4  -1   1  710.46   53.32
  -4  -1   2  800.93   33.11
  -4  -1   2  844.31   42.83
   4   1  -3  878.52   38.70
  -4  -1   3 1002.34   53.47
  -4  -1   3  939.65   65.91
   4   1  -4  220.73   15.05
  -4  -1   4  139.58    9.53
  -4  -1   4  213.43   20.00
  -4  -1   4  210.26   35.77
   4   1  -5    7.27   16.73
  -4  -1   5    7.93   11.83
  -4  -1   5   18.32   25.29
   4   1  -6  866.45   59.27
  -4  -1   6  625.56   46.69
  -4  -1   6  676.96   63.64
   4   1  -7  648.77   55.43
  -4  -1   7  507.31   44.63
  -4  -1   7  527.34   58.36
   4   1  -8  280.65   30.91
  -4  -1   8  347.69   32.54
  -4  -1   8  319.59   48.11
   4   1  -9   34.45   17.19
  -4  -1   9   35.23   45.96
  -4  -1   9   50.49   47.95
   4   1 -10  131.93   60.67
  -4  -1  10  101.40   23.32
  -4  -1  10   93.76   38.27
   4   1 -11    3.87   20.18
  -4  -1  11    5.85   15.91
  -4  -1  11   16.90   34.92
   4   1 -12  106.23   27.10
  -4  -1  12   91.61   23.56
  -4  -1  12   99.64   48.46
   4   1 -13  424.13   63.57
  -4  -1  13  371.23   72.05
  -4   0 -10  173.20   36.54
  -4   0 -10  186.76   42.71
   4   0  10  204.86   41.38
  -4   0  -9   76.37   28.73
  -4   0  -9   59.77  104.43
   4   0   9   80.77   79.10
  -4   0  -8  397.09   57.99
  -4   0  -8  318.97   49.08
   4   0   8  409.56   54.50
  -4   0  -7  533.34   62.06
  -4   0  -7  550.99   72.04
   4   0   7  620.55   65.60
  -4   0  -6  170.47   29.27
  -4   0  -6  187.22   31.17
   4   0   6  174.15   28.02
  -4   0  -5   12.27   14.53
  -4   0  -5   13.79   17.52
   4   0   5   12.23   14.72
  -4   0  -4   49.99   15.43
  -4   0  -4   44.75   17.57
   4   0   4   38.86   14.85
  -4   0  -3   24.70   31.68
  -4   0  -3   22.70   15.79
   4   0   3   17.37   20.67
  -4   0  -2  566.11   32.02
  -4   0  -2  589.24   38.06
   4   0   2  632.60   47.20
  -4   0  -1 1281.18   60.19
   4   0   1 1394.55   63.09
  -4   0  -1 1395.97   71.12
   4   0   1 1489.73   85.01
  -4   0   0 4130.30   48.20
  -4   0   0 4635.37  109.33
   4   0  -1 1176.65   17.75
   4   0  -1 1040.48   17.17
  -4   0   1 1075.96   36.08
  -4   0   1 1257.44   51.06
   4   0  -2  706.21   16.47
   4   0  -2  830.52   18.02
  -4   0   2  877.29   28.86
  -4   0   2  648.37   37.35
   4   0  -3   94.76    8.78
  -4   0   3  112.99    8.77
  -4   0   3  124.03   10.84
   4   0  -3   95.38    9.36
  -4   0   3  103.34   23.02
   4   0  -4   18.83   32.08
  -4   0   4   17.82    7.17
   4   0  -4   16.52    4.83
  -4   0   4   37.37   35.10
   4   0  -5  393.81   30.65
  -4   0   5  264.31   22.25
   4   0  -5  298.00   21.49
  -4   0   5  302.26   39.92
   4   0  -6  862.20   59.49
  -4   0   6  828.26   55.31
  -4   0   6  914.06   86.57
   4   0  -7 1424.71  107.48
  -4   0   7 1507.19  109.66
  -4   0   7 1623.76  135.50
   4   0  -8 2074.58   61.91
  -4   0   8 1410.87  102.92
  -4   0   8 1427.43  119.23
   4   0  -9  152.32   29.73
  -4   0   9  139.40   26.41
  -4   0   9  166.68   61.93
   4   0 -10  144.97   59.56
  -4   0  10   99.29   18.72
  -4   0  10  169.98   48.31
   4   0 -11   32.71   70.39
  -4   0  11   51.20   48.84
   4   0 -12   12.25   19.75
  -4   0  12    6.28   38.76
   4   0 -13  -12.67   24.78
  -4   0  13    8.83   38.85
  -4   1 -11    3.92   12.64
   4  -1  11   10.42   33.04
   4  -1  11    1.78    6.86
  -4   1 -10   17.65   21.52
  -4   1 -10   11.15   25.71
   4  -1  10   11.90   19.19
  -4   1  -9  101.69   25.22
  -4   1  -9  113.27   28.75
   4  -1   9  117.15   35.41
  -4   1  -8  565.53   80.45
  -4   1  -8  556.37   78.59
   4  -1   8  590.10   79.13
  -4   1  -7  963.30  101.86
  -4   1  -7  847.24   89.95
   4  -1   7  995.09  128.77
  -4   1  -6  562.27   66.92
  -4   1  -6  545.67   62.72
   4  -1   6  520.83   58.14
  -4   1  -5   55.16   15.23
  -4   1  -5   52.38   17.61
   4  -1   5   79.07   65.90
  -4   1  -4   69.09   17.27
  -4   1  -4   51.92   16.33
   4  -1   4   71.18   64.69
  -4   1  -3  116.37   18.04
  -4   1  -3   82.81   15.56
   4  -1   3   83.48   18.37
  -4   1  -2  133.43   13.83
  -4   1  -2  122.02   16.04
   4  -1   2  109.01   20.10
  -4   1  -1 1357.00   62.18
   4  -1   1 1407.78   64.21
  -4   1  -1 1479.78   71.29
  -4   1  -1 1513.98   80.99
  -4   1   0  592.66   23.22
   4  -1   0  601.23   18.86
  -4   1   0  594.88   24.95
  -4   1   0  638.74   33.21
   4  -1  -1  496.35   17.29
   4  -1  -1  537.28   18.64
  -4   1   1  519.34   20.20
   4  -1  -1  560.95   20.58
  -4   1   1  554.50   35.00
   4  -1  -2  124.68   15.80
   4  -1  -2  118.00   11.99
  -4   1   2  139.62   10.63
   4  -1  -2  127.73   10.09
  -4   1   2  122.73   19.49
   4  -1  -3   81.14   10.00
  -4   1   3   89.73    7.62
   4  -1  -3   76.60    8.81
  -4   1   3   72.96   18.77
   4  -1  -4 1653.95   78.70
  -4   1   4 1924.91   83.28
   4  -1  -4 1594.83   67.67
  -4   1   4 1670.43   96.90
   4  -1  -5 1570.61  100.98
  -4   1   5 1624.10   96.67
   4  -1  -5 1373.03   81.27
  -4   1   5 1542.34  112.85
   4  -1  -6  928.22   74.20
  -4   1   6 1087.26   78.66
  -4   1   6 1108.42  103.83
   4  -1  -7  302.85   26.62
  -4   1   7  245.60   14.22
  -4   1   7  287.06   19.36
  -4   1   7  275.10   48.75
   4  -1  -8    5.55   20.37
  -4   1   8    4.15    6.13
  -4   1   8   18.90   44.48
   4  -1  -9   12.53   25.88
  -4   1   9    1.78    9.35
  -4   1   9    2.11   34.88
   4  -1 -10  107.99   66.68
  -4   1  10  109.43   57.04
   4  -1 -11  444.22   70.28
  -4   1  11  459.51   87.37
   4  -1 -12  890.21  112.21
  -4   1  12  906.14   99.35
  -4   2 -11   55.28   85.31
   4  -2  11   57.28   27.90
   4  -2  11   30.99   53.63
  -4   2 -10  323.27   55.17
   4  -2  10  379.93   67.20
   4  -2  10  354.82   85.95
  -4   2  -9  434.87   61.99
  -4   2  -9  394.91   58.42
   4  -2   9  485.90   60.59
  -4   2  -8  252.34   42.35
  -4   2  -8  293.35   46.78
   4  -2   8  310.97   44.31
  -4   2  -7  125.36   22.44
  -4   2  -7  133.78   27.76
   4  -2   7  168.43   27.48
  -4   2  -6   11.85   18.52
  -4   2  -6    9.21   17.62
   4  -2   6   11.08    7.35
  -4   2  -5   16.66   22.92
  -4   2  -5   12.19   29.55
   4  -2   5   25.02   19.53
  -4   2  -4  185.98   28.23
  -4   2  -4  185.15   42.35
   4  -2   4  216.54   34.76
  -4   2  -3  238.12   39.58
  -4   2  -3  204.12   24.16
   4  -2   3  230.82   25.71
  -4   2  -2 9999.98  756.94
  -4   2  -2 8180.40  617.57
   4  -2   2 9558.34  720.50
  -4   2  -1  326.12   22.79
  -4   2  -1  367.49   46.12
  -4   2  -1  409.19   31.49
   4  -2   0  268.02   20.08
  -4   2   0  211.23   15.41
  -4   2   0  265.68   24.88
   4  -2  -1   64.88   12.20
  -4   2   1   55.27    6.19
   4  -2  -1   64.87    8.30
  -4   2   1   60.44   15.82
   4  -2  -2    4.00   10.40
  -4   2   2    0.90    1.59
   4  -2  -2    1.67    3.49
  -4   2   2   -2.12   17.69
   4  -2  -3   65.31   13.99
  -4   2   3   40.47   17.49
   4  -2  -4  147.75   19.37
  -4   2   4  154.51   29.01
   4  -2  -5  532.65   46.82
  -4   2   5  592.45   67.83
   4  -2  -6  771.05   46.99
  -4   2   6  703.54   63.90
   4  -2  -7  310.10   37.31
  -4   2   7  315.17   22.38
  -4   2   7  275.45   61.49
   4  -2  -8   31.97   20.84
  -4   2   8    6.65   33.93
   4  -2  -9  215.02   30.71
  -4   2   9  191.16   46.27
   4  -2 -10  255.47   42.82
  -4   2  10  192.72   54.04
   4  -2 -11   91.81   38.11
  -4   2  11   80.92   38.41
   4  -2 -12   55.48   29.00
  -4   2  12   53.42   54.44
  -4   3 -11    1.81   15.95
   4  -3  11   -6.28   27.01
   4  -3  11   -1.37   23.87
  -4   3 -10   60.86   91.85
   4  -3  10   76.75   31.12
   4  -3  10   72.63   42.10
  -4   3  -9  151.02   35.47
   4  -3   9  146.15   37.58
   4  -3   9  172.81   24.48
  -4   3  -8  191.81   38.09
   4  -3   8  269.65   51.23
   4  -3   8  253.10   51.13
  -4   3  -7   70.51   20.61
   4  -3   7   82.97   25.36
   4  -3   7   77.44   12.72
  -4   3  -6  141.72   29.82
   4  -3   6  136.95   29.70
   4  -3   6  135.09   32.10
  -4   3  -5  517.74   37.32
  -4   3  -5  564.84   39.58
   4  -3   5  639.61   46.95
  -4   3  -4  479.40   45.54
  -4   3  -4  397.48   39.60
   4  -3   4  452.01   40.80
  -4   3  -3  165.54   27.32
  -4   3  -3  194.59   25.31
   4  -3   3  179.23   24.51
  -4   3  -2   12.83   24.24
  -4   3  -2    9.91   20.49
   4  -3   2   19.13   18.99
  -4   3  -1    2.32    9.93
   4  -3   1    7.79    8.79
  -4   3  -1    4.06    7.48
   4  -3   0    5.54   12.11
   4  -3   0    2.61    4.85
   4  -3   0   -0.62    6.54
  -4   3   0    3.54    9.21
   4  -3  -1   98.69   16.85
   4  -3  -1   95.72    7.61
   4  -3  -1   98.88    6.67
  -4   3   1  102.98   28.66
   4  -3  -2  917.83   64.87
  -4   3   2  983.39   73.74
   4  -3  -3 2558.25  159.37
  -4   3   3 2364.85  158.00
   4  -3  -4 2065.02  109.55
  -4   3   4 2056.43  178.24
   4  -3  -5  772.63   49.62
  -4   3   5  778.74   63.01
   4  -3  -6  208.41   35.17
  -4   3   6  180.58   44.85
   4  -3  -7  102.94   99.22
  -4   3   7   93.61   43.48
   4  -3  -8   56.08   21.80
  -4   3   8   26.67   33.41
   4  -3  -9  359.88   58.72
  -4   3   9  215.35   49.96
   4  -3 -10  564.19   86.69
  -4   3  10  428.13   86.88
   4  -3 -11  348.28  115.04
  -4   3  11  279.70   73.22
  -4   4 -11  476.17   68.22
   4  -4  11  479.70   80.71
   4  -4  11  470.98   62.89
  -4   4 -10  253.23   51.51
   4  -4  10  262.61   48.52
   4  -4  10  217.42   34.89
  -4   4  -9  148.59   77.40
   4  -4   9  144.08   31.29
   4  -4   9  154.61   22.98
  -4   4  -8    9.14   25.62
   4  -4   8    3.29   14.96
   4  -4   8    3.72    5.39
  -4   4  -7    4.12   10.30
   4  -4   7   10.97   21.84
   4  -4   7    5.03    7.77
  -4   4  -6  137.36   26.40
   4  -4   6  121.24   22.41
   4  -4   6  135.27   19.19
  -4   4  -5  386.59   43.00
   4  -4   5  409.52   39.55
   4  -4   5  335.71   26.90
  -4   4  -4 1613.31   79.35
   4  -4   4 1434.87   76.97
   4  -4   4 1442.53   59.87
  -4   4  -3  820.22   67.21
   4  -4   3  726.56   59.26
   4  -4   3  768.81   61.45
  -4   4  -2  526.06   55.90
   4  -4   2  562.46   42.41
   4  -4   1   14.93   12.82
   4  -4   1   29.64    8.09
  -4   4  -1   23.18   24.20
   4  -4   0   78.04   22.52
   4  -4   0   90.89   11.00
   4  -4   0   85.01   10.91
  -4   4   0   88.07   17.00
   4  -4  -1  431.58   41.98
   4  -4  -1  558.65   36.05
   4  -4  -1  476.05   31.41
  -4   4   1  444.14   43.18
   4  -4  -2    1.21   13.68
  -4   4   2    3.30   18.25
   4  -4  -3  206.68   23.15
  -4   4   3  278.28   34.09
   4  -4  -4  513.36   50.33
  -4   4   4  551.71   61.41
   4  -4  -5  128.99   25.90
  -4   4   5  108.56   27.76
   4  -4  -6  188.61   52.47
  -4   4   6  193.85   49.88
   4  -4  -7  284.89   48.92
  -4   4   7  192.74   50.80
   4  -4  -8  730.50   97.35
  -4   4   8  310.89   72.46
   4  -4  -9  356.26   61.32
  -4   4   9  190.17   50.73
   4  -4 -10  153.52   41.12
  -4   4  10   86.35  133.13
  -4   5 -11   17.45   24.14
   4  -5  11   16.83   26.22
  -4   5 -10   19.47   34.45
   4  -5  10   18.53   31.80
  -4   5  -9   16.48   23.23
   4  -5   9   12.75   20.53
  -4   5  -8  164.02  141.65
   4  -5   8  144.12   54.30
   4  -5   8  149.73   15.99
  -4   5  -7  450.26   64.08
   4  -5   7  485.04   56.43
   4  -5   7  508.42   50.90
  -4   5  -6  342.16   52.52
   4  -5   6  357.27   54.66
   4  -5   6  348.49   42.25
  -4   5  -5 1285.99  138.32
   4  -5   5 1369.84  142.57
   4  -5   5 1396.56  138.53
  -4   5  -4   29.76   40.52
   4  -5   4   42.82   15.91
   4  -5   4   35.74   19.19
  -4   5  -3    1.59    8.92
   4  -5   3   -1.01   14.30
   4  -5   3    0.98    6.02
  -4   5  -2    6.52   14.50
   4  -5   2    2.26    5.56
  -4   5  -2    2.83    6.03
   4  -5   2    1.26    4.26
   4  -5   1  196.94   33.30
   4  -5   1  252.28   19.65
  -4   5  -1  285.89   21.88
   4  -5   0  784.51   52.46
   4  -5   0  730.77   34.58
  -4   5   0  692.82   41.00
   4  -5  -1 1208.09   66.80
   4  -5  -1 1175.22   45.26
  -4   5   1 1200.00   67.75
   4  -5  -2 1220.89   95.11
   4  -5  -2 1252.00   79.24
  -4   5   2 1373.80  104.65
   4  -5  -3  408.28   60.13
  -4   5   3  455.71   60.41
   4  -5  -4  105.00   85.77
  -4   5   4  112.57   40.14
   4  -5  -5   12.71   20.57
  -4   5   5   13.09   32.23
   4  -5  -6   12.15   21.20
  -4   5   6   25.13   33.43
   4  -5  -7   30.56   25.02
  -4   5   7   23.05   32.94
   4  -5  -8  317.12   56.07
  -4   5   8  120.72   48.68
   4  -5  -9  336.94   71.05
  -4   5   9  145.26   58.73
  -4   6 -11  160.50   56.85
   4  -6  11  129.21   36.42
  -4   6 -10   28.03   29.64
   4  -6  10   26.54   33.94
  -4   6  -9   26.27   39.38
   4  -6   9   17.01   24.42
  -4   6  -8    7.03   15.56
   4  -6   8   -1.34   22.31
  -4   6  -7   16.95   26.22
   4  -6   7    5.98   22.49
  -4   6  -6  790.05   88.72
   4  -6   6  750.55   79.61
  -4   6  -5  129.08   33.92
   4  -6   5  130.15   43.86
  -4   6  -4  135.29   30.38
   4  -6   4  138.95   23.95
  -4   6  -3    5.15   18.95
   4  -6   3    4.84   11.97
   4  -6   2  142.00   35.26
   4  -6   2  155.27   23.41
   4  -6   1  545.61   56.82
   4  -6   1  654.13   50.04
  -4   6  -1  597.27   46.32
   4  -6   0  161.65   36.57
   4  -6   0  188.25   23.64
  -4   6   0  179.66   25.49
   4  -6  -1    3.05   23.11
   4  -6  -1    2.25    5.31
  -4   6   1    1.95   13.04
   4  -6  -2   82.11   23.95
  -4   6   2   56.25   78.11
   4  -6  -3   12.70   18.28
  -4   6   3   38.52   21.41
   4  -6  -4   12.04   27.81
  -4   6   4   12.35   23.44
   4  -6  -5  338.38   53.08
  -4   6   5  343.48   59.32
   4  -6  -6  582.56   86.03
  -4   6   6  515.62   84.65
   4  -6  -7  607.52   87.72
  -4   6   7  477.80   80.09
   4  -6  -8   56.90   31.07
  -4   6   8   27.90   37.32
  -4   7 -11   33.98   33.57
  -4   7 -10  151.78   45.52
   4  -7  10  196.26   45.01
  -4   7  -9  355.78   67.22
   4  -7   9  369.75   60.45
  -4   7  -8  431.67   64.66
   4  -7   8  356.80   56.39
  -4   7  -7  303.34   51.39
   4  -7   7  307.83  108.89
  -4   7  -6  163.16   85.25
   4  -7   6  129.46   21.60
  -4   7  -5   30.15   49.30
   4  -7   5   29.29   16.77
  -4   7  -4   -4.52   19.54
   4  -7   4   -2.34   14.24
   4  -7   3   50.34   23.02
   4  -7   3   47.90   13.93
   4  -7   2   86.28   25.81
   4  -7   2  113.35   16.65
   4  -7   1  458.48   62.14
   4  -7   1  461.51   54.19
   4  -7   0  762.86   92.66
  -4   7   0  806.39   82.30
   4  -7  -1  370.08   57.87
  -4   7   1  425.21   59.41
   4  -7  -2   23.50   34.30
  -4   7   2   11.19   14.22
   4  -7  -3    4.71   28.22
  -4   7   3   -0.36   19.63
   4  -7  -4   88.97   32.81
  -4   7   4   93.16   28.19
   4  -7  -5   36.01   55.19
  -4   7   5   37.31   26.35
   4  -7  -6    8.68   29.71
  -4   7   6   18.82   32.93
  -4   8 -10   12.29   15.39
   4  -8  10    8.13   27.05
  -4   8  -9    6.39   23.13
   4  -8   9    0.33   13.36
  -4   8  -8    3.40   14.55
   4  -8   8    6.13   23.15
  -4   8  -7   32.43   48.03
   4  -8   7   40.03   30.83
  -4   8  -6   90.82  117.09
   4  -8   6   72.10   75.61
  -4   8  -5    4.07   17.91
   4  -8   5    6.08   16.01
   4  -8   4  332.22   55.01
   4  -8   4  365.46   51.04
   4  -8   3  781.52  107.57
   4  -8   3  812.19   97.39
   4  -8   2  115.06   42.04
   4  -8   2   97.87   48.89
   4  -8   1   36.97   27.57
   4  -8   0    4.63   29.75
   4  -8  -1   24.58   40.22
   4  -8  -2    5.93   24.07
   4  -8  -3  170.04   40.59
   4  -8  -4  299.28   55.84
   4  -8  -5  445.48   70.10
  -4   9  -9   73.35  131.67
   4  -9   9   95.56   80.29
  -4   9  -8   71.05  122.66
   4  -9   8  133.69   40.69
  -4   9  -7   12.43   26.46
   4  -9   7    7.26   21.69
  -4   9  -6   66.53   34.27
   4  -9   6   93.54   31.54
   4  -9   5   28.82   34.51
   4  -9   5   37.33   64.74
   4  -9   4   22.73   34.68
   4  -9   4   23.53   21.58
   4  -9   3    5.07   31.02
   4  -9   3    5.97   14.33
   4  -9   2  192.75   57.95
   4  -9   1  213.44   46.64
   4  -9   0   21.44   32.76
   4  -9  -1   67.22   28.86
   4  -9  -2  151.73   43.45
   4  -9  -3  103.39   32.03
   4 -10   6  124.68   45.58
   4 -10   6   50.62   78.57
   4 -10   5  281.14   65.42
   4 -10   5  283.43   54.08
   4 -10   4  161.23   43.42
   4 -10   3   71.16   31.61
   4 -10   2   -2.72   28.88
   4 -10   1   34.69   42.18
  -5  -9   4    0.38   27.60
  -5  -9   5   64.55   29.73
  -5  -9   6    9.32   35.39
  -5  -9   7   20.19   39.09
  -5  -9   8  286.09   59.24
  -5  -8   0   32.61   25.45
   5   8   0   22.83   33.45
  -5  -8   1   23.18   30.94
   5   8  -1   10.39   33.95
  -5  -8   2   12.64   29.38
   5   8  -2    1.82   25.35
  -5  -8   3    9.37   28.49
   5   8  -3   21.49   23.97
  -5  -8   4  236.19   47.69
   5   8  -4  288.59   48.43
  -5  -8   5  253.51   57.27
   5   8  -5  323.37   55.77
  -5  -8   6  354.47   68.90
   5   8  -6  351.84   59.43
  -5  -8   7  407.21   75.62
   5   8  -7  465.79   74.11
  -5  -8   8   40.30   35.81
   5   8  -8   65.84   35.58
  -5  -8   9    6.27   36.05
  -5  -8  10    3.41   39.01
  -5  -8  11   31.81   41.37
  -5  -7  -2  175.29   36.90
   5   7   2  183.50   38.35
  -5  -7  -1  429.50   67.37
   5   7   1  397.62   58.39
  -5  -7   0  311.88   60.52
   5   7   0  346.06   51.81
  -5  -7   1    2.22   29.78
   5   7  -1    4.78   14.07
  -5  -7   2   48.89   34.65
   5   7  -2   27.08   20.21
  -5  -7   3  253.33   45.44
   5   7  -3  236.29   41.24
  -5  -7   4   25.48   27.71
   5   7  -4   25.65   22.08
  -5  -7   5    5.88   32.60
   5   7  -5   22.41   39.39
  -5  -7   6   52.31   17.64
  -5  -7   6   58.48   32.73
   5   7  -6   60.01   30.27
  -5  -7   7   79.67   19.85
  -5  -7   7   96.41   34.52
  -5  -7   7  104.84   28.76
  -5  -7   8   -2.84   33.05
  -5  -7   8    5.33   17.47
   5   7  -9   92.54   57.04
  -5  -7   9   97.63   35.35
  -5  -7   9   83.64   24.89
   5   7 -10  144.90   84.40
  -5  -7  10  127.97   38.49
  -5  -7  10  138.81   74.65
  -5  -7  11  646.04   94.19
  -5  -7  11  532.16   97.83
   5   7 -12   71.51   33.11
  -5  -7  12   56.99   41.24
  -5  -7  12   30.53   28.60
  -5  -6  -4  355.57   60.78
   5   6   4  408.86   58.91
  -5  -6  -3  329.70   57.25
   5   6   3  328.94   48.39
  -5  -6  -2   89.67   42.51
   5   6   2   87.25   84.09
  -5  -6  -1    6.12   29.18
   5   6   1   -5.55   27.18
  -5  -6   0   12.44   18.57
  -5  -6   0   18.08   27.52
   5   6   0   11.78   27.82
  -5  -6   1   43.03   14.77
  -5  -6   1   57.14   24.20
   5   6  -1   33.46   60.96
  -5  -6   2  126.88   22.19
  -5  -6   2  112.54   30.35
   5   6  -2  137.58   42.93
  -5  -6   3  483.43   60.69
  -5  -6   3  494.15   73.31
   5   6  -3  506.53   76.28
  -5  -6   4  738.33   74.15
  -5  -6   4  662.80   81.09
   5   6  -4  766.80   94.21
  -5  -6   5  885.24   87.18
  -5  -6   5  954.73  106.21
   5   6  -5  913.45  103.70
  -5  -6   6  171.75   28.41
  -5  -6   6  168.14   43.11
  -5  -6   6  196.88   39.71
   5   6  -7   68.09   33.03
  -5  -6   7   77.07   35.12
  -5  -6   7   53.66   66.93
   5   6  -8    5.53    7.28
  -5  -6   8   15.73   38.79
  -5  -6   8    4.23   15.01
   5   6  -9   13.04   12.86
  -5  -6   9   17.04   35.91
  -5  -6   9   21.02   19.18
   5   6 -10  181.25   32.28
  -5  -6  10  146.60   44.01
  -5  -6  10  118.29   29.56
   5   6 -11   88.61   21.96
  -5  -6  11  113.97  105.42
  -5  -6  11  110.48   38.80
   5   6 -12  386.44   54.58
  -5  -6  12  340.52   63.15
  -5  -6  12  359.83   66.10
   5   6 -13   11.49   15.71
  -5  -6  13   15.33   32.35
  -5  -6  13   10.83   12.46
  -5  -5  -5    8.82   22.91
   5   5   5    8.91   19.52
  -5  -5  -4  102.17   39.26
   5   5   4   91.07  118.78
  -5  -5  -3  247.87   35.61
  -5  -5  -3  250.38   47.64
   5   5   3  254.16   45.43
  -5  -5  -2  127.99   20.18
  -5  -5  -2  159.05   32.87
   5   5   2  166.72   36.18
  -5  -5  -1   70.40   13.10
  -5  -5  -1   71.21   34.05
   5   5   1   85.12  105.89
  -5  -5   0  103.15   17.20
  -5  -5   0  126.86   34.16
   5   5   0   89.92  103.55
  -5  -5   1 1299.91  122.99
  -5  -5   1 1261.53  130.04
   5   5  -1 1432.42  147.99
  -5  -5   2  314.48   42.90
  -5  -5   2  305.94   52.45
   5   5  -2  303.91   56.59
  -5  -5   3   62.42   10.36
  -5  -5   3   72.17   22.48
   5   5  -3   73.46   24.67
  -5  -5   4   10.55    8.69
  -5  -5   4   11.16   26.57
  -5  -5   4    9.93   22.09
  -5  -5   5   37.23   10.94
  -5  -5   5   25.63   29.48
  -5  -5   5   38.97   35.54
   5   5  -6   31.92   14.34
  -5  -5   6   41.11   35.63
  -5  -5   6   37.50   30.59
   5   5  -7  186.12   27.29
  -5  -5   7  181.22   38.99
  -5  -5   7  162.49   34.05
   5   5  -8  536.05   58.26
  -5  -5   8  632.31   77.39
  -5  -5   8  468.86   61.30
   5   5  -9 1107.66  145.19
  -5  -5   9 1300.95  176.86
  -5  -5   9 1062.49  147.32
   5   5 -10  601.04   76.09
  -5  -5  10  545.21   80.76
  -5  -5  10  520.40   82.56
   5   5 -11  308.21   48.62
  -5  -5  11  254.54   47.00
  -5  -5  11  241.53   48.55
   5   5 -12   25.48   29.68
  -5  -5  12   30.01   25.76
  -5  -5  12   47.32   40.87
   5   5 -13   -1.02   22.26
  -5  -5  13    1.90   29.70
  -5  -5  13   -9.57   27.07
  -5  -4  -6  375.46   67.86
  -5  -4  -6  397.62   71.50
   5   4   6  414.49   70.15
  -5  -4  -5  698.33   95.25
  -5  -4  -5  691.80  102.28
   5   4   5  730.97   99.02
  -5  -4  -4  226.03   34.76
  -5  -4  -4  230.23   47.51
   5   4   4  175.86   36.68
  -5  -4  -3   51.43   17.29
  -5  -4  -3   46.95   24.38
   5   4   3   53.19   39.40
  -5  -4  -2   11.75   11.59
  -5  -4  -2   17.45   36.86
   5   4   2   13.49   22.54
  -5  -4  -1  187.09   28.17
  -5  -4  -1  190.69   41.72
   5   4   1  199.12   99.62
  -5  -4   0  292.77   33.09
  -5  -4   0  318.15   46.04
   5   4   0  406.28   65.08
  -5  -4   1  623.41   44.42
  -5  -4   1  770.87   66.46
   5   4  -1  550.23   60.38
  -5  -4   2 1027.14   68.08
  -5  -4   2  827.64   72.76
   5   4  -2  978.23   86.66
  -5  -4   3  694.16   47.11
  -5  -4   3  744.81   72.04
  -5  -4   3  716.03   67.52
  -5  -4   4  157.30   20.40
  -5  -4   4  192.76   38.71
  -5  -4   4  166.29   35.53
   5   4  -5   11.28   11.66
  -5  -4   5   13.11   21.92
  -5  -4   5   13.13   22.91
   5   4  -6  122.46   18.55
  -5  -4   6  141.01   29.00
  -5  -4   6  118.61   31.26
   5   4  -7   15.89   12.02
  -5  -4   7   22.48   17.56
  -5  -4   7   12.79   27.15
   5   4  -8  120.33   44.14
  -5  -4   8  132.24   32.28
  -5  -4   8   95.36   28.95
   5   4  -9  131.23   23.33
  -5  -4   9  132.31   29.16
  -5  -4   9  136.63   32.84
   5   4 -10  284.55   44.55
  -5  -4  10  306.75   54.56
  -5  -4  10  294.90   58.81
   5   4 -11    1.49   18.55
  -5  -4  11    0.44   26.38
  -5  -4  11    8.37   42.43
   5   4 -12  142.11   31.98
  -5  -4  12  134.84   37.10
  -5  -4  12  171.77   46.91
   5   4 -13  194.21   39.50
  -5  -4  13  181.53   39.75
  -5  -4  13  177.09   56.01
  -5  -3  -7    4.08   18.60
  -5  -3  -7    6.51   24.14
   5   3   7    5.06   19.06
  -5  -3  -6   -5.20   15.44
  -5  -3  -6   -3.64   27.67
   5   3   6   -3.33   24.68
  -5  -3  -5   27.35   24.51
  -5  -3  -5   43.10   25.67
   5   3   5   38.26   46.94
  -5  -3  -4   50.90   14.29
  -5  -3  -4   76.33   24.83
   5   3   4   73.55   86.16
  -5  -3  -3   13.75   21.95
  -5  -3  -3   18.42   26.10
   5   3   3   18.21   40.87
  -5  -3  -2   66.96   13.76
  -5  -3  -2   49.70   26.77
   5   3   2   55.86   56.71
  -5  -3  -1 1141.76   77.84
  -5  -3  -1 1316.94  100.75
   5   3   1  995.20   82.98
  -5  -3   0  989.03   38.73
  -5  -3   0  935.42   37.86
  -5  -3   0  859.23   58.51
   5   3   0  866.38   59.02
  -5  -3   1  621.15   23.95
  -5  -3   1  599.76   23.32
  -5  -3   1  754.80   54.03
   5   3  -1  735.85   61.47
  -5  -3   2  118.36   31.71
  -5  -3   2   87.88   24.25
  -5  -3   3    4.28   20.41
  -5  -3   3    0.63   11.83
  -5  -3   4    1.69    3.41
  -5  -3   4   -0.08    2.82
  -5  -3   4    2.02   18.35
  -5  -3   4   -1.36   16.27
   5   3  -5  176.48   14.20
  -5  -3   5  167.67   12.34
  -5  -3   5  187.24   24.09
  -5  -3   5  171.12   31.71
   5   3  -6  814.48   45.64
  -5  -3   6  791.60   51.43
  -5  -3   6  858.27   64.97
   5   3  -7 4114.61  115.28
  -5  -3   7 3216.43  103.64
  -5  -3   7 3883.33  118.92
   5   3  -8  137.82   22.17
  -5  -3   8  142.22   28.51
  -5  -3   8  146.64   47.24
   5   3  -9  483.69   54.19
  -5  -3   9  531.69   72.57
  -5  -3   9  545.10   81.17
   5   3 -10   30.03   35.89
  -5  -3  10   23.37   18.92
  -5  -3  10   42.47   28.81
   5   3 -11    1.01   17.64
  -5  -3  11    3.83   18.01
  -5  -3  11   11.50   33.70
   5   3 -12   13.69   32.11
  -5  -3  12    8.42   14.27
  -5  -3  12    6.75   41.43
   5   3 -13   10.16   20.85
  -5  -3  13   17.81   26.05
  -5  -3  13   12.86   36.10
  -5  -2  -8  341.22   64.09
  -5  -2  -8  320.57   66.37
   5   2   8  327.24   58.47
  -5  -2  -7  615.01   83.44
  -5  -2  -7  693.41  105.50
   5   2   7  773.09  107.84
  -5  -2  -6  316.23   40.15
  -5  -2  -6  341.08   52.47
   5   2   6  332.64   54.18
  -5  -2  -5   32.61   15.81
  -5  -2  -5   33.29   22.02
   5   2   5   31.06   38.04
  -5  -2  -4   25.67   17.09
  -5  -2  -4   39.78   21.64
   5   2   4   25.34   24.75
  -5  -2  -3    1.86    7.49
  -5  -2  -3   10.11   20.43
   5   2   3   12.94   24.12
  -5  -2  -2    1.80    6.72
  -5  -2  -2   -5.88   19.17
   5   2   2    0.25   20.48
  -5  -2  -1  302.37   21.11
   5   2   1  305.35   17.42
  -5  -2  -1  292.81   30.93
   5   2   1  301.09   40.10
  -5  -2   0  679.73   47.96
  -5  -2   0  830.51   70.92
   5   2   0  752.93   72.41
  -5  -2   1  342.15   40.84
  -5  -2   1  294.89   46.58
  -5  -2   2   76.90   18.01
  -5  -2   2   87.95   86.19
  -5  -2   3   33.96   14.93
  -5  -2   3   30.79   34.13
   5   2  -4  652.39   39.44
  -5  -2   4  690.87   41.62
  -5  -2   4  635.83   52.78
  -5  -2   4  653.81   60.44
   5   2  -5  573.53   43.52
  -5  -2   5  458.85   34.83
  -5  -2   5  512.67   49.80
  -5  -2   5  581.73   63.40
   5   2  -6   77.91   10.83
  -5  -2   6   83.81   16.15
  -5  -2   6   89.65   35.80
   5   2  -7  321.82   30.75
  -5  -2   7  310.14   34.88
  -5  -2   7  352.73   52.30
   5   2  -8  120.53   18.96
  -5  -2   8  103.96   18.87
  -5  -2   8  124.18   35.03
   5   2  -9    3.99   13.03
  -5  -2   9    7.43   20.26
  -5  -2   9    7.10   29.61
   5   2 -10  112.59   27.33
  -5  -2  10  124.14   30.04
  -5  -2  10  109.65   38.84
   5   2 -11  540.67   69.56
  -5  -2  11  411.28   58.73
  -5  -2  11  605.05   97.09
   5   2 -12  866.17  116.31
  -5  -2  12  466.72   68.73
  -5  -2  12  737.44  119.30
   5   2 -13  560.03   75.33
  -5  -2  13  663.87  104.05
  -5  -1  -9   23.02   20.17
  -5  -1  -9   11.89   41.97
   5   1   9   18.50   25.68
  -5  -1  -8   81.64   22.47
  -5  -1  -8   90.49   30.88
   5   1   8   92.28   43.44
  -5  -1  -7    2.15   14.34
  -5  -1  -7    2.81   11.14
   5   1   7    3.61   17.32
  -5  -1  -6   -0.30   13.08
  -5  -1  -6   -4.32   21.38
   5   1   6    1.94    6.28
  -5  -1  -5   64.20   14.96
  -5  -1  -5   55.32   28.99
   5   1   5   80.94   74.22
  -5  -1  -4    5.87   11.00
  -5  -1  -4    6.53   21.22
   5   1   4   -0.93   23.82
  -5  -1  -3 1730.18  117.63
  -5  -1  -3 1869.62   70.51
   5   1   3 1892.68  125.34
  -5  -1  -2 1346.80   65.04
  -5  -1  -2 1696.86   85.01
   5   1   2 1651.58   89.74
  -5  -1  -1 1010.59   72.12
   5   1   1  944.64   67.14
  -5  -1  -1 1085.80   88.95
   5   1   1  990.72   83.97
  -5  -1   0  316.84   19.25
   5   1   0  375.71   22.69
  -5  -1   0  372.79   36.74
   5   1   0  328.97   44.76
  -5  -1   1   25.23   13.06
  -5  -1   1   39.11   53.71
  -5  -1   2   24.58   16.45
  -5  -1   2   26.01   33.00
  -5  -1   3  104.07   21.29
  -5  -1   3  109.35   41.70
   5   1  -4  917.68   56.42
  -5  -1   4  868.59   61.79
  -5  -1   4  948.56   81.99
   5   1  -5 1955.07  136.80
  -5  -1   5 2317.41  116.11
  -5  -1   5 2251.09  135.94
   5   1  -6  740.43   57.27
  -5  -1   6  725.26   58.43
  -5  -1   6  763.26   77.08
   5   1  -7  498.73   41.64
  -5  -1   7  385.79   34.84
  -5  -1   7  377.90   54.24
   5   1  -8    1.79    8.24
  -5  -1   8    5.04   12.65
  -5  -1   8    0.72   32.37
   5   1  -9   18.15   19.47
  -5  -1   9   24.15   19.29
  -5  -1   9   17.96   37.80
   5   1 -10  145.21   67.38
  -5  -1  10  106.48   26.41
  -5  -1  10  112.77   46.34
   5   1 -11    0.52   18.11
  -5  -1  11    5.39   16.34
  -5  -1  11   -5.34   36.97
  -5  -1  12   27.91   45.71
   5   1 -13   35.68   73.15
  -5  -1  13   36.20  116.18
  -5   0  -9  288.35   46.09
  -5   0  -9  367.60   60.84
   5   0   9  350.32   49.57
  -5   0  -8  211.67   64.88
  -5   0  -8  219.08   41.20
   5   0   8  258.51   64.72
  -5   0  -7   10.98   13.89
  -5   0  -7   17.09   20.97
   5   0   7   25.59   26.72
  -5   0  -6   25.24   13.49
  -5   0  -6   29.63   55.20
   5   0   6   21.28   18.83
  -5   0  -5  269.04   39.30
  -5   0  -5  264.52   44.46
   5   0   5  281.45   43.54
  -5   0  -4   31.65   10.27
  -5   0  -4   31.90   19.24
   5   0   4   37.94   33.61
  -5   0  -3   16.77    7.68
  -5   0  -3   11.93   22.85
   5   0   3   12.27   18.59
  -5   0  -2   86.79   14.55
  -5   0  -2   82.49   26.21
   5   0   2   89.61   30.57
  -5   0  -1   89.50   11.00
   5   0   1   85.23    9.82
  -5   0  -1  109.22   19.12
   5   0   1  105.24   24.13
   5   0   0   15.53    4.13
  -5   0   0   22.84   12.52
  -5   0   0   13.68   21.52
   5   0  -1  195.03   15.66
   5   0  -1  170.03   14.01
  -5   0   1  267.88   29.11
  -5   0   1  183.89   53.94
   5   0  -2  969.94   57.63
   5   0  -2  946.20   56.34
  -5   0   2 1009.44   68.82
  -5   0   2 1052.76   82.79
   5   0  -3 1520.24   90.91
   5   0  -3 1469.46   88.91
  -5   0   3 1184.61   77.49
  -5   0   3 1323.95  102.88
   5   0  -4 1899.10  114.65
  -5   0   4 1755.90  107.21
  -5   0   4 1725.37  107.16
  -5   0   4 1609.88  118.54
   5   0  -5  168.09   22.63
  -5   0   5  168.91   22.86
  -5   0   5  181.25   44.12
   5   0  -6    4.69   12.79
  -5   0   6   -0.26    6.53
  -5   0   6    7.04   29.27
   5   0  -7   11.33   14.41
  -5   0   7    8.78    9.56
  -5   0   7    8.39   29.45
   5   0  -8   70.56   16.69
  -5   0   8   62.02   13.36
  -5   0   8   51.53   30.76
   5   0  -9  669.32   78.25
  -5   0   9  894.38   89.10
  -5   0   9  982.68  126.26
   5   0 -10 1195.61  158.81
  -5   0  10  970.69  154.91
   5   0 -11  604.44   78.73
  -5   0  11  786.86  119.71
   5   0 -12  458.69   65.71
  -5   0  12  363.23   69.37
   5   0 -13   22.85   65.81
  -5   0  13   24.52   37.71
  -5   1 -10  199.02   41.58
  -5   1 -10  234.57   45.81
   5  -1  10  273.78   42.50
  -5   1  -9   15.40   24.65
  -5   1  -9   18.48   23.88
   5  -1   9   23.33   25.47
  -5   1  -8    6.31   17.68
  -5   1  -8    5.72   12.67
   5  -1   8   -4.40   19.19
  -5   1  -7   18.21   17.25
  -5   1  -7   11.92   24.85
   5  -1   7   22.62   14.89
  -5   1  -6  173.94   24.05
  -5   1  -6  182.93   54.19
   5  -1   6  169.49   22.30
  -5   1  -5  718.85   79.59
  -5   1  -5  661.34   78.07
   5  -1   5  829.68   95.25
  -5   1  -4 1270.29   91.40
  -5   1  -4 1358.79  102.71
   5  -1   4 1267.47   99.65
  -5   1  -3 1199.91   53.68
  -5   1  -3 1193.42   62.12
   5  -1   3 1253.80   71.73
  -5   1  -2  327.67   29.19
  -5   1  -2  256.73   35.50
   5  -1   2  325.77   34.02
  -5   1  -1   33.97    7.26
   5  -1   1   33.55    6.48
  -5   1  -1   46.21   13.96
   5  -1   1   23.83   22.76
   5  -1   0   85.48   13.80
   5  -1   0  107.82   12.84
  -5   1   0  113.08   17.18
  -5   1   0  140.25   29.52
   5  -1  -1   20.21    5.04
   5  -1  -1   22.44    6.68
  -5   1   1   20.35    9.01
  -5   1   1   16.72   16.74
   5  -1  -2  242.61   18.89
   5  -1  -2  228.82   26.97
  -5   1   2  197.22   22.11
  -5   1   2  231.31   29.48
   5  -1  -3 1869.03  113.86
  -5   1   3 2010.33  121.42
   5  -1  -3 1806.59  109.65
  -5   1   3 2075.50  144.05
   5  -1  -4   63.81   15.27
  -5   1   4   43.69    9.16
   5  -1  -4   41.79    6.26
  -5   1   4   48.40   24.05
   5  -1  -5  352.89   34.70
  -5   1   5  352.96   28.04
   5  -1  -5  351.93   26.39
  -5   1   5  346.33   50.52
   5  -1  -6    3.37   13.14
  -5   1   6    0.39    3.75
  -5   1   6    0.92   30.92
   5  -1  -7  203.40   30.85
  -5   1   7  151.07   18.11
  -5   1   7  208.43   45.82
   5  -1  -8  741.37   93.38
  -5   1   8  725.20  105.23
   5  -1  -9   82.54   45.57
  -5   1   9   65.04  123.55
   5  -1 -10   51.12   61.76
  -5   1  10   74.34   53.47
   5  -1 -11   -4.82   20.95
  -5   1  11  -11.70   44.49
   5  -1 -12   10.84   29.82
  -5   1  12   15.20   52.96
  -5   2 -10   59.68  101.55
   5  -2  10   70.43  143.71
   5  -2  10   73.71   75.81
  -5   2  -9    7.28   17.93
  -5   2  -9    4.97   13.14
   5  -2   9    7.54   16.67
  -5   2  -8   26.37   39.89
  -5   2  -8   30.03   65.27
   5  -2   8   29.35   23.13
  -5   2  -7  379.75   61.14
  -5   2  -7  333.98  120.39
   5  -2   7  323.62   50.33
  -5   2  -6  373.72   46.39
  -5   2  -6  324.50   43.14
   5  -2   6  323.07   40.19
  -5   2  -5  132.78   20.71
  -5   2  -5  157.02   28.21
   5  -2   5  145.22   34.20
  -5   2  -4   13.35   13.22
  -5   2  -4   11.21   15.71
   5  -2   4   11.08   13.95
  -5   2  -3   52.41   14.42
  -5   2  -3   32.39   42.61
   5  -2   3   42.39   22.94
  -5   2  -2    0.88    9.53
  -5   2  -2    2.45    5.42
   5  -2   2   -1.73   18.92
  -5   2  -1  371.92   29.92
  -5   2  -1  316.79   28.93
  -5   2  -1  400.41   40.25
   5  -2   0 1149.29   75.37
  -5   2   0 1222.99   78.20
  -5   2   0 1354.29   95.32
   5  -2  -1 1650.41  103.44
  -5   2   1 1617.91  101.02
  -5   2   1 1647.73  114.77
   5  -2  -2 1032.94   67.85
  -5   2   2 1266.64   77.61
   5  -2  -2 1052.29   65.57
  -5   2   2 1224.45   90.56
   5  -2  -3  543.21   48.75
  -5   2   3  805.77   56.54
   5  -2  -3  788.99   48.29
  -5   2   3  793.56   68.85
   5  -2  -4   26.21   12.31
  -5   2   4   39.20   24.26
   5  -2  -5    0.25   14.28
  -5   2   5    0.53   31.83
   5  -2  -6   39.40   15.31
  -5   2   6   38.18   34.54
   5  -2  -7  466.37   64.29
  -5   2   7  428.39   77.02
   5  -2  -8  734.87  106.97
  -5   2   8  777.84  104.08
   5  -2  -9  653.95   83.82
  -5   2   9  713.92  106.39
   5  -2 -10  368.78   58.43
  -5   2  10  284.61   64.75
   5  -2 -11    2.02   21.75
  -5   2  11   15.87   39.42
   5  -2 -12    8.23   17.45
  -5   2  12   15.02   40.35
  -5   3 -10    4.22   23.64
   5  -3  10    3.92   33.43
   5  -3  10   -1.55   19.20
  -5   3  -9    0.66   11.77
   5  -3   9    3.88   14.14
   5  -3   9   -0.98   13.38
  -5   3  -8  383.80   61.62
   5  -3   8  396.25   61.40
   5  -3   8  395.86   58.48
  -5   3  -7  106.16   26.27
  -5   3  -7   54.99   65.79
   5  -3   7  102.14   31.93
  -5   3  -6  519.88   60.87
  -5   3  -6  511.08   58.49
   5  -3   6  443.56   53.31
  -5   3  -5  757.28   86.91
  -5   3  -5  748.28   83.89
   5  -3   5  677.35   74.03
  -5   3  -4  136.40   24.71
  -5   3  -4  158.92   46.25
   5  -3   4  184.00   35.35
  -5   3  -3    4.72   14.55
  -5   3  -3    2.81    9.71
   5  -3   3    0.23   18.97
  -5   3  -2  205.26   30.50
  -5   3  -2  173.92   25.74
   5  -3   2  193.88   36.30
  -5   3  -1  233.46   33.20
  -5   3  -1  218.84   27.96
  -5   3  -1  168.10   26.95
   5  -3   0   13.69   13.59
  -5   3   0   11.26   18.89
  -5   3   0   17.37   24.88
   5  -3  -1  121.96   20.22
   5  -3  -1   87.09   12.70
   5  -3  -1  105.71   14.77
  -5   3   1   95.77   25.71
   5  -3  -2  278.12   36.42
   5  -3  -2  222.67   25.54
   5  -3  -2  217.67   25.40
  -5   3   2  209.88   34.81
   5  -3  -3   90.88   20.27
  -5   3   3  114.02   31.94
   5  -3  -4   29.53   29.36
  -5   3   4   22.78   21.23
   5  -3  -5  452.69   44.22
  -5   3   5  469.66   60.78
   5  -3  -6 1997.30   95.14
  -5   3   6 1729.49  218.59
   5  -3  -7  191.88   25.64
  -5   3   7  174.98   43.30
   5  -3  -8  150.34   24.61
  -5   3   8  143.10   55.19
   5  -3  -9   36.57   62.42
  -5   3   9   37.10   39.26
   5  -3 -10    1.86   18.76
  -5   3  10   20.63   48.02
   5  -3 -11   11.26   23.41
  -5   3  11    3.87   44.45
  -5   4 -10   66.49   27.57
   5  -4  10   65.95   89.31
   5  -4  10   46.75   61.26
  -5   4  -9   91.40  120.34
   5  -4   9  120.16   35.24
   5  -4   9  124.12   19.80
  -5   4  -8  818.29   92.56
   5  -4   8  809.56   92.70
   5  -4   8  899.05   40.59
  -5   4  -7  280.50   47.81
   5  -4   7  290.60   47.57
   5  -4   7  333.54   58.83
  -5   4  -6   59.09   72.37
   5  -4   6   66.83   21.62
   5  -4   6   58.09   11.59
  -5   4  -5   10.32   19.20
   5  -4   5    4.45   21.38
   5  -4   5    7.66   11.76
  -5   4  -4    3.93   12.64
   5  -4   4    6.38   15.86
   5  -4   4    0.61    6.50
  -5   4  -3  277.94   32.26
   5  -4   3  264.39   28.35
   5  -4   3  276.21   28.16
  -5   4  -2  776.57   47.87
   5  -4   2  863.99   52.16
   5  -4   2  836.21   50.03
   5  -4   1 1163.90   62.98
   5  -4   1 1269.79   58.08
  -5   4  -1 1245.22   88.33
   5  -4   0 1012.36   55.24
   5  -4   0 1039.68   44.19
  -5   4   0 1062.68   56.96
   5  -4  -1  589.46   38.51
   5  -4  -1  507.73   23.35
  -5   4   1  473.48   40.06
   5  -4  -2   31.48   16.92
  -5   4   2   44.40   19.05
   5  -4  -3    1.82   14.19
  -5   4   3    7.63   23.60
   5  -4  -4    2.85   17.14
  -5   4   4   16.12   27.30
   5  -4  -5   35.24   46.65
  -5   4   5   29.94   32.92
   5  -4  -6  163.98   30.69
  -5   4   6  158.64   45.40
   5  -4  -7  394.67   62.73
  -5   4   7  329.41   67.29
   5  -4  -8  222.31   44.16
  -5   4   8  180.23   63.26
   5  -4  -9   21.34   29.64
  -5   4   9   -4.75   36.45
   5  -4 -10  105.84   30.98
  -5   4  10   54.66   38.67
  -5   5 -10   22.86   31.30
   5  -5  10   24.14   37.56
  -5   5  -9   23.19   26.58
   5  -5   9   13.67   29.77
  -5   5  -8   74.36  100.50
   5  -5   8   91.49   28.67
  -5   5  -7  158.46   29.05
   5  -5   7  167.66   29.28
  -5   5  -6   76.52   25.11
   5  -5   6   71.13   19.57
   5  -5   6   71.16   24.83
  -5   5  -5   16.81   18.47
   5  -5   5   16.45   19.04
   5  -5   5   11.11   15.86
  -5   5  -4  297.99   45.31
   5  -5   4  287.96   68.24
   5  -5   4  315.23   41.86
  -5   5  -3  416.54   52.95
   5  -5   3  368.77   45.45
   5  -5   3  375.14   45.13
   5  -5   2  229.85   31.46
   5  -5   2  213.09   29.39
   5  -5   2  211.42   32.02
   5  -5   1  226.80   45.88
   5  -5   1  231.77   23.36
  -5   5  -1  190.63   29.01
   5  -5   0  391.35   41.09
   5  -5   0  391.22   30.18
  -5   5   0  334.56   34.90
   5  -5  -1    1.79   19.44
   5  -5  -1    1.28    3.73
  -5   5   1    1.21   13.32
   5  -5  -2   77.52   20.94
  -5   5   2   82.88   24.96
   5  -5  -3  383.57   60.93
  -5   5   3  433.68   67.32
   5  -5  -4 1500.81  151.01
  -5   5   4 1830.36  189.92
   5  -5  -5  321.07   53.00
  -5   5   5  320.84   60.65
   5  -5  -6  286.25   51.00
  -5   5   6  270.38   54.53
   5  -5  -7   42.26   73.94
  -5   5   7   28.89   29.38
   5  -5  -8   -4.19   28.57
  -5   5   8   23.63   39.06
   5  -5  -9    3.54   26.29
  -5   5   9   29.87   54.34
  -5   6 -10  314.46   71.39
   5  -6  10  270.75   54.86
  -5   6  -9  207.79   52.53
   5  -6   9  213.13   41.74
  -5   6  -8  100.16   32.83
   5  -6   8  110.59   30.93
  -5   6  -7    3.41   14.89
   5  -6   7    2.43   22.10
  -5   6  -6   -3.30   24.14
   5  -6   6   11.10   26.06
  -5   6  -5   92.14   27.58
   5  -6   5   94.51   20.98
  -5   6  -4  181.43   51.54
   5  -6   4  187.75   21.99
  -5   6  -3  381.98   50.85
   5  -6   3  382.44   44.02
   5  -6   2  875.58  116.43
   5  -6   2  826.03   99.70
   5  -6   1   49.53   22.71
   5  -6   1   60.84   12.51
  -5   6  -1   60.69   30.72
   5  -6   0   11.50   23.98
   5  -6   0    7.00    8.45
  -5   6   0   11.67   11.77
   5  -6  -1   32.58   28.22
  -5   6   1   15.59   26.27
   5  -6  -2   83.61   26.25
  -5   6   2   68.98   28.51
   5  -6  -3   69.73   25.55
  -5   6   3   66.34   26.61
   5  -6  -4   -1.25   23.26
  -5   6   4   11.35   29.52
   5  -6  -5  157.68   43.18
  -5   6   5  144.69   74.25
   5  -6  -6   93.66  108.16
  -5   6   6  165.24   50.63
   5  -6  -7   -6.92   24.19
  -5   6   7    3.01   35.81
   5  -6  -8  183.79   47.10
  -5   6   8  174.06   68.39
  -5   7  -9   31.11   50.00
   5  -7   9   37.16   29.70
  -5   7  -8    9.32   14.73
   5  -7   8    2.82   18.19
  -5   7  -7   12.68   31.15
   5  -7   7   18.72   30.59
  -5   7  -6  176.39   39.77
   5  -7   6  201.62   35.25
  -5   7  -5  410.23   78.20
   5  -7   5  417.19   58.51
  -5   7  -4  355.26   74.60
   5  -7   4  348.70   54.00
   5  -7   3  169.95   38.25
   5  -7   3  151.12   21.37
   5  -7   2   27.85   22.63
   5  -7   2   25.85   11.36
   5  -7   1    1.55   23.04
   5  -7   0   23.74   22.98
   5  -7  -1  179.19   35.25
   5  -7  -2  708.66   96.04
  -5   7   2  769.38   98.24
   5  -7  -3  288.66   50.05
  -5   7   3  333.05   50.71
   5  -7  -4  260.48   55.33
  -5   7   4  311.07   55.42
   5  -7  -5   23.87   26.93
  -5   7   5   17.13   33.61
   5  -7  -6   38.27   24.86
  -5   8  -9   10.59   13.33
   5  -8   9    7.14   18.46
  -5   8  -8    2.82   10.45
   5  -8   8    4.99   13.61
  -5   8  -7    4.90   21.54
   5  -8   7    6.59   20.45
  -5   8  -6   19.49   36.68
   5  -8   6   23.19   29.00
  -5   8  -5   96.61   31.59
   5  -8   5   89.94   20.18
   5  -8   4   74.09   32.44
   5  -8   4   69.63   21.34
   5  -8   3  164.66   38.53
   5  -8   3  200.83   31.65
   5  -8   2   10.62   29.44
   5  -8   1  139.24   44.17
   5  -8   0   93.93   31.25
   5  -8  -1  149.47   43.97
   5  -8  -2   26.07   35.86
   5  -8  -3   51.02   27.27
   5  -8  -4   43.22   27.49
  -5   9  -7  182.77  137.61
   5  -9   7  163.37   33.93
   5  -9   6  103.22   40.49
   5  -9   6  106.31   24.15
   5  -9   5  432.57   70.57
   5  -9   5  430.54   59.97
   5  -9   4  153.60   37.96
   5  -9   3   25.69   30.99
   5  -9   2   -4.98   30.27
   5  -9   1   19.96   29.54
   5  -9   0  185.41   42.86
   5  -9  -1  160.52   51.49
   5  -9  -2  118.90   45.80
  -6  -8   3   -5.20   31.70
   6   8  -3   -2.91   29.75
  -6  -8   4   13.03   36.05
   6   8  -4   15.67   43.83
  -6  -8   5  112.61   38.12
   6   8  -5  140.50   47.26
  -6  -8   6   11.95   28.91
   6   8  -6    8.01   29.20
  -6  -8   7   79.25   38.82
   6   8  -7   67.24   31.06
  -6  -8   8  269.07   63.14
   6   8  -8  283.07   69.78
  -6  -8   9  301.78   60.66
  -6  -8   9  348.83   55.98
  -6  -7   0   55.08   29.04
   6   7   0   74.42   32.17
  -6  -7   1  304.90   62.20
   6   7  -1  346.70   58.67
  -6  -7   2  453.20   69.71
   6   7  -2  486.93   70.98
  -6  -7   3  220.57   47.30
   6   7  -3  299.04   60.71
  -6  -7   4   25.26   30.90
   6   7  -4   21.08   25.34
  -6  -7   5   31.50   28.05
   6   7  -5   22.35   31.88
  -6  -7   6   17.62   33.63
   6   7  -6   26.58   32.71
  -6  -7   7    7.64   35.22
  -6  -7   7   15.37   21.13
  -6  -7   8   38.50   34.56
  -6  -7   8   34.19   62.21
  -6  -7   9  254.42   60.09
  -6  -7   9  255.18   55.93
  -6  -7  10   45.89   30.46
  -6  -7  10   22.38   54.04
  -6  -7  11   21.06   31.74
  -6  -7  11   28.97   42.06
  -6  -6  -2  101.68   30.53
   6   6   2  122.20   38.97
  -6  -6  -1  214.29   53.95
   6   6   1  217.23  100.92
  -6  -6   0  142.32   44.06
   6   6   0  140.57  108.27
  -6  -6   1   64.34   31.12
   6   6  -1   66.89  107.91
  -6  -6   2    4.95   29.30
   6   6  -2    3.49   32.40
  -6  -6   3   37.22   32.04
   6   6  -3   28.00   28.11
  -6  -6   4    7.52   26.87
   6   6  -4    1.08   27.22
  -6  -6   5   40.10   25.28
   6   6  -5   50.27   28.92
  -6  -6   6  858.72  114.09
  -6  -6   6 1040.40  133.80
  -6  -6   7  380.49   67.09
  -6  -6   7  475.98   70.10
  -6  -6   8  466.64   65.39
  -6  -6   8  445.09   60.38
  -6  -6   9  183.68   52.17
  -6  -6   9  169.15   82.49
  -6  -6  10    8.27   30.09
  -6  -6  10    3.31   23.82
  -6  -6  11   15.83   30.80
  -6  -6  11   14.07   25.65
  -6  -6  12  121.08   41.61
  -6  -6  12   94.93   40.69
  -6  -5  -4   16.97   27.75
   6   5   4    2.07   22.60
  -6  -5  -3   27.31   39.58
   6   5   3   33.90   42.78
  -6  -5  -2   12.66   28.56
   6   5   2    5.52   20.68
  -6  -5  -1  598.93   84.29
   6   5   1  566.49   85.14
  -6  -5   0  547.02   82.77
   6   5   0  483.19  143.59
  -6  -5   1  129.99   34.47
   6   5  -1  120.21   36.23
  -6  -5   2   66.91   28.74
   6   5  -2   66.37   28.65
  -6  -5   3   31.93   22.27
   6   5  -3   59.50   45.57
  -6  -5   4  196.75   40.52
   6   5  -4  261.69   58.04
  -6  -5   5    6.47   23.17
  -6  -5   5    7.70   18.51
  -6  -5   6   16.73   26.18
  -6  -5   6   13.35   20.94
  -6  -5   7   51.67   29.25
  -6  -5   7   51.85   45.80
  -6  -5   8   44.10   36.19
  -6  -5   8   21.91   31.44
  -6  -5   9   28.60   28.51
  -6  -5   9   18.50   25.42
  -6  -5  10  155.63   31.76
  -6  -5  10  158.81   36.18
  -6  -5  11  158.34   39.22
  -6  -5  11  161.71   48.34
  -6  -5  12  229.89   50.60
  -6  -5  12  331.38   60.84
  -6  -5  13  360.86   66.03
  -6  -5  13  402.02   79.78
  -6  -4  -5   20.05   25.74
   6   4   5   21.91   21.01
  -6  -4  -4  186.75   40.38
   6   4   4  206.93   68.09
  -6  -4  -3  439.24   69.04
   6   4   3  436.80   68.11
  -6  -4  -2  218.07   39.69
   6   4   2  223.34   71.12
  -6  -4  -1  366.47   62.75
   6   4   1  333.11   56.70
  -6  -4   0  270.24   55.95
   6   4   0  246.04   44.86
  -6  -4   1   52.44   34.35
   6   4  -1   47.65   32.58
  -6  -4   2   11.51   25.09
   6   4  -2   14.81   29.36
  -6  -4   3  212.79   43.12
   6   4  -3  160.07   38.03
  -6  -4   4  752.88   99.94
  -6  -4   4  906.29  120.81
  -6  -4   5 1377.36  170.27
  -6  -4   5 1200.82  170.70
  -6  -4   6  770.51   88.21
  -6  -4   6  744.93   88.39
  -6  -4   7  153.31   31.15
  -6  -4   7  145.93   38.94
  -6  -4   8   13.50   27.02
  -6  -4   8    8.56   22.62
   6   4  -9   32.69   49.61
  -6  -4   9   44.01   35.85
  -6  -4   9   57.56   42.42
   6   4 -10   18.10   15.20
  -6  -4  10   16.11   26.56
  -6  -4  10   19.70   35.29
   6   4 -11   61.15   32.47
  -6  -4  11   64.00   34.38
  -6  -4  11   30.27   38.38
   6   4 -12  372.94   55.62
  -6  -4  12  297.98   56.84
  -6  -4  12  354.17   68.21
  -6  -4  13   14.36   28.43
  -6  -4  13   35.33   32.37
  -6  -3  -6   16.28   23.44
   6   3   6   17.49   33.20
  -6  -3  -5   36.16   28.18
   6   3   5   33.30   34.08
  -6  -3  -4   19.77   26.57
   6   3   4   12.90   36.42
  -6  -3  -3   65.80   27.70
   6   3   3   75.99   28.72
  -6  -3  -2  375.33   65.95
   6   3   2  324.28   56.91
  -6  -3  -1  250.72   39.65
   6   3   1  271.33   49.16
  -6  -3   0   20.46   26.33
   6   3   0   12.76   28.30
  -6  -3   1  255.09   43.09
   6   3  -1  206.03   40.61
  -6  -3   2  433.49   57.23
   6   3  -2  442.05   64.98
  -6  -3   3  387.54   53.78
  -6  -3   3  439.55   77.11
  -6  -3   4  109.24   20.38
  -6  -3   4   99.57  106.09
  -6  -3   5   23.65   15.73
  -6  -3   5   26.16   33.71
  -6  -3   6   77.10   19.77
  -6  -3   6   68.17   85.08
   6   3  -7   90.41   14.73
  -6  -3   7   80.80   22.04
  -6  -3   7   72.15   30.92
   6   3  -8  209.23   20.59
  -6  -3   8  171.67   27.77
  -6  -3   8  149.14   35.17
   6   3  -9  833.61  109.53
  -6  -3   9  587.24   84.04
  -6  -3   9  656.56  101.09
   6   3 -10  932.13  109.97
  -6  -3  10  897.96  111.91
  -6  -3  10  797.06  112.40
   6   3 -11  681.96   81.94
  -6  -3  11  663.31   87.51
  -6  -3  11  713.33  104.88
   6   3 -12  404.82   53.64
  -6  -3  12  306.46   53.68
  -6  -3  12  380.53   70.07
   6   3 -13    4.73   10.30
  -6  -3  13   12.22   37.86
  -6  -2  -7    4.84   11.83
   6   2   7   -0.42   22.53
  -6  -2  -6  135.21   32.35
   6   2   6  119.92   26.13
  -6  -2  -5  448.82   65.37
   6   2   5  563.82   81.14
  -6  -2  -4  669.04   89.85
   6   2   4  710.23   91.65
  -6  -2  -3  540.39   82.71
   6   2   3  544.77   76.08
  -6  -2  -2   90.30    9.84
  -6  -2  -2  122.95   27.27
   6   2   2   96.53   27.08
  -6  -2  -1    0.62    2.36
  -6  -2  -1   -0.93   24.39
   6   2   1    5.54   28.56
  -6  -2   0    7.02   26.04
   6   2   0   -3.54   30.63
  -6  -2   1  234.96   34.51
   6   2  -1  272.86   43.67
  -6  -2   2  165.86   32.69
  -6  -2   2  159.23   36.14
  -6  -2   3 1143.22   62.95
  -6  -2   3 1006.09   88.80
  -6  -2   4 1109.89   84.70
  -6  -2   4  946.00   86.76
   6   2  -5  391.57   26.32
  -6  -2   5  366.58   36.40
  -6  -2   5  385.33   69.34
   6   2  -6   10.67   15.31
  -6  -2   6    3.58   15.68
  -6  -2   6   15.44   43.55
   6   2  -7  581.78   61.66
  -6  -2   7  479.87   57.63
  -6  -2   7  515.24   81.74
   6   2  -8    2.44    9.27
  -6  -2   8    0.92   16.89
  -6  -2   8    8.57   35.15
   6   2  -9    1.65   13.88
  -6  -2   9   10.81   22.48
  -6  -2   9   37.45   49.73
   6   2 -10    9.17   13.36
  -6  -2  10    6.00   25.00
  -6  -2  10   22.65   37.27
   6   2 -11   46.06   19.70
  -6  -2  11   22.77   17.11
  -6  -2  11   39.98   43.44
   6   2 -12   16.59   22.45
  -6  -2  12   -7.72   39.07
   6   2 -13   10.20   18.31
  -6  -2  13   -0.74   38.52
  -6  -1  -8   13.46   32.70
   6   1   8   12.53   13.86
  -6  -1  -7   79.85   22.25
  -6  -1  -7   88.49   30.63
   6   1   7   74.83   70.88
  -6  -1  -6   76.36   17.09
  -6  -1  -6   70.55   35.35
   6   1   6   63.49   74.90
  -6  -1  -5   -2.98   12.30
  -6  -1  -5   12.38   27.43
   6   1   5    5.46   20.54
  -6  -1  -4   53.88   13.02
  -6  -1  -4   66.10   23.94
   6   1   4   62.13   22.82
  -6  -1  -3   17.58   24.78
  -6  -1  -3   23.93   19.18
   6   1   3   29.73   32.98
  -6  -1  -2    1.98    6.01
  -6  -1  -2    0.26   23.28
   6   1   2   -3.21   31.04
  -6  -1  -1  183.52   21.82
  -6  -1  -1  212.65   39.14
   6   1   1  190.49   45.76
  -6  -1   0  439.11   43.10
   6   1   0  363.96   53.39
  -6  -1   1 2717.77  114.98
  -6  -1   1 2898.19  330.27
  -6  -1   2  295.32   28.81
  -6  -1   2  347.56   61.09
  -6  -1   3  155.62   23.17
  -6  -1   3  164.14   43.46
  -6  -1   4   16.66   11.15
  -6  -1   4    9.81   24.78
   6   1  -5    0.26    3.99
  -6  -1   5    3.76   10.94
  -6  -1   5   -3.40   26.15
   6   1  -6  411.54   32.37
  -6  -1   6  463.08   40.47
  -6  -1   6  482.51   58.84
   6   1  -7  575.10   61.96
  -6  -1   7  575.62   65.70
  -6  -1   7  537.92   76.19
   6   1  -8  956.66  103.91
  -6  -1   8  856.21   86.58
  -6  -1   8  999.51  117.48
   6   1  -9  968.09  116.18
  -6  -1   9  999.32  120.45
  -6  -1   9 1082.20  148.63
   6   1 -10  567.21   73.74
  -6  -1  10  524.79   87.70
   6   1 -11   36.65   25.41
  -6  -1  11   50.65   54.00
   6   1 -12    3.66   22.40
  -6  -1  12   22.19   47.55
   6   1 -13    1.25    8.52
  -6  -1  13    0.85   39.75
  -6   0  -8   37.55   74.74
  -6   0  -8   61.76   52.89
   6   0   8   72.93   55.88
  -6   0  -7  252.85   44.03
  -6   0  -7  235.86   44.93
   6   0   7  260.70   53.82
  -6   0  -6  458.61   51.28
  -6   0  -6  484.83   63.90
   6   0   6  676.02  153.19
  -6   0  -5  447.83   62.70
   6   0   5  554.29   90.98
  -6   0  -4  127.83   20.54
  -6   0  -4  140.76   25.20
   6   0   4  145.05  122.29
  -6   0  -3    0.46    6.94
  -6   0  -3    7.45   20.67
   6   0   3   -1.33   23.66
  -6   0  -2   42.31    9.68
  -6   0  -2   40.93   19.12
   6   0   2   38.58   22.99
  -6   0  -1    7.13   11.15
  -6   0  -1    5.23   16.00
   6   0   1   20.55   28.92
   6   0   0  111.23    7.64
   6   0   0  102.97    7.63
  -6   0   0  106.03   18.31
  -6   0   0   79.69   29.00
  -6   0   1  424.68   30.57
  -6   0   1  416.24   44.20
  -6   0   2  241.37   23.06
  -6   0   2  416.73   40.63
   6   0  -3  106.54    7.72
   6   0  -3   94.95    8.64
  -6   0   3   91.92   14.68
  -6   0   3   95.47   28.76
   6   0  -4    2.59    3.59
   6   0  -4    1.86    3.39
  -6   0   4    2.86    8.36
  -6   0   4    5.41   27.12
   6   0  -5  589.17   44.06
  -6   0   5  512.94   40.93
  -6   0   5  567.85   64.30
   6   0  -6  474.32   38.79
  -6   0   6  439.77   36.78
  -6   0   6  462.17   62.79
   6   0  -7  399.24   53.30
  -6   0   7  379.65   47.87
  -6   0   7  310.86   56.23
   6   0  -8   94.42   25.08
  -6   0   8   92.97   12.97
  -6   0   8   78.33   40.04
   6   0  -9   71.44   16.75
  -6   0   9   98.03   45.31
   6   0 -10    5.18   13.98
  -6   0  10    6.13   41.88
   6   0 -11   78.25   79.96
  -6   0  11   99.17   60.94
   6   0 -12  369.41   57.51
  -6   0  12  361.35   92.24
  -6   1  -9  126.97   28.41
  -6   1  -9  169.22   40.42
   6  -1   9  145.94   30.43
  -6   1  -8  273.77   44.42
  -6   1  -8  278.86   45.36
   6  -1   8  299.87   44.53
  -6   1  -7  107.95   21.43
  -6   1  -7  149.64   31.11
   6  -1   7  108.20   22.19
  -6   1  -6   -5.28   13.84
  -6   1  -6    2.86   14.26
   6  -1   6    1.28   11.55
  -6   1  -5   19.84   13.65
   6  -1   5   12.99   16.77
  -6   1  -4    6.36    8.16
  -6   1  -4    8.55    9.90
   6  -1   4   14.24   27.48
  -6   1  -3  210.06   27.13
  -6   1  -3  222.50   34.12
   6  -1   3  285.67   51.74
  -6   1  -2  766.54   55.45
  -6   1  -2  768.28   60.90
   6  -1   2  750.78   68.37
  -6   1  -1 1729.61   67.80
  -6   1  -1 1432.43   69.71
   6  -1   1 1945.07  104.83
   6  -1   0  643.16   29.73
  -6   1   0  749.20   44.88
  -6   1   0  842.24   63.03
   6  -1  -1  354.96   18.09
   6  -1  -1  327.91   23.92
  -6   1   1  409.59   28.79
  -6   1   1  368.84   38.71
   6  -1  -2   65.37    8.01
   6  -1  -2   78.76    9.61
  -6   1   2   72.70   11.14
  -6   1   2   64.80   74.82
   6  -1  -3    3.79    8.49
  -6   1   3    5.85   10.18
  -6   1   3   10.08   37.85
   6  -1  -4   83.79   11.61
  -6   1   4  121.14   13.37
  -6   1   4  119.04   33.07
   6  -1  -5  477.22   38.81
  -6   1   5  541.31   39.75
  -6   1   5  423.70   57.66
   6  -1  -6  963.74  101.24
  -6   1   6  932.33   92.84
  -6   1   6  833.05  103.66
   6  -1  -7  915.42  110.67
  -6   1   7  900.62  126.96
   6  -1  -8  100.99   37.33
  -6   1   8  104.74   46.12
   6  -1  -9  138.73   29.04
  -6   1   9  129.12   53.04
   6  -1 -10   19.17   33.95
  -6   1  10   43.69   45.42
   6  -1 -11   32.17   56.04
  -6   1  11   51.77   47.58
   6  -1 -12    3.75    9.75
  -6   1  12   22.81   49.53
  -6   2  -9  178.50   43.84
  -6   2  -9  184.99   47.57
   6  -2   9  198.73   39.00
  -6   2  -8  283.72   44.69
  -6   2  -8  321.48   65.00
   6  -2   8  322.82   47.10
  -6   2  -7  161.96   28.84
  -6   2  -7  137.73   27.81
   6  -2   7  199.03   56.53
  -6   2  -6   20.62   15.71
  -6   2  -6   15.59   31.26
  -6   2  -5   19.38   16.08
  -6   2  -5   35.31   30.61
   6  -2   5   20.91   21.57
  -6   2  -4   46.64   14.51
  -6   2  -4   37.49   31.88
   6  -2   4   36.76   48.80
  -6   2  -3   55.23   11.77
  -6   2  -3   44.24   14.64
   6  -2   3   69.64   27.40
  -6   2  -2  858.94   62.99
  -6   2  -2  743.06   59.55
   6  -2   2 1050.14   88.15
  -6   2  -1  174.10   24.72
  -6   2  -1  244.15   44.78
  -6   2  -1  203.71   37.42
   6  -2   0  152.91   16.92
  -6   2   0  200.08   28.38
  -6   2   0  185.25   48.59
   6  -2  -1   31.27   11.92
  -6   2   1   43.78   11.01
  -6   2   1   39.12   46.31
   6  -2  -2   43.70   12.74
  -6   2   2   40.08    7.10
  -6   2   2   37.70   33.54
   6  -2  -3 1079.64   51.71
  -6   2   3 1042.42   40.93
  -6   2   3  970.85   69.05
   6  -2  -4  972.23   71.20
  -6   2   4  959.26   62.16
  -6   2   4 1010.00   93.31
   6  -2  -5  799.70   86.41
  -6   2   5  765.92   97.40
   6  -2  -6  214.63   32.61
  -6   2   6  255.30   63.81
   6  -2  -7   15.79   15.98
  -6   2   7   22.19   34.00
   6  -2  -8    1.10   15.05
  -6   2   8    0.05   31.40
   6  -2  -9   44.38   64.87
  -6   2   9   31.94   46.75
   6  -2 -10  411.42   67.61
  -6   2  10  348.11   77.56
   6  -2 -11  766.43   58.06
  -6   2  11  585.94  115.56
  -6   3  -9   91.44   31.21
   6  -3   9  121.27   36.37
   6  -3   9   98.26   21.04
  -6   3  -8   55.51   82.48
   6  -3   8   59.97  111.31
   6  -3   8   59.48   57.02
  -6   3  -7   11.77   20.09
  -6   3  -7   14.30   22.44
   6  -3   7    3.60    8.86
  -6   3  -6   13.49   16.64
  -6   3  -6   10.76   19.52
   6  -3   6    1.49   13.29
  -6   3  -5   78.03   18.08
  -6   3  -5   88.03   20.92
   6  -3   5   70.31   17.08
  -6   3  -4  101.91   21.72
  -6   3  -4  121.48   19.24
   6  -3   4   92.38   19.03
  -6   3  -3 3576.28  102.06
  -6   3  -3 3344.04  361.79
   6  -3   3 3712.52  107.34
  -6   3  -2  224.79   47.62
  -6   3  -2  327.11   41.84
   6  -3   2  302.06   48.85
   6  -3   1  104.04   18.89
  -6   3  -1  114.42   18.37
  -6   3  -1  127.27   25.80
   6  -3   0   31.12   14.56
  -6   3   0   25.49   33.91
  -6   3   0   23.86   39.76
   6  -3  -1    2.44   11.74
  -6   3   1    1.21    3.27
  -6   3   1    0.45   19.67
   6  -3  -2    7.21   12.14
   6  -3  -2    4.36    6.32
  -6   3   2    0.01   21.09
   6  -3  -3   58.53   28.46
  -6   3   3   36.01   20.87
   6  -3  -4  187.81   27.56
  -6   3   4  201.49   38.69
   6  -3  -5  292.51   43.11
  -6   3   5  325.88   59.89
   6  -3  -6  286.21   31.72
  -6   3   6  248.45   45.56
   6  -3  -7   13.29   18.60
  -6   3   7   24.47   44.15
   6  -3  -8  190.89   37.49
  -6   3   8  193.60   70.78
   6  -3  -9  191.24   40.77
  -6   3   9  176.88   58.36
   6  -3 -10  106.06  117.82
  -6   3  10   69.53  107.57
  -6   4  -9   61.02   32.18
   6  -4   9   54.84   30.00
  -6   4  -8   34.15   24.42
   6  -4   8   22.63   26.45
   6  -4   8   34.92   39.88
  -6   4  -7   50.22   28.43
   6  -4   7   44.70   26.54
   6  -4   7   40.92   52.17
  -6   4  -6  238.40   38.80
   6  -4   6  218.67   61.35
   6  -4   6  267.80   40.23
  -6   4  -5  153.22   30.62
   6  -4   5  175.32   30.35
   6  -4   5  197.72   33.94
  -6   4  -4  183.82   28.57
   6  -4   4  223.39   33.33
   6  -4   4  161.89   30.84
  -6   4  -3    9.04   14.75
   6  -4   3    7.81   14.22
   6  -4   3   13.86   18.17
  -6   4  -2    0.73   12.33
   6  -4   2    1.39   12.09
   6  -4   2    9.24   19.24
   6  -4   1   -1.88   14.18
   6  -4   1   -0.06   12.07
  -6   4  -1    1.80    7.79
   6  -4   0   69.39   19.83
   6  -4   0   62.17    9.91
  -6   4   0   58.98   60.78
   6  -4  -1  434.01   51.54
   6  -4  -1  427.80   44.92
  -6   4   1  431.21   57.02
   6  -4  -2 1137.51  127.50
  -6   4   2 1138.00  127.48
   6  -4  -3 1039.21  127.66
  -6   4   3 1275.97  160.95
   6  -4  -4  658.22   70.62
  -6   4   4  541.45   72.39
   6  -4  -5  155.29   30.53
  -6   4   5  177.81  104.75
   6  -4  -6  121.18   27.25
  -6   4   6  114.93   37.67
   6  -4  -7   12.46   31.32
  -6   4   7   22.19   40.55
   6  -4  -8  148.55   44.27
  -6   4   8  119.74   46.79
   6  -4  -9  318.42   50.79
  -6   4   9  247.30   58.74
  -6   5  -9    7.08   26.45
   6  -5   9    2.85   18.22
  -6   5  -8   -8.78   23.47
   6  -5   8   -4.32   25.04
  -6   5  -7   26.41   20.11
   6  -5   7   28.84   26.75
  -6   5  -6   94.04  123.96
   6  -5   6  132.39   26.88
  -6   5  -5  397.05   60.69
   6  -5   5  433.25   64.42
   6  -5   5  467.73   63.99
  -6   5  -4  293.01   52.68
   6  -5   4  298.01   43.14
   6  -5   4  282.29   41.29
  -6   5  -3  180.19   32.10
   6  -5   3  199.49   19.86
   6  -5   3  200.76   24.56
   6  -5   2   12.44   27.81
   6  -5   2   13.52   13.51
   6  -5   2   11.48   15.57
   6  -5   1   50.32   24.15
   6  -5   1   55.56   10.54
  -6   5  -1   38.24   56.76
   6  -5   0  245.09   43.32
   6  -5   0  262.25   34.03
  -6   5   0  255.23   40.67
   6  -5  -1    8.47   20.91
  -6   5   1    7.53   18.62
   6  -5  -2   64.56   25.01
  -6   5   2   50.34   53.80
   6  -5  -3  183.93   41.74
  -6   5   3  232.42   43.19
   6  -5  -4   64.68   82.89
  -6   5   4   78.46   35.45
   6  -5  -5  113.89   33.13
  -6   5   5  125.52   39.09
   6  -5  -6  140.65   29.51
  -6   5   6  183.96   45.07
   6  -5  -7  448.47   63.12
  -6   5   7  439.79   80.06
   6  -5  -8  361.03   69.30
  -6   5   8  360.75  113.13
  -6   6  -9   67.40   33.36
   6  -6   9   35.16   78.44
  -6   6  -8  199.22   49.26
   6  -6   8  180.81   36.46
  -6   6  -7   95.40   35.41
   6  -6   7   58.53   76.09
  -6   6  -6  671.47   86.30
   6  -6   6  615.64   80.49
  -6   6  -5   10.27   30.35
   6  -6   5   13.34   14.46
  -6   6  -4    5.60   13.26
   6  -6   4   -4.03   16.10
   6  -6   3    0.71   19.63
   6  -6   3    3.93   16.90
   6  -6   2  133.79   31.96
   6  -6   2  111.52   43.68
   6  -6   1  247.73   42.02
  -6   6  -1  275.19   40.61
   6  -6   0  520.43   74.67
  -6   6   0  505.62   66.61
   6  -6  -1  608.49   89.56
  -6   6   1  615.51   87.63
   6  -6  -2  227.75   29.65
  -6   6   2  229.00   80.00
   6  -6  -3   39.89   40.05
  -6   6   3   52.62   27.05
   6  -6  -4   -8.12   22.08
  -6   6   4    5.50   22.30
   6  -6  -5   30.45   23.49
  -6   6   5   26.21   28.83
   6  -6  -6    5.59   20.62
  -6   6   6   18.06   39.60
   6  -6  -7  104.43   37.42
  -6   6   7   99.75   48.52
  -6   7  -8   -7.51   27.53
   6  -7   8    4.35   16.23
  -6   7  -7  168.16   40.38
   6  -7   7  196.68   40.94
  -6   7  -6   27.89   69.31
   6  -7   6   21.44   38.05
  -6   7  -5   35.52   65.36
   6  -7   5   35.95   38.44
   6  -7   4   -1.31   23.78
   6  -7   4    7.10   20.71
   6  -7   3   67.38   24.40
   6  -7   3   78.57   16.61
   6  -7   2  281.90   47.70
   6  -7   1   63.32   31.10
   6  -7   0    7.71   23.95
   6  -7  -1   19.59   25.58
   6  -7  -2   11.27   24.01
   6  -7  -3   21.59   35.08
  -6   7   3   16.19   28.73
   6  -7  -4  168.53   35.73
  -6   7   4  195.01   51.69
   6  -7  -5  240.03   49.88
  -6   7   5  373.34   80.33
  -6   8  -7   46.25   68.78
  -6   8  -6   17.25   34.84
   6  -8   6   17.70   20.38
   6  -8   5    8.85   23.43
   6  -8   5    3.45   16.03
   6  -8   4   25.87   25.07
   6  -8   3   12.59   25.39
   6  -8   2  166.07   44.23
   6  -8   1  273.61   53.06
   6  -8   0  178.95   40.51
   6  -8  -1    5.50   20.48
   6  -8  -2    4.57   18.90
   6  -8  -3   60.57   28.64
   6  -9   5  143.92   40.66
   6  -9   4  323.84   65.60
   6  -9   3   36.62   43.64
   6  -9   2   34.59   31.18
   6  -9   1    8.66   29.13
   6  -9   0   28.98   45.41
  -7  -7   2   -2.44   33.99
   7   7  -2    3.98   23.26
  -7  -7   3  130.21   41.40
   7   7  -3  152.75   44.90
  -7  -7   4  175.24   42.95
   7   7  -4  202.56   52.27
  -7  -7   5  277.27   57.95
   7   7  -5  301.02   59.81
  -7  -7   6  255.09   53.92
   7   7  -6  360.66   65.70
  -7  -7   7   59.65   35.39
   7   7  -7   51.49   35.22
  -7  -7   8   -2.82   31.31
  -7  -7   8    6.23   23.26
  -7  -7   9    6.78   29.39
  -7  -7   9    8.68   16.10
  -7  -6   0    1.61   36.94
   7   6   0    5.56   26.41
  -7  -6   1   27.01   30.20
   7   6  -1    4.86   23.12
  -7  -6   2  205.49   47.53
   7   6  -2  192.62   45.03
  -7  -6   3   52.67   31.62
   7   6  -3   19.11   27.35
  -7  -6   4    9.40   32.99
   7   6  -4    7.25   34.49
  -7  -6   5   13.02   30.16
   7   6  -5   15.73   37.83
  -7  -6   6   54.38   29.34
  -7  -6   6   49.92   30.09
  -7  -6   7    8.70   26.16
  -7  -6   7   -0.66   24.85
  -7  -6   8   68.36   29.88
  -7  -6   8   69.27   93.36
  -7  -6   9  137.20   39.77
  -7  -6   9   79.17  127.03
  -7  -6  10  534.74   97.70
  -7  -6  10  456.04   85.13
  -7  -6  11  106.36   54.45
  -7  -6  11   43.04   61.42
  -7  -5  -2    8.85   36.15
   7   5   2   12.03   12.78
  -7  -5  -1   11.24   31.53
   7   5   1   25.41   41.29
  -7  -5   0   66.73   29.43
   7   5   0   46.56   76.40
  -7  -5   1   49.55   37.72
   7   5  -1   56.90   53.31
  -7  -5   2  319.50   53.42
   7   5  -2  284.43   59.32
  -7  -5   3  481.77   62.60
   7   5  -3  466.06   70.22
  -7  -5   4  580.95   74.81
   7   5  -4  611.04   83.51
  -7  -5   5  168.92   45.86
  -7  -5   5  191.69   55.35
  -7  -5   6   58.72   38.81
  -7  -5   6   48.45   72.55
  -7  -5   7   25.74   28.71
  -7  -5   7    9.42   33.94
  -7  -5   8   13.38   25.04
  -7  -5   8    1.78   13.65
  -7  -5   9   77.33   26.55
  -7  -5   9   51.41   86.82
  -7  -5  10   82.71   33.61
  -7  -5  10   43.30   72.56
  -7  -5  11  294.27   76.16
  -7  -5  11  213.07   51.38
  -7  -5  12    9.30   28.94
  -7  -5  12   17.84   35.66
  -7  -4  -3   60.12   45.15
   7   4   3   48.21   25.87
  -7  -4  -2   61.51   39.17
   7   4   2   66.53   71.06
  -7  -4  -1  123.23   36.23
   7   4   1   80.63  117.10
  -7  -4   0  902.91   71.68
   7   4   0  894.84  106.50
  -7  -4   1  308.38   55.82
   7   4  -1  262.09   57.41
  -7  -4   2   60.33   24.53
   7   4  -2  100.24   35.21
  -7  -4   3    7.46   24.39
   7   4  -3   -4.81   28.17
  -7  -4   4   16.67   26.75
  -7  -4   4   16.37   27.29
  -7  -4   5   25.02   24.94
  -7  -4   5   22.03   27.72
  -7  -4   6  139.78   33.78
  -7  -4   6  172.13   33.31
  -7  -4   7  414.25   63.97
  -7  -4   7  438.10   70.68
  -7  -4   8  809.45   89.97
  -7  -4   8  745.84   91.56
  -7  -4   9  415.50   63.57
  -7  -4   9  392.60   68.45
  -7  -4  10  198.67   44.87
  -7  -4  10  285.16   67.56
  -7  -4  11   35.15   29.10
  -7  -4  11   26.69   36.70
  -7  -4  12   -2.50   28.21
  -7  -4  12    1.46   36.28
  -7  -3  -4   30.08   31.22
   7   3   4   26.45   49.53
  -7  -3  -3    2.89   26.09
   7   3   3   16.20   30.33
  -7  -3  -2   58.40   29.91
   7   3   2   44.51   70.84
  -7  -3  -1  159.39   41.54
   7   3   1  111.73   35.57
  -7  -3   0  413.03   67.53
   7   3   0  332.03   71.17
  -7  -3   1  444.24   65.13
   7   3  -1  505.11   92.84
  -7  -3   2  361.12   61.39
   7   3  -2  283.34   56.64
  -7  -3   3   81.03   25.18
  -7  -3   3   87.66   38.04
  -7  -3   4    8.96   19.86
  -7  -3   4    8.72   31.13
  -7  -3   5  105.08   25.08
  -7  -3   5  125.13  107.07
  -7  -3   6   22.12   19.07
  -7  -3   6   23.49   29.81
  -7  -3   7  245.85   32.50
  -7  -3   7  226.56   49.62
  -7  -3   8   86.60   25.17
  -7  -3   8   83.78   33.57
  -7  -3   9  135.98   26.49
  -7  -3   9  175.83   48.31
  -7  -3  10    8.30   20.76
  -7  -3  10    0.98   38.88
  -7  -3  11  124.54   27.91
  -7  -3  11  129.15   50.76
  -7  -3  12  219.20   59.57
  -7  -2  -5   35.33   24.61
   7   2   5   20.81   50.04
  -7  -2  -4   10.97   26.51
   7   2   4    6.71   18.57
   7   2   3   29.34   47.33
  -7  -2  -2  516.14   71.69
   7   2   2  544.89   77.09
  -7  -2  -1  675.69   98.90
   7   2   1  570.39   87.37
  -7  -2   0  504.71   72.05
   7   2   0  368.63   61.37
  -7  -2   1   67.71   24.83
   7   2  -1   62.55   34.00
  -7  -2   2    8.93   19.92
  -7  -2   2    9.24   24.93
  -7  -2   3    4.33   19.50
  -7  -2   3    5.06   16.37
  -7  -2   4   84.81   27.22
  -7  -2   4   74.36   66.61
  -7  -2   5  382.08   52.05
  -7  -2   5  422.76   60.67
  -7  -2   6 2454.14  234.20
  -7  -2   6 2524.63  115.42
  -7  -2   7   59.94   20.69
  -7  -2   7   63.62   35.02
  -7  -2   8  393.16   58.50
  -7  -2   8  386.96   73.98
  -7  -2   9   25.31   18.78
  -7  -2   9   36.08   36.42
  -7  -2  10   -3.46   14.14
  -7  -2  10    9.21   41.15
  -7  -2  11    4.95   49.01
  -7  -2  12    3.14   43.71
  -7  -1  -6    8.75   28.91
   7   1   6    3.22   20.46
  -7  -1  -5   13.02   24.42
   7   1   5   11.35   21.46
  -7  -1  -4    4.26   26.26
   7   1   4    3.99   29.98
  -7  -1  -3    5.73   20.77
   7   1   3    7.10   14.04
  -7  -1  -2   87.89   23.85
   7   1   2  100.29   36.25
  -7  -1  -1  303.36   42.48
   7   1   1  223.51   38.63
  -7  -1   0  130.22   23.10
   7   1   0  108.84   38.07
  -7  -1   1   35.59   17.54
  -7  -1   1   35.45   28.74
  -7  -1   2   26.09   16.79
  -7  -1   2   18.41   26.24
  -7  -1   3  472.75   60.90
  -7  -1   3  378.95  119.77
  -7  -1   4  330.77   49.77
  -7  -1   4  369.97   59.38
  -7  -1   5  144.82   27.27
  -7  -1   5  132.77   37.77
  -7  -1   6  209.10   24.53
  -7  -1   6  228.94   49.23
  -7  -1   7   34.64   14.93
  -7  -1   7   32.32   35.63
  -7  -1   8    9.46   15.31
  -7  -1   8   -5.08   32.32
  -7  -1   9   91.07   40.46
  -7  -1  10  441.62   78.46
  -7  -1  11  647.72  101.68
  -7  -1  12  542.67  116.13
  -7   0  -7   -3.10   20.46
   7   0   7    0.83   17.62
  -7   0  -6   31.01   56.00
   7   0   6   43.12   63.50
  -7   0  -5    5.93   14.90
   7   0   5    8.95   15.75
  -7   0  -4  691.79   89.00
   7   0   4  879.07  116.64
  -7   0  -3  747.08  106.91
   7   0   3  661.42   96.65
  -7   0  -2  489.11   71.46
   7   0   2  470.52   71.59
  -7   0  -1  125.63   23.01
   7   0   1  158.01   42.45
  -7   0   0   38.65   21.06
   7   0   0   33.67   42.38
  -7   0   1    7.81   18.01
  -7   0   1   13.26   25.85
  -7   0   2   28.44   14.90
  -7   0   2   36.53   53.58
  -7   0   3  518.12   59.17
  -7   0   3  408.32   63.44
  -7   0   4  994.48  104.82
  -7   0   4 1005.17  122.75
  -7   0   5  306.70   43.04
  -7   0   5  317.36   58.85
   7   0  -6  264.35   18.23
  -7   0   6  264.98   22.48
  -7   0   6  255.44   46.13
   7   0  -7    0.75    6.85
  -7   0   7    2.24    8.59
  -7   0   7    7.21   39.10
   7   0  -8    8.94   20.74
  -7   0   8    8.29   49.90
   7   0  -9  100.32   44.41
  -7   0   9  109.65   49.16
   7   0 -10    4.41   10.79
  -7   0  10   -1.52   45.01
   7   0 -11    6.20   12.48
  -7   0  11   26.24   51.96
   7   0 -12   14.19   28.76
  -7   0  12   17.84   79.90
  -7   1  -7    9.43   27.48
   7  -1   7    6.94   18.90
  -7   1  -6   82.75  104.31
   7  -1   6  122.41   41.38
  -7   1  -5   20.07   43.93
   7  -1   5   24.65   43.59
  -7   1  -4   -0.99    9.32
  -7   1  -4    1.29   19.84
   7  -1   4    7.42   16.67
  -7   1  -3   15.09   12.66
  -7   1  -3   14.40   21.79
   7  -1   3   24.22   24.07
  -7   1  -2   21.80   31.81
  -7   1  -2   18.24   15.57
   7  -1   2   20.50   28.62
  -7   1  -1    1.38   17.10
   7  -1   1   -2.12   36.62
  -7   1   0   57.06   16.01
  -7   1   0   81.83   25.00
  -7   1   1  507.56   58.74
  -7   1   1  484.60   64.60
  -7   1   2  858.09   91.51
  -7   1   2  634.60   78.96
   7  -1  -3 1267.87  125.39
  -7   1   3 1352.41  137.51
  -7   1   3 1089.84  126.28
   7  -1  -4   84.22   11.90
  -7   1   4   77.69   13.98
  -7   1   4   76.66   28.88
   7  -1  -5   14.00    8.25
  -7   1   5   11.81    7.00
  -7   1   5   13.73   31.09
   7  -1  -6   10.81   15.65
  -7   1   6   11.50   30.01
   7  -1  -7   34.50   46.80
  -7   1   7   36.72   32.84
   7  -1  -8  535.04   65.81
  -7   1   8  461.75   84.71
   7  -1  -9  633.30   76.94
  -7   1   9  737.83  110.56
   7  -1 -10  495.12   62.43
  -7   1  10  541.80   89.54
   7  -1 -11  274.18   53.03
  -7   1  11  201.85  192.00
  -7   2  -8    1.52   13.58
   7  -2   8    9.04   24.26
  -7   2  -7   40.19   92.70
   7  -2   7   56.98   62.39
  -7   2  -6  242.41   43.61
  -7   2  -6  208.26   39.63
   7  -2   6  292.32   57.03
  -7   2  -5  376.92   45.74
  -7   2  -5  397.57   80.90
   7  -2   5  420.41   57.89
  -7   2  -4  391.17   57.05
  -7   2  -4  510.15   78.45
   7  -2   4  411.07   64.75
  -7   2  -3  124.82   38.50
  -7   2  -3  132.08   30.42
   7  -2   3  147.84   34.45
  -7   2  -2   19.73   20.14
  -7   2  -2   23.25   34.31
   7  -2   2   21.35   23.85
   7  -2   1   46.84   12.28
  -7   2  -1   35.00   15.38
   7  -2   1   59.64   32.60
   7  -2   0   15.62    9.66
  -7   2   0   14.27   15.13
  -7   2   0   20.11   28.93
   7  -2  -1   43.49   22.24
  -7   2   1   61.55   15.12
  -7   2   1   48.39   61.91
   7  -2  -2  685.68   82.48
  -7   2   2  835.70   99.33
  -7   2   2  650.20   87.38
   7  -2  -3   16.71   12.93
  -7   2   3   17.97   17.07
  -7   2   3   16.01   24.56
   7  -2  -4  126.47   21.87
  -7   2   4  186.09   47.92
   7  -2  -5    1.96    6.89
  -7   2   5   19.18   33.07
   7  -2  -6  119.78   54.47
  -7   2   6  135.36   51.68
   7  -2  -7  550.01   68.36
  -7   2   7  642.82   98.88
   7  -2  -8   47.67   18.28
  -7   2   8   69.26   45.31
   7  -2  -9   78.05   28.00
  -7   2   9   53.78   54.06
   7  -2 -10    4.63   13.16
  -7   2  10   -7.53   53.94
  -7   3  -8  140.16   39.24
   7  -3   8  150.26   37.44
   7  -3   8  163.89   31.65
  -7   3  -7   97.93   24.85
  -7   3  -7  161.55   33.41
   7  -3   7  108.34   56.98
  -7   3  -6   53.60   86.96
  -7   3  -6   75.05  117.17
   7  -3   6   87.11  108.61
  -7   3  -5   11.91   15.45
  -7   3  -5    8.40   15.96
   7  -3   5   15.50   17.82
  -7   3  -4    6.73   15.75
  -7   3  -4    1.91   15.95
   7  -3   4    7.00   11.50
  -7   3  -3    4.10    8.93
  -7   3  -3    2.93    9.17
   7  -3   3    9.31   30.68
  -7   3  -2  135.98   21.71
  -7   3  -2  116.19   18.37
   7  -3   2  180.18   34.46
   7  -3   1  479.43   53.07
  -7   3  -1  559.84   59.72
   7  -3   1  522.50   67.85
   7  -3   0  756.26   77.57
  -7   3   0  806.86   80.13
  -7   3   0  787.43   88.44
   7  -3  -1  534.87   68.36
  -7   3   1  632.93   76.30
  -7   3   1  528.25   77.56
   7  -3  -2  360.52   41.79
  -7   3   2  361.01   36.89
  -7   3   2  351.05   56.37
   7  -3  -3   26.57   19.13
  -7   3   3   33.17   22.54
   7  -3  -4   -1.25   12.79
  -7   3   4  -11.51   31.65
   7  -3  -5    7.97   22.07
  -7   3   5   27.28   36.99
   7  -3  -6  164.41   30.59
  -7   3   6  166.32   48.37
   7  -3  -7  462.70   56.93
  -7   3   7  420.69   80.12
   7  -3  -8  291.05   47.39
  -7   3   8  399.26   80.18
   7  -3  -9  226.78   41.85
  -7   3   9  173.91   55.82
   7  -3 -10    0.29   17.61
  -7   3  10    6.56   47.86
  -7   4  -8   12.21   21.03
   7  -4   8    9.10   25.62
  -7   4  -7  109.30   25.43
   7  -4   7  122.83   32.94
   7  -4   7  120.43   52.13
  -7   4  -6  177.61   37.96
   7  -4   6  219.29   46.08
   7  -4   6  277.96   48.13
  -7   4  -5   40.49   69.88
   7  -4   5   75.01   24.36
   7  -4   5   52.22   21.32
  -7   4  -4    6.26   12.87
   7  -4   4    8.02   20.49
   7  -4   4    5.96   18.05
  -7   4  -3   73.07   21.33
   7  -4   3   85.80   31.30
   7  -4   3   84.48   20.14
   7  -4   2   86.66   21.84
   7  -4   2  100.38   20.84
   7  -4   2  125.94   38.42
   7  -4   1   25.28   14.29
   7  -4   1   24.72   11.25
  -7   4  -1   28.52   18.05
   7  -4   0   14.78   12.93
   7  -4   0    9.15    8.90
  -7   4   0    8.87   18.02
   7  -4  -1   76.67   20.76
  -7   4   1   81.83   89.40
   7  -4  -2   17.35   19.54
  -7   4   2   28.64   21.01
   7  -4  -3   27.94   16.29
  -7   4   3   13.75   28.52
   7  -4  -4  153.12   26.63
  -7   4   4  225.40   40.13
   7  -4  -5 1071.88  127.75
  -7   4   5 1118.81   80.73
   7  -4  -6   98.56   20.64
  -7   4   6  136.40   38.93
   7  -4  -7   93.41   23.22
  -7   4   7  129.28   43.62
   7  -4  -8   20.25   23.46
  -7   4   8   44.58   54.49
   7  -4  -9    8.50   28.33
  -7   4   9    0.39   37.21
  -7   5  -8   90.01   67.39
   7  -5   8   98.35   39.10
  -7   5  -7   27.76   22.54
   7  -5   7   31.75   20.76
  -7   5  -6    1.54   10.78
   7  -5   6   11.38   23.98
  -7   5  -5    1.62    9.98
   7  -5   5    6.69   19.06
  -7   5  -4   91.11   55.27
   7  -5   4   88.01   19.65
   7  -5   3  225.01   37.80
   7  -5   3  265.58   40.56
   7  -5   3  285.54   46.60
   7  -5   2  371.49   52.79
   7  -5   2  436.76   56.19
   7  -5   2  471.49   68.70
   7  -5   1  300.37   51.08
   7  -5   1  313.88   45.30
  -7   5  -1  295.13   47.55
   7  -5   0  251.99   32.45
  -7   5   0  313.05   50.13
   7  -5  -1   22.97   22.91
  -7   5   1   12.65   18.43
   7  -5  -2    8.45   17.73
  -7   5   2   -1.55   17.63
   7  -5  -3   -2.66   16.53
  -7   5   3   10.67   28.55
   7  -5  -4    6.87   16.97
  -7   5   4    8.47   20.11
   7  -5  -5   73.81   20.60
  -7   5   5   73.32   44.05
   7  -5  -6  170.82   32.37
  -7   5   6  170.48   50.41
   7  -5  -7  138.69   37.35
  -7   5   7  157.06   53.40
  -7   6  -7   22.61   54.50
   7  -6   7   15.70   24.86
  -7   6  -6    3.86   13.40
   7  -6   6   -0.07   20.46
  -7   6  -5   99.14   89.43
   7  -6   5  117.91   23.37
  -7   6  -4  104.00   24.86
   7  -6   4  144.61   32.22
   7  -6   3   69.67   20.65
   7  -6   3   93.96   20.57
   7  -6   2  161.96   33.23
   7  -6   1  160.21   35.67
   7  -6   0    6.19   17.65
  -7   6   0   -2.13   11.12
   7  -6  -1   48.73   24.53
   7  -6  -2  148.27   30.49
  -7   6   2  142.09   26.90
   7  -6  -3  781.02  108.99
  -7   6   3  851.36  120.27
   7  -6  -4  141.89   27.48
  -7   6   4  102.05  112.09
   7  -6  -5  147.87   32.51
  -7   6   5  151.86   41.65
   7  -6  -6   20.84   20.43
  -7   6   6   61.98   49.53
  -7   7  -6   11.92   44.47
   7  -7   6   14.71   40.99
  -7   7  -5   35.29   25.99
   7  -7   4   73.23   24.75
   7  -7   3  237.61   41.58
   7  -7   2   26.41   21.98
   7  -7   1    8.25   23.26
   7  -7   0   18.36   23.80
   7  -7  -1   24.88   23.80
   7  -7  -2   40.96   59.80
   7  -7  -3    1.82   22.72
   7  -7  -4   59.68   24.76
   7  -8   4   65.82   26.82
   7  -8   3   -1.57   23.02
   7  -8   2    2.80   25.46
   7  -8   1    4.43   25.04
   7  -8   0   89.71   43.28
   7  -8  -1  249.21   52.95
  -8  -6   3   30.25   32.73
   8   6  -3   26.96   32.20
  -8  -6   4    9.83   33.89
   8   6  -4   22.01   30.73
  -8  -6   5   30.90   30.47
   8   6  -5   22.56   36.25
  -8  -6   6   14.88   25.51
   8   6  -6   27.94   37.02
  -8  -6   7   21.35   26.17
  -8  -6   7    6.52   25.65
  -8  -6   8  108.83   38.70
  -8  -6   8  121.81  106.45
  -8  -5   0   47.86   29.18
   8   5   0   29.49   54.61
  -8  -5   1   14.76   30.95
   8   5  -1   12.63   35.86
  -8  -5   2    6.45   35.24
   8   5  -2   23.65   41.69
  -8  -5   3    9.26   32.14
   8   5  -3    9.24   36.60
  -8  -5   4   25.44   37.19
   8   5  -4   24.51   39.58
  -8  -5   5  600.90   77.60
   8   5  -5  628.20   98.10
  -8  -5   6  309.64   57.69
  -8  -5   6  338.00   60.89
  -8  -5   7  309.69   52.54
  -8  -5   7  386.08   71.66
  -8  -5   8  126.08   38.00
  -8  -5   8  118.62   94.77
  -8  -5   9    1.38   27.35
  -8  -5   9    6.91   17.01
  -8  -5  10   10.30   31.51
  -8  -5  10   24.65   29.22
  -8  -4  -1  206.19   49.73
   8   4   1  205.61   49.68
  -8  -4   0   48.81   33.41
   8   4   0   36.51   26.34
  -8  -4   1   47.37   32.63
   8   4  -1   49.29   30.37
  -8  -4   2   27.12   27.21
   8   4  -2    9.47   34.26
  -8  -4   3  179.64   46.46
   8   4  -3  137.70   45.26
  -8  -4   4   15.09   26.95
   8   4  -4    6.79   44.55
  -8  -4   5   27.45   24.32
  -8  -4   5   24.48   41.81
  -8  -4   6    7.07   22.09
  -8  -4   6    6.12   18.31
  -8  -4   7   10.18   29.92
  -8  -4   7   19.25   31.14
  -8  -4   8   10.48   27.60
  -8  -4   8    9.75   27.50
  -8  -4   9   99.76   27.61
  -8  -4   9   72.23  145.54
  -8  -4  10  146.09   38.44
  -8  -4  10  142.47   45.92
  -8  -4  11  218.31   42.76
  -8  -4  11  265.15   56.35
  -8  -3  -3   97.47   32.58
   8   3   3   99.95   36.56
  -8  -3  -2  180.82   41.72
   8   3   2  187.16   47.53
  -8  -3  -1  186.45   53.72
   8   3   1  137.95   37.47
  -8  -3   0   21.46   29.61
   8   3   0   16.60   34.54
  -8  -3   1   -3.59   26.56
   8   3  -1   17.21   45.02
  -8  -3   2   88.02   31.97
   8   3  -2  103.50   55.14
  -8  -3   3  414.93   57.38
   8   3  -3  393.61   64.68
  -8  -3   4  578.16   78.06
  -8  -3   4  683.21   97.48
  -8  -3   5  469.29   63.09
  -8  -3   5  510.52   69.65
  -8  -3   6   78.34   28.42
  -8  -3   6   61.60   51.91
  -8  -3   7   20.90   16.98
  -8  -3   7    8.91   42.01
  -8  -3   8   42.38   23.36
  -8  -3   8   80.37   59.52
  -8  -3   9   13.29   20.24
  -8  -3   9    9.88   25.29
  -8  -3  10   24.59   38.33
  -8  -3  11  195.81   54.21
  -8  -2  -4   11.87   26.01
   8   2   4   15.91   32.77
  -8  -2  -3  108.58   35.87
   8   2   3  125.37   35.80
  -8  -2  -2   96.21   40.66
   8   2   2   59.45   64.98
  -8  -2  -1    5.39   26.44
   8   2   1   -3.07   30.48
  -8  -2   0   98.68   39.29
   8   2   0   86.64   30.97
  -8  -2   1  296.73   53.08
   8   2  -1  297.18   65.26
  -8  -2   2  276.85   45.38
   8   2  -2  191.26   43.72
  -8  -2   3   80.20   22.50
  -8  -2   3   69.31   83.52
  -8  -2   4   39.82   20.14
  -8  -2   4   38.42   40.01
  -8  -2   5   60.75   23.40
  -8  -2   5   59.23   76.96
  -8  -2   6   25.32   54.81
  -8  -2   7   58.65   16.94
  -8  -2   7   96.85   38.24
  -8  -2   8  489.65   63.65
  -8  -2   8  475.07   75.46
  -8  -2   9  545.81  100.54
  -8  -2  10  513.98   94.25
  -8  -2  11  255.04   65.09
  -8  -1  -4  232.88   46.88
   8   1   4  253.85   50.91
  -8  -1  -3   52.10   26.31
   8   1   3   53.01   33.16
  -8  -1  -2   -3.25   23.26
   8   1   2  -14.35   34.07
  -8  -1  -1    5.00   25.20
   8   1   1   10.35   35.70
  -8  -1   0  164.65   30.33
   8   1   0  131.67   42.80
  -8  -1   1   17.97   21.13
   8   1  -1   29.60   35.94
  -8  -1   2  531.58   76.60
  -8  -1   2  431.81   79.83
  -8  -1   3  596.98   84.90
  -8  -1   3  393.69   68.51
  -8  -1   4  189.02   24.29
  -8  -1   4  188.28  121.08
  -8  -1   5    3.25   13.90
  -8  -1   5    7.94   36.97
  -8  -1   6  451.00   59.07
  -8  -1   6  369.69  110.85
  -8  -1   7    9.52   12.26
  -8  -1   7    9.14   35.24
  -8  -1   8   -4.52   38.35
  -8  -1   9    5.27   43.42
  -8  -1  10    1.84   49.80
  -8  -1  11    3.49   48.44
  -8   0  -5   13.67   25.26
   8   0   5   -0.08   26.07
  -8   0  -4    3.23   25.03
   8   0   4    6.98   30.76
  -8   0  -3   -3.61   21.70
   8   0   3    2.11   23.99
  -8   0  -2   92.71   28.88
   8   0   2   86.96   36.71
  -8   0  -1  170.18   28.80
   8   0   1  157.51   38.23
  -8   0   0 1073.08  142.04
   8   0   0 1268.87  177.94
  -8   0   1  251.72   26.90
  -8   0   1  247.96   45.71
  -8   0   2  112.14   22.60
  -8   0   2  100.64  108.77
  -8   0   3   19.61   13.98
  -8   0   3   15.51   22.16
  -8   0   4    2.31   13.14
  -8   0   4    1.65   16.41
  -8   0   5  190.15   22.63
  -8   0   5  206.56   41.30
  -8   0   6  330.78   69.40
  -8   0   7  556.27   95.35
  -8   0   8  521.18   87.16
  -8   0   9  348.07   70.56
  -8   0  10   15.17   45.06
  -8   0  11   21.37   73.05
  -8   1  -6  152.96   95.16
   8  -1   6  200.32   95.90
  -8   1  -5   40.33   54.21
   8  -1   5   38.00   44.12
  -8   1  -4   -1.84   19.84
   8  -1   4    6.06   16.81
  -8   1  -3   10.37   20.94
   8  -1   3   10.24   24.57
  -8   1  -2    3.61   24.10
   8  -1   2    6.06   29.91
  -8   1  -1    5.88   19.10
   8  -1   1    6.15   34.97
  -8   1   0  173.35   26.27
   8  -1   0  173.01   45.07
  -8   1   1  139.99   22.79
  -8   1   1  155.83   38.63
  -8   1   2   37.69   19.36
  -8   1   2   42.20   56.23
  -8   1   3    0.47   12.66
  -8   1   3    5.19   26.92
  -8   1   4  430.66   59.40
  -8   1   4  341.03   67.49
  -8   1   5  287.98   63.18
  -8   1   6  255.40   56.90
  -8   1   7   85.87   41.02
  -8   1   8   19.54   44.89
  -8   1   9   26.16   48.95
  -8   1  10   52.70   42.92
  -8   2  -6   -1.82   17.60
   8  -2   6    9.49   21.10
  -8   2  -5   -0.15   17.81
   8  -2   5    0.73   19.39
  -8   2  -4   67.39   79.44
   8  -2   4   71.40  116.63
  -8   2  -3  373.72   50.75
   8  -2   3  465.87   78.13
  -8   2  -2  599.25   65.07
   8  -2   2  492.27   65.20
  -8   2  -1  267.93   41.22
   8  -2   1  412.86   72.07
  -8   2   0  148.23   18.98
  -8   2   0  146.16   39.75
  -8   2   1   30.90   42.07
  -8   2   1   31.60   70.48
  -8   2   2   -0.65    8.66
  -8   2   2   -0.29   14.31
  -8   2   3   28.12   26.63
  -8   2   4  153.03   41.16
  -8   2   5  333.45   81.26
  -8   2   6  396.04   68.99
  -8   2   7   71.23   57.19
  -8   2   8  109.63   51.88
  -8   2   9   51.70   80.21
  -8   3  -6    5.84   14.59
   8  -3   6   10.86   25.31
  -8   3  -5   16.33   29.08
   8  -3   5   11.92   32.85
  -8   3  -4   30.67   41.19
   8  -3   4   22.67   45.84
  -8   3  -3  488.42   62.74
   8  -3   3  708.77   96.78
  -8   3  -2   75.15   17.52
   8  -3   2   75.92   29.66
  -8   3  -1   66.11   19.89
   8  -3   1   48.43   34.41
  -8   3   0    5.09    7.23
  -8   3   0    7.93   22.67
  -8   3   1   11.97   27.66
  -8   3   1   21.09   27.75
  -8   3   2  418.75   64.59
  -8   3   3  471.00   72.49
  -8   3   4  458.48   77.96
  -8   3   5  110.56  146.13
  -8   3   6   -1.74   36.79
  -8   3   7   -3.55   37.57
   8  -3  -8   12.63   15.47
  -8   3   8   47.74   40.35
  -8   3   9  200.52   57.87
   8  -4   6   13.50   23.24
   8  -4   5   17.14   20.51
   8  -4   5   30.12   25.29
   8  -4   4 1113.07   84.64
   8  -4   4 1028.61  122.70
   8  -4   3   95.47   21.37
   8  -4   3   94.29   26.15
   8  -4   2   45.45   21.95
   8  -4   2   24.08   24.24
   8  -4   1    2.36   13.61
   8  -4   1   21.65   26.71
  -8   4   0    6.48   12.77
   8  -4  -1    2.86   13.31
  -8   4   1    2.38   11.28
   8  -4  -2   11.22   18.46
  -8   4   2    3.93   12.84
   8  -4  -3   54.10   19.42
  -8   4   3   36.89   38.30
   8  -4  -4   75.59   22.57
  -8   4   4  103.81   38.67
   8  -4  -5  206.28   37.46
  -8   4   5  155.74   42.52
   8  -4  -6    2.00   17.17
  -8   4   6   21.72   32.87
   8  -4  -7   98.53   24.20
  -8   4   7  143.38   71.56
   8  -4  -8  162.56   35.93
  -8   4   8  171.49   61.42
   8  -5   6   39.00   69.33
   8  -5   5  106.95   25.67
   8  -5   4    4.96    9.21
   8  -5   3    0.77   16.73
   8  -5   3    0.38   17.30
   8  -5   2    4.06   15.80
   8  -5   1   26.72   15.74
   8  -5   1   27.48   24.80
   8  -5   0   97.79   25.41
  -8   5   0  113.26   81.27
   8  -5  -1  365.79   52.06
  -8   5   1  386.94   59.56
   8  -5  -2  522.81   71.52
  -8   5   2  541.08   77.15
   8  -5  -3  269.23   75.98
  -8   5   3  307.87   58.92
   8  -5  -4  106.04   28.49
  -8   5   4  121.07   37.03
   8  -5  -5   79.88   18.57
  -8   5   5  123.40   90.62
   8  -5  -6    7.65   17.90
  -8   5   6    7.67   38.94
  -8   6  -5   81.65   31.90
   8  -6   5   73.57   23.31
   8  -6   4   57.74   20.71
   8  -6   3    5.15   16.38
   8  -6   2   13.53   17.22
   8  -6   1   83.69   23.28
   8  -6   0   12.58   16.53
   8  -6  -1   15.51   22.23
   8  -6  -2   59.58   21.50
   8  -6  -3   32.23   63.17
  -8   6   3   30.86   73.04
   8  -6  -4   13.61   42.28
  -8   6   4   28.66   29.30
   8  -7   2   55.72   24.39
   8  -7   1   95.12   24.96
   8  -7   0  191.99   47.02
   8  -7  -1   85.02   31.97
   8  -7  -2   14.84   21.02
  -9  -4   2  188.31   41.76
   9   4  -2  183.41   53.34
  -9  -4   3  304.25   62.40
   9   4  -3  359.83   93.52
  -9  -4   4   93.90   39.89
   9   4  -4   74.39   39.79
  -9  -4   5   25.16   26.97
  -9  -4   5   13.60   33.89
  -9  -4   6    6.38   27.57
  -9  -4   6    7.09   19.83
  -9  -4   7   19.19   40.74
  -9  -4   7   -3.88   31.47
  -9  -4   8    6.89   23.21
  -9  -4   8   16.56   36.15
  -9  -3   0  123.38   33.55
   9   3   0  151.07   54.78
  -9  -3   1   76.54   35.97
   9   3  -1   31.07   44.13
  -9  -3   2   -5.45   27.21
   9   3  -2   19.27   46.09
  -9  -3   3    4.34   24.09
   9   3  -3   -2.47   38.64
  -9  -3   4   17.36   22.37
  -9  -3   4   -0.09   33.00
  -9  -3   5   54.81   26.17
  -9  -3   5   59.19  105.82
  -9  -3   6  291.10   48.72
  -9  -3   6  257.22   56.72
  -9  -3   7  429.31   62.61
  -9  -3   7  407.48   80.34
  -9  -3   8  294.30   57.70
  -9  -3   8  191.11   54.80
  -9  -3   9  199.53   50.85
  -9  -2  -1  128.12   42.38
   9   2   1  117.01   38.76
  -9  -2   0  155.07   42.94
   9   2   0  123.11   41.70
  -9  -2   1  135.13   31.30
   9   2  -1  139.50   50.07
  -9  -2   2   35.95   21.00
   9   2  -2   50.36   38.53
  -9  -2   3    7.03   31.16
  -9  -2   3    5.69   31.45
  -9  -2   4   57.26   31.87
  -9  -2   4   41.60   75.62
  -9  -2   5   14.81   17.46
  -9  -2   5    6.46   24.38
  -9  -2   6  243.54   39.68
  -9  -2   6  239.15   57.24
  -9  -2   7   60.59   27.14
  -9  -2   7   48.13   72.97
  -9  -2   8   72.86   70.75
  -9  -2   9    3.76   40.36
  -9  -1  -2  217.76   47.37
   9   1   2  199.56   55.45
  -9  -1  -1  180.52   37.59
   9   1   1  190.78   48.02
  -9  -1   0   34.30   22.62
   9   1   0   42.84   37.68
  -9  -1   1    3.69   21.12
   9   1  -1   23.45   45.76
  -9  -1   2  -14.71   21.25
   9   1  -2   -5.57   41.40
  -9  -1   3   32.60   19.43
  -9  -1   3   17.01   43.02
  -9  -1   4  235.10   36.92
  -9  -1   4  236.09   54.13
  -9  -1   5 1072.22  138.37
  -9  -1   5 1196.96   93.28
  -9  -1   6   18.21   35.26
  -9  -1   7  193.76   51.71
  -9  -1   8   11.98   53.64
  -9  -1   9    5.45   47.15
  -9   0  -3    7.70   22.96
   9   0   3   14.20   31.62
  -9   0  -2   58.16   24.09
   9   0   2   90.69   45.84
  -9   0  -1   25.90   19.80
   9   0   1   33.33   31.78
  -9   0   0    6.33   28.29
   9   0   0   12.15   40.29
  -9   0   1    0.70   19.77
   9   0  -1   -7.88   38.61
  -9   0   2  152.06   28.28
  -9   0   2  149.10   40.30
  -9   0   3  256.58   37.78
  -9   0   3  212.01  121.00
  -9   0   4  141.40   25.48
  -9   0   4  120.75  138.25
  -9   0   5  111.41   37.27
  -9   0   6   10.24   38.22
  -9   0   7    6.36   28.45
  -9   0   8   50.66   35.33
  -9   0   9  251.40   68.35
  -9   1  -3  177.94   39.55
   9  -1   3  169.96   41.58
  -9   1  -2   28.04   45.86
   9  -1   2   53.39   42.64
  -9   1  -1    4.14   21.86
   9  -1   1   17.52   28.53
  -9   1   0   10.00   16.72
   9  -1   0    1.57   39.89
  -9   1   1    6.86   15.71
  -9   1   1    8.34   30.35
  -9   1   2  209.94   33.41
  -9   1   2  127.08  165.09
  -9   1   3  264.91   54.68
  -9   1   4   88.61  120.56
  -9   1   5   85.46  110.26
  -9   1   6    4.99   37.81
  -9   1   7  -13.27   43.60
  -9   1   8  117.92   56.71
  -9   1   9    5.64   45.86
  -9   2  -4   -1.20   22.31
   9  -2   4   -2.85   23.95
  -9   2  -3    4.18   18.18
   9  -2   3   -1.10   24.01
  -9   2  -2    3.21   18.93
   9  -2   2    4.02   29.00
  -9   2  -1   33.16   24.99
   9  -2   1   42.51   51.21
  -9   2   0  185.13   36.32
   9  -2   0  181.57   56.29
  -9   2   1  197.02   32.57
  -9   2   1  301.52   87.99
  -9   2   2  527.56   78.02
  -9   2   3   14.72   29.63
  -9   2   4   11.48   17.72
  -9   2   5   -1.17   30.61
  -9   2   6   12.19   39.83
  -9   2   7  160.16   50.80
  -9   2   8  349.36   76.09
  -9   3  -4   24.43   70.47
   9  -3   4   50.15   35.90
  -9   3  -3   12.56   29.85
   9  -3   3   34.47   40.71
  -9   3  -2    7.30   20.23
   9  -3   2   22.36   28.27
  -9   3  -1    6.03   10.52
   9  -3   1   -0.90   29.30
  -9   3   0    4.53   12.21
   9  -3   0   -3.68   27.51
  -9   3   1  287.63   57.49
  -9   3   2   16.52   19.15
  -9   3   3   37.62   47.84
  -9   3   4    5.83   14.69
  -9   3   5   42.59   63.96
  -9   3   6  347.31   72.60
  -9   3   7   15.58   36.15
   9  -4   3   33.61   68.75
   9  -4   3   57.22   25.19
   9  -4   2  165.76   39.92
   9  -4   1  255.15   50.02
  -9   4   0  184.04   38.66
  -9   4   1  177.56   37.67
  -9   4   2   14.62   43.89
  -9   4   3    0.69   23.32
  -9   4   4    7.60   31.25
  -9   4   5    7.94   42.70
  -9   4   6  190.20   52.71
  -9   5   0    8.47   30.07
  -9   5   1    3.75   18.39
  -9   5   2    6.12   15.30
  -9   5   3   57.12   75.03
  -9   5   4  470.15   77.48
 -10  -2   3  295.12   50.75
  10   2  -3  263.98   72.34
 -10  -2   4  207.70   44.88
 -10  -2   4  240.30   64.75
 -10  -2   5   21.50   21.54
 -10  -2   5   16.73   29.40
 -10  -2   6    5.13   37.52
 -10  -1   1   96.99   31.73
  10   1  -1   84.28   47.28
 -10  -1   2   58.79   32.56
  10   1  -2   65.96   40.62
 -10  -1   3   29.41   21.78
 -10  -1   3   29.73   34.65
 -10  -1   4   46.58   21.91
 -10  -1   4   25.53   49.40
 -10  -1   5    0.50   17.23
 -10  -1   6   11.52   30.56
 -10   0   0    5.76   23.66
  10   0   0   22.36   33.40
 -10   0   1  119.28   28.58
  10   0  -1  160.85   49.41
 -10   0   2  141.47   35.53
  10   0  -2  129.53   45.66
 -10   0   3   47.44   41.87
 -10   0   4    4.54   33.23
 -10   0   5  202.91   57.47
 -10   0   6    1.08   24.75
 -10   1   0  103.73   28.30
  10  -1   0  115.42   52.66
 -10   1   1   41.69   27.77
  10  -1  -1   46.42   33.78
 -10   1   2   12.94   25.59
 -10   1   3    4.44   15.97
 -10   1   4   33.05   60.24
 -10   1   5  113.63   39.09
 -10   1   6  170.99   51.94
  10  -2   0   24.95   35.80
  10  -2  -1   16.52   32.90
 -10   2   2    4.23    9.51
 -10   2   3  158.97   49.35
 -10   2   4   51.20  131.60
 -10   2   5   85.35  137.72
  10  -3   0   18.47   30.92
 -10   3   1    4.86   27.08
 -10   3   2    4.60   20.32
 -10   3   3   24.39   81.52
 -10   3   4   61.08  122.35
   0   0   0    0.00    0.00
;
_shelx_hkl_checksum              7622
_olex2_submission_special_instructions 'No special instructions were received'
loop_
_space_group_symop_operation_xyz
'x, y, z'
'-x, -y, -z'
loop_
_atom_site_label
_atom_site_type_symbol
_atom_site_fract_x
_atom_site_fract_y
_atom_site_fract_z
_atom_site_U_iso_or_equiv
_atom_site_adp_type
_atom_site_occupancy
_atom_site_site_symmetry_order
_atom_site_calc_flag
_atom_site_refinement_flags_posn
Br1 Br 0.36396(6) 0.19173(6) 0.98030(4) 0.02037(15) Uani 1 1 d .
Br2 Br 0.87122(6) 0.35894(5) 0.12904(4) 0.02137(16) Uani 1 1 d .
N1 N 0.6291(4) 0.2746(4) 0.4812(4) 0.0145(8) Uani 1 1 d .
N2 N 0.8777(4) 0.8057(4) 0.6034(3) 0.0137(8) Uani 1 1 d .
C1 C 0.4114(5) 0.1249(5) 0.8087(4) 0.0141(10) Uani 1 1 d .
C2 C 0.3738(5) -0.0493(5) 0.7256(4) 0.0131(10) Uani 1 1 d .
H2 H 0.325093 -0.132110 0.754043 0.016 Uiso 1 1 calc R
C3 C 0.4079(5) -0.1000(5) 0.6023(4) 0.0119(10) Uani 1 1 d .
C4 C 0.4816(5) 0.0263(5) 0.5633(4) 0.0101(9) Uani 1 1 d .
C5 C 0.5198(5) 0.2018(5) 0.6473(4) 0.0104(9) Uani 1 1 d .
C6 C 0.4824(5) 0.2503(5) 0.7743(4) 0.0123(10) Uani 1 1 d .
H6 H 0.506382 0.367684 0.834146 0.015 Uiso 1 1 calc R
C7 C 0.5932(5) 0.3231(5) 0.5995(4) 0.0109(9) Uani 1 1 d .
C8 C 0.6342(5) 0.5110(5) 0.6833(4) 0.0169(10) Uani 1 1 d .
H8A H 0.689301 0.572025 0.637563 0.025 Uiso 1 1 calc GR
H8B H 0.714839 0.528454 0.769875 0.025 Uiso 1 1 calc GR
H8C H 0.525663 0.556113 0.697549 0.025 Uiso 1 1 calc GR
C9 C 0.9263(5) 0.5856(5) 0.2641(4) 0.0152(10) Uani 1 1 d .
C10 C 0.9969(5) 0.7176(5) 0.2336(4) 0.0122(10) Uani 1 1 d .
H10 H 1.023569 0.694276 0.149981 0.015 Uiso 1 1 calc R
C11 C 1.0283(5) 0.8871(5) 0.3297(4) 0.0117(9) Uani 1 1 d .
C12 C 0.9880(5) 0.9152(5) 0.4522(4) 0.0112(9) Uani 1 1 d .
C13 C 0.9192(5) 0.7767(5) 0.4808(4) 0.0113(9) Uani 1 1 d .
C14 C 0.8883(5) 0.6097(5) 0.3855(4) 0.0120(10) Uani 1 1 d .
H14 H 0.842632 0.514773 0.402772 0.014 Uiso 1 1 calc R
C15 C 0.9048(5) 0.9636(5) 0.6917(4) 0.0114(10) Uani 1 1 d .
C16 C 0.8576(5) 0.9868(5) 0.8209(4) 0.0156(10) Uani 1 1 d .
H16A H 0.814474 0.873805 0.819703 0.023 Uiso 1 1 calc GR
H16B H 0.765864 1.060884 0.830818 0.023 Uiso 1 1 calc GR
H16C H 0.961679 1.040662 0.896267 0.023 Uiso 1 1 calc GR
loop_
_atom_site_aniso_label
_atom_site_aniso_U_11
_atom_site_aniso_U_22
_atom_site_aniso_U_33
_atom_site_aniso_U_23
_atom_site_aniso_U_13
_atom_site_aniso_U_12
Br1 0.0232(3) 0.0286(3) 0.0103(3) 0.0066(2) 0.0078(2) 0.0029(2)
Br2 0.0292(3) 0.0137(3) 0.0163(3) 0.0006(2) 0.0057(2) -0.0020(2)
N1 0.016(2) 0.0133(19) 0.017(2) 0.0082(17) 0.0050(16) 0.0030(16)
N2 0.016(2) 0.017(2) 0.0108(19) 0.0078(17) 0.0051(16) 0.0039(16)
C1 0.010(2) 0.024(3) 0.009(2) 0.007(2) 0.0009(18) 0.0036(19)
C2 0.015(2) 0.015(2) 0.014(2) 0.010(2) 0.0049(19) 0.0001(19)
C3 0.007(2) 0.016(2) 0.012(2) 0.007(2) -0.0008(18) 0.0016(18)
C4 0.005(2) 0.014(2) 0.011(2) 0.0064(19) 0.0005(17) 0.0024(17)
C5 0.006(2) 0.014(2) 0.013(2) 0.0078(18) 0.0012(18) 0.0016(17)
C6 0.011(2) 0.013(2) 0.012(2) 0.0033(19) 0.0020(18) 0.0048(18)
C7 0.007(2) 0.015(2) 0.014(2) 0.0078(19) 0.0035(18) 0.0035(18)
C8 0.020(3) 0.014(2) 0.016(3) 0.005(2) 0.006(2) 0.001(2)
C9 0.018(2) 0.011(2) 0.014(2) 0.0030(19) 0.003(2) -0.0019(19)
C10 0.010(2) 0.015(2) 0.008(2) 0.0004(19) 0.0015(18) 0.0047(18)
C11 0.010(2) 0.017(2) 0.012(2) 0.0098(19) 0.0013(18) 0.0043(18)
C12 0.007(2) 0.013(2) 0.014(2) 0.0064(19) 0.0021(18) 0.0036(18)
C13 0.010(2) 0.013(2) 0.012(2) 0.0060(19) 0.0021(18) 0.0043(18)
C14 0.010(2) 0.014(2) 0.014(2) 0.008(2) 0.0020(18) 0.0022(19)
C15 0.011(2) 0.013(2) 0.012(2) 0.006(2) 0.0021(18) 0.0040(18)
C16 0.019(3) 0.016(2) 0.013(2) 0.006(2) 0.005(2) 0.0005(19)
loop_
_atom_type_symbol
_atom_type_description
_atom_type_scat_dispersion_real
_atom_type_scat_dispersion_imag
_atom_type_scat_source
C C 0.0033 0.0016 'International Tables Vol C Tables 4.2.6.8 and 6.1.1.4'
H H 0.0000 0.0000 'International Tables Vol C Tables 4.2.6.8 and 6.1.1.4'
Br Br -0.2901 2.4595 'International Tables Vol C Tables 4.2.6.8 and 6.1.1.4'
N N 0.0061 0.0033 'International Tables Vol C Tables 4.2.6.8 and 6.1.1.4'
loop_
_geom_angle_atom_site_label_1
_geom_angle_atom_site_label_2
_geom_angle_atom_site_label_3
_geom_angle
_geom_angle_site_symmetry_1
_geom_angle_site_symmetry_3
C7 N1 C3 119.1(4) . 2_656
C15 N2 C13 118.9(4) . .
C2 C1 Br1 118.4(3) . .
C6 C1 Br1 118.3(3) . .
C6 C1 C2 123.3(4) . .
C1 C2 H2 120.4 . .
C3 C2 C1 119.2(4) . .
C3 C2 H2 120.4 . .
N1 C3 C4 121.6(4) 2_656 .
C2 C3 N1 119.4(4) . 2_656
C2 C3 C4 119.0(4) . .
C3 C4 C4 119.0(5) . 2_656
C5 C4 C3 121.7(4) . .
C5 C4 C4 119.3(5) . 2_656
C4 C5 C6 118.0(4) . .
C4 C5 C7 118.3(4) . .
C6 C5 C7 123.7(4) . .
C1 C6 C5 118.8(4) . .
C1 C6 H6 120.6 . .
C5 C6 H6 120.6 . .
N1 C7 C5 122.6(4) . .
N1 C7 C8 116.6(4) . .
C5 C7 C8 120.8(4) . .
C7 C8 H8A 109.5 . .
C7 C8 H8B 109.5 . .
C7 C8 H8C 109.5 . .
H8A C8 H8B 109.5 . .
H8A C8 H8C 109.5 . .
H8B C8 H8C 109.5 . .
C10 C9 Br2 117.8(3) . .
C10 C9 C14 123.9(4) . .
C14 C9 Br2 118.2(3) . .
C9 C10 H10 120.9 . .
C9 C10 C11 118.3(4) . .
C11 C10 H10 120.9 . .
C10 C11 C15 123.7(4) . 2_776
C12 C11 C10 118.8(4) . .
C12 C11 C15 117.4(4) . 2_776
C11 C12 C12 119.7(5) . 2_776
C11 C12 C13 121.3(4) . .
C12 C12 C13 119.0(5) 2_776 .
N2 C13 C12 121.0(4) . .
C14 C13 N2 119.4(4) . .
C14 C13 C12 119.6(4) . .
C9 C14 C13 118.1(4) . .
C9 C14 H14 121.0 . .
C13 C14 H14 121.0 . .
N2 C15 C11 123.9(4) . 2_776
N2 C15 C16 116.5(4) . .
C11 C15 C16 119.6(4) 2_776 .
C15 C16 H16A 109.5 . .
C15 C16 H16B 109.5 . .
C15 C16 H16C 109.5 . .
H16A C16 H16B 109.5 . .
H16A C16 H16C 109.5 . .
H16B C16 H16C 109.5 . .
loop_
_geom_bond_atom_site_label_1
_geom_bond_atom_site_label_2
_geom_bond_distance
_geom_bond_site_symmetry_2
Br1 C1 1.910(4) .
Br2 C9 1.907(4) .
N1 C3 1.397(5) 2_656
N1 C7 1.327(5) .
N2 C13 1.407(5) .
N2 C15 1.307(5) .
C1 C2 1.393(6) .
C1 C6 1.367(6) .
C2 H2 0.9500 .
C2 C3 1.373(6) .
C3 C4 1.415(6) .
C4 C4 1.415(8) 2_656
C4 C5 1.404(6) .
C5 C6 1.422(6) .
C5 C7 1.447(6) .
C6 H6 0.9500 .
C7 C8 1.488(5) .
C8 H8A 0.9800 .
C8 H8B 0.9800 .
C8 H8C 0.9800 .
C9 C10 1.386(5) .
C9 C14 1.388(6) .
C10 H10 0.9500 .
C10 C11 1.407(6) .
C11 C12 1.403(6) .
C11 C15 1.444(6) 2_776
C12 C12 1.411(8) 2_776
C12 C13 1.414(6) .
C13 C14 1.389(5) .
C14 H14 0.9500 .
C15 C16 1.507(6) .
C16 H16A 0.9800 .
C16 H16B 0.9800 .
C16 H16C 0.9800 .
loop_
_geom_torsion_atom_site_label_1
_geom_torsion_atom_site_label_2
_geom_torsion_atom_site_label_3
_geom_torsion_atom_site_label_4
_geom_torsion
_geom_torsion_site_symmetry_1
_geom_torsion_site_symmetry_4
Br1 C1 C2 C3 -179.6(3) . .
Br1 C1 C6 C5 179.4(3) . .
Br2 C9 C10 C11 176.3(3) . .
Br2 C9 C14 C13 -176.3(3) . .
N1 C3 C4 C4 0.0(7) 2_656 2_656
N1 C3 C4 C5 -179.7(3) 2_656 .
N2 C13 C14 C9 178.3(3) . .
C1 C2 C3 N1 179.8(4) . 2_656
C1 C2 C3 C4 0.5(6) . .
C2 C1 C6 C5 0.2(6) . .
C2 C3 C4 C4 179.4(4) . 2_656
C2 C3 C4 C5 -0.3(6) . .
C3 N1 C7 C5 1.2(6) 2_656 .
C3 N1 C7 C8 -179.5(3) 2_656 .
C3 C4 C5 C6 0.1(6) . .
C3 C4 C5 C7 -179.3(4) . .
C4 C4 C5 C6 -179.6(4) 2_656 .
C4 C4 C5 C7 1.0(7) 2_656 .
C4 C5 C6 C1 -0.1(6) . .
C4 C5 C7 N1 -1.5(6) . .
C4 C5 C7 C8 179.2(4) . .
C6 C1 C2 C3 -0.4(6) . .
C6 C5 C7 N1 179.1(4) . .
C6 C5 C7 C8 -0.1(6) . .
C7 C5 C6 C1 179.3(4) . .
C9 C10 C11 C12 0.4(6) . .
C9 C10 C11 C15 -177.6(4) . 2_776
C10 C9 C14 C13 1.6(6) . .
C10 C11 C12 C12 -177.6(4) . 2_776
C10 C11 C12 C13 0.8(6) . .
C11 C12 C13 N2 -179.5(4) . .
C11 C12 C13 C14 -0.9(6) . .
C12 C12 C13 N2 -1.1(7) 2_776 .
C12 C12 C13 C14 177.5(4) 2_776 .
C12 C13 C14 C9 -0.3(6) . .
C13 N2 C15 C11 1.5(6) . 2_776
C13 N2 C15 C16 179.9(3) . .
C14 C9 C10 C11 -1.7(6) . .
C15 N2 C13 C12 -0.4(6) . .
C15 N2 C13 C14 -179.0(4) . .
C15 C11 C12 C12 0.6(7) 2_776 2_776
C15 C11 C12 C13 179.0(3) 2_776 .
