#------------------------------------------------------------------------------
#$Date: 2019-11-11 14:48:07 +0200 (Mon, 11 Nov 2019) $
#$Revision: 226248 $
#$URL: file:///home/coder/svn-repositories/cod/cif/4/03/47/4034725.cif $
#------------------------------------------------------------------------------
#
# This file is available in the Crystallography Open Database (COD),
# http://www.crystallography.net/
#
# All data on this site have been placed in the public domain by the
# contributors.
#
data_4034725
loop_
_publ_author_name
'Wang, Manman'
'Hou, Jiao'
'Yu, Wenquan'
'Chang, Junbiao'
_publ_section_title
;
 Synthesis of 2 H-Azirines via Iodine-Mediated Oxidative Cyclization of
 Enamines.
;
_journal_issue                   24
_journal_name_full               'The Journal of organic chemistry'
_journal_page_first              14954
_journal_page_last               14961
_journal_paper_doi               10.1021/acs.joc.8b02022
_journal_volume                  83
_journal_year                    2018
_chemical_formula_moiety         'C15 H8 Br2 N2'
_chemical_formula_sum            'C15 H8 Br2 N2'
_chemical_formula_weight         376.05
_space_group_crystal_system      triclinic
_space_group_IT_number           2
_space_group_name_Hall           '-P 1'
_space_group_name_H-M_alt        'P -1'
_atom_sites_solution_hydrogens   geom
_atom_sites_solution_primary     direct
_audit_creation_date             2017-10-24
_audit_creation_method
;
Olex2 1.2
(compiled 2017.08.10 svn.r3458 for OlexSys, GUI svn.r5381)
;
_cell_angle_alpha                101.655(6)
_cell_angle_beta                 95.515(6)
_cell_angle_gamma                113.279(8)
_cell_formula_units_Z            2
_cell_length_a                   7.1796(6)
_cell_length_b                   7.6864(6)
_cell_length_c                   14.4003(10)
_cell_measurement_reflns_used    1552
_cell_measurement_temperature    293(2)
_cell_measurement_theta_max      22.8380
_cell_measurement_theta_min      3.6590
_cell_volume                     701.13(11)
_computing_cell_refinement
;
CrysAlisPro, Agilent Technologies,
Version 1.171.37.35 (release 13-08-2014 CrysAlis171 .NET)
(compiled Aug 13 2014,18:06:01)
;
_computing_data_collection
;
CrysAlisPro, Agilent Technologies,
Version 1.171.37.35 (release 13-08-2014 CrysAlis171 .NET)
(compiled Aug 13 2014,18:06:01)
;
_computing_data_reduction
;
CrysAlisPro, Agilent Technologies,
Version 1.171.37.35 (release 13-08-2014 CrysAlis171 .NET)
(compiled Aug 13 2014,18:06:01)
;
_computing_molecular_graphics    'Olex2 (Dolomanov et al., 2009)'
_computing_publication_material  'Olex2 (Dolomanov et al., 2009)'
_computing_structure_refinement  'ShelXL (Sheldrick, 2015)'
_computing_structure_solution    'ShelXS (Sheldrick, 2008)'
_diffrn_ambient_temperature      293(2)
_diffrn_detector                 'CCD plate'
_diffrn_detector_area_resol_mean 16.2312
_diffrn_detector_type            Eos
_diffrn_measured_fraction_theta_full 0.998
_diffrn_measured_fraction_theta_max 0.998
_diffrn_measurement_details
;
#__ type_ start__ end____ width___ exp.time_
  1 omega  -83.00    4.00   1.0000    3.5000
omega____ theta____ kappa____ phi______ frames
    -      -15.1755  -77.0000 -120.0000 87

#__ type_ start__ end____ width___ exp.time_
  2 omega   -6.00   24.00   1.0000    3.5000
omega____ theta____ kappa____ phi______ frames
    -      -15.1755  -99.0000  120.0000 30

#__ type_ start__ end____ width___ exp.time_
  3 omega  -49.00   33.00   1.0000    3.5000
omega____ theta____ kappa____ phi______ frames
    -       18.0661  -57.0000    0.0000 82

#__ type_ start__ end____ width___ exp.time_
  4 omega    1.00   72.00   1.0000    3.5000
omega____ theta____ kappa____ phi______ frames
    -       18.0661   57.0000  120.0000 71

#__ type_ start__ end____ width___ exp.time_
  5 omega  -25.00   56.00   1.0000    3.5000
omega____ theta____ kappa____ phi______ frames
    -       18.0661  -99.0000  -60.0000 81

#__ type_ start__ end____ width___ exp.time_
  6 omega  -25.00   34.00   1.0000    3.5000
omega____ theta____ kappa____ phi______ frames
    -       18.0661  -57.0000  120.0000 59
;
_diffrn_measurement_device       'four-circle diffractometer'
_diffrn_measurement_device_type  'Xcalibur, Eos, Gemini'
_diffrn_measurement_method       '\w scans'
_diffrn_orient_matrix_UB_11      -0.0704461000
_diffrn_orient_matrix_UB_12      -0.0892191000
_diffrn_orient_matrix_UB_13      0.0073912000
_diffrn_orient_matrix_UB_21      0.0539652000
_diffrn_orient_matrix_UB_22      0.0280936000
_diffrn_orient_matrix_UB_23      0.0483679000
_diffrn_orient_matrix_UB_31      -0.0644357000
_diffrn_orient_matrix_UB_32      0.0457081000
_diffrn_orient_matrix_UB_33      0.0153583000
_diffrn_radiation_monochromator  graphite
_diffrn_radiation_probe          x-ray
_diffrn_radiation_type           MoK\a
_diffrn_radiation_wavelength     0.71073
_diffrn_reflns_av_R_equivalents  0.0383
_diffrn_reflns_av_unetI/netI     0.0634
_diffrn_reflns_Laue_measured_fraction_full 0.998
_diffrn_reflns_Laue_measured_fraction_max 0.998
_diffrn_reflns_limit_h_max       8
_diffrn_reflns_limit_h_min       -8
_diffrn_reflns_limit_k_max       9
_diffrn_reflns_limit_k_min       -9
_diffrn_reflns_limit_l_max       17
_diffrn_reflns_limit_l_min       -17
_diffrn_reflns_number            5715
_diffrn_reflns_point_group_measured_fraction_full 0.998
_diffrn_reflns_point_group_measured_fraction_max 0.998
_diffrn_reflns_theta_full        25.242
_diffrn_reflns_theta_max         26.370
_diffrn_reflns_theta_min         3.294
_diffrn_source                   'Enhance (Mo) X-ray Source'
_exptl_absorpt_coefficient_mu    5.767
_exptl_absorpt_correction_T_max  1.00000
_exptl_absorpt_correction_T_min  0.62718
_exptl_absorpt_correction_type   multi-scan
_exptl_absorpt_process_details
;
CrysAlisPro, Agilent Technologies,
Version 1.171.37.35 (release 13-08-2014 CrysAlis171 .NET)
(compiled Aug 13 2014,18:06:01)
Empirical absorption correction using spherical harmonics,
 implemented in SCALE3 ABSPACK scaling algorithm.
;
_exptl_crystal_colour            colourless
_exptl_crystal_colour_primary    colourless
_exptl_crystal_density_diffrn    1.781
_exptl_crystal_description       prism
_exptl_crystal_F_000             364
_exptl_crystal_size_max          0.18
_exptl_crystal_size_mid          0.15
_exptl_crystal_size_min          0.1
_refine_diff_density_max         0.413
_refine_diff_density_min         -0.432
_refine_diff_density_rms         0.078
_refine_ls_extinction_method     none
_refine_ls_goodness_of_fit_ref   1.013
_refine_ls_hydrogen_treatment    constr
_refine_ls_matrix_type           full
_refine_ls_number_parameters     172
_refine_ls_number_reflns         2856
_refine_ls_number_restraints     0
_refine_ls_restrained_S_all      1.013
_refine_ls_R_factor_all          0.0823
_refine_ls_R_factor_gt           0.0457
_refine_ls_shift/su_max          0.001
_refine_ls_shift/su_mean         0.000
_refine_ls_structure_factor_coef Fsqd
_refine_ls_weighting_details
'w=1/[\s^2^(Fo^2^)+(0.0316P)^2^] where P=(Fo^2^+2Fc^2^)/3'
_refine_ls_weighting_scheme      calc
_refine_ls_wR_factor_gt          0.0811
_refine_ls_wR_factor_ref         0.0954
_reflns_Friedel_coverage         0.000
_reflns_number_gt                1888
_reflns_number_total             2856
_reflns_threshold_expression     'I > 2\s(I)'
_iucr_refine_instructions_details
;

    201710204.res created by SHELXL-2014/7

TITL 201710204 in P-1 #2
REM reset to P-1 #2
CELL 0.71073 7.179588 7.686413 14.400301 101.655 95.5148 113.279
ZERR 2 0.000562 0.000593 0.000988 0.0062 0.006 0.0075
LATT 1
SFAC C H Br N
UNIT 30 16 4 4
 
L.S. 4 0 0
PLAN  20
SIZE 0.1 0.15 0.18
MPLA C2 C3 N2
MPLA C4 C5 C6 C7 C8 C9
MPLA C10 C11 C12 C13 C14 C15
BOND $H
conf
fmap 2
acta
REM <olex2.extras>
REM <HklSrc "%.\\201710204.hkl">
REM </olex2.extras>
 
WGHT    0.031600
FVAR       6.54055
BR1   3   -0.505366    0.284681    0.366025    11.00000    0.07613    0.07176 =
         0.05258    0.02009   -0.00438    0.03066
BR2   3    0.387205    0.864177    1.140211    11.00000    0.05921    0.06923 =
         0.04445    0.00864    0.00826    0.01398
C1    1    0.024091   -0.016643    0.782760    11.00000    0.06433    0.06644 =
         0.04217    0.01950    0.00946    0.03744
C2    1    0.112273    0.184000    0.773454    11.00000    0.04806    0.05215 =
         0.04095    0.01494    0.00632    0.02330
C3    1    0.076449    0.210165    0.676680    11.00000    0.06364    0.05072 =
         0.03939    0.01278    0.01557    0.02834
C4    1   -0.060732    0.232145    0.603759    11.00000    0.06158    0.04124 =
         0.03165    0.00979    0.00690    0.02486
C5    1   -0.014848    0.234917    0.512399    11.00000    0.06564    0.05158 =
         0.04293    0.01390    0.01976    0.02932
AFIX  43
H5    2    0.105605    0.225871    0.498899    11.00000   -1.20000
AFIX   0
C6    1   -0.145751    0.250912    0.441597    11.00000    0.07232    0.05102 =
         0.02946    0.01203    0.01430    0.02912
AFIX  43
H6    2   -0.114590    0.252977    0.380506    11.00000   -1.20000
AFIX   0
C7    1   -0.323957    0.263824    0.462841    11.00000    0.05909    0.03407 =
         0.03587    0.00832    0.00187    0.01363
C8    1   -0.370740    0.264471    0.552751    11.00000    0.06278    0.05772 =
         0.04753    0.01816    0.01651    0.02588
AFIX  43
H8    2   -0.490313    0.275613    0.566159    11.00000   -1.20000
AFIX   0
C9    1   -0.239048    0.248461    0.623223    11.00000    0.06861    0.06094 =
         0.03622    0.01765    0.02117    0.02785
AFIX  43
H9    2   -0.270241    0.248618    0.684436    11.00000   -1.20000
AFIX   0
C10   1    0.177599    0.345084    0.863100    11.00000    0.04101    0.05655 =
         0.03801    0.02263    0.01150    0.02470
C11   1    0.191838    0.313511    0.954235    11.00000    0.05375    0.05265 =
         0.04774    0.02284    0.01036    0.02321
AFIX  43
H11   2    0.159565    0.186839    0.959801    11.00000   -1.20000
AFIX   0
C12   1    0.252132    0.463595    1.036478    11.00000    0.05223    0.07151 =
         0.03905    0.02443    0.01126    0.02859
AFIX  43
H12   2    0.261031    0.439285    1.097069    11.00000   -1.20000
AFIX   0
C13   1    0.299354    0.650877    1.028158    11.00000    0.03629    0.06072 =
         0.03738    0.01319    0.00766    0.01724
C14   1    0.283522    0.687821    0.938801    11.00000    0.07309    0.05707 =
         0.04877    0.02220    0.01351    0.02563
AFIX  43
H14   2    0.313808    0.814573    0.933882    11.00000   -1.20000
AFIX   0
C15   1    0.222138    0.534654    0.856363    11.00000    0.06970    0.06598 =
         0.03175    0.01797    0.00599    0.02532
AFIX  43
H15   2    0.210579    0.558853    0.795839    11.00000   -1.20000
AFIX   0
N1    4   -0.043177   -0.174030    0.788876    11.00000    0.09273    0.06245 =
         0.06420    0.02302    0.00950    0.03571
N2    4    0.251482    0.211776    0.694770    11.00000    0.06485    0.07808 =
         0.04328    0.01928    0.01839    0.03804
HKLF 4
 
REM  201710204 in P-1 #2
REM R1 =  0.0457 for    1888 Fo > 4sig(Fo)  and  0.0823 for all    2856 data
REM    172 parameters refined using      0 restraints
 
END  
     
WGHT      0.0316      0.0000 

REM Highest difference peak  0.413,  deepest hole -0.432,  1-sigma level  0.078
Q1    1   0.4022  0.9121  1.0835  11.00000  0.05    0.41
Q2    1  -0.3667  0.2695  0.3602  11.00000  0.05    0.38
Q3    1   0.3383  0.9348  1.0977  11.00000  0.05    0.36
Q4    1  -0.4402  0.2417  0.4168  11.00000  0.05    0.35
Q5    1  -0.4068  0.3260  0.2981  11.00000  0.05    0.28
Q6    1  -0.0835  0.3019  0.6273  11.00000  0.05    0.28
Q7    1  -0.2163  0.3365  0.3407  11.00000  0.05    0.27
Q8    1   0.1926  0.8467  1.1389  11.00000  0.05    0.26
Q9    1   0.5458  0.7197  0.9801  11.00000  0.05    0.25
Q10   1   0.1858  0.2866  0.6719  11.00000  0.05    0.24
Q11   1  -0.5822  0.3061  0.3115  11.00000  0.05    0.24
Q12   1   0.4166  0.7352  1.1647  11.00000  0.05    0.24
Q13   1   0.0298  0.1834  0.7228  11.00000  0.05    0.24
Q14   1   0.2484  0.3413  0.9156  11.00000  0.05    0.24
Q15   1   0.3088  0.7213  1.1974  11.00000  0.05    0.24
Q16   1   0.0799  0.1417  0.6553  11.00000  0.05    0.24
Q17   1   0.3649  0.6395  0.9145  11.00000  0.05    0.23
Q18   1   0.2008  0.2569  1.1430  11.00000  0.05    0.23
Q19   1  -0.6583  0.3106  0.3633  11.00000  0.05    0.23
Q20   1  -0.4794  0.1006  0.3438  11.00000  0.05    0.23

  REM The information below was added by Olex2.
  REM
  REM R1 = 0.0457 for 1888 Fo > 4sig(Fo) and 0.0823 for all 5715 data
  REM n/a parameters refined using n/a restraints
  REM Highest difference peak 0.41, deepest hole -0.43
  REM Mean Shift 0, Max Shift -0.001.

  REM +++ Tabular Listing of Refinement Information +++
  REM R1_all = 0.0823
  REM R1_gt = 0.0457
  REM wR_ref = 0.0954
  REM GOOF = 1.013
  REM Shift_max = -0.001
  REM Shift_mean = 0
  REM Reflections_all = 5715
  REM Reflections_gt = 1888
  REM Parameters = n/a
  REM Hole = -0.43
  REM Peak = 0.41
  REM Flack = n/a

  
;
_cod_data_source_file            jo8b02022_si_002.cif
_cod_data_source_block           201710204
_cod_original_cell_volume        701.13(10)
_cod_database_code               4034725
_shelx_shelxl_version_number     2014/7
_chemical_oxdiff_formula         C20H20N1O5Br1
_shelx_space_group_comment
;
The symmetry employed for this shelxl refinement is uniquely defined
by the following loop, which should always be used as a source of
symmetry information in preference to the above space-group names.
They are only intended as comments.
;
_shelx_estimated_absorpt_t_max   0.596
_shelx_estimated_absorpt_t_min   0.423
_reflns_odcompleteness_completeness 99.79
_reflns_odcompleteness_iscentric 1
_reflns_odcompleteness_theta     26.32
_olex2_refinement_description
;
1. Fixed Uiso
 At 1.2 times of:
  All C(H) groups
2.a Aromatic/amide H refined with riding coordinates:
 C5(H5), C6(H6), C8(H8), C9(H9), C11(H11), C12(H12), C14(H14), C15(H15)
;
_olex2_submission_special_instructions 'No special instructions were received'
loop_
_space_group_symop_operation_xyz
'x, y, z'
'-x, -y, -z'
loop_
_atom_site_label
_atom_site_type_symbol
_atom_site_fract_x
_atom_site_fract_y
_atom_site_fract_z
_atom_site_U_iso_or_equiv
_atom_site_adp_type
_atom_site_occupancy
_atom_site_site_symmetry_order
_atom_site_calc_flag
_atom_site_refinement_flags_posn
Br1 Br -0.50537(9) 0.28468(7) 0.36602(4) 0.0677(2) Uani 1 1 d .
Br2 Br 0.38720(8) 0.86418(7) 1.14021(4) 0.0632(2) Uani 1 1 d .
C1 C 0.0241(8) -0.0166(8) 0.7828(3) 0.0537(12) Uani 1 1 d .
C2 C 0.1123(7) 0.1840(6) 0.7735(3) 0.0461(11) Uani 1 1 d .
C3 C 0.0764(8) 0.2102(6) 0.6767(3) 0.0494(11) Uani 1 1 d .
C4 C -0.0607(7) 0.2321(6) 0.6038(3) 0.0440(11) Uani 1 1 d .
C5 C -0.0148(7) 0.2349(6) 0.5124(3) 0.0510(12) Uani 1 1 d .
H5 H 0.1056 0.2259 0.4989 0.061 Uiso 1 1 calc R
C6 C -0.1458(8) 0.2509(6) 0.4416(3) 0.0494(12) Uani 1 1 d .
H6 H -0.1146 0.2530 0.3805 0.059 Uiso 1 1 calc R
C7 C -0.3240(7) 0.2638(6) 0.4628(3) 0.0457(11) Uani 1 1 d .
C8 C -0.3707(8) 0.2645(6) 0.5528(3) 0.0548(12) Uani 1 1 d .
H8 H -0.4903 0.2756 0.5662 0.066 Uiso 1 1 calc R
C9 C -0.2390(8) 0.2485(6) 0.6232(3) 0.0536(12) Uani 1 1 d .
H9 H -0.2702 0.2486 0.6844 0.064 Uiso 1 1 calc R
C10 C 0.1776(6) 0.3451(6) 0.8631(3) 0.0420(10) Uani 1 1 d .
C11 C 0.1918(7) 0.3135(7) 0.9542(3) 0.0496(11) Uani 1 1 d .
H11 H 0.1596 0.1868 0.9598 0.060 Uiso 1 1 calc R
C12 C 0.2521(7) 0.4636(7) 1.0365(3) 0.0518(12) Uani 1 1 d .
H12 H 0.2610 0.4393 1.0971 0.062 Uiso 1 1 calc R
C13 C 0.2994(6) 0.6509(7) 1.0282(3) 0.0458(11) Uani 1 1 d .
C14 C 0.2835(8) 0.6878(7) 0.9388(3) 0.0589(13) Uani 1 1 d .
H14 H 0.3138 0.8146 0.9339 0.071 Uiso 1 1 calc R
C15 C 0.2221(7) 0.5347(7) 0.8564(3) 0.0565(13) Uani 1 1 d .
H15 H 0.2106 0.5589 0.7958 0.068 Uiso 1 1 calc R
N1 N -0.0432(7) -0.1740(6) 0.7889(3) 0.0716(13) Uani 1 1 d .
N2 N 0.2515(6) 0.2118(6) 0.6948(3) 0.0584(10) Uani 1 1 d .
loop_
_atom_site_aniso_label
_atom_site_aniso_U_11
_atom_site_aniso_U_22
_atom_site_aniso_U_33
_atom_site_aniso_U_23
_atom_site_aniso_U_13
_atom_site_aniso_U_12
Br1 0.0761(4) 0.0718(4) 0.0526(4) 0.0201(3) -0.0044(3) 0.0307(3)
Br2 0.0592(3) 0.0692(4) 0.0445(3) 0.0086(3) 0.0083(3) 0.0140(3)
C1 0.064(3) 0.066(3) 0.042(3) 0.019(3) 0.009(2) 0.037(3)
C2 0.048(3) 0.052(3) 0.041(3) 0.015(2) 0.006(2) 0.023(2)
C3 0.064(3) 0.051(3) 0.039(3) 0.013(2) 0.016(3) 0.028(3)
C4 0.062(3) 0.041(2) 0.032(2) 0.010(2) 0.007(2) 0.025(2)
C5 0.066(3) 0.052(3) 0.043(3) 0.014(2) 0.020(3) 0.029(3)
C6 0.072(3) 0.051(3) 0.029(3) 0.012(2) 0.014(2) 0.029(3)
C7 0.059(3) 0.034(2) 0.036(3) 0.008(2) 0.002(2) 0.014(2)
C8 0.063(3) 0.058(3) 0.048(3) 0.018(3) 0.017(3) 0.026(3)
C9 0.069(3) 0.061(3) 0.036(3) 0.018(2) 0.021(3) 0.028(3)
C10 0.041(3) 0.057(3) 0.038(3) 0.023(2) 0.011(2) 0.025(2)
C11 0.054(3) 0.053(3) 0.048(3) 0.023(3) 0.010(2) 0.023(2)
C12 0.052(3) 0.072(3) 0.039(3) 0.024(3) 0.011(2) 0.029(3)
C13 0.036(2) 0.061(3) 0.037(3) 0.013(2) 0.008(2) 0.017(2)
C14 0.073(4) 0.057(3) 0.049(3) 0.022(3) 0.014(3) 0.026(3)
C15 0.070(3) 0.066(3) 0.032(3) 0.018(3) 0.006(2) 0.025(3)
N1 0.093(4) 0.062(3) 0.064(3) 0.023(3) 0.010(3) 0.036(3)
N2 0.065(3) 0.078(3) 0.043(2) 0.019(2) 0.018(2) 0.038(2)
loop_
_atom_type_symbol
_atom_type_description
_atom_type_scat_dispersion_real
_atom_type_scat_dispersion_imag
_atom_type_scat_source
C C 0.0033 0.0016 'International Tables Vol C Tables 4.2.6.8 and 6.1.1.4'
H H 0.0000 0.0000 'International Tables Vol C Tables 4.2.6.8 and 6.1.1.4'
Br Br -0.2901 2.4595 'International Tables Vol C Tables 4.2.6.8 and 6.1.1.4'
N N 0.0061 0.0033 'International Tables Vol C Tables 4.2.6.8 and 6.1.1.4'
loop_
_geom_angle_atom_site_label_1
_geom_angle_atom_site_label_2
_geom_angle_atom_site_label_3
_geom_angle
N1 C1 C2 178.9(5)
C1 C2 C3 116.8(4)
C1 C2 C10 117.5(4)
C1 C2 N2 112.9(4)
C3 C2 C10 123.4(4)
C3 C2 N2 48.6(3)
C10 C2 N2 118.2(4)
C4 C3 C2 147.0(4)
N2 C3 C2 70.4(3)
N2 C3 C4 142.5(4)
C5 C4 C3 119.9(4)
C9 C4 C3 121.1(4)
C9 C4 C5 119.0(4)
C4 C5 H5 119.6
C6 C5 C4 120.7(4)
C6 C5 H5 119.6
C5 C6 H6 120.6
C5 C6 C7 118.9(4)
C7 C6 H6 120.6
C6 C7 Br1 119.2(3)
C8 C7 Br1 119.3(3)
C8 C7 C6 121.4(4)
C7 C8 H8 120.3
C7 C8 C9 119.4(4)
C9 C8 H8 120.3
C4 C9 H9 119.7
C8 C9 C4 120.6(4)
C8 C9 H9 119.7
C11 C10 C2 122.4(4)
C11 C10 C15 118.2(4)
C15 C10 C2 119.4(4)
C10 C11 H11 119.1
C12 C11 C10 121.8(4)
C12 C11 H11 119.1
C11 C12 H12 120.5
C11 C12 C13 119.0(4)
C13 C12 H12 120.5
C12 C13 Br2 120.5(3)
C12 C13 C14 120.9(4)
C14 C13 Br2 118.6(3)
C13 C14 H14 120.3
C13 C14 C15 119.4(4)
C15 C14 H14 120.3
C10 C15 H15 119.7
C14 C15 C10 120.7(4)
C14 C15 H15 119.7
C3 N2 C2 61.0(3)
loop_
_geom_bond_atom_site_label_1
_geom_bond_atom_site_label_2
_geom_bond_distance
Br1 C7 1.890(4)
Br2 C13 1.899(4)
C1 C2 1.458(6)
C1 N1 1.138(5)
C2 C3 1.461(6)
C2 C10 1.483(6)
C2 N2 1.573(6)
C3 C4 1.451(6)
C3 N2 1.253(5)
C4 C5 1.389(5)
C4 C9 1.384(6)
C5 H5 0.9300
C5 C6 1.377(6)
C6 H6 0.9300
C6 C7 1.380(6)
C7 C8 1.368(6)
C8 H8 0.9300
C8 C9 1.377(6)
C9 H9 0.9300
C10 C11 1.384(5)
C10 C15 1.389(5)
C11 H11 0.9300
C11 C12 1.370(6)
C12 H12 0.9300
C12 C13 1.376(6)
C13 C14 1.376(6)
C14 H14 0.9300
C14 C15 1.384(6)
C15 H15 0.9300
loop_
_geom_torsion_atom_site_label_1
_geom_torsion_atom_site_label_2
_geom_torsion_atom_site_label_3
_geom_torsion_atom_site_label_4
_geom_torsion
Br1 C7 C8 C9 179.7(3)
Br2 C13 C14 C15 179.2(3)
C1 C2 C3 C4 85.4(8)
C1 C2 C3 N2 -97.8(4)
C1 C2 C10 C11 11.7(6)
C1 C2 C10 C15 -166.8(4)
C1 C2 N2 C3 106.3(5)
C2 C3 C4 C5 -173.7(6)
C2 C3 C4 C9 5.6(10)
C2 C10 C11 C12 -179.9(4)
C2 C10 C15 C14 -180.0(4)
C3 C2 C10 C11 173.7(4)
C3 C2 C10 C15 -4.8(7)
C3 C4 C5 C6 178.4(4)
C3 C4 C9 C8 -178.4(4)
C4 C3 N2 C2 177.2(8)
C4 C5 C6 C7 -0.1(6)
C5 C4 C9 C8 0.9(7)
C5 C6 C7 Br1 -179.7(3)
C5 C6 C7 C8 1.2(6)
C6 C7 C8 C9 -1.1(7)
C7 C8 C9 C4 0.1(7)
C9 C4 C5 C6 -0.9(7)
C10 C2 C3 C4 -76.8(9)
C10 C2 C3 N2 100.1(5)
C10 C2 N2 C3 -111.0(4)
C10 C11 C12 C13 0.2(7)
C11 C10 C15 C14 1.4(7)
C11 C12 C13 Br2 -179.2(3)
C11 C12 C13 C14 1.0(7)
C12 C13 C14 C15 -1.0(7)
C13 C14 C15 C10 -0.3(7)
C15 C10 C11 C12 -1.4(7)
N2 C2 C3 C4 -176.9(9)
N2 C2 C10 C11 -129.3(4)
N2 C2 C10 C15 52.2(5)
N2 C3 C4 C5 11.1(9)
N2 C3 C4 C9 -169.6(6)
loop_
_refln_index_h
_refln_index_k
_refln_index_l
_refln_F_squared_meas
_refln_F_squared_sigma
_refln_scale_group_code
0 0 -3 4107.69 442.061 4
0 0 -3 3806.54 434.514 1
0 0 -4 351999 6226.21 1
0 0 -4 359523 6494.7 4
0 0 5 16706.5 1220.68 1
0 0 -5 16372 1075.17 1
0 0 -5 17550.7 1204.45 4
0 0 6 78135.8 2995.13 1
0 0 -6 76596.2 2916.15 4
0 0 -7 308.043 336.759 4
0 0 -7 484.383 297.084 1
0 0 7 280.557 284.849 1
0 0 -7 733.334 323.875 3
0 0 8 89977.5 3707.49 1
0 0 -8 91693.6 3265.84 1
0 0 -8 96896.6 3771.64 4
0 0 -9 960.919 322.359 1
0 0 -9 2334.73 759.163 4
0 0 9 2101.17 634.228 1
0 0 -10 76098.1 3200.85 1
0 0 10 79743 3808.52 1
0 0 -10 79463.1 3834.92 4
0 0 -11 11909.2 1560.52 4
0 0 11 13707.1 1596.31 1
0 0 12 60669.7 3567.88 1
0 0 -12 56262.8 3613.91 4
0 0 -13 8629.88 1585.44 4
0 0 -14 22254.5 2468.68 4
0 0 -15 161.86 770.992 4
0 0 -16 2931.36 1308.27 4
0 0 -17 5755 1511.07 4
0 1 -17 -925.934 805.491 4
0 1 -16 12110.2 1908.77 4
0 1 -15 2543.38 941.231 4
0 1 -14 17483.6 2091.37 4
0 -1 14 18942.5 2248.39 1
0 1 -13 -775.524 518.099 4
0 -1 13 27.5865 439.715 1
0 1 -12 52995.2 3310.32 4
0 -1 12 52964.4 3634.27 1
0 -1 11 13198.2 1796.89 1
0 1 -11 13985 1599.15 4
0 -1 10 80553.1 4183.74 1
0 1 -10 75429.1 3605.85 4
0 -1 9 5079.74 856.078 3
0 1 -9 4916.53 875.415 4
0 -1 9 5221.73 1018.49 1
0 -1 8 73483.3 2976.89 3
0 -1 8 73109.4 3654.99 1
0 1 -8 68525.5 3242.31 1
0 1 -8 72198.8 3050.26 4
0 1 -8 70717.5 2759.36 3
0 1 -7 2188.11 560.648 4
0 1 -7 1397.29 365.247 3
0 1 -7 1768.21 514.957 1
0 -1 7 2059.76 613.449 1
0 -1 7 2123.24 480.438 3
0 1 -6 263555 5305.2 3
0 -1 6 243615 5277.99 3
0 1 -6 255063 5568.74 4
0 1 -6 240378 6087.01 1
0 -1 6 248929 6581.56 1
0 1 -5 497.92 167.775 3
0 -1 5 714.365 236.417 3
0 1 -5 426.382 220.267 4
0 1 -5 519.2 220.515 1
0 -1 4 910.561 235.821 3
0 1 -4 1060.39 342.513 1
0 1 -3 93891.1 2939.97 1
0 -1 3 94585.6 2206.08 3
0 1 -2 626615 9950.04 1
0 -1 2 615597 8925.2 3
0 1 1 43265.9 1427.01 6
0 1 1 41395 1330.31 2
0 -1 -1 39180.3 1377.22 4
0 -1 -2 54077.8 1836.22 4
0 -1 -3 117611 3203.82 4
0 -1 -4 12911.8 1072.13 4
0 1 4 10737.7 651.921 1
0 -1 -4 11400.7 528.825 1
0 -1 -5 10936.8 619.777 1
0 1 5 10760.9 764.594 1
0 -1 -5 11753.2 1144.19 4
0 -1 -6 136100 2964.47 1
0 -1 -6 139574 4398.77 4
0 1 7 32523.1 1727.07 1
0 -1 -7 35743.1 1485.12 1
0 -1 -7 38146.5 2313.99 4
0 1 8 91097.2 3224.88 1
0 -1 -8 98412 2810.38 1
0 -1 -8 97520.2 4158.68 4
0 1 9 3439.42 645.662 1
0 -1 -9 3319.96 515.34 1
0 -1 -10 45727.2 3073.82 4
0 -1 -10 43090 1969.22 1
0 1 10 47661.2 2528.71 1
0 -1 -11 11179.2 1661.8 4
0 -1 -11 10232.1 980.765 1
0 -1 -12 38680.3 3148.12 4
0 -1 -13 7597.05 1491.84 4
0 -1 -14 165.662 537.268 4
0 -1 -15 4015.17 1249.34 4
0 -1 -16 4574.38 1327.86 4
0 2 -17 2337.35 1073.93 4
0 2 -16 13599.3 1995.92 4
0 2 -15 -12.1987 529.528 4
0 -2 15 119.413 622.562 1
0 -2 14 4927.17 1233.28 1
0 2 -14 4123.12 1055.13 4
0 2 -13 6462.37 1168.93 4
0 -2 13 7287.87 1438.49 1
0 -2 12 62822.5 3430.85 3
0 -2 12 64643.1 4258.12 1
0 2 -12 63545.7 3472.34 4
0 -2 11 2480.33 686.026 3
0 2 -11 3666.86 813.288 4
0 -2 11 5210.38 1279.38 1
0 2 -10 8575.95 1146.19 4
0 -2 10 8950.52 1549.35 1
0 -2 10 7492.24 999.25 3
0 2 -9 33585.8 2095.65 4
0 -2 9 33554 2001.67 3
0 -2 9 36468.4 2884.18 1
0 -2 8 43690.7 2165.21 3
0 2 -8 47755 2170.45 3
0 2 -8 46948.4 2325.46 4
0 -2 8 48338.4 3150.99 1
0 2 -7 76551.5 2694.24 3
0 -2 7 73491.6 2717.06 3
0 2 -6 5057.72 633.213 3
0 2 -6 4380.34 836.84 1
0 -2 6 4889.2 624.325 3
0 2 -5 107547 3001.28 3
0 -2 5 99425.7 2886.18 3
0 2 -5 101635 3962.11 1
0 2 -4 101953 2916.6 3
0 -2 4 93830.9 2719.81 3
0 2 -4 103042 3761.41 1
0 -2 3 223853 4800.9 3
0 2 -3 252804 5971.93 1
0 2 -2 47282.4 1801.34 6
0 2 -2 50680.3 2293.04 1
0 2 -1 10689.8 837.967 6
0 2 -1 9992.74 919.486 1
0 -2 1 10339.3 888.481 1
0 2 0 741110 11603.6 1
0 -2 0 758489 11375.2 1
0 -2 0 743876 11116.4 2
0 2 0 743888 11727.5 6
0 2 1 784099 12294.1 6
0 2 1 777693 11748.5 2
0 -2 -1 779644 11876.5 2
0 -2 -1 758739 12237.8 4
0 2 1 758109 11251.2 1
0 2 2 428.247 254.533 6
0 -2 -2 223.291 158.853 4
0 2 2 585.176 244.913 2
0 -2 -3 929.895 391.172 4
0 2 3 1006.33 328.904 2
0 2 3 201.352 270.799 6
0 -2 -4 41538.4 2238.28 4
0 2 4 43598.3 2230.66 2
0 -2 -5 155282 4835.49 4
0 -2 -6 43171.2 2557.15 4
0 -2 -7 6583.46 1080.42 4
0 -2 -8 1194.91 538.85 4
0 -2 -9 49290.5 3216.33 4
0 -2 -10 8724.24 1433.67 4
0 -2 -11 11980 1792.06 4
0 -2 -12 1402.9 810.187 4
0 -2 -13 15943.3 2256.22 4
0 -2 -14 -549.527 916.489 4
0 -2 -15 4073.49 1325.24 4
0 3 -17 752.887 586.587 4
0 -3 16 454.38 658.769 1
0 3 -16 1793.62 911.565 4
0 -3 15 17782.6 2571.86 1
0 3 -15 12815.5 1807.85 4
0 3 -14 3909.21 994.249 4
0 -3 14 2948.03 837.795 3
0 -3 14 4379.11 1240.52 1
0 3 -13 7338.89 1221.51 4
0 -3 13 7088.54 1202.68 3
0 -3 13 10124.7 1858.59 1
0 -3 12 9725.24 1778.97 1
0 -3 12 6718.95 1087.1 3
0 3 -12 8391.51 1243.57 4
0 -3 11 65794.3 3217.75 3
0 3 -11 69713.5 3367.45 4
0 -3 11 74808.1 4643.57 1
0 -3 10 5619.23 875.024 3
0 -3 10 6336.54 1343.5 1
0 -3 9 83014.3 4631.14 1
0 -3 9 74921.4 3177.1 3
0 -3 8 634.78 330.357 3
0 3 -7 40977.6 2140.68 3
0 -3 7 39162.2 2044.26 3
0 -3 6 14783.7 1243.2 6
0 -3 6 12379.3 1061.57 3
0 3 -6 12875.3 1143.31 3
0 -3 5 151502 4245.01 3
0 -3 5 157935 4403.73 6
0 -3 4 8457.06 921.072 6
0 -3 4 7644.72 854.083 3
0 3 -4 7905.22 1096.96 1
0 3 -3 24846 1885.57 1
0 -3 3 21819.3 1787.3 1
0 -3 3 23057.5 1520.63 6
0 3 -3 23579.2 1495.02 6
0 3 -2 28111.6 1653.35 6
0 -3 2 27848 1873.63 1
0 3 -2 26523.2 1865.13 1
0 -3 1 101943 3399.62 1
0 3 -1 100370 3513.29 1
0 3 -1 104590 3441.99 6
0 3 -1 103617 3362.39 4
0 -3 0 10516 913.834 2
0 3 0 8709.32 980.966 6
0 -3 0 9135.91 876.154 1
0 3 0 9611.76 947.086 1
0 3 0 9176.71 954.739 4
0 -3 -1 1082.88 342.381 2
0 3 1 931.122 413.424 6
0 3 1 1021.43 258.988 1
0 -3 -1 1424.81 422.348 4
0 3 1 766.373 308.484 4
0 -3 -2 23253.2 1665.51 4
0 3 2 21668 1641.48 4
0 3 2 20521.9 1577.1 6
0 3 2 18524.9 971.553 1
0 -3 -3 184215 5609.82 4
0 3 3 202974 5640.34 6
0 3 3 198221 5244.96 2
0 -3 -4 14.4977 280.117 4
0 3 4 -84.1551 319.794 6
0 3 5 7236.03 1063.19 6
0 -3 -5 8038.66 1164.07 4
0 -3 -6 4099.65 861.298 4
0 3 6 3581.26 854.067 6
0 -3 -7 61722.4 3540.8 4
0 -3 -8 1267.38 833.955 4
0 -3 -9 20337.4 2278.67 4
0 -3 -10 1206.42 801.42 4
0 -3 -11 13820 2014.33 4
0 -3 -12 -951.257 905.283 4
0 -3 -13 13824.2 2363.12 4
0 -3 -14 408.775 806.88 4
0 4 -17 5468.66 1324.08 4
0 -4 16 116.943 520.087 3
0 4 -16 989.625 643.905 4
0 -4 16 704.807 835.983 1
0 -4 15 9704.58 2020.03 1
0 -4 15 8426.36 1451.49 3
0 4 -15 7503.56 1440.03 4
0 4 -14 -20.7693 440.703 4
0 -4 14 69.1422 776.356 1
0 -4 14 113.186 438.335 3
0 -4 13 2982.88 819.792 3
0 4 -13 3940.77 894.704 4
0 -4 13 4190.31 1324.71 1
0 -4 12 2715.43 729.517 3
0 4 -12 2447.91 706.461 4
0 -4 12 3946.09 1134.01 1
0 -4 11 36549.1 3415.42 1
0 -4 11 31512.8 2283.51 3
0 -4 10 1987.19 581.336 3
0 -4 10 3378.97 1027.83 1
0 -4 9 6482.65 990.044 3
0 -4 9 8096.93 1548.92 1
0 -4 8 14071.2 1953.9 1
0 -4 8 14214 1370.57 3
0 -4 7 107431 3847.02 3
0 -4 6 -149.418 488.375 1
0 -4 6 553.221 401.357 3
0 -4 5 3762.14 761.485 3
0 -4 5 4158.89 864.324 1
0 -4 4 8889.34 1293.55 1
0 -4 4 8817.7 1107.14 3
0 4 -4 8294.88 589.756 5
0 4 -3 106781 3881.19 6
0 4 -3 99051.8 4229.78 1
0 -4 3 104155 4315.08 1
0 4 -2 15818 1465 6
0 -4 2 16690.6 1549.91 1
0 4 -2 16629 1643.37 1
0 4 -2 15319.2 1412.65 4
0 -4 1 37572.8 2247.03 1
0 -4 1 35425 1880.89 2
0 4 -1 40141.5 2361.01 6
0 4 -1 35041 2228.06 1
0 4 -1 35437.1 2213.43 4
0 4 0 13253.5 1355.58 6
0 4 0 12910.1 1238.82 1
0 -4 0 12273.1 1135.4 2
0 4 1 223269 5359.49 1
0 4 1 245592 6690.66 6
0 -4 -1 217934 4014.53 5
0 -4 -1 249545 6081.98 2
0 4 2 51587.8 2909.95 6
0 4 2 45919.1 1860.08 1
0 4 3 23643.9 1993.97 6
0 4 3 19205.4 872.928 1
0 -4 -3 21817.3 2011.54 4
0 4 4 469.205 443.894 6
0 -4 -4 980.227 599.879 4
0 -4 -5 43767.9 3016 4
0 4 5 39905.2 2822.2 6
0 -4 -6 5685.26 1184.1 4
0 4 6 6482.55 1245.54 6
0 4 7 19108.3 2071.29 6
0 -4 -7 20026.9 2209.25 4
0 -4 -8 -1078.07 630.17 4
0 4 8 774.259 440.005 6
0 -4 -9 3696.84 1208.09 4
0 4 9 3049.9 1056.34 6
0 4 10 4576.83 1233.09 6
0 -4 -10 4668.77 1365.41 4
0 -4 -11 8366.2 1772.57 4
0 4 11 9373.32 1686.02 6
0 -4 -12 287.502 683.282 4
0 4 12 -384.904 681.148 6
0 4 13 1833.55 895.09 6
0 -4 -13 -1074.96 1065.72 4
0 5 -16 1050.91 832.579 4
0 -5 16 1054.93 1029.98 1
0 -5 16 52.8127 677.342 3
0 -5 15 5678.53 1225.26 3
0 5 -15 5517.92 1215.23 4
0 -5 15 7393.32 1762.53 1
0 5 -14 3322.75 834.593 4
0 -5 14 4347.23 1490.12 1
0 -5 14 1049.98 434.638 3
0 -5 13 10592.8 1445.19 3
0 -5 13 13638.4 2262.16 1
0 -5 12 3663.62 914.092 3
0 -5 12 5145.03 1638.65 1
0 -5 11 12856.6 2107.82 1
0 -5 11 10855.9 1415.18 3
0 -5 10 47671 2918.3 3
0 -5 10 55416.1 4157.29 1
0 -5 9 74399.4 3508.29 3
0 -5 9 77187.3 4828.52 1
0 -5 8 2802.35 1055.87 1
0 -5 8 1897.1 542.05 3
0 -5 7 1511.4 607.959 3
0 -5 7 1538.11 787.973 1
0 -5 6 15176.5 1953.65 1
0 5 -6 13042.7 946.873 5
0 -5 6 14905.9 1607.6 3
0 -5 5 28656.1 2253.12 3
0 -5 5 30470.7 2665.82 1
0 5 -5 28251.5 1049.09 5
0 -5 4 26464.7 2398.6 1
0 5 -4 27519.3 2139.63 6
0 -5 3 4502.53 999.233 1
0 5 -3 5155.07 960.745 6
0 -5 2 3814.92 665.517 2
0 5 -2 3966.4 847.325 6
0 5 -1 23078.7 2052.38 6
0 5 -1 23727 1987.69 1
0 -5 1 20514.3 1643.42 2
0 5 0 24142.4 2135.87 6
0 -5 0 22721.2 1793.72 2
0 5 0 20150.4 1727.69 1
0 -5 -1 16764.1 732.304 5
0 5 1 20519.8 2008.9 6
0 5 1 18024.8 1457.48 1
0 -5 -1 19155.9 1696.09 2
0 -5 -1 15570.9 744.167 5
0 5 2 24435.4 2207.84 6
0 -5 -2 22572.8 1127.65 5
0 5 2 20375.1 1292.87 1
0 5 3 15946.3 1812.63 6
0 5 3 12428.2 789.577 1
0 -5 -4 30727.7 2617.37 4
0 5 4 30237 2630.53 6
0 -5 -5 7965.26 1476.15 4
0 5 5 7183.64 1361.97 6
0 5 6 1747.48 825.001 6
0 -5 -6 366.049 733.021 4
0 5 7 -42.413 529.136 6
0 -5 -7 427.422 606.944 4
0 5 8 7183.02 1471.33 6
0 -5 -8 7345.34 1657.23 4
0 -5 -9 9903.87 1800.67 4
0 5 9 5663.12 1565.46 6
0 5 10 -518.461 804.036 6
0 -5 -10 1480.35 1044.51 4
0 -5 -11 -389.312 719.784 4
0 5 11 41.3592 600.661 6
0 -6 15 1033.01 758.693 3
0 -6 14 1072 600.995 3
0 -6 14 -982.834 848.872 1
0 -6 13 -81.9169 614.918 3
0 -6 13 -116.264 643.299 1
0 -6 12 3355.21 1238.65 1
0 -6 12 3557.49 902.646 3
0 -6 11 19955.7 2679.07 1
0 -6 11 17642.3 1870.63 3
0 -6 10 4572.54 1335.45 1
0 -6 10 4333.36 942.91 3
0 6 -9 884.969 449.287 5
0 -6 9 314.176 409.201 3
0 -6 8 3719.25 1065.53 1
0 -6 8 5556.01 1183.06 3
0 6 -8 4650.2 679.005 5
0 -6 7 376.625 386.613 3
0 6 -7 953.975 264.568 5
0 -6 6 14736 2102.98 1
0 -6 6 17382.5 1920.73 3
0 -6 5 -498.525 484.438 3
0 -6 5 1265.6 760.171 1
0 6 -4 2733.52 834.779 6
0 -6 4 4305.75 804.386 2
0 -6 3 5688.6 901.436 2
0 6 -3 5277.91 1073.04 6
0 -6 2 17449.5 1629.95 2
0 6 -2 16893.5 1958.04 6
0 -6 1 8758.73 1204.38 2
0 6 -1 10414.9 1571.92 6
0 -6 0 26.3632 407.647 2
0 6 0 85.8129 502.554 6
0 6 1 20636.3 2354.35 6
0 6 2 35796.7 3006.12 6
0 6 3 931.294 743.14 6
0 6 4 2642.12 1015.98 6
0 6 5 -266.592 717.506 6
0 6 6 7080.47 1529.53 6
0 6 7 -172.745 618.513 6
0 6 8 1035.59 867.675 6
0 -6 -8 -33.5305 628.434 4
0 -6 -9 233.282 857.199 4
0 6 9 406.389 703.122 6
0 -7 14 3297.07 1108.41 3
0 -7 13 724.976 538.824 3
0 -7 12 8128.1 1483.83 3
0 -7 11 1157.4 778.328 3
0 -7 10 8130.51 1375.92 3
0 -7 9 749.413 535.861 3
0 -7 8 8073.34 1517 3
0 -7 7 545.209 470.385 3
0 -7 6 1220.32 667.187 3
0 -7 5 -402.923 585.534 3
0 -7 5 -12.7111 361.199 2
0 7 -4 13037 1830.02 6
0 -7 4 10707.5 1331.99 2
0 -7 3 442.185 564.715 2
0 7 -3 537.522 668.095 6
0 7 -2 -44.4508 509.062 6
0 -7 2 -181.06 371.832 2
0 -7 1 157.42 417.293 2
0 7 -1 507.002 650.434 6
0 7 0 8618.01 1595.02 6
0 7 1 1425.38 977.547 6
0 7 2 1357.64 807.185 6
0 7 3 -655.21 591.605 6
0 7 4 3038.6 1171.94 6
0 7 5 1928.06 1124.38 6
0 7 6 -654.86 735.509 6
0 -8 11 547.595 652.563 3
0 -8 10 2012.63 902.458 3
0 -8 9 839.664 593.853 3
0 -8 8 2485.76 995.975 3
0 -8 7 2486.07 1042.24 3
0 -8 6 3528.78 1250.62 3
0 -8 5 178.125 758.063 3
0 8 -4 614.335 734.705 6
0 -8 4 -271.403 745.365 3
0 8 -3 1280.66 705.841 6
0 8 -2 1225.79 893.753 6
0 8 -1 670.206 663.268 6
0 8 0 -89.9267 541.622 6
0 8 1 624.854 762.19 6
0 8 2 2930.71 979.933 6
0 8 3 1384.79 859.236 6
-1 9 -1 -225.351 680.133 6
-1 9 -2 1524.45 1029.8 6
-1 9 -3 1509.08 893.318 6
1 -9 4 -362.691 899.458 3
1 -9 5 1235.48 759.279 3
1 -9 6 -959.152 794.744 3
1 -9 7 2244.22 1065.57 3
-1 8 4 1549.22 977.092 6
-1 8 3 3043.94 1197.57 6
-1 8 2 823.623 788.068 6
-1 8 1 -715.387 668.428 6
1 -8 0 714.88 572.337 2
-1 8 0 1860.41 950.052 6
-1 8 -1 4840.66 1349.68 6
1 -8 1 2511.09 886.721 2
-1 8 -2 2593.29 1026.09 6
1 -8 2 2120.17 886.934 2
-1 8 -3 263.813 748.713 6
1 -8 3 428.375 446.103 2
1 -8 4 567.105 617.245 2
1 -8 5 5396.97 1303.02 3
1 -8 5 7838.61 1667.05 1
1 -8 5 5510.24 1108.23 2
1 -8 6 3733.33 1066.26 3
1 -8 6 4831.76 1357.75 1
1 -8 7 781.48 865.668 1
1 -8 7 1353.43 691.37 3
1 -8 8 375.179 692.268 3
1 -8 8 1385.03 921.73 1
1 -8 9 5944.54 1605.54 1
1 -8 9 7013.65 1288.55 3
1 -8 10 4581.59 1499.88 1
1 -8 11 -13.7444 832.936 1
1 -8 12 1208.02 1243.11 1
1 -7 -8 310.884 620.438 4
-1 7 8 -7.06866 842.892 6
1 -7 -7 -156.355 586.256 4
-1 7 7 757.295 778.451 6
-1 7 6 6177.97 1539.24 6
-1 7 5 3090.3 1196.2 6
-1 7 4 4715.54 1226.49 6
-1 7 3 22.8199 658.032 6
-1 7 2 7091.35 1516.17 6
-1 7 1 1696.91 790.088 6
1 -7 -1 3309.26 1097.03 2
1 -7 0 5840.62 1135.69 2
-1 7 0 6010.6 1200.72 6
1 -7 1 1626.87 710.334 2
-1 7 -1 1623.26 829.262 6
-1 7 -2 2043.18 828.296 6
1 -7 2 2405.83 753.747 2
1 -7 2 1808.63 813.205 1
1 -7 3 3846.41 1068 1
1 -7 3 2134.59 734.355 2
-1 7 -3 1293.17 709.566 6
1 -7 4 18128.5 2187.55 1
1 -7 5 5021.31 1055.91 3
1 -7 5 4760.92 1227.11 1
1 -7 6 999.55 769.039 1
1 -7 6 235.073 369.32 3
1 -7 7 710.495 468.615 3
1 -7 7 1396.96 919.777 1
1 -7 8 18026.8 2480.69 1
1 -7 8 17502.8 1874.3 3
1 -7 9 -91.3867 715.147 1
1 -7 9 -75.4171 484.815 3
1 -7 10 854.675 963.791 1
1 -7 10 375.45 440.374 3
1 -7 11 -402.729 917.122 1
1 -7 11 200.737 461.011 3
1 -7 12 1858.78 1054.78 1
1 -7 13 1236.66 1276.96 1
1 -7 14 5627.51 1896.14 1
1 -6 -10 -183.28 707.321 4
-1 6 10 -273.385 741.612 6
1 -6 -9 544.374 566.729 4
-1 6 9 829.345 787.387 6
-1 6 8 4340.2 1371.66 6
1 -6 -8 4335.87 1375.38 4
-1 6 7 -630.545 727.015 6
1 -6 -7 638.537 586.527 4
-1 6 6 11791.1 1933.96 6
1 -6 -6 13767.6 2012.77 4
-1 6 5 14.5026 652.6 6
1 -6 -5 -42.2956 513.761 4
1 -6 -4 8923.82 1463.68 4
-1 6 4 10678.1 1744.91 6
-1 6 3 2610.4 966.352 6
-1 6 2 5870.28 1143.39 6
1 -6 -2 5717.4 1078.56 2
-1 6 1 602.445 283.945 1
1 -6 -1 81.32 359.447 2
-1 6 1 115.94 587.719 6
-1 6 0 9554.58 1461.75 6
1 -6 0 9478.87 1304.15 2
1 -6 0 9162.74 1221.93 1
-1 6 0 7411.4 983.736 1
-1 6 -1 237.734 400.88 6
1 -6 1 1519.7 692.161 2
1 -6 1 162.733 466.501 1
1 -6 2 58510.2 3497.41 1
-1 6 -2 60403.6 3543.13 6
1 -6 2 56881.4 3073.04 2
1 -6 3 907.934 565.723 1
-1 6 -3 74.0495 481.655 6
1 -6 4 121.649 537.391 1
-1 6 -4 278.412 285.768 4
1 -6 5 1205.31 613.316 3
-1 6 -5 626.502 308.458 4
-1 6 -5 1049.72 263.56 5
1 -6 5 922.691 583.425 1
1 -6 6 59071.7 3188.23 3
1 -6 6 61591.2 4160.45 1
-1 6 -6 60386.1 2906.1 4
-1 6 -6 63106.2 2244.47 5
1 -6 7 2184.75 622.588 3
1 -6 7 2201.76 898.188 1
-1 6 -7 2389.38 464.63 5
1 -6 8 5353.33 829.866 3
1 -6 8 5631.25 1484.23 1
-1 6 -8 3917.19 712.434 5
1 -6 9 5605.57 879.916 3
1 -6 9 8742.35 1790.58 1
-1 6 -9 7626.89 1152.88 5
1 -6 10 25887.5 2057.49 3
-1 6 -10 31381 2435.41 5
1 -6 10 31996.1 3360.7 1
1 -6 11 183.727 392.877 3
-1 6 -11 -873.412 661.614 5
1 -6 11 774.296 704.61 1
1 -6 12 718.67 465.593 3
1 -6 12 1463.15 583.087 1
1 -6 13 -236.283 499.092 3
1 -6 13 -690.51 700.082 1
1 -6 14 11122 2264.6 1
1 -6 15 1260.98 1102.27 1
1 -6 16 4563.93 1766.54 1
1 -5 -12 1091.88 1005.21 4
-1 5 12 3752.61 1285.72 6
1 -5 -11 824.044 803.862 4
-1 5 11 362.01 578.68 6
-1 5 10 3613.72 1143.14 6
1 -5 -10 3462.29 1133.42 4
1 -5 -9 2498.18 1032.9 4
-1 5 9 1215.7 901.168 6
1 -5 -8 12593.1 1917.28 4
-1 5 8 12069.2 1832.86 6
1 -5 -7 679.76 731.234 4
-1 5 7 63.0842 646.536 6
1 -5 -6 11825.6 1706.37 4
-1 5 6 13146.5 1752.58 6
1 -5 -5 5150.89 1156.25 4
-1 5 5 4403.86 1133.44 6
1 -5 -4 18374 1446.35 5
-1 5 4 24362 2229.33 6
1 -5 -4 22905.1 2107.25 4
1 -5 -3 13374.9 1066.68 5
1 -5 -3 17911.3 1822.42 2
1 -5 -3 16437.9 1728.9 4
-1 5 3 16701.4 1837.32 6
-1 5 2 2988.2 760.205 6
1 -5 -2 2766.1 463.611 5
-1 5 2 2977.51 447.248 1
1 -5 -2 4220.35 931.031 4
1 -5 -2 2975.43 731.488 2
1 -5 -1 11625 1380.95 2
-1 5 1 11919.1 1469.1 6
1 -5 -1 12590.1 1210.09 1
1 -5 -1 11349.8 805.333 5
-1 5 1 11293.9 1018.36 1
-1 5 0 71741.8 2957.84 1
1 -5 0 84520.1 3467.9 1
1 -5 0 75627.3 3393.29 2
-1 5 0 75706.1 3761.88 6
1 -5 0 76486.9 2068.95 5
-1 5 -1 2110.85 566.559 1
1 -5 1 3241.44 707.217 1
-1 5 -1 2954.21 820.691 6
-1 5 -1 2801.42 652.201 4
1 -5 1 2845.73 653.155 2
1 -5 1 2421.92 309.4 5
1 -5 2 5683.8 1071.93 1
-1 5 -2 5089.38 792.938 4
-1 5 -2 5829.55 1030.56 6
1 -5 3 3970.51 912.282 1
-1 5 -3 3243.18 610.045 4
-1 5 -3 2620.73 340.304 5
-1 5 -3 4348.74 875.156 6
1 -5 4 36847.2 2799.55 1
-1 5 -4 35239.3 1962.01 4
-1 5 -4 34765.3 1438.18 5
1 -5 5 21560.2 1688.36 3
-1 5 -5 23670 1366.86 5
1 -5 5 25513.1 2478.71 1
-1 5 -6 2877.54 581.179 5
1 -5 6 2603.23 596.892 3
-1 5 -7 1875.06 573.242 5
1 -5 7 1388.54 470.617 3
1 -5 8 21444.5 2452.18 1
-1 5 -8 22201 1872.93 5
1 -5 8 19405.9 1547.44 3
1 -5 9 20629.9 1624.7 3
1 -5 9 20903.5 2533.04 1
1 -5 10 615.382 680.036 1
1 -5 10 100.247 251.937 3
1 -5 11 1445.67 711.186 1
1 -5 11 1204.2 527.481 3
-1 5 -11 516.821 286.915 4
1 -5 12 2902.4 951.403 1
-1 5 -12 1698.65 598.417 4
1 -5 12 2251.99 629.87 3
1 -5 13 3140.2 1181.24 1
1 -5 13 2879.99 818.638 3
-1 5 -13 2837.4 835.538 4
-1 5 -14 10660 1472.99 4
1 -5 14 11820.5 1563.66 3
1 -5 14 13859.2 2371.61 1
1 -5 15 4780.36 1100.3 3
1 -5 15 4194.79 1261.68 1
1 -5 16 -830.977 978.41 1
1 -4 -13 -500.703 694.828 4
-1 4 13 -75.8734 949.842 6
1 -4 -12 3499.81 1206.8 4
-1 4 12 4536.81 1328.53 6
1 -4 -11 9096.42 1802.93 4
-1 4 11 10922.6 1751.75 6
1 -4 -10 13167.2 1939.81 4
-1 4 10 8996.54 1562.83 6
-1 4 9 -485.473 519.891 6
1 -4 -9 -1397.65 720.173 4
-1 4 8 331.334 537.56 6
1 -4 -8 -551.113 578.154 4
1 -4 -7 17242.9 1969.68 4
-1 4 7 15525.5 1819.93 6
1 -4 -6 54446.3 3401.72 4
-1 4 6 56214.5 3317.21 6
1 -4 -5 16130.5 1651.5 4
-1 4 5 18352.1 1785.68 6
1 -4 -4 2414.81 705.713 4
-1 4 4 2297.5 607.74 6
1 -4 -3 44837.6 2615.49 4
1 -4 -3 40662.2 1398.83 1
-1 4 3 44371.4 2661.67 6
1 -4 -3 47967.4 2724.21 2
-1 4 2 38019.2 2222.04 4
1 -4 -2 38428.5 2220.89 4
-1 4 2 41300.1 2499.64 6
1 -4 -2 39633.7 2426.48 2
1 -4 -2 40820.4 1744.42 1
1 -4 -2 35751 1595.54 5
-1 4 2 34280.1 1370.72 1
1 -4 -1 39632.4 2237.23 2
1 -4 -1 44156.3 2102.66 1
1 -4 -1 40088.8 2200.95 4
-1 4 1 35544.7 1592.54 1
-1 4 1 36784 2131.28 4
-1 4 1 40482.6 2423.4 6
1 -4 -1 38657.5 1517.82 5
1 -4 0 2043.52 533.799 1
1 -4 0 2804.16 669.984 2
-1 4 0 2155.27 458.078 4
-1 4 0 1974.44 411.075 1
-1 4 0 1765.59 517.446 6
1 -4 0 1948.57 311.933 5
-1 4 -1 21670.4 1684.47 6
1 -4 1 22482.9 1716.51 1
-1 4 -1 20617 1382.36 4
1 -4 1 20569.6 960.39 5
-1 4 -1 19287.5 1440.68 1
-1 4 -2 36174 2130.44 1
-1 4 -2 38083.9 2216.62 6
1 -4 2 37854.3 2352.56 1
-1 4 -2 41065.6 1382.13 5
-1 4 -2 38290.3 1797.01 4
-1 4 -3 179857 3741.88 5
-1 4 -3 171715 4227.34 4
-1 4 -3 177317 5361.09 1
1 -4 3 180491 5830.41 1
1 -4 4 27689.9 1645.2 3
1 -4 4 30960.4 2338.94 1
-1 4 -4 30397.2 1508.43 5
-1 4 -5 582.768 267.053 5
1 -4 5 570.016 281.957 3
1 -4 6 44832.5 2042.16 3
-1 4 -6 45967.8 2425.27 5
1 -4 7 125620 3722.84 3
1 -4 8 20916 1466.49 3
-1 4 -8 20325.8 1505.08 3
1 -4 9 11080.9 1111.25 3
-1 4 -9 11224.5 1114.25 4
-1 4 -9 9481.28 1069.15 3
1 -4 10 16954.3 1440.59 3
-1 4 -10 19317.3 1543.18 4
-1 4 -11 55968.1 2854.3 4
1 -4 11 55219.8 2774.77 3
1 -4 11 64074.3 4591.28 1
1 -4 12 5185.27 1484.93 1
-1 4 -12 4044.31 880.179 4
1 -4 12 3987.74 790.025 3
-1 4 -13 9815.68 1303.9 4
1 -4 13 10788.5 1411.61 3
1 -4 13 8081.58 1766.66 1
1 -4 14 498.016 518.698 3
-1 4 -14 91.099 437.175 4
1 -4 14 68.6583 635.937 1
-1 4 -15 15223.8 1856.92 4
1 -4 15 13740.3 2357.52 1
-1 4 -16 2963.24 923.284 4
1 -4 16 -370.397 875.028 1
1 -4 17 9806.48 2155.83 1
1 -3 -15 2030.91 946.658 4
-1 3 15 813.119 927.471 6
1 -3 -14 1790.76 1032.8 4
1 -3 -13 8148.23 1748.22 4
1 -3 -12 4902.78 1315.86 4
1 -3 -11 2027.63 990.015 4
1 -3 -10 1184.97 686.482 4
-1 3 9 46414.7 3083.01 6
1 -3 -9 48180.5 3335.31 4
-1 3 8 6741.11 1245.28 6
1 -3 -8 8963.19 1354.98 4
1 -3 -7 43948.9 2844.95 4
-1 3 7 43291.3 2718.65 6
-1 3 6 8646.73 1149.93 6
1 -3 -6 7898.95 1132.71 4
-1 3 5 66325.3 3110.25 6
1 -3 -5 64517 3080.05 4
1 -3 -4 1077.88 496.576 4
-1 3 4 1195.15 511.048 6
1 -3 -3 259422 4298.45 1
-1 3 3 268260 6465.26 6
-1 3 3 257074 6195.09 2
1 -3 -3 247462 5999.64 4
-1 3 3 248363 6058.35 4
-1 3 2 3034.3 603.08 6
1 -3 -2 3258.03 399.303 1
1 -3 -2 3134.21 479.163 5
-1 3 2 2720.88 516.394 4
1 -3 -2 3112.91 602.934 4
-1 3 1 90525.3 3242.7 6
1 -3 -1 84695.7 2779.01 4
1 -3 -1 95120.4 2585.44 1
-1 3 1 89870.3 2858.51 4
1 -3 -1 83419.4 2319.57 5
-1 3 1 85201.1 2267.1 1
1 -3 0 11797.5 959.359 1
-1 3 0 12681.1 922.067 4
1 -3 0 12509.5 742.574 5
1 -3 0 12627.4 945.636 4
-1 3 0 12344.6 1125.44 6
-1 3 0 10958.5 847.3 1
1 -3 1 266511 4747.73 5
1 -3 1 268772 5859.98 1
-1 3 -1 260357 5586.95 1
-1 3 -1 270341 4688.38 5
-1 3 -1 262383 4964.39 4
-1 3 -1 269124 5977.13 6
-1 3 -2 66828.9 1946.17 5
1 -3 2 69243.9 2770.29 1
-1 3 -2 68021.6 1935.46 4
1 -3 2 66018.5 2036.16 5
-1 3 -2 69829.9 2647.81 1
-1 3 -2 71050.2 2693.3 6
1 -3 3 8447.31 725.533 3
-1 3 -3 9268.18 784.386 5
-1 3 -3 9762.15 1026.35 1
-1 3 -4 2566.1 510.022 5
-1 3 -4 1622.78 458.846 1
1 -3 4 2330.45 406.064 3
1 -3 5 183087 3985.02 3
-1 3 -5 189610 5532.59 1
1 -3 6 -11.0204 162.134 3
-1 3 -6 -22.664 162.843 3
-1 3 -7 16697.5 1124.45 4
-1 3 -7 14827.3 1084.66 3
1 -3 7 15969.3 1120.27 3
-1 3 -8 578.117 285.007 3
1 -3 8 206.662 269.468 3
-1 3 -8 -154.004 201.486 4
1 -3 9 106861 3542.74 3
-1 3 -9 112169 3744.28 4
-1 3 -9 104657 3420.83 3
-1 3 -10 9284.29 1133.01 4
1 -3 10 11051.8 1822.12 1
1 -3 10 8867.9 1069.21 3
-1 3 -11 3389.4 730.885 4
1 -3 11 3707.56 777.804 3
1 -3 11 1376.98 704.532 1
1 -3 12 7153.04 1493.8 1
-1 3 -12 5397.54 1002.68 4
1 -3 13 23510.4 2790.43 1
-1 3 -13 20466.2 1983.46 4
-1 3 -14 2642.48 933.206 4
1 -3 14 4874.14 1439.68 1
1 -3 15 12769.2 2170.24 1
-1 3 -15 15230.9 1937.09 4
1 -3 16 -1798.19 1106.32 1
-1 3 -16 -417.201 565.059 4
1 -3 17 1558.23 1204.98 1
-1 3 -17 1652.94 993.401 4
1 -2 -16 1176.68 945.54 4
1 -2 -15 14831 2249.64 4
1 -2 -14 136.892 713.285 4
1 -2 -13 11496.4 1831.67 4
1 -2 -12 -611.258 464.057 4
1 -2 -11 38320.6 3075.61 4
1 -2 -10 464.372 494.914 4
1 -2 -10 551.122 206.552 1
1 -2 -9 38155.7 1576.78 1
1 -2 -9 37876.4 2726.09 4
1 -2 -8 6069.52 588.513 1
1 -2 -8 5593.48 1011.68 4
1 -2 -7 12323.1 1390.87 4
1 -2 -7 11014.7 746.969 1
1 -2 -6 757.154 414.041 4
1 -2 -6 388.492 107.137 1
1 -2 -5 354974 5768.98 1
1 -2 -5 377763 7874.53 4
-1 2 4 36902.4 2012.95 2
-1 2 4 42642.9 2050.47 6
1 -2 -4 37189.5 1958.41 4
1 -2 -3 44949.1 1959.39 4
-1 2 3 45094.9 2086.69 2
-1 2 3 44189.3 1996.81 6
-1 2 2 50837.3 2025.15 2
1 -2 -2 46769.6 1829.35 4
1 -2 -2 48389.4 1258.49 1
-1 2 2 47411.9 1826.05 4
-1 2 2 49797.5 1987.19 6
1 -2 -1 307204 5450.29 5
1 -2 -1 313774 5580.11 4
1 -2 -1 324091 5145.7 1
-1 2 1 316806 5594.16 4
-1 2 1 329988 6065.37 6
-1 2 0 6740.22 656.516 6
-1 2 0 6462.09 471.744 4
-1 2 0 7898.21 552.247 5
1 -2 0 7082.22 521.66 5
-1 2 0 6715.51 548.341 1
1 -2 0 6558.82 548.836 1
1 -2 0 6273.28 475.006 4
1 -2 1 2363.97 326.878 5
-1 2 -1 2314.17 220.172 4
-1 2 -1 2759.05 339.232 5
-1 2 -1 2688.17 419.407 6
-1 2 -1 2355.66 381.883 1
-1 2 -2 14162.4 878.577 5
1 -2 2 14384.2 921.024 5
-1 2 -2 14914.8 1010.36 1
-1 2 -3 348281 6654.63 5
1 -2 3 345610 5324.73 3
-1 2 -3 348596 6843.79 1
-1 2 -4 87489.5 3044.33 1
-1 2 -4 86979.4 2109.64 3
1 -2 4 83826.7 2044.61 3
-1 2 -4 87362.6 2061.39 4
-1 2 -5 104538 2617.48 4
-1 2 -5 99348.4 3490.4 1
-1 2 -5 104403 2484.21 3
1 -2 5 96850.6 2481.51 3
1 -2 6 1097.7 273.1 3
-1 2 -6 954.84 281.07 4
-1 2 -6 1001.4 377.437 1
-1 2 -6 1196.18 277.648 3
1 -2 7 278369 7414.86 1
-1 2 -7 277133 5915.12 4
-1 2 -7 276466 5455.33 3
1 -2 7 263432 5660.98 3
1 -2 8 14029.4 1186.98 3
-1 2 -8 14933.4 1097.88 3
1 -2 8 14055.6 1583.47 1
-1 2 -8 13316.1 1180.27 4
1 -2 9 72712.6 3986.96 1
-1 2 -9 73878.1 3144.01 4
-1 2 -9 72583.5 2758.74 3
-1 2 -10 3010.39 695.793 4
1 -2 10 3131.3 994.833 1
-1 2 -11 59568.9 3195.69 4
1 -2 11 65488 4149.53 1
1 -2 12 16623.1 2163.34 1
-1 2 -12 19200.7 1907.81 4
-1 2 -13 21187.7 2144.92 4
1 -2 13 26067.7 2857.84 1
-1 2 -14 3364.4 974.052 4
1 -2 14 2881.03 1057.24 1
-1 2 -15 1289.08 761.782 4
1 -2 15 3183.95 1154.51 1
-1 2 -16 4680.82 1303.62 4
1 -2 16 8132.58 1804.06 1
1 -2 17 11499.2 2095.2 1
-1 2 -17 11593.5 2009.28 4
1 -1 -17 6801.93 1830.21 4
1 -1 -16 2624.81 1290.59 4
1 -1 -15 4598.91 1229.78 4
1 -1 -14 2883.43 915.247 4
1 -1 -13 10593.8 1726.76 4
1 -1 -12 1099.72 737.292 4
1 -1 -11 10142 1493.16 4
1 -1 -11 9322.48 1112.75 1
1 -1 -10 486.749 395.218 1
1 -1 -10 45.2878 386.485 4
1 -1 -9 42850.6 2757.86 4
1 -1 -9 41285.3 2185.12 1
1 -1 -8 51852.8 2369.89 1
1 -1 -8 49639 2774.53 4
1 -1 -7 233287 6121.8 4
1 -1 -7 219331 5343.16 1
1 -1 -6 17847.9 1249.67 1
1 -1 -6 18207.7 1431.71 4
1 -1 -5 58155.1 2442.48 4
-1 1 5 56985.6 2501.89 2
1 -1 -5 51912.9 1981.98 1
1 -1 -4 217735 4911.01 4
-1 1 4 218453 5046.85 2
-1 1 3 433864 7587.76 2
1 -1 -3 424421 7372.58 4
1 -1 -2 451070 7115.87 4
-1 1 2 435904 6869.33 6
-1 1 2 448788 7337.21 2
-1 1 1 38600.2 1188.72 6
-1 1 1 38156.8 1306.81 5
-1 1 0 76373 1881.91 5
-1 1 -1 246548 4281.79 1
-1 1 -1 236729 4441.63 5
1 -1 2 10500.1 478.259 4
-1 1 -2 11492.6 738.495 1
-1 1 -2 12217.6 533.633 4
-1 1 -2 11178.4 828.053 5
-1 1 -3 22123.7 785.817 3
1 -1 3 20811.1 878.898 4
-1 1 -3 22406.6 942.845 4
-1 1 -3 21753.9 1142.13 1
1 -1 4 55445.5 1788 4
-1 1 -4 60039 1918.18 4
-1 1 -4 58642.1 2132.64 1
-1 1 -4 60120.1 1668.12 3
-1 1 -5 239535 5027.47 4
1 -1 5 243367 5690.09 1
-1 1 -5 228649 5228.03 1
1 -1 5 230458 4845.6 4
-1 1 -5 251126 4650.46 3
1 -1 6 92175.8 2893.23 4
-1 1 -6 97230.5 3204.76 4
1 -1 6 99731.1 3524.55 1
1 -1 7 47327.7 2199.32 4
1 -1 7 47594.7 2574.77 1
-1 1 -7 51687 2104.62 3
-1 1 -7 41882.4 2165.97 1
-1 1 -7 48351.4 2364.56 4
-1 1 -8 -103.413 276.444 4
-1 1 -8 112.649 221.962 1
-1 1 -8 586.991 288.627 3
1 -1 8 -397.557 610.506 1
-1 1 -9 22675 1833.23 4
1 -1 9 19376.2 1893.01 1
-1 1 -10 135844 5017.89 4
1 -1 10 146212 5803.37 1
1 -1 11 7118.21 1337.23 1
-1 1 -11 3901.14 940.617 4
1 -1 12 914.909 597.275 1
-1 1 -12 1081.09 664.635 4
1 -1 13 1025.77 730.832 1
-1 1 -13 1440.02 802.93 4
-1 1 -14 6304.17 1324.76 4
1 -1 14 9197.31 1630.77 1
-1 1 -15 8628.39 1642.54 4
1 -1 15 8092.2 1557.61 1
-1 1 -16 2399.91 1079.39 4
-1 1 -17 863.007 781.799 4
1 0 -17 1395.67 850.284 4
1 0 -16 -1288.55 864.062 4
1 0 -15 3739.27 1176.28 4
1 0 -14 11539 1752.32 4
1 0 -13 3516.04 1026.55 4
1 0 -12 11886.3 1659.48 4
1 0 -11 4699.31 1009.99 4
1 0 -10 88180.7 4065.27 4
1 0 -9 52260.3 2897.49 1
-1 0 9 58510.4 3036.31 3
1 0 -9 63522 3204.4 4
1 0 -8 22248.7 1803.33 1
-1 0 8 22284.6 1708.31 3
1 0 -8 20903.6 1721.97 4
1 0 -7 33573.3 1985.13 4
-1 0 7 31390.9 1885.59 3
-1 0 6 32805.1 1745.42 3
1 0 -6 34076 1878.19 4
1 0 -5 44673.7 2088.28 1
-1 0 5 42058.4 1821.04 3
-1 0 4 270303 5281.44 3
1 0 -4 272158 5656.88 1
-1 0 3 16.0665 118.597 3
-1 0 2 2016.84 283.098 3
-1 0 2 1554.02 217.223 2
-1 0 -1 333.128 157.46 5
-1 0 -2 30686.1 1369.1 4
-1 0 -3 75607.6 2413.41 4
1 0 3 75356.7 2029.51 1
1 0 4 488926 8051.14 1
-1 0 -4 482168 7842.4 1
1 0 5 39391.5 1941.79 4
-1 0 -5 41965 2031.53 4
1 0 5 38576 1695.06 1
1 0 6 37920.8 1995.97 4
-1 0 -6 36692 2044.83 4
1 0 6 36136.4 1846.7 1
-1 0 -7 1309.11 375.662 3
1 0 7 1173.33 425.891 1
-1 0 -7 1294.29 343.082 1
-1 0 -7 1359.61 562.763 4
1 0 8 154109 4887.09 1
-1 0 -8 153813 4179.61 1
-1 0 -8 164486 5296.48 4
-1 0 -9 4261.64 929.433 4
-1 0 -9 4056.35 659.493 1
1 0 9 3382.67 543.314 1
1 0 10 37954.3 2666.74 1
-1 0 -10 39989.7 2778.73 4
-1 0 -11 16714.1 1914.54 4
1 0 11 15623.5 1823.81 1
-1 0 -12 18239.9 2181.19 4
1 0 12 15103.7 1859.01 1
-1 0 -13 802.032 773.45 4
1 0 13 -691.97 522.326 1
1 0 14 12027 1660.37 1
-1 0 -14 11806.2 1929.13 4
-1 0 -15 931.714 869.046 4
-1 0 -16 3541.86 1172.03 4
1 1 -17 -1349.73 1234.86 4
1 1 -16 18107.1 2368.16 4
1 1 -15 3105.37 1098.77 4
1 1 -14 3113.43 861.854 4
1 1 -13 4131.67 1080.35 4
1 1 -12 47351.7 3144.46 4
-1 -1 12 47195.1 3132.35 3
-1 -1 11 -18.6905 362.344 3
1 1 -11 262.829 381.103 4
1 1 -10 37211.5 2494.78 4
-1 -1 10 37052.4 2415.58 3
1 1 -9 458.429 269.598 4
-1 -1 9 1199.66 533.531 3
-1 -1 8 68248.8 2881.5 3
1 1 -7 8579.79 1206.31 1
-1 -1 7 8253.18 954.777 3
1 1 -6 426797 9447.3 1
-1 -1 6 417313 8036.44 3
1 1 -5 9295.32 1087.32 1
-1 -1 5 8121.63 825.3 3
-1 -1 4 146010 3666.96 3
1 1 -4 150388 4317.95 1
-1 -1 3 2084.16 261.621 6
1 1 -3 2126.27 461.35 1
-1 -1 3 2631.38 437.729 3
1 1 -2 973926 13431.9 5
-1 -1 2 951651 14405.3 3
1 1 -2 963377 13325.3 6
-1 -1 2 968642 13331 6
-1 -1 1 52962.1 1402.29 5
1 1 -1 53387.3 1576.9 6
1 1 -1 55318.6 1428.64 5
-1 -1 1 52574.1 1557.73 6
1 1 0 82131.2 2022.47 5
-1 -1 0 84490.2 1965.15 5
-1 -1 -1 43247.3 1543.07 5
-1 -1 -2 432106 8127.22 4
-1 -1 -3 1577.18 443.525 4
-1 -1 -4 92209.5 3417.95 4
1 1 4 90467.4 2263.23 1
-1 -1 -5 52155.2 2612.92 4
1 1 5 48255.7 1696.07 1
1 1 6 177094 4173.59 1
-1 -1 -6 195692 5676.28 4
1 1 7 12274.6 1070.39 1
-1 -1 -7 12353 1476.32 4
-1 -1 -8 36069.1 2551.22 4
1 1 8 30749.1 1859.04 1
1 1 9 -161.78 440.969 1
-1 -1 -9 23.5027 396.953 4
1 1 10 41509.7 2578.36 1
-1 -1 -10 42349.6 3190.96 4
-1 -1 -11 25057.8 2539.22 4
1 1 11 22444.1 1905.75 1
-1 -1 -12 11049.5 1771.5 4
1 1 12 10426.9 1335.9 1
-1 -1 -13 5140.39 1304.86 4
-1 -1 -14 4116.11 1327.5 4
-1 -1 -15 3847.07 1363.5 4
-1 -1 -16 11106.1 2368.49 4
1 2 -17 585.158 1145.55 4
1 2 -16 2188.58 836.414 4
1 2 -15 302.433 503.268 4
-1 -2 15 922.837 713.041 3
1 2 -14 19605 2182.62 4
-1 -2 14 18319.7 2109.56 3
-1 -2 13 12579.9 1584.12 3
1 2 -13 10054.8 1507.87 4
1 2 -12 39845.5 2779.17 4
-1 -2 12 39974.1 2721.24 3
1 2 -11 1264.93 569.407 4
-1 -2 11 2299.46 690.411 3
-1 -2 10 37551 2390.26 3
-1 -2 9 14171.1 1381.89 3
-1 -2 8 101953 3734.57 3
-1 -2 7 10932.7 1120.36 3
-1 -2 6 5605.6 763.42 3
1 2 -6 6136.83 799.615 3
-1 -2 5 5814.3 769.448 3
1 2 -5 5195.43 979.217 1
-1 -2 5 5876.44 626.479 6
1 2 -4 209750 5946.42 1
-1 -2 4 197888 5072.31 3
-1 -2 4 214519 4545 6
1 2 -3 22765.6 991.126 5
1 2 -3 20728.5 1629.42 1
-1 -2 3 21669.3 1194.63 6
1 2 -3 20193.2 1153.63 6
-1 -2 3 20809.1 1441.23 3
-1 -2 2 15019.8 1023.18 6
1 2 -2 16383.7 700.823 5
1 2 -2 14706.1 1016.56 6
1 2 -2 13864.7 1294.19 1
1 2 -1 126765 3698.01 1
-1 -2 1 120281 2270.75 5
-1 -2 1 120973 2530.06 2
-1 -2 1 125519 3404.91 6
1 2 -1 118530 2387.24 5
1 2 -1 124278 3325.2 6
1 2 0 108784 2543.24 2
1 2 0 110456 3285.16 6
-1 -2 0 109571 2345.06 5
1 2 1 58120.3 2007.49 2
-1 -2 -1 60817 1895.69 5
1 2 1 62790.7 2518.27 6
1 2 2 28469.1 1515.59 2
-1 -2 -3 37241 2257.4 4
-1 -2 -4 197817 5880.78 4
1 2 4 193312 3605.39 1
-1 -2 -5 24056.3 1956.19 4
1 2 5 23694.7 1008.03 1
1 2 6 28932.7 1249.1 1
-1 -2 -6 34749.7 2453.87 4
1 2 7 197.145 140.821 1
-1 -2 -7 -390.323 420.165 4
-1 -2 -8 28530.9 2489.82 4
1 2 8 24056.7 1403.84 1
1 2 9 22281.1 1380.45 1
-1 -2 -9 26721.2 2529.59 4
1 2 10 28169.2 1556.03 1
-1 -2 -10 32938.3 2975.38 4
-1 -2 -11 1734.7 925.309 4
-1 -2 -12 2125.18 886.836 4
-1 -2 -13 12375.1 2140.02 4
-1 -2 -14 7947.65 1869.34 4
-1 -2 -15 -653.117 1047.51 4
-1 -3 17 108.844 769.297 3
1 3 -17 -124.105 619.834 4
1 3 -16 4991.77 1337.79 4
-1 -3 16 4373.35 1151.12 3
-1 -3 15 13766 1920.71 3
1 3 -15 13636.4 1881.16 4
-1 -3 14 17062.9 1989.34 3
1 3 -14 15913 1910.96 4
1 3 -13 121.323 431.43 4
-1 -3 13 1058.21 456.293 3
-1 -3 12 2562.24 803.656 3
-1 -3 11 30169.8 2305.99 3
-1 -3 10 22365.9 1884.12 3
-1 -3 9 7856.22 1097.51 3
-1 -3 8 2057.89 612.293 3
-1 -3 8 2955.5 610.454 6
-1 -3 7 72253.5 2888.33 6
-1 -3 7 68798 3105.01 3
-1 -3 6 76508.6 3305.78 3
-1 -3 6 83315.1 3074.84 6
-1 -3 5 127738 4379.31 3
-1 -3 5 139495 4049.99 6
-1 -3 4 1205.31 439.059 3
1 3 -4 1503.35 395.25 6
1 3 -4 1416.71 272.021 5
-1 -3 4 2152.61 462.514 6
1 3 -3 80336.8 3679.22 1
-1 -3 3 73607.5 3296.17 3
1 3 -3 76627.4 2885.71 6
1 3 -3 78352.2 1754.2 5
-1 -3 3 78900.9 2954.78 6
1 3 -2 174564 5392.61 1
1 3 -2 172182 4705.6 6
-1 -3 2 167172 4640.88 6
-1 -3 2 160932 3464.18 2
1 3 -1 281410 6882.5 1
-1 -3 1 271406 5301.78 2
-1 -3 1 281611 6506.56 6
1 3 -1 286033 6502.19 6
1 3 0 1227.02 417.556 6
1 3 0 1869.53 478.611 1
-1 -3 0 1154.1 191.115 5
1 3 1 33637.6 1669.54 2
1 3 1 35262.8 2125.93 6
1 3 1 27880.9 1702.49 1
-1 -3 -1 29668.4 1282.41 5
1 3 2 20143.8 1319.4 1
1 3 2 18909.1 1624.63 6
1 3 2 19343.5 1368.99 2
-1 -3 -2 19000.8 1195.54 5
1 3 3 71450.4 2412.43 1
1 3 3 73449 3006.51 2
1 3 3 75687.9 3415.51 6
1 3 4 18042.6 1720.08 6
1 3 4 16290.4 1002.53 1
-1 -3 -4 17592 1818.38 4
1 3 5 -14.2372 118.489 1
1 3 5 -390.155 363.734 6
1 3 5 191.416 106.182 1
-1 -3 -5 -240.169 497.758 4
-1 -3 -6 899.272 537.2 4
-1 -3 -7 62493 3878.93 4
-1 -3 -8 10430.9 1641.63 4
-1 -3 -9 4256.05 1249.06 4
-1 -3 -10 1000.8 887.83 4
-1 -3 -11 28441 3044.5 4
-1 -3 -12 1194.21 934.468 4
-1 -3 -13 1243.25 948.342 4
-1 -4 17 6229.77 1504.77 3
1 4 -17 8784.02 1644.64 4
-1 -4 16 1967.77 907.037 3
1 4 -16 988.419 616.609 4
-1 -4 15 493.754 466.729 3
1 4 -15 394.995 645.436 4
-1 -4 14 515.57 521.103 3
-1 -4 13 24960.9 2322.86 3
-1 -4 12 2054.55 730.281 3
-1 -4 11 17104.1 1797.49 3
-1 -4 10 1521.07 576.826 3
-1 -4 9 26897.3 2133.61 3
-1 -4 8 7611.34 1133.33 3
-1 -4 7 15451.4 1628.34 3
-1 -4 6 2649.85 693.079 3
-1 -4 5 18798 1790.55 3
1 4 -5 19142.3 974.526 5
-1 -4 4 12193 1468.27 3
1 4 -4 11404.3 516.808 5
1 4 -4 14544.5 1418.76 6
-1 -4 3 56806 2055.28 2
1 4 -3 62301.7 2988.5 6
1 4 -2 3826.83 750.311 6
-1 -4 2 2503.52 462.628 2
1 4 -1 7272.53 1147.93 1
1 4 -1 10411.9 1269.14 6
-1 -4 1 7480.15 855.307 2
1 4 0 8152.27 1187.7 1
1 4 0 7520.41 1109.04 6
1 4 1 74195.1 3354.85 1
-1 -4 -1 74772.9 2078.71 5
1 4 2 3681.16 847.71 6
-1 -4 -2 3713.53 527.093 5
1 4 2 3373.35 665.078 1
1 4 3 -209.815 350.64 6
-1 -4 -3 43.1097 218.791 5
1 4 3 -383.634 259.134 1
1 4 4 1282.11 682.789 6
1 4 4 289.283 193.179 1
-1 -4 -5 45464.8 3293.61 4
1 4 5 38005.2 2819.78 6
-1 -4 -6 965.83 626.171 4
1 4 6 -81.8601 515.542 6
-1 -4 -7 7417.93 1410.27 4
1 4 7 4676.14 1172.6 6
-1 -4 -8 754.893 785.594 4
1 4 8 1748.88 835.106 6
-1 -4 -9 17908.6 2384.6 4
1 4 9 10896 1785.35 6
1 4 10 75.9704 586.943 6
-1 -4 -10 1060.3 846.911 4
1 4 11 6881.25 1545.57 6
-1 -4 -11 5697.25 1567.15 4
-1 -4 -12 -301.147 691.151 4
1 4 12 43.6207 683.888 6
-1 -5 16 -334.043 649.201 3
1 5 -16 445.599 521.674 4
-1 -5 15 6338.63 1322.23 3
-1 -5 14 2139.87 826.803 3
-1 -5 13 5863.89 1186.07 3
-1 -5 12 180.453 462.5 3
-1 -5 11 3116.19 936.061 3
-1 -5 10 2674.25 862.365 3
-1 -5 9 8011.36 1275.99 3
-1 -5 8 816.6 525.731 3
-1 -5 7 9710.31 1404.17 3
1 5 -7 8494.73 778.312 5
-1 -5 6 2140.65 737.969 3
1 5 -6 2261.05 318.224 5
1 5 -5 68536.1 3448.11 6
-1 -5 5 70498.9 3906.74 3
-1 -5 4 4556.05 985.296 3
1 5 -4 2718.09 789.722 6
-1 -5 4 4526.88 652.215 2
1 5 -3 58.4217 446.928 6
-1 -5 3 53.5825 240.844 2
1 5 -2 2400.31 734.172 6
-1 -5 2 2825.28 583.128 2
1 5 -1 89127.8 4235.56 6
1 5 0 25968.4 2305.52 6
1 5 1 765.775 602.262 6
1 5 1 215.31 399.605 1
-1 -5 -2 227.324 196.05 5
1 5 2 -515.156 394.533 6
1 5 2 94.2784 262.035 1
1 5 3 6839.4 1294.25 6
-1 -5 -3 6140.55 745.714 5
1 5 4 3770.56 1024.57 6
-1 -5 -4 5432.88 820.607 5
1 5 5 7329.04 1515.5 6
-1 -5 -5 3929.45 813.381 5
1 5 6 1898.08 875.717 6
1 5 7 5469.23 1332.14 6
1 5 8 2562.16 958.159 6
-1 -5 -9 4354.18 1440.29 4
1 5 9 6860.28 1540.36 6
-1 -5 -10 258.007 659.2 4
1 5 10 -663.127 966.315 6
-1 -6 15 1366.3 698.505 3
-1 -6 14 -438.811 547.654 3
-1 -6 13 5002.66 1307.89 3
-1 -6 12 4795.86 1150.33 3
-1 -6 11 8773.38 1472.08 3
-1 -6 10 1489.18 724.994 3
-1 -6 9 2058.97 752.781 3
-1 -6 8 7556.21 1338.06 3
-1 -6 7 11032.1 1666.06 3
-1 -6 6 2611.52 970.698 3
-1 -6 6 3964.36 695.965 2
-1 -6 5 6427.47 1444.77 3
-1 -6 5 4713.94 748.282 2
1 6 -5 4913.57 1116.56 6
-1 -6 4 7803.21 957.269 2
-1 -6 4 7981.94 1471.32 3
1 6 -4 8405.99 1411.96 6
-1 -6 3 9344.26 1097.65 2
1 6 -3 6471.91 1263.52 6
1 6 -2 8918.93 1468.12 6
1 6 -1 1957.23 766.176 6
1 6 0 1416.27 653.626 6
1 6 1 279.198 634.494 6
1 6 2 10259 1688.8 6
1 6 3 4256.4 1181.62 6
1 6 4 -542.06 598.442 6
1 6 5 1849.49 606.954 6
1 6 6 5554.34 1371.26 6
1 6 7 5406.8 1460.31 6
1 6 8 -1621.15 1033.3 6
-1 -7 13 563.261 612.183 3
-1 -7 12 1743.79 978.872 3
-1 -7 11 -598.713 676.207 3
-1 -7 10 7221.38 1466.68 3
-1 -7 9 38.5791 524.179 3
-1 -7 8 4544.52 1284.09 3
-1 -7 7 453.237 650.508 3
-1 -7 6 4502.74 1326.2 3
1 7 -5 2849.2 946.257 6
-1 -7 5 1894.84 821.485 3
-1 -7 4 6659.68 1449.29 3
1 7 -4 6594.51 1406.14 6
1 7 -3 1505.93 816.205 6
1 7 -2 11.1303 581.989 6
1 7 -1 3724.32 1088.38 6
1 7 0 10785.2 1837.32 6
1 7 1 152.571 540.25 6
1 7 2 672.673 787.557 6
1 7 3 591.349 607.292 6
1 7 4 3031.64 1049.02 6
1 7 5 354.473 824.229 6
-1 -8 9 335.159 806.695 3
-1 -8 8 2231.68 1047.45 3
-1 -8 7 -417.422 627.144 3
-1 -8 6 830.866 878.929 3
-1 -8 5 -247.075 615.249 3
1 8 -4 455.594 747.649 6
-1 -8 4 -1213.26 911.182 3
1 8 -3 -397.741 782.325 6
1 8 -2 4555.62 1472.12 6
1 8 -1 -648.391 791.424 6
1 8 0 -244.902 712.194 6
-2 9 1 -479.354 726.679 6
2 -9 -1 432.037 691.067 2
2 -9 0 -367.083 601.177 2
-2 9 0 583.581 730.875 6
-2 9 -1 -713.722 698.827 6
2 -9 1 -559.29 589.684 2
-2 9 -2 -236.61 603.475 6
2 -9 2 1224.75 810.834 2
2 -9 3 3437.72 1129.78 2
2 -9 4 -347.443 645.131 2
2 -9 4 -351.825 567.684 1
2 -9 5 2047.39 868.29 3
2 -9 5 1373.65 564.145 1
2 -9 5 1526.08 927.776 2
2 -9 6 29.9913 551.382 1
2 -9 7 1752.28 933.382 1
2 -9 8 431.639 827.768 1
2 -9 9 889.411 854.594 1
-2 8 5 1736.48 1032.29 6
-2 8 4 -200.104 667.287 6
-2 8 3 3056.28 1042.07 6
-2 8 2 -724.28 775.611 6
2 -8 -2 1793.91 1015.15 2
-2 8 1 1342.54 951.188 6
2 -8 -1 1053.18 764.901 2
2 -8 0 2017.12 897.152 2
-2 8 0 1146.59 757.362 6
-2 8 -1 5872.23 1412.38 6
2 -8 1 8590.12 1534.99 2
2 -8 2 350.586 403.684 1
-2 8 -2 -466.439 572.895 6
2 -8 2 229.306 420.531 2
2 -8 3 -312.508 538.375 1
2 -8 3 -521.328 646.318 2
2 -8 4 1156.11 673.124 1
2 -8 5 8265.7 1462.38 3
2 -8 5 6396.06 1403.35 1
2 -8 6 572.601 548.674 3
2 -8 6 867.098 816.227 1
2 -8 7 -570.889 686.56 1
2 -8 7 -44.6041 399.175 3
2 -8 8 1870.85 1126.39 1
2 -8 9 2423.68 1161.6 1
2 -8 10 2195.66 976.132 1
2 -8 11 1634.68 1111.21 1
2 -8 12 649.814 801.492 1
2 -7 -8 508.377 839.428 4
-2 7 8 1172.46 833.776 6
-2 7 7 650.799 794.768 6
2 -7 -7 -682.083 898.446 4
2 -7 -6 1489.2 941.96 4
-2 7 6 932.005 959.296 6
-2 7 5 3672.68 1207.74 6
2 -7 -5 4838.25 1204.82 4
-2 7 4 -220.123 552.822 6
2 -7 -4 -87.3609 551.332 4
2 -7 -3 1524.44 762.297 2
-2 7 3 1635.46 891.808 6
2 -7 -2 3850.13 1040.63 2
-2 7 2 4422.29 1141.54 6
2 -7 -1 4489.62 1078.68 2
2 -7 -1 3459.74 805.149 1
-2 7 1 3771.96 1068.81 6
2 -7 0 6365.01 1113.63 1
-2 7 0 6223.4 1311.78 6
2 -7 0 7388.99 1402.08 2
2 -7 1 641.764 579.166 2
2 -7 1 185.193 455.689 1
-2 7 -1 1457.8 802.902 6
2 -7 2 206.757 411.986 2
-2 7 -2 119.711 653.644 6
2 -7 2 347.445 651.212 1
2 -7 3 14347.8 1912 1
2 -7 4 18016.5 2336.5 1
-2 7 -4 16698.1 1074.77 5
2 -7 5 1348.81 606.437 3
2 -7 5 1312.49 753.209 1
-2 7 -5 1936.96 425.666 5
-2 7 -6 1189.66 324.522 5
2 -7 6 1658.03 823.342 1
2 -7 6 993.804 565.843 3
-2 7 -7 11028.2 1142.71 5
2 -7 7 10605.4 1258.28 3
2 -7 7 9626.43 1838.05 1
2 -7 8 7518.97 1083.46 3
2 -7 8 6408.07 1579.75 1
-2 7 -8 8258.25 1087.88 5
-2 7 -9 939.545 543.285 5
2 -7 9 539.361 404.266 3
2 -7 9 163.111 664.612 1
-2 7 -10 -1140.91 594.733 5
2 -7 10 -1342.56 995.808 1
-2 7 -11 3627.16 951.969 5
2 -7 11 3221.92 1330.68 1
-2 7 -12 9312.44 1537.71 5
2 -7 12 6984.71 1738.85 1
-2 7 -13 380.765 613.019 5
2 -7 13 2107.87 1160.58 1
-2 7 -14 1472.2 928.777 5
2 -7 14 812.022 1042.25 1
2 -6 -11 -412.209 704.162 4
-2 6 11 650.113 612.382 6
2 -6 -10 240.031 650.609 4
-2 6 10 84.1747 730.403 6
2 -6 -9 334.07 513.298 4
-2 6 9 -302.701 802.811 6
2 -6 -8 9607.15 1713.15 4
-2 6 8 8001.24 1594.75 6
2 -6 -7 3170.14 1005.29 4
-2 6 7 3221.54 1108.13 6
2 -6 -6 2838.58 1038.82 4
-2 6 6 2128.57 735.772 6
-2 6 5 1580.85 778.914 6
2 -6 -5 170.585 434.601 4
-2 6 4 12187.3 1691.3 6
2 -6 -4 10574 1553.45 4
2 -6 -4 9125.55 1645.17 2
2 -6 -3 5628.93 1072.71 4
2 -6 -3 4751.3 1050.64 2
-2 6 3 6751.65 1299.24 6
2 -6 -3 4524.35 666.707 1
2 -6 -2 53454.7 3100.37 4
2 -6 -2 55526.1 2717.68 1
2 -6 -2 52157.9 3349.39 2
-2 6 2 47884 3364.69 6
2 -6 -1 2541.75 626.084 1
2 -6 -1 1870.79 453.613 5
2 -6 -1 2030.29 722.74 2
-2 6 1 2601.51 543.013 1
-2 6 1 1982.18 742.383 6
2 -6 0 10523.8 953.186 5
-2 6 0 14174.7 1709.19 6
2 -6 0 12516 1483.04 1
2 -6 0 12292.2 1551.33 2
2 -6 1 3166.28 517.014 5
2 -6 1 2353.25 592.403 1
-2 6 -1 3494.82 690.587 4
2 -6 1 2491.6 792.166 2
-2 6 -1 3515.52 898.668 6
-2 6 -2 21339.3 1523.37 4
-2 6 -2 23050.3 2127.91 6
2 -6 2 22603.2 2124.74 1
2 -6 3 -407.295 622.467 1
-2 6 -3 -403.368 230.452 4
-2 6 -3 70.5403 219.013 5
-2 6 -4 4657.88 625.279 4
2 -6 4 3137.79 884.792 1
2 -6 5 8871.81 1479.45 1
2 -6 5 8981.11 1076.59 3
-2 6 -5 8056.94 939.226 5
-2 6 -5 8562.54 782.817 4
-2 6 -6 27923.9 1407.05 4
-2 6 -6 32321.7 1960.15 5
2 -6 6 29705 1920.18 3
2 -6 6 29736.1 2916.46 1
2 -6 7 8.35229 237.705 3
2 -6 7 -271.113 826.855 1
-2 6 -7 642.217 406.484 5
-2 6 -8 1606.39 595.229 5
2 -6 8 1952.35 779.18 1
2 -6 8 958.06 441.14 3
2 -6 9 2444.96 1096.12 1
-2 6 -9 2806.16 756.549 5
-2 6 -9 3110.08 489.665 4
2 -6 9 2260.55 569.219 3
-2 6 -10 40073.1 2997.93 5
2 -6 10 41704.9 3954.42 1
2 -6 10 39890.3 2238.44 3
2 -6 11 3467.38 717.257 3
2 -6 11 2611.92 1207.77 1
-2 6 -11 2736.32 984.966 5
2 -6 12 9882.65 2032.11 1
-2 6 -12 10831.7 1753.03 5
2 -6 13 1633.38 937.396 1
-2 6 -13 1920.24 601.425 5
-2 6 -14 6378.4 1561.72 5
2 -6 14 6207.54 1693.47 1
-2 6 -15 1979.07 1123.82 5
2 -6 15 975.858 936.892 1
-2 5 12 347.134 643.978 6
2 -5 -12 -382.082 492.866 4
-2 5 11 -358.496 606.43 6
2 -5 -11 344.847 709.444 4
-2 5 10 7759.41 1595.04 6
2 -5 -10 9774.63 1832.4 4
2 -5 -9 1460.98 796.051 4
-2 5 9 1528.03 825.949 6
2 -5 -8 3143.21 1071.68 4
-2 5 8 2831.48 944.21 6
2 -5 -7 583.474 582.153 4
-2 5 7 1117.85 588.117 6
2 -5 -6 19133.4 2073.38 4
-2 5 6 21421.5 2186.05 6
2 -5 -5 140.508 438.914 4
-2 5 5 440.535 440.675 6
2 -5 -4 34087.5 2417.24 4
2 -5 -4 34140.8 2639.7 2
-2 5 4 32367.2 2513.55 6
2 -5 -4 34838.7 1567.91 1
2 -5 -3 2727.97 617.711 5
2 -5 -3 2581.71 824.948 2
-2 5 3 3124.75 887.763 6
2 -5 -3 1996.46 438.141 1
2 -5 -3 1888.88 614.971 4
2 -5 -2 38954.9 2311.99 4
-2 5 2 34086.9 2553.01 6
2 -5 -2 39885.3 2053.5 1
2 -5 -2 36565.7 2548.15 2
2 -5 -2 33567.9 1877.18 5
2 -5 -1 152.53 266.368 4
2 -5 -1 -63.7992 178.237 5
-2 5 1 131.337 245.097 4
2 -5 -1 181.392 226.939 1
2 -5 -1 486.635 381.529 2
-2 5 1 235.486 370.661 6
2 -5 0 69925.1 3105.72 1
-2 5 0 66321 2694.14 4
2 -5 0 71062.9 2811.25 4
2 -5 0 66434.9 3314.15 2
-2 5 0 68356.7 3412.23 6
2 -5 0 68828.4 2524.21 5
-2 5 0 62564.7 2681.33 1
-2 5 -1 636.545 396.863 1
-2 5 -1 -31.4346 207.824 4
2 -5 1 -196.557 338.613 1
-2 5 -1 -135.141 234.125 5
2 -5 1 245.254 236.417 5
-2 5 -1 376.43 306.374 6
-2 5 -2 6307.41 682.423 4
2 -5 2 6243.14 777.569 5
2 -5 2 5789.59 1028.42 1
-2 5 -2 6195.19 1016.49 6
-2 5 -2 6609.61 742.466 5
-2 5 -3 8081.95 863.375 5
2 -5 3 7479.87 1162.53 1
-2 5 -3 7882.72 671.684 4
2 -5 4 148905 4164 3
2 -5 4 149011 5491.64 1
-2 5 -4 141376 4090.05 5
-2 5 -4 138052 3053.44 4
-2 5 -5 7735.72 573.176 4
2 -5 5 9357.3 1374.21 1
-2 5 -5 9379.69 1053.91 5
2 -5 5 9666.88 931.463 3
-2 5 -6 -141.15 282.352 5
-2 5 -6 -34.6827 111.205 4
2 -5 6 -74.2376 245.575 3
2 -5 6 -693.131 618.634 1
-2 5 -7 7428.87 1126.09 5
-2 5 -7 8340.67 620.034 4
2 -5 7 8417.63 849.639 3
2 -5 7 7755.98 1382.68 1
-2 5 -8 110559 2864.38 4
2 -5 8 115964 5711.36 1
-2 5 -8 111391 4711.87 5
2 -5 8 108727 3311.91 3
-2 5 -9 583.004 391.305 5
-2 5 -9 256.183 189.806 4
2 -5 9 665.843 374.977 3
2 -5 10 1481.52 767.535 1
-2 5 -10 1813.07 446.04 4
2 -5 10 660.433 322.363 3
-2 5 -10 2252.35 908.964 5
2 -5 11 2833.72 1276.41 1
-2 5 -11 1432.21 917.509 5
2 -5 11 1366.28 428.63 3
-2 5 -11 1796.53 509.687 4
-2 5 -12 18650.8 1616.29 4
2 -5 12 18149.8 2697.16 1
-2 5 -12 24287.7 2704.29 5
2 -5 12 17441.4 1569.06 3
2 -5 13 5557.98 1583.32 1
-2 5 -13 4242.46 1346.31 5
2 -5 14 6364.04 1649.94 1
2 -5 15 2542.02 1265.41 1
2 -5 16 8906.74 2097.71 1
2 -4 -14 763.296 681.31 4
-2 4 14 102.899 615.028 6
2 -4 -13 2279.53 1006.27 4
-2 4 13 1121.01 771.25 6
2 -4 -12 7712.16 1751.07 4
-2 4 12 7413.56 1578.67 6
-2 4 11 1977.98 871.877 6
2 -4 -11 2449.91 1056.61 4
2 -4 -10 4193.96 1158.88 4
-2 4 10 5334.78 1319.01 6
2 -4 -9 201.144 414.32 4
-2 4 9 805.061 598.403 6
2 -4 -8 17923 1988.75 4
-2 4 8 15605.1 1912.35 6
2 -4 -7 12842.6 1578.59 4
-2 4 7 12093.4 1596.42 6
2 -4 -6 32205.5 985.609 1
2 -4 -6 37645.5 2543.3 4
-2 4 6 40967.5 2690.92 6
-2 4 5 276.221 391.109 6
2 -4 -5 107.753 324.084 4
2 -4 -5 397.905 504.347 2
2 -4 -5 81.8039 105.568 1
-2 4 4 7199.16 1108.12 6
2 -4 -4 9303.83 1139.58 4
2 -4 -4 8895.22 673.059 1
2 -4 -3 8683.86 1011.89 4
-2 4 3 8347.43 994.106 4
-2 4 3 7094.97 1049.9 6
2 -4 -3 7278.16 862.773 5
2 -4 -3 9114.31 742.911 1
-2 4 2 174098 5214.16 6
-2 4 2 167447 4601.83 4
2 -4 -2 160523 4535.55 4
2 -4 -2 154148 4328.34 5
2 -4 -2 172042 4055.77 1
2 -4 -1 14019 1114.57 4
2 -4 -1 12668.9 1059.92 5
-2 4 1 13308 1326.26 6
-2 4 1 13749.7 1097.66 4
2 -4 -1 13184.2 1074.28 1
2 -4 0 4443.57 672.756 1
-2 4 0 3667.02 562.433 1
2 -4 0 3124.82 513.95 5
-2 4 0 3727.78 509.037 4
2 -4 0 3867.27 533.666 4
-2 4 0 2955.61 476.526 5
-2 4 0 3750.64 720.776 6
2 -4 1 9287.17 732.621 4
-2 4 -1 9078.64 1090.12 6
2 -4 1 8408.65 989.31 1
2 -4 1 9392.98 889.956 5
-2 4 -1 8987.78 830.551 5
-2 4 -1 8958.07 950.386 1
-2 4 -1 7683.73 640.752 4
2 -4 2 55591.4 2761.94 1
-2 4 -2 51605.3 1496.86 4
-2 4 -2 54327.5 2187.23 5
2 -4 2 57015.2 2339.31 5
-2 4 -2 55615.3 2541.7 1
2 -4 3 43540 2144.88 5
2 -4 3 43456.9 2594.51 1
-2 4 -3 43878.5 2073.28 5
-2 4 -4 820.666 372.002 5
2 -4 4 705.242 243.256 3
-2 4 -5 8652.57 1107.79 5
2 -4 5 8391.28 656.72 3
2 -4 6 78172.9 2237.18 3
-2 4 -6 74101 1840.44 4
-2 4 -7 23748.1 1128.7 4
2 -4 7 22821.9 1196.12 3
-2 4 -7 24848.5 2125.98 5
-2 4 -8 3462.59 526.054 3
-2 4 -8 3916.33 559.559 4
-2 4 -8 2287.34 731.462 5
2 -4 8 3293.34 913.43 1
2 -4 8 2947.63 460.834 3
-2 4 -9 1064.3 884.29 5
-2 4 -9 388.586 222.078 3
-2 4 -9 460.425 288.771 4
2 -4 9 -23.5448 259.878 3
2 -4 9 448.381 574.329 1
-2 4 -10 13519 1207.13 4
2 -4 10 12748.4 1191.96 3
-2 4 -10 12518.3 1104.87 3
2 -4 10 11282.8 1819.45 1
-2 4 -11 13140.8 1362.19 4
2 -4 11 12217.1 1820.45 1
2 -4 12 14997.2 2332.74 1
-2 4 -12 16827.3 1620.59 4
2 -4 13 4119.66 1400.69 1
-2 4 -13 4869.58 959.384 4
-2 4 -14 5836 1111.72 4
2 -4 14 8389.59 1829.09 1
-2 4 -15 7096.65 1389.86 4
2 -4 15 4919.75 1473.12 1
2 -4 16 2330.74 1145.52 1
2 -3 -15 111.447 630.133 4
-2 3 15 -141.718 586.371 6
2 -3 -14 6368.85 1527.83 4
-2 3 14 7459.21 1558.1 6
2 -3 -13 8708.34 1656.32 4
-2 3 13 9026.73 1613.46 6
2 -3 -12 6440.41 1384.9 4
-2 3 12 7545.88 1411.39 6
2 -3 -11 715.036 496.772 4
-2 3 11 745.706 742.457 6
2 -3 -10 2302.67 889.982 4
-2 3 10 1387.45 612.751 6
2 -3 -9 19612.3 1159.24 1
2 -3 -9 21714.3 2173.46 4
-2 3 9 20916.7 2000.89 6
2 -3 -8 39332.4 1733.44 1
2 -3 -8 40321.5 2770.19 4
-2 3 8 37595.2 2478.54 6
2 -3 -7 2198.8 377.519 1
2 -3 -7 2708.99 783.128 4
-2 3 7 1689.1 563.508 6
-2 3 6 1896.21 597.815 6
2 -3 -6 1819.18 557.579 4
2 -3 -5 83296.8 3403.96 4
-2 3 5 85989.7 3463.96 6
2 -3 -4 58516.9 2606.73 4
-2 3 4 57745.8 2591.56 4
-2 3 4 62099 2764.71 6
2 -3 -4 53815.5 2554.96 5
2 -3 -3 35760.1 1420.99 1
2 -3 -3 38662.2 2047.07 6
-2 3 3 36699.1 1883.72 4
2 -3 -3 33816.4 1814.25 5
-2 3 3 33589.4 1919.85 6
2 -3 -3 34397.8 1834.81 4
2 -3 -2 4691.32 639.288 5
-2 3 2 5261.72 650.368 4
2 -3 -2 4526.01 679.957 6
-2 3 2 4641.63 700.431 6
2 -3 -2 4173.62 580.312 4
2 -3 -2 4914.13 555.597 1
2 -3 -1 77281.6 2593.77 5
2 -3 -1 72410.7 2260.09 4
-2 3 1 76157.5 2631.77 5
-2 3 1 75910.2 2835.86 6
2 -3 -1 68984.4 2696.13 6
2 -3 -1 73261.1 2352.45 1
2 -3 0 28594.8 1534.17 5
2 -3 0 31117.1 1217.5 4
-2 3 0 33007.2 1783.39 6
-2 3 0 32596.4 1619.08 5
2 -3 0 32614.5 1600.43 1
-2 3 -1 211452 4746.16 5
-2 3 -1 212890 4865.89 1
2 -3 1 215966 4894.33 5
2 -3 1 222680 5013.46 1
-2 3 -2 11413.2 973.697 5
-2 3 -2 11168.9 1055.87 1
2 -3 2 11744.1 1020.43 5
-2 3 -3 5471.04 768.832 5
2 -3 3 5114.45 360.408 3
-2 3 -3 5638.93 784.501 1
2 -3 3 5369.4 792.983 5
-2 3 -4 152353 4510.89 5
-2 3 -4 152742 4483.18 1
2 -3 4 143639 2578.04 3
-2 3 -5 247626 4133.55 4
-2 3 -5 256384 6623.71 5
-2 3 -6 2915.6 362.331 3
-2 3 -6 3253.37 813.808 5
-2 3 -6 3156.42 411.567 4
2 -3 6 3104.03 379.348 3
-2 3 -7 9517.46 1325.69 5
-2 3 -7 9964.03 851.95 4
-2 3 -7 10214.8 755.723 3
-2 3 -8 26174.8 1305.2 3
-2 3 -8 28871.1 1628.69 4
2 -3 8 28270.8 2374.62 1
2 -3 9 99315.8 4732.81 1
-2 3 -9 95516.7 3410.81 4
-2 3 -9 86305.1 2760.29 3
-2 3 -10 1186.5 436.95 4
-2 3 -10 698.09 308.229 3
-2 3 -11 8221.75 1148.9 4
2 -3 11 6931.35 1290.52 1
-2 3 -12 2286.6 703.841 4
2 -3 12 887.926 555.528 1
2 -3 13 43202.5 3825.59 1
-2 3 -13 31862.9 2562.41 4
2 -3 14 2001.17 829.089 1
-2 3 -14 1247.82 731.843 4
-2 3 -15 7539.95 1325.71 4
2 -3 15 7660.29 1758.44 1
-2 3 -16 2196.34 846.161 4
2 -3 16 32.6034 589.83 1
2 -3 17 11411.1 2326.85 1
-2 3 -17 6901.54 1459.74 4
2 -2 -16 -255.543 805.85 4
2 -2 -15 4799.19 1450.84 4
2 -2 -14 6231.06 1399.97 4
2 -2 -13 1466.88 798.44 4
2 -2 -12 456.961 607.178 4
2 -2 -11 41207.3 3107.76 4
2 -2 -10 1165.36 703.833 4
2 -2 -10 102.804 271.147 1
2 -2 -9 37117.4 2181.24 1
2 -2 -9 43294.4 2870.51 4
2 -2 -8 329.821 277.767 1
2 -2 -8 27.7313 413.599 4
2 -2 -7 80512.1 2963.9 1
-2 2 7 85049.5 3336.86 6
2 -2 -7 81962.8 3573.35 4
2 -2 -6 508.289 422.23 4
-2 2 6 294.737 220.623 6
-2 2 5 94954.2 3111.45 6
2 -2 -5 90309.9 3342.79 4
-2 2 4 793.183 352.435 2
-2 2 4 777.846 328.582 6
2 -2 -4 497.027 288.211 4
2 -2 -3 36220.4 1704.28 4
-2 2 3 32782.7 1582.38 6
2 -2 -3 35540.6 1636.71 6
2 -2 -3 33406.5 1639.48 3
-2 2 2 76713.1 2438.43 6
2 -2 -2 76563 2353.22 4
2 -2 -2 78005.7 2407.27 6
2 -2 -2 79798.5 2404.67 3
2 -2 -1 237411 4445.72 3
-2 2 1 243974 4933.06 6
2 -2 -1 237795 4904.8 6
2 -2 0 1016.27 297.089 6
2 -2 0 1029.27 202.611 3
-2 2 0 1196.05 307.503 5
2 -2 1 29979.7 796.754 3
-2 2 -1 31306.7 1574.51 5
2 -2 2 2435.98 227.984 4
-2 2 -2 3380.99 517.459 1
-2 2 -2 2922.63 516.572 5
2 -2 3 331146 5120.27 4
-2 2 -3 330588 7147.36 5
-2 2 -4 52.8398 260.713 5
-2 2 -4 371.766 94.4891 3
-2 2 -4 695.363 211.197 4
-2 2 -4 559.033 320.929 1
2 -2 4 335.963 157.795 4
-2 2 -5 785.187 160.888 3
-2 2 -5 934.945 287.938 4
-2 2 -5 902.458 348.083 1
2 -2 5 976.789 238.38 4
-2 2 -5 1127.88 422.389 5
-2 2 -6 -9.59665 194.043 4
-2 2 -6 521.367 216.309 3
2 -2 6 212.219 364.028 1
2 -2 6 486.744 216.107 4
2 -2 7 115903 4395.88 1
2 -2 7 104514 3223.91 4
-2 2 -7 118238 2991.75 3
-2 2 -7 111763 3545.26 4
2 -2 8 12052 1491.17 1
-2 2 -8 11001 1141.98 4
2 -2 8 12192.6 1107.97 4
-2 2 -8 11886.7 956.615 3
2 -2 9 8536.86 1372.69 1
-2 2 -9 9161.59 914.989 3
-2 2 -9 8745.48 1119.4 4
-2 2 -10 1362.07 436.45 4
2 -2 10 2450.72 879.25 1
-2 2 -11 32402.9 2444.89 4
2 -2 11 31692.6 2803.77 1
-2 2 -12 865.067 569.448 4
2 -2 12 -1097.69 1073.92 1
2 -2 13 19721.8 2512.9 1
-2 2 -13 22767.1 2263.47 4
2 -2 14 1496.12 934.276 1
-2 2 -14 -23.5005 471.188 4
2 -2 15 10438.4 1951.86 1
-2 2 -15 9939.84 1657.77 4
-2 2 -16 1191.03 871.849 4
2 -2 16 1560.38 1114.97 1
2 -1 -17 9446.7 1978.49 4
2 -1 -16 -35.4925 921.719 4
2 -1 -15 3191.27 890.222 4
2 -1 -14 837.714 812.057 4
2 -1 -13 37365.6 3137.11 4
2 -1 -12 7843.76 1439.5 4
2 -1 -11 61223.9 3671.02 4
2 -1 -10 16687.5 1818.61 4
2 -1 -9 26646.4 2043.71 1
2 -1 -9 29332.1 2266.77 4
2 -1 -8 1588.09 476.31 1
-2 1 8 1524.12 591.793 3
-2 1 7 89238.9 3517.68 3
2 -1 -7 85600.4 3541.88 4
2 -1 -7 86204.6 3349.08 1
-2 1 6 157.198 221.388 2
-2 1 6 350.666 309.963 3
2 -1 -6 79.7078 280.648 4
-2 1 5 97237.4 3307.19 2
-2 1 5 96387.5 2645.36 6
-2 1 5 103151 3256.22 3
-2 1 4 8178.76 839.858 2
-2 1 4 9073.3 835.955 3
2 -1 -4 9748.6 955.443 2
-2 1 4 9412.77 657.561 6
2 -1 -3 236413 4971.16 2
-2 1 3 238524 4764.16 3
-2 1 3 223204 3927.62 6
-2 1 2 21431.9 804.893 6
-2 1 2 19963.3 1026.62 3
-2 1 2 18894.5 1197.34 5
2 -1 -2 18862.7 760.712 6
2 -1 -1 3220.74 376.022 3
-2 1 1 2969.93 479.846 5
-2 1 1 2574.8 324.845 3
2 -1 0 510216 7625.42 3
-2 1 0 512362 7409.2 3
-2 1 -1 854213 13561.1 5
-2 1 -1 999999 12190.8 3
2 -1 2 36696.6 1490.6 4
-2 1 -2 34591.9 1843.17 5
2 -1 3 63468.1 2104.84 4
-2 1 -3 60831.3 2670.65 5
-2 1 -4 1561.25 430.127 5
-2 1 -4 2945.68 526.271 4
2 -1 4 2867.72 497.748 4
2 -1 4 2575.03 539.338 1
-2 1 -5 230654 5435.48 4
2 -1 5 226977 5232.09 4
-2 1 -5 228496 6650.37 5
2 -1 5 244571 5700.45 1
-2 1 -6 95502.8 3429.26 4
2 -1 6 100427 3337.46 4
-2 1 -6 98463.2 3295.56 1
2 -1 7 7515.87 999.782 1
-2 1 -7 7497.39 836.634 3
-2 1 -7 5492.5 873.208 4
2 -1 7 6400.07 861.532 4
2 -1 8 508.149 393.308 1
-2 1 -8 1079.87 489.929 4
-2 1 -8 406.608 257.083 3
-2 1 -9 80120.9 3713.86 4
2 -1 9 75971.7 3698.35 1
2 -1 10 40526.9 2816.86 1
-2 1 -10 40537.9 2918.39 4
-2 1 -11 37223 2923.57 4
2 -1 11 32448.7 2668.62 1
-2 1 -12 1386.29 708.492 4
2 -1 12 179.751 558.56 1
2 -1 13 13691.1 1895.86 1
-2 1 -13 13833.3 2024.25 4
-2 1 -14 16898.7 2267.47 4
2 -1 14 13851.1 2058.98 1
2 -1 15 7316.52 1605.28 1
-2 1 -15 12933.9 2041.15 4
-2 1 -16 2907.72 1006.96 4
2 0 -17 1395.6 614.464 4
2 0 -16 3413.7 1332.06 4
2 0 -15 6835.52 1572.69 4
2 0 -14 5278.24 1185.46 4
2 0 -13 18962.2 2149.41 4
2 0 -12 8843.66 1444.8 4
-2 0 12 6847.7 1260.16 3
2 0 -11 28539.5 2399.25 4
-2 0 11 28668.1 2384.72 3
2 0 -10 35715.3 2553.46 4
-2 0 10 34243.3 2451.12 3
-2 0 9 47635.8 2698.92 3
-2 0 8 6103.45 963.918 3
2 0 -7 81827.5 3572.99 1
-2 0 7 83040.4 3301.88 2
-2 0 7 83748.2 3223 3
-2 0 6 103281 3388.84 2
-2 0 6 100158 3438.38 3
-2 0 5 177027 4312.92 2
-2 0 5 182521 4592.27 3
-2 0 4 17331.3 1174.42 3
-2 0 4 15650.9 977.101 2
-2 0 3 32022.7 1537.94 3
2 0 -3 28716.5 1193.43 2
2 0 -2 304703 5012.52 2
-2 0 2 304050 5911.16 5
-2 0 1 637801 10539.1 5
-2 0 1 678679 10480.6 3
-2 0 0 32577.2 1507.74 3
-2 0 0 31113.1 1478.85 5
-2 0 -1 210.876 211.358 5
-2 0 -2 17641.3 1274.48 5
2 0 3 58059.2 2451.53 4
-2 0 -3 61027.1 2680.68 5
2 0 4 123912 3990.02 4
2 0 4 130843 3572.6 1
-2 0 -4 125712 4066.91 4
-2 0 -4 125583 4331.43 5
2 0 5 3071.51 551.596 1
-2 0 -5 3609.2 751.578 4
2 0 5 3485.25 665.475 4
-2 0 -6 17063 1578.45 4
2 0 6 17191.6 1301.53 1
-2 0 -7 48487.3 2830.58 4
2 0 7 45252.5 2291.01 1
-2 0 -8 107032 4479.42 4
2 0 8 106132 3927.55 1
2 0 9 36228 2383.03 1
-2 0 -9 37024.2 2699.02 4
-2 0 -10 14122.8 1864.62 4
2 0 10 15284.3 1628.57 1
-2 0 -11 1050.72 617.466 4
2 0 11 1946.91 609.908 1
-2 0 -12 12357.8 1899.58 4
2 0 12 13577.2 1800.38 1
2 0 13 9148.46 1569.32 1
-2 0 -13 9988.22 1796.86 4
-2 0 -14 8378.81 1804.51 4
-2 0 -15 385.585 812.715 4
2 1 -17 -782.333 778.45 4
2 1 -16 10128.8 1845.32 4
2 1 -15 6273.24 1359.23 4
-2 -1 15 7049.02 1442.09 3
-2 -1 14 1138.38 635.308 3
2 1 -14 -120.614 543.711 4
-2 -1 13 11210.8 1645.79 3
2 1 -13 8454.78 1433.06 4
2 1 -12 47594.4 3214.3 4
-2 -1 12 44635.2 3038.01 3
-2 -1 11 23449.5 2071.55 3
-2 -1 10 1700.06 563.046 3
-2 -1 9 -137.507 394.402 3
-2 -1 8 32152.2 2139.97 3
-2 -1 7 23236 1694.37 3
-2 -1 6 83871.7 3195.57 3
-2 -1 5 1464.42 216.777 6
-2 -1 5 1844.54 452.805 3
-2 -1 4 113412 2435.19 2
-2 -1 4 113930 2357.01 6
-2 -1 4 115430 3615.68 3
-2 -1 3 20553.1 1430.83 3
2 1 -3 18438 820.19 6
2 1 -3 20497.9 1235.61 5
-2 -1 2 152908 3665.23 5
-2 -1 2 159024 4432.92 3
2 1 -2 166481 3782.39 5
2 1 -2 154110 3215.4 6
-2 -1 1 3032.75 440.635 5
2 1 -1 2768.06 418.061 6
2 1 -1 3101.82 441.921 5
2 1 0 51236.3 2000.42 5
-2 -1 0 48281.7 1901.18 5
-2 -1 -1 22394.9 1346.89 5
2 1 1 21445.3 1411.55 5
-2 -1 -2 225410 5321.96 5
-2 -1 -3 7273.45 922.452 5
-2 -1 -4 1258.92 456.355 4
-2 -1 -4 89.1989 269.565 5
-2 -1 -5 24860.6 2070.21 4
2 1 5 25597 1472.86 1
-2 -1 -6 175755 5985.76 4
2 1 6 173479 4388.18 1
-2 -1 -7 2316.63 670.167 4
2 1 7 1112.57 368.935 1
-2 -1 -8 -760.689 586.62 4
2 1 8 784.672 459.929 1
2 1 9 3157.06 761.305 1
-2 -1 -9 1737.6 748.917 4
2 1 10 37620.5 2423.39 1
-2 -1 -10 41482.1 3350.39 4
2 1 11 856.909 443.974 1
-2 -1 -11 17.4711 519.351 4
-2 -1 -12 10099.8 1820.54 4
-2 -1 -13 953.709 605.492 4
-2 -1 -14 8025.07 1970.33 4
-2 -1 -15 -1913.93 1176.05 4
2 2 -17 -118.109 707.297 4
-2 -2 17 846.795 1006.75 3
-2 -2 16 -53.2608 606.242 3
2 2 -16 -1473.69 927.686 4
2 2 -15 389.706 532.642 4
-2 -2 15 819.088 670.626 3
2 2 -14 15592.1 2031.48 4
-2 -2 14 15234.2 1920.21 3
-2 -2 13 1282.51 503.963 3
-2 -2 12 2589.3 738.443 3
-2 -2 11 34.4623 383.109 3
-2 -2 10 57344.4 3168.56 3
-2 -2 9 3650.58 763.742 3
-2 -2 8 111697 3217.4 6
-2 -2 8 100704 4089.49 3
-2 -2 7 2225.25 605.925 3
-2 -2 7 2021.84 439.461 6
-2 -2 6 89036.4 2664.66 6
-2 -2 6 84171.8 3452.1 3
-2 -2 5 6007.36 918.981 3
-2 -2 5 5820.03 605.198 6
2 2 -5 6500.16 748.226 5
2 2 -4 144441 3515.34 6
-2 -2 4 139895 3562.57 6
-2 -2 4 142438 4659.98 3
2 2 -4 152399 3770.74 5
-2 -2 3 3191.53 759.755 3
2 2 -3 3235.07 487.562 6
-2 -2 3 3355.77 518.186 6
2 2 -3 3509.6 478.968 5
-2 -2 2 38252.9 1565.6 5
2 2 -2 40613.3 1835.94 6
2 2 -2 43804 1703.93 5
-2 -2 2 39840.3 2367.06 3
2 2 -1 340.018 174.283 5
-2 -2 1 183.297 137.53 5
2 2 -1 -77.5407 229.983 6
2 2 0 182538 4714.48 6
2 2 0 172656 3601.38 2
-2 -2 0 176853 4018.2 5
-2 -2 -1 739.445 297.938 5
2 2 1 528.006 280.977 6
-2 -2 -2 2604.33 497.048 5
-2 -2 -3 23348.1 1632.73 5
-2 -2 -4 126561 4409.24 5
-2 -2 -5 10891.2 1338.75 5
2 2 5 10887.2 897.35 1
-2 -2 -6 8283.84 1358.25 4
2 2 6 7598.85 803.747 1
-2 -2 -7 5060.32 1179.61 4
2 2 7 3244.1 560.977 1
-2 -2 -8 39686.5 3201.72 4
2 2 8 41970.8 2044.86 1
-2 -2 -9 6228.39 1291.33 4
2 2 9 6016.47 819.563 1
-2 -2 -10 3258.45 1068.98 4
-2 -2 -11 3600.66 1366.13 4
-2 -2 -12 1603.68 1043.1 4
-2 -2 -13 240.79 796.835 4
-2 -2 -14 6568.33 1861.23 4
2 3 -17 1842.68 1001.53 4
-2 -3 17 1354.62 797.873 3
-2 -3 16 6926.07 1479.78 3
2 3 -16 3951.92 1192.68 4
-2 -3 15 1977.24 774.192 3
2 3 -15 1583.36 749.775 4
-2 -3 14 9743.29 1593.27 3
-2 -3 13 1621.11 758.263 3
-2 -3 12 25416.3 2315.28 3
-2 -3 11 4931.6 1016.7 3
-2 -3 10 21063.5 2005.06 3
-2 -3 9 611.698 515.29 3
-2 -3 9 -7.60105 218.988 6
-2 -3 8 1235.59 508.734 3
-2 -3 8 760.091 344.979 6
-2 -3 7 19512.8 1428.96 6
2 3 -7 19216.3 1475.4 5
-2 -3 7 18888.9 1740.81 3
-2 -3 6 74906.8 2874.61 6
-2 -3 6 77015.4 3693.08 3
2 3 -6 78891.7 2826.08 5
2 3 -5 4936.81 625.94 5
-2 -3 5 4249.89 919.012 3
-2 -3 5 3840.55 687.66 6
-2 -3 4 5254.92 1019.6 3
2 3 -4 4703.17 723.785 6
-2 -3 4 3915.06 651.657 6
2 3 -4 5364.01 586.587 5
-2 -3 3 21805.2 1936.88 3
2 3 -3 23336.9 1621.84 6
2 3 -3 21451 1126.8 5
-2 -3 3 21087.8 1541.14 6
2 3 -2 47415 1759.77 5
2 3 -2 54555.4 2544.08 6
2 3 -1 34450.1 2132.13 6
-2 -3 1 32009 1343.51 5
2 3 0 2294.99 607.012 6
-2 -3 0 2320.86 421.199 5
2 3 1 22139.2 1802.69 6
2 3 1 21798 1340.04 2
-2 -3 -1 20556.9 1298.27 5
-2 -3 -2 61767.6 2504.25 5
2 3 2 60652.6 2541.35 2
2 3 2 64014.1 3206.16 6
-2 -3 -3 26239.6 1758.5 5
2 3 3 30587.1 2269.54 6
2 3 4 17042 1813.83 6
-2 -3 -4 16872.6 1532.25 5
-2 -3 -5 875.431 528.173 5
2 3 6 25808.6 1350.92 1
-2 -3 -6 28957.4 2330.22 5
2 3 7 16025.6 1036.2 1
-2 -3 -8 3329.13 1062.83 4
-2 -3 -9 -362.714 709.436 4
-2 -3 -10 2653.75 1257.07 4
-2 -3 -11 9980.64 2005.89 4
-2 -3 -12 3015.78 1228.2 4
-2 -4 16 421.566 582.974 3
2 4 -16 1778.61 854.876 4
-2 -4 15 669.082 606.656 3
-2 -4 14 450.937 493.137 3
-2 -4 13 7153.25 1459.96 3
-2 -4 12 4747.98 1027.42 3
-2 -4 11 1809.51 887.129 3
-2 -4 10 330.358 417.302 3
-2 -4 9 64148.4 3708.86 3
2 4 -8 37391.1 2125.72 5
-2 -4 8 31706.8 2568.29 3
2 4 -7 24152.7 1513.78 5
-2 -4 7 20919.3 2074.78 3
-2 -4 6 1437.63 591.117 3
2 4 -6 1519.43 418.551 5
-2 -4 5 34185 2702.11 3
2 4 -5 33503 2131.96 6
2 4 -5 33085.6 1407.93 5
-2 -4 4 6944.49 1231.59 3
2 4 -4 6226.74 544.576 5
2 4 -4 5992.87 951.925 6
-2 -4 3 42504.9 3020.37 3
2 4 -3 44290.6 2594.75 6
2 4 -2 570.688 432.432 6
2 4 -1 17357.4 1691.2 6
-2 -4 0 7317.09 618.81 5
2 4 0 8472.16 1237.43 6
2 4 1 50249.4 3063.21 6
2 4 1 42765.2 2608.31 1
-2 -4 -1 48329.9 1871.35 5
2 4 2 12889.5 1372.58 1
2 4 2 15883.2 1798.56 6
-2 -4 -2 14209.3 1136.29 5
-2 -4 -3 8044.11 958.191 5
2 4 3 5268.53 839.227 1
2 4 3 8747.88 1361.88 6
-2 -4 -4 1131.63 493.975 5
2 4 4 1999.27 839.093 6
2 4 5 37124.9 2917.9 6
-2 -4 -5 31413.2 2250.67 5
-2 -4 -6 1047.41 516.725 5
2 4 6 3294.85 950.252 6
-2 -4 -7 1318.1 631.27 5
2 4 7 882.191 552.403 6
-2 -4 -8 54.2578 481.156 5
2 4 8 24.313 545.573 6
-2 -4 -9 13249.8 1931.45 5
2 4 9 13664.2 2055 6
-2 -4 -10 1994.72 992.689 5
2 4 10 2085.15 1128.93 6
-2 -5 15 5212.61 1342.69 3
-2 -5 14 2417.85 910.121 3
-2 -5 13 2658.81 899.522 3
-2 -5 12 418.157 588.408 3
-2 -5 11 28025.4 2777.76 3
-2 -5 10 4482.84 1141.15 3
-2 -5 9 980.591 473.955 3
-2 -5 8 1859.59 808.334 3
-2 -5 7 4135.81 1023.14 3
-2 -5 6 560.844 657.557 3
-2 -5 6 18.5579 121.416 2
-2 -5 5 15578.5 2012.61 3
2 5 -5 19940.2 1876.86 6
-2 -5 4 -454.743 765.342 3
2 5 -4 562.677 509.489 6
2 5 -3 9500.21 1430.61 6
2 5 -2 308.831 398.017 6
2 5 -1 36431.1 2837.46 6
2 5 0 6217.35 1214.08 6
2 5 1 4937.6 1108.07 6
2 5 2 -1171.01 650.368 6
2 5 3 19965.4 2308.5 6
2 5 4 401.169 481.237 6
2 5 5 2976.81 1091.39 6
2 5 6 414.112 694.121 6
2 5 7 8458.18 1661.93 6
2 5 8 -848.525 669.685 6
-2 -6 14 -728.886 635.561 3
-2 -6 13 1082.14 748.282 3
-2 -6 12 1604.83 696.203 3
-2 -6 11 2016 892.927 3
-2 -6 10 -14.113 624.29 3
-2 -6 9 3636.85 1104.33 3
-2 -6 8 941.448 819.305 3
-2 -6 7 11550.8 1821.19 3
-2 -6 6 1786.05 998.917 3
-2 -6 5 2243.84 727.201 3
2 6 -5 3691.28 1061.07 6
-2 -6 4 1886.87 868.432 3
2 6 -4 2321.89 957.913 6
2 6 -3 15497.8 1954.3 6
2 6 -2 2831.65 1007.24 6
2 6 -1 865.497 708.411 6
2 6 0 -59.4576 715.438 6
2 6 1 5072.21 1346.19 6
2 6 2 2566.54 907.326 6
2 6 3 951.109 585.764 6
2 6 4 576.614 681.507 6
2 6 5 1976.51 994.634 6
2 6 6 2566.12 1106.98 6
-2 -7 11 2400.78 913.696 3
-2 -7 10 648.462 607.102 3
-2 -7 9 1874.83 877.487 3
-2 -7 8 65.085 555.755 3
-2 -7 7 192.359 515.492 3
-2 -7 6 2087.75 1096.18 3
-2 -7 5 743.788 487.655 3
2 7 -5 2424.47 913.231 6
-2 -7 4 1078.69 825.389 3
2 7 -4 2429.02 829.099 6
-2 -7 3 1444.61 895.534 3
2 7 -3 1269.08 783.892 6
2 7 -2 874.976 664.106 6
2 7 -1 267.46 659.603 6
2 7 0 2804.4 1087.14 6
2 7 1 819.187 744.399 6
2 7 2 -877.185 861.568 6
-3 9 2 -1929.82 1130.1 6
3 -9 -2 529.115 661.932 2
3 -9 -1 467.966 696.389 2
-3 9 1 629.52 661.495 6
-3 9 0 825.319 734.53 6
3 -9 0 -104.809 545.288 2
3 -9 1 715.403 595.187 2
3 -9 2 739.771 825.181 2
3 -9 3 2062.01 968.523 2
3 -9 3 1706.73 783.048 1
3 -9 4 626.688 710.781 2
3 -9 4 -874.714 847.074 1
3 -9 5 -431.784 796.156 1
3 -9 6 2571.8 1098.04 1
3 -9 7 3772.47 1359.41 1
3 -9 8 879.128 622.851 1
3 -9 9 -212.033 829.261 1
3 -8 -6 1607.82 841.457 4
-3 8 6 1878.76 1163.65 6
3 -8 -5 2055.09 1001.27 4
-3 8 5 2932.71 1098.91 6
3 -8 -4 -284.277 694.216 4
-3 8 4 -456.183 668.895 6
3 -8 -4 112.327 613.925 2
-3 8 3 339.435 705.427 6
3 -8 -3 1707.08 823.985 2
-3 8 2 -876.347 769.464 6
3 -8 -2 -45.9992 562.448 2
3 -8 -1 1380.13 871.611 2
-3 8 1 683.525 664.333 6
-3 8 0 643.12 726.568 6
3 -8 0 1230.34 889.204 2
3 -8 1 5934.19 1450.81 2
3 -8 1 2662.08 832.187 1
-3 8 -1 5206.69 1331.94 6
3 -8 2 -125.009 484.193 1
3 -8 2 1192.36 685.068 2
3 -8 3 2546.49 961.109 1
3 -8 4 -918.333 649.521 1
3 -8 5 11884.6 2025.36 1
3 -8 6 -867.873 879.829 1
3 -8 7 257.669 594.403 1
3 -8 8 143.016 616.432 1
3 -8 9 7756.81 1913.43 1
3 -8 10 -3322.94 1327.91 1
3 -8 11 821.573 996.674 1
3 -8 12 119.955 869.548 1
-3 7 9 1725.96 942.807 6
3 -7 -9 2186.12 993.067 4
-3 7 8 946.825 799.905 6
3 -7 -8 434.586 598.426 4
3 -7 -7 4658.12 1260.7 4
-3 7 7 8403.98 1709.68 6
3 -7 -6 1830.29 754.306 4
-3 7 6 424.052 607.895 6
3 -7 -5 4471.52 1305.39 2
3 -7 -5 6492.27 1303.86 4
-3 7 5 5548.71 1307.57 6
3 -7 -4 1321.7 688.194 4
3 -7 -4 68.6227 697.193 2
-3 7 4 436.565 612.898 6
3 -7 -3 10233.7 1539.31 4
3 -7 -3 13061.7 1902.17 2
-3 7 3 9026.9 1656.64 6
3 -7 -2 156.156 384.568 4
3 -7 -2 -559.31 511.181 1
-3 7 2 551.983 670.577 6
3 -7 -2 628.451 568.322 2
-3 7 1 5273.43 1279.9 6
3 -7 -1 5154.43 975.617 1
3 -7 -1 7291.62 1360.61 2
-3 7 0 -536.087 547.696 6
3 -7 0 -540.044 592.865 2
3 -7 0 -1146.32 638.87 1
-3 7 -1 4835.55 1187.88 6
3 -7 1 5678.23 1173.02 2
3 -7 1 5598.22 1169.57 1
3 -7 2 2290.12 810.246 1
-3 7 -3 30815.6 1898.59 5
3 -7 3 30369.6 2706.7 1
-3 7 -4 1108.43 442.914 5
3 -7 4 1187.68 750.689 1
3 -7 5 -212.301 356.002 3
-3 7 -5 677.655 380.153 5
3 -7 5 182.241 500.496 1
3 -7 6 -571.395 612.137 1
3 -7 6 624.538 385.705 3
-3 7 -6 -39.0526 355.761 5
-3 7 -7 12742.2 1427.54 5
3 -7 7 12050.1 2000.88 1
3 -7 8 3352.97 926.553 1
-3 7 -8 6295.77 1151.41 5
3 -7 9 313.638 654.189 1
-3 7 -9 -467.207 496.537 5
-3 7 -10 -326.864 539.678 5
3 -7 10 -1290.55 1069.49 1
-3 7 -11 10336.9 1701.71 5
3 -7 11 12008.9 2424.62 1
-3 7 -12 228.995 490.543 5
3 -7 12 2113.98 1106.66 1
-3 7 -13 3147.62 1178.05 5
3 -7 13 -105.821 790.738 1
-3 7 -14 518.291 772.842 5
3 -7 14 1104.01 1114.61 1
3 -6 -11 1579.24 888.085 4
-3 6 11 1703.76 1015.08 6
3 -6 -10 485.061 831.721 4
-3 6 10 2047.81 1027.18 6
3 -6 -9 -774.53 647.331 4
-3 6 9 828.566 586.943 6
3 -6 -8 1861.45 780.777 4
-3 6 8 2744.13 907.58 6
-3 6 7 6450.87 1426.43 6
3 -6 -7 4821.29 1111.69 4
3 -6 -6 -18.4953 436.96 4
-3 6 6 538.427 678.716 6
3 -6 -5 5661.39 1115.19 4
3 -6 -5 6711.6 1429.08 2
-3 6 5 5552.28 1267.59 6
3 -6 -4 2115.09 753.23 4
3 -6 -4 3200.41 600.102 1
3 -6 -4 1106.87 734.855 2
-3 6 4 3032.81 839.233 6
3 -6 -3 2739.5 703.737 4
3 -6 -3 3199.02 672.281 1
3 -6 -3 3731.31 1040.64 2
-3 6 3 1710.67 655.588 6
3 -6 -2 1652.95 569.099 4
3 -6 -2 1597.42 530.44 1
3 -6 -2 1913.25 865.567 2
-3 6 2 1035.28 521.712 6
-3 6 1 222.871 227.462 4
3 -6 -1 927.016 439.286 4
3 -6 -1 971.033 488.365 1
3 -6 -1 717.315 668.728 2
-3 6 1 501.808 575.814 6
3 -6 0 9836.17 1063.68 4
-3 6 0 9420.26 1018.02 4
3 -6 0 9740.52 1331.43 1
3 -6 0 10216.9 1453.22 2
-3 6 0 9965.09 1427.3 6
3 -6 1 33786.6 2471.99 1
-3 6 -1 34148.4 2018.48 5
-3 6 -2 19310.6 1515.68 5
3 -6 2 18813.5 1945.38 1
3 -6 3 -171.218 373.779 1
-3 6 -3 -166.533 268.619 5
3 -6 4 7446.89 1336.61 1
-3 6 -4 9315.92 1073.55 5
3 -6 5 8819.82 1535.88 1
3 -6 5 7522.76 794.555 3
-3 6 -5 9494.99 1183.95 5
3 -6 6 15023 1026.72 3
3 -6 6 17047.4 2076.72 1
-3 6 -6 14849.8 1575.28 5
3 -6 7 1800.23 332.301 3
3 -6 7 727.849 693.499 1
-3 6 -7 2455.5 720.743 5
-3 6 -8 196.029 422.121 5
3 -6 8 543.538 302.975 3
3 -6 9 15350.3 2272.59 1
-3 6 -9 18694.8 2107.85 5
-3 6 -10 11794.9 1765.65 5
3 -6 10 8286.6 1686.05 1
-3 6 -11 500.355 602.898 5
3 -6 11 -1284.59 895.419 1
3 -6 12 441.76 688.569 1
-3 6 -12 1059.41 883.002 5
3 -6 13 6416.44 1658.65 1
-3 6 -13 9905.64 1951.71 5
-3 6 -14 10383.1 1920.13 5
3 -6 14 13008 2487.18 1
-3 6 -15 750.067 882.081 5
3 -6 15 120.135 833.976 1
3 -5 -13 1482.79 994.08 4
-3 5 13 -702.461 725.935 6
-3 5 12 -363.385 660.37 6
3 -5 -12 536.666 813.639 4
3 -5 -11 858.938 690.537 4
-3 5 11 2115.59 927.456 6
3 -5 -10 8656.43 1645.82 4
-3 5 10 9097.72 1699.4 6
3 -5 -9 5506.11 1279.41 4
-3 5 9 7499.62 1418.91 6
3 -5 -8 5292.54 1120.28 4
-3 5 8 4120.02 1068.69 6
3 -5 -7 1024.84 556.889 4
-3 5 7 1854.09 691.447 6
3 -5 -6 22311.3 2082.63 4
3 -5 -6 22072.8 2523.18 2
-3 5 6 23592.3 2211.75 6
3 -5 -6 23352 1243.41 1
3 -5 -5 2701.54 762.09 4
3 -5 -5 4013.26 1031.47 2
3 -5 -5 2896.54 516.124 1
-3 5 5 3697.1 949.261 6
3 -5 -4 32264.1 2219.92 4
3 -5 -4 31517.9 2639.26 2
-3 5 4 26820.8 2306.45 6
3 -5 -4 34108.2 1766.81 1
3 -5 -3 1326.28 365.081 1
3 -5 -3 547.454 354.308 4
3 -5 -3 591.395 519.089 2
-3 5 3 354.329 486.473 6
3 -5 -2 48316.9 2399.56 4
3 -5 -2 47549.7 3028.15 2
-3 5 2 51061.7 2960.42 6
3 -5 -2 48242.7 2322.94 1
3 -5 -1 3760.67 613.562 4
3 -5 -1 3668.82 811.922 2
-3 5 1 3836.42 855.939 6
3 -5 -1 3646.21 705.816 1
3 -5 0 34382.5 1715.3 4
-3 5 0 35213.2 2402.55 6
-3 5 0 35679.4 2071.37 5
3 -5 0 35722.8 2153.47 1
3 -5 1 769.865 303.492 5
3 -5 1 833.842 262.763 4
-3 5 -1 58.8709 248.439 5
3 -5 1 434.767 517.587 1
3 -5 2 9834.81 1218.22 1
-3 5 -2 10616.4 1130.84 5
3 -5 3 2216.94 804.2 1
-3 5 -3 2135.47 624.368 5
3 -5 4 83413.9 4068.21 1
-3 5 -4 78973.3 3388.72 5
3 -5 4 75162.2 2199.03 3
3 -5 5 168.654 104.971 3
3 -5 5 -319.346 517.801 1
-3 5 -5 -88.1019 313.17 5
-3 5 -6 219.854 371.009 5
3 -5 6 425.106 670.989 1
3 -5 6 262.291 135.982 3
3 -5 7 2053.66 294.903 3
-3 5 -7 2955.78 809.746 5
3 -5 7 3107.44 994.337 1
3 -5 8 49208.1 1707.54 3
3 -5 8 57456.2 3901.66 1
-3 5 -8 55462.2 3494.09 5
-3 5 -9 721.317 618.023 5
-3 5 -9 214.367 157.894 4
3 -5 9 -597.859 703.715 1
-3 5 -10 800.291 624.696 5
3 -5 10 -466.386 617.939 1
-3 5 -11 1327.84 885.179 5
3 -5 11 1122.45 834.191 1
-3 5 -12 21791.7 2797.37 5
3 -5 12 20980 2780.91 1
-3 5 -13 1907.19 831.511 5
3 -5 13 -1968.04 1059.11 1
-3 5 -14 6106.88 1666.19 5
3 -5 14 4916 1715.61 1
-3 5 -15 -162.872 867.291 5
3 -5 15 -755.584 994.89 1
3 -4 -14 -540.298 772.194 4
-3 4 14 1018.34 1031.11 6
3 -4 -13 2431.34 1240.85 4
-3 4 13 1235.63 698.218 6
3 -4 -12 12211.5 1979.81 4
-3 4 12 8643.1 1637.33 6
3 -4 -11 597.998 470.004 4
-3 4 11 824.365 616.109 6
3 -4 -10 1361.76 585.559 4
-3 4 10 375.225 436.168 6
3 -4 -9 5097.07 1147.73 4
-3 4 9 4656.55 1050.29 6
3 -4 -8 21182.8 2111.74 4
-3 4 8 22147 2135.17 6
-3 4 7 875.711 667.06 6
3 -4 -7 -33.6497 361.913 4
3 -4 -6 20955.1 1873.04 4
3 -4 -6 23048.8 2230.01 2
-3 4 6 19990.8 1832.68 6
3 -4 -5 -1.16509 190.8 1
3 -4 -5 52.8678 317.137 4
3 -4 -5 319.345 491.124 2
-3 4 5 121.252 308.694 6
3 -4 -4 34698.8 2101.71 4
-3 4 4 34871.2 2292.79 6
3 -4 -4 35676.9 1740.3 1
3 -4 -3 4392.71 666.361 1
3 -4 -3 3311.88 632.554 4
-3 4 3 4566.57 825.522 6
3 -4 -2 50125.1 2202.92 4
-3 4 2 50417.4 2593.96 6
3 -4 -2 48513.2 2337.55 3
3 -4 -2 54078.5 2332.67 1
3 -4 -1 1800.15 518.834 1
3 -4 -1 1375.47 336.735 3
-3 4 1 882.428 402.463 6
3 -4 -1 1159.23 337.793 4
-3 4 1 975.237 397.428 5
3 -4 -1 599.471 212.246 5
3 -4 0 15826.3 955.715 4
3 -4 0 14366.7 1030.93 3
3 -4 0 14608.5 1305.83 5
3 -4 0 15294.9 1306.79 1
-3 4 0 15336 1331.47 5
-3 4 -1 1258.96 447.836 5
3 -4 1 1749.23 482.256 5
3 -4 1 1302.51 220.646 4
3 -4 1 1444.34 457.251 1
3 -4 1 1715.56 342.885 3
-3 4 -2 204472 5595.46 5
3 -4 2 198814 3821 3
3 -4 2 219833 5820.44 5
3 -4 2 214225 5790.81 1
3 -4 3 751.029 145.963 3
3 -4 3 774.867 150.45 3
3 -4 3 669.423 384.88 1
-3 4 -3 690.747 421.674 5
-3 4 -4 13751.7 1435.86 5
-3 4 -5 12878.6 1472.37 5
-3 4 -6 86229.1 4093.41 5
-3 4 -7 11406.6 1592.35 5
3 -4 7 11250.9 1629.57 1
-3 4 -8 780.694 602.38 5
3 -4 8 1064.61 786.106 1
-3 4 -8 958.565 293.853 4
-3 4 -9 162.486 233.283 3
-3 4 -9 -447.86 313.023 4
3 -4 9 -308.981 620.165 1
3 -4 10 44915 3613.81 1
-3 4 -10 50826 2497.59 4
-3 4 -10 53613.6 4080.23 5
3 -4 11 9377.88 1745.57 1
-3 4 -11 10184.6 1213.74 4
-3 4 -11 9072.59 1785.6 5
3 -4 12 8001.47 1635.79 1
-3 4 -12 8849.67 1209.28 4
-3 4 -12 9353.98 1810.85 5
-3 4 -13 744.566 607.208 4
-3 4 -13 1722.56 1127.77 5
3 -4 13 -1154.79 914.022 1
-3 4 -14 21972.4 3137.08 5
3 -4 14 20078.6 2817.67 1
-3 4 -15 2790.52 1393.4 5
3 -4 15 2939.87 1015.62 1
-3 4 -16 2610.5 1375.64 5
3 -4 16 3443.4 1596.41 1
3 -3 -15 2088.79 1095.36 4
-3 3 15 1893.34 842.873 6
3 -3 -14 6442.15 1485.33 4
-3 3 14 7268.57 1481.11 6
3 -3 -13 3695.91 1277.3 4
-3 3 13 1479.82 877.724 6
3 -3 -12 3936.6 1118.73 4
-3 3 12 4913.05 1085.1 6
-3 3 11 937.283 377.381 6
3 -3 -11 224.274 616.201 4
3 -3 -10 15639.1 1933.51 4
-3 3 10 16272.5 1796.68 6
3 -3 -9 2074.56 567.678 1
3 -3 -9 3774.36 979.987 4
-3 3 9 2917.95 745.376 6
3 -3 -8 35496.2 2542.56 4
-3 3 8 33838.8 2248.94 6
3 -3 -7 2650.15 750.043 4
-3 3 7 1336.69 435.586 6
3 -3 -6 15987.3 1518.11 4
3 -3 -6 14150 1619.87 2
-3 3 6 16827 1429.94 6
3 -3 -5 51280.9 2596.21 4
-3 3 5 50984.2 2461.29 6
3 -3 -4 170475 4741.53 4
3 -3 -4 168446 4677.53 6
-3 3 4 163890 4540.85 6
3 -3 -3 5482.19 750.654 6
3 -3 -3 5988.39 758.719 3
3 -3 -3 5963.63 781.505 4
-3 3 3 5448.97 731.147 6
3 -3 -2 34960.4 1660.78 4
-3 3 2 35800.9 1871.4 6
3 -3 -2 33712.5 1822.07 6
3 -3 -2 35689.6 1688.99 3
3 -3 -2 35797.6 2049.59 5
-3 3 2 32571.3 2005.87 5
3 -3 -1 79867.7 2411.6 4
3 -3 -1 83559.4 2479.87 3
3 -3 -1 84286.1 3232.86 5
3 -3 -1 79972.3 2932.19 6
-3 3 1 84434 3175.6 5
3 -3 0 116983 3873.39 5
3 -3 0 113661 3609.18 6
3 -3 0 117685 2730.88 3
3 -3 0 120451 3734.06 1
-3 3 0 114561 3856.81 5
3 -3 1 31287.7 1793.77 6
3 -3 1 29074.6 1002.01 3
-3 3 -1 29008 1828.74 5
3 -3 1 29551.2 1873.32 5
3 -3 2 5081.64 871.626 5
-3 3 -2 5091.39 826.664 5
3 -3 3 13812.8 592.875 4
-3 3 -3 16449.4 1495.34 5
3 -3 4 64973.7 1585.82 4
-3 3 -4 69209.5 3400 5
3 -3 5 63180.5 1758.33 4
-3 3 -5 66421.3 3384.87 5
3 -3 6 15257.4 924.91 4
-3 3 -6 14198.7 589.697 3
-3 3 -6 15815.9 1756.45 5
3 -3 7 3157.59 897.147 1
-3 3 -7 3957.96 978.41 5
-3 3 -7 4440.59 638.949 4
3 -3 7 3306.04 477.488 4
-3 3 -7 3417.59 358.838 3
-3 3 -8 54765.1 2521.17 4
3 -3 8 51077 2147.31 4
-3 3 -8 51787 1715.71 3
-3 3 -8 55861.7 3689.07 5
-3 3 -9 34195.7 2178.54 4
-3 3 -9 36464.1 1577.8 3
-3 3 -9 34972.6 3060.89 5
3 -3 9 38127.4 3095.32 1
-3 3 -10 8621.42 1655.55 5
-3 3 -10 7777.02 1128.02 4
3 -3 10 9499.84 1550.61 1
-3 3 -11 177.193 595.611 5
-3 3 -11 582.935 413.852 4
3 -3 11 535.526 466.792 1
3 -3 12 15367.5 2157.5 1
-3 3 -12 15678.1 2474.24 5
-3 3 -12 13102.2 1646.48 4
-3 3 -13 15271.5 2524.07 5
-3 3 -13 14391.4 1804.01 4
3 -3 13 13111.2 2081.59 1
-3 3 -14 2972.01 1297.45 5
-3 3 -14 1512.36 624.295 4
3 -3 14 1692.42 666.22 1
3 -3 15 1852.84 874.17 1
-3 3 -15 3149.96 1608.01 5
-3 3 -15 1346.95 740.255 4
-3 3 -16 1249.15 1341.66 5
3 -3 16 1739.85 966.342 1
3 -2 -16 1851.48 1048.47 4
3 -2 -15 7689.63 1766.61 4
-3 2 15 6691.5 1404.49 6
3 -2 -14 3524.34 1218.3 4
-3 2 14 2101.26 828.017 6
3 -2 -13 3358.59 1041.25 4
-3 2 13 3606.61 1012.93 6
3 -2 -12 5937.14 1253.54 4
-3 2 12 6509.11 1196.84 6
3 -2 -11 11201.9 1621.29 4
-3 2 11 9269.6 1207.92 6
3 -2 -10 7507.76 1342.14 4
-3 2 10 8193.68 1055.32 6
-3 2 9 5392.91 868.807 6
3 -2 -9 5093.35 1080.8 4
3 -2 -8 2837.78 689.725 4
-3 2 8 2657.12 620.205 6
3 -2 -7 107442 4147.58 4
-3 2 7 105693 3417.83 6
3 -2 -6 93577.6 3674.81 4
-3 2 6 91662.8 2959.41 6
-3 2 6 93980 3664.81 3
-3 2 5 8697.3 792.535 6
-3 2 5 8357 1002.36 3
3 -2 -5 8810.19 1103.57 2
3 -2 -4 535.197 343.648 2
-3 2 4 1191.15 378.196 3
-3 2 4 895.757 271.481 6
3 -2 -4 1218.85 354.04 3
3 -2 -3 142179 4214.33 2
-3 2 3 144056 3446.07 6
3 -2 -3 138153 3413.39 6
-3 2 3 144674 3797.57 3
3 -2 -3 148603 3873.1 3
-3 2 3 147944 4514.36 5
3 -2 -2 15873.6 993.959 6
-3 2 2 15759.9 1023.96 3
3 -2 -2 16208.4 1065.25 3
-3 2 2 15593.3 1302.05 5
-3 2 1 71829.4 2083.92 3
-3 2 1 70086.7 2898.96 5
3 -2 -1 73356.6 2171.33 3
3 -2 -1 72833.9 2339.12 6
-3 2 0 447.46 137.406 3
-3 2 0 639.176 217.461 5
-3 2 -1 34123 1067.43 3
-3 2 -1 36358.3 2036 5
-3 2 -2 96542.8 1875.78 3
-3 2 -2 100326 3683.3 5
-3 2 -3 146213 4783.8 5
-3 2 -3 141041 2609.49 3
-3 2 -4 2296.01 662.729 5
3 -2 4 1243.44 306.416 4
3 -2 5 108439 3204.39 4
-3 2 -5 112475 4589.22 5
3 -2 5 112643 4093.44 1
3 -2 6 23693.8 1496.09 4
-3 2 -6 25287.9 1203.04 3
-3 2 -6 22877.8 2100.82 5
3 -2 6 23725.6 1989.55 1
-3 2 -7 114444 4058.17 4
3 -2 7 107144 3592.03 4
-3 2 -7 115572 5222.37 5
3 -2 7 113826 4514.81 1
-3 2 -7 114770 3091.84 3
-3 2 -8 1459.51 705.053 5
-3 2 -8 1703.28 577.32 4
-3 2 -8 2180.99 430.174 3
3 -2 8 2558.45 727.467 1
-3 2 -9 470.924 471.755 5
3 -2 9 684.107 573.31 1
-3 2 -9 -337.961 421.683 4
-3 2 -9 244.852 224.894 3
-3 2 -10 3626.32 1129.58 5
3 -2 10 5065.59 1152.34 1
-3 2 -10 2624.68 758.922 4
3 -2 11 56953.5 3743.2 1
-3 2 -11 54966.2 3386.73 4
-3 2 -11 56488.5 4415.03 5
-3 2 -12 69.0727 803.046 5
-3 2 -12 1276.18 752.56 4
3 -2 12 376.289 502.868 1
-3 2 -13 4513.28 1258.95 4
3 -2 13 5637.34 1389.76 1
-3 2 -14 1628.75 1088.97 4
3 -2 14 -1193.33 1077.82 1
3 -2 15 14269.6 2405.65 1
-3 2 -15 15542.6 2869.46 5
-3 2 -15 13578 2077.36 4
-3 2 -16 -93.8526 1019.55 5
-3 2 -16 -839.346 688.961 4
3 -1 -17 3534.21 1368.96 4
3 -1 -16 -152.107 666.189 4
3 -1 -15 366.795 662.813 4
3 -1 -14 3785.68 1159.74 4
3 -1 -13 9288.63 1616.16 4
3 -1 -12 -265.618 690.433 4
3 -1 -11 862.907 391.814 4
-3 1 11 1610.78 753.389 3
3 -1 -10 -165.865 382.641 4
-3 1 10 83.0995 456.891 3
3 -1 -9 76226.3 3788.16 4
-3 1 9 77631.6 3718.45 3
-3 1 8 19314.4 1238.85 6
-3 1 8 16937.8 1616.29 3
-3 1 7 56593.3 1968.36 6
-3 1 7 57067.6 2785.74 3
-3 1 6 779.743 313.184 2
-3 1 6 712.767 188.036 6
-3 1 6 795.07 430.67 3
3 -1 -5 61853.9 2628.41 2
-3 1 5 56261.9 2497.75 3
-3 1 5 56518.8 1513.03 6
3 -1 -4 1517.01 388.14 3
3 -1 -4 1592.21 423.491 2
-3 1 4 1192.18 360.394 3
3 -1 -3 140012 3700.03 2
-3 1 3 137776 3661.35 3
3 -1 -3 142057 3760.22 3
-3 1 3 138879 4239.05 5
3 -1 -2 52499.4 1480.46 6
3 -1 -2 57759.6 2234.94 3
-3 1 2 57616.4 2528.03 5
-3 1 2 55861.2 2061.05 3
3 -1 -1 87764.8 2746.55 3
-3 1 1 84399.2 2498.7 3
-3 1 1 89213.3 3246.18 5
-3 1 0 11230.3 832.5 3
-3 1 0 9499.71 1038.52 5
-3 1 -1 110446 2974.45 3
-3 1 -1 111531 3746.99 5
-3 1 -2 737.818 394.308 5
-3 1 -3 47870.2 2691.1 5
3 -1 3 48410.6 2313.84 4
3 -1 4 -118.341 206.617 4
3 -1 4 60.4017 235.232 1
3 -1 5 186133 5203.97 4
3 -1 5 193434 5327.46 1
-3 1 -6 294.607 488.275 5
3 -1 6 354.139 319.444 1
-3 1 -7 13764.7 1783.34 5
-3 1 -7 11896.6 1458.76 4
3 -1 7 14196 1489.13 1
-3 1 -8 556.721 527.073 5
-3 1 -8 706.55 319.841 4
3 -1 8 395.212 368.434 1
-3 1 -9 57444.1 3388.57 4
-3 1 -9 54248.5 4045.74 5
3 -1 9 54925.4 3184.44 1
-3 1 -10 1071.42 508.907 5
3 -1 10 1472.6 645.016 1
-3 1 -10 1418.64 644.452 4
-3 1 -11 628.731 831.543 5
-3 1 -11 539.533 524.872 4
3 -1 11 1941.49 817.084 1
-3 1 -12 2705.18 965.599 4
3 -1 12 1630.62 628.315 1
-3 1 -13 11943.1 1839.28 4
3 -1 13 11326.3 1781.14 1
-3 1 -14 526.591 1042.71 4
3 -1 14 -124.573 611.79 1
-3 1 -15 1257.71 684.519 4
3 0 -17 -356.29 778.834 4
3 0 -16 812.946 773.552 4
3 0 -15 17205.6 2303.65 4
3 0 -14 1830.2 890.339 4
-3 0 14 1689.65 794.357 3
-3 0 13 6328.72 1322.13 3
3 0 -13 4848.14 1138.02 4
-3 0 12 6509.88 1215.94 3
3 0 -12 8136.22 1409.56 4
-3 0 11 33077 2592.8 3
-3 0 10 4174.46 893.018 3
-3 0 9 22732.3 1942.76 3
-3 0 8 3363.62 683.25 2
-3 0 8 3789.09 811.857 3
-3 0 7 25844.8 1695.08 2
-3 0 7 26839.9 1925.32 3
-3 0 6 41868 1977.79 2
-3 0 6 44091.6 2354.04 3
-3 0 5 112796 3808.29 3
-3 0 4 7658.46 900.705 3
3 0 -4 7036.33 672.86 2
3 0 -4 8541.04 1002.85 5
3 0 -3 28865.4 1254.4 2
-3 0 3 29105.3 1712.41 3
-3 0 3 30250.2 1773.07 5
3 0 -3 31750.1 1858.12 3
3 0 -3 28283.9 1777.56 5
-3 0 2 78541.4 2956.92 3
-3 0 2 81647.1 3022.51 5
3 0 -2 83335.2 3066.6 3
3 0 -2 89296.3 3121.92 5
-3 0 1 157948 4431.99 5
-3 0 1 155045 4339.84 3
3 0 -1 164834 4568.1 5
3 0 0 939.702 397.528 5
-3 0 0 1193.25 308.403 3
-3 0 0 1946.85 512.425 5
-3 0 -1 411.115 324.763 5
3 0 1 183.698 292.527 5
3 0 2 29898.1 1993.91 4
-3 0 -2 27805.3 1905.31 5
3 0 2 29010.5 1994.38 5
-3 0 -3 192148 5654.16 5
-3 0 -4 76135 3560.4 5
-3 0 -5 4711.83 1003.31 5
3 0 5 4360.81 747.123 1
-3 0 -6 29561.2 2446.13 5
3 0 6 30490.2 1976.84 1
-3 0 -7 40992 2902.71 4
-3 0 -7 41951.8 3149.39 5
3 0 7 45282.6 2495.16 1
-3 0 -8 31700.7 2745.4 4
-3 0 -8 34096.5 2949.15 5
3 0 8 33308 2257.08 1
-3 0 -9 3647.56 1079.73 5
-3 0 -9 3618.06 992.811 4
3 0 9 4669.08 868.817 1
-3 0 -10 1302.84 1085.91 5
3 0 10 867.104 682.316 1
-3 0 -10 1414.61 701.941 4
-3 0 -11 10425 1837.86 5
-3 0 -11 9891.89 1760.55 4
3 0 11 9893.02 1459.25 1
-3 0 -12 13973.6 2207.75 4
3 0 12 14159.1 1809.95 1
-3 0 -12 17440.9 2547.23 5
-3 0 -13 6292.64 1685.64 5
-3 0 -13 8319.93 1977.1 4
-3 0 -14 208.095 699.62 5
-3 0 -14 2145.29 1061.89 4
3 1 -17 5139.4 1368.58 4
3 1 -16 1376.52 953.817 4
-3 -1 16 1799.75 1033.87 3
3 1 -15 3408.64 1099.5 4
-3 -1 15 2644.51 958.119 3
3 1 -14 2109.41 846.679 4
-3 -1 14 2297.97 808.494 3
-3 -1 13 9468.07 1570.56 3
-3 -1 12 21171.7 2096.24 3
-3 -1 11 15780.4 1829.21 3
-3 -1 10 320.436 404.69 3
-3 -1 9 10165.4 1169.08 2
-3 -1 9 13427.6 1513.32 3
-3 -1 8 45351.8 2282.41 2
-3 -1 8 47636.6 1511.73 6
-3 -1 8 43006.3 2683.73 3
-3 -1 7 93849.2 2986.79 2
-3 -1 7 86518.7 1939.59 6
-3 -1 7 95328.9 3926.48 3
-3 -1 6 -79.0253 346.619 3
-3 -1 6 141.152 179.888 2
-3 -1 5 5003.18 833.14 3
3 1 -5 5568.96 840.645 5
-3 -1 4 61388.5 2942.77 3
3 1 -4 61105.7 1571.8 6
-3 -1 3 120474 3760.51 5
3 1 -3 116533 2723.85 6
-3 -1 3 119861 4204.93 3
3 1 -3 125921 3853.45 5
3 1 -2 68386.3 2166.47 6
-3 -1 2 71131 3200.01 3
-3 -1 2 65683.5 2651.34 5
3 1 -2 73107.7 2802.6 5
3 1 -1 114.514 204.534 5
-3 -1 1 275.879 371.729 3
-3 -1 1 13.5608 243.054 5
-3 -1 0 78489.1 2977.28 5
3 1 0 77653.7 3097.26 5
-3 -1 -1 38929.1 2154.63 5
3 1 1 43230.9 2386.59 5
-3 -1 -2 104620 3796.02 5
-3 -1 -3 13127.1 1381.38 5
-3 -1 -4 44918.4 2679.44 5
3 1 5 39794 2182.58 1
-3 -1 -5 35229.9 2533.48 5
-3 -1 -6 37158.2 2733.05 5
3 1 6 42342.2 2285.98 1
-3 -1 -7 12729.6 1716.18 5
3 1 7 10398.3 1168.4 1
-3 -1 -8 821.341 710.823 5
3 1 8 389.428 399.444 1
-3 -1 -9 2378.81 1063.88 5
-3 -1 -9 2126.1 876.697 4
3 1 9 1858.47 481.588 1
3 1 10 24477.7 2087.64 1
-3 -1 -10 26286.9 2801.83 4
-3 -1 -10 23612.9 2718.67 5
-3 -1 -11 6977.32 1695.34 5
-3 -1 -11 5187.68 1405.97 4
-3 -1 -12 684.293 887.086 5
-3 -1 -12 146.916 677.775 4
-3 -1 -13 231.421 685.868 5
-3 -1 -13 -27.9652 633.088 4
3 2 -17 -2.71565 670.706 4
-3 -2 17 1056.95 750.517 3
3 2 -16 -413.624 693.568 4
-3 -2 16 261.192 570.109 3
-3 -2 15 1329.91 793.726 3
-3 -2 14 27865.2 2700.69 3
-3 -2 13 5523.88 1198.45 3
-3 -2 12 457.471 469.858 3
-3 -2 11 103.737 446.234 3
-3 -2 10 32894.2 2148.33 2
-3 -2 10 32965.3 2591.06 3
-3 -2 10 39144.1 1799.29 6
-3 -2 9 8218.87 1302.97 3
-3 -2 9 7160.78 722.69 6
-3 -2 9 5896.29 804.297 2
-3 -2 8 4113.87 925.334 3
-3 -2 8 3820.99 494.918 6
-3 -2 8 4454.27 596.153 2
-3 -2 7 437.6 454.06 3
-3 -2 7 221.553 177.157 2
-3 -2 7 164.607 202.694 6
-3 -2 6 59085.2 3182.53 3
3 2 -6 61769 2838.19 5
-3 -2 6 63270.6 2091.79 6
-3 -2 5 4441.2 906.617 3
3 2 -5 3922.06 683.971 5
3 2 -4 85973.7 3119.32 5
-3 -2 4 81122.6 3785.87 3
3 2 -4 84791.7 2647.26 6
-3 -2 3 3706.17 773.337 3
3 2 -3 3380.79 568.47 6
-3 -2 3 2918.84 564.916 5
3 2 -3 3878.46 631.625 5
3 2 -2 79389.1 2930.83 6
-3 -2 2 72686.1 2738.24 5
-3 -2 2 72738.5 3628.25 3
3 2 -2 77600.8 2929.27 5
-3 -2 1 334.895 249.189 5
3 2 -1 360.119 215.255 5
3 2 -1 395.985 130.213 2
3 2 -1 602.276 275.458 6
-3 -2 0 75136.3 2893.38 5
3 2 0 72375.1 3030.91 5
3 2 0 73394.6 3084.87 6
-3 -2 -1 7835.48 959.532 5
-3 -2 -2 13176.6 1283.41 5
-3 -2 -3 10188.2 1215.09 5
-3 -2 -4 74197.1 3540.67 5
-3 -2 -5 746.715 561.325 5
-3 -2 -6 2619.81 854.995 5
3 2 6 1283.95 587.401 1
-3 -2 -7 595.219 568.161 5
3 2 7 1533.06 530.745 1
-3 -2 -8 36729 3122.17 5
3 2 8 35552.4 2146.32 1
-3 -2 -9 1161.51 800.109 5
-3 -2 -10 2823.97 1174.51 5
-3 -2 -11 13.6196 750.194 5
-3 -2 -12 9779.73 2041.26 5
-3 -3 16 7881.19 1545.36 3
-3 -3 15 1289.94 853.786 3
-3 -3 14 1177.46 713.318 3
-3 -3 13 1202.69 622.385 3
-3 -3 12 20756.8 2275.96 3
-3 -3 11 -78.8548 437.151 3
-3 -3 10 7740.51 1363.41 3
-3 -3 9 436.698 504.681 3
-3 -3 9 393.622 278.744 2
-3 -3 8 24701 1157.05 2
-3 -3 8 30837.3 1751.26 6
-3 -3 8 27183 2399.15 3
-3 -3 7 128.626 541.918 3
-3 -3 7 -24.5465 211.256 6
-3 -3 6 30751.5 1823.08 6
3 3 -6 36533.1 2066.19 5
-3 -3 6 33578.8 2686.22 3
-3 -3 5 5214.24 1031.31 3
3 3 -5 4820.34 706.356 6
3 3 -5 5346.4 763.123 5
-3 -3 4 30817.6 2552.69 3
3 3 -4 29950.1 1710.62 5
3 3 -4 30791.3 1891.46 6
3 3 -3 49.3418 272.482 5
-3 -3 3 336.918 449.316 3
3 3 -3 -177.593 325.979 6
-3 -3 2 72982.9 2648.78 5
-3 -3 2 79206.3 4180.53 3
3 3 -2 81389.5 3396.93 6
3 3 -2 78326.7 2917.61 5
3 3 -1 793.92 455.484 6
-3 -3 1 1029.02 330.737 5
3 3 0 3215.77 453.885 2
-3 -3 0 4148.64 624.366 5
3 3 1 9434.53 889.369 2
3 3 1 9544.73 1355.47 6
-3 -3 -1 7990.79 923.893 5
3 3 2 50788.3 2355.11 2
3 3 2 51320.3 3103.03 6
-3 -3 -2 56143.7 2677.72 5
-3 -3 -3 975.163 372.621 5
3 3 3 1644.9 615.784 6
-3 -3 -4 -95.6162 346.235 5
3 3 4 -155.028 433.345 6
-3 -3 -5 4090.65 913.791 5
-3 -3 -6 23565.6 2155.37 5
3 3 6 21619.9 1580.37 1
-3 -3 -7 258.472 535.077 5
-3 -3 -8 2989.87 968.521 5
-3 -3 -9 2960.71 971.991 5
-3 -3 -10 2554.26 1119.72 5
-3 -3 -11 -738.627 817.766 5
-3 -4 15 -296.819 689.5 3
-3 -4 14 2987.63 970.128 3
-3 -4 13 3875.16 1164.44 3
-3 -4 12 1991 1037.71 3
-3 -4 11 -382.62 606.304 3
-3 -4 10 4332.3 1083.32 3
-3 -4 9 1214.08 617.765 3
-3 -4 8 4819.99 1172.24 3
-3 -4 7 231.778 530.838 3
-3 -4 6 5716.61 1189.73 3
-3 -4 5 11508.3 1633.51 3
3 4 -5 14213.9 1438.39 6
3 4 -4 27644.9 2061.7 6
-3 -4 4 27887.4 2629.03 3
-3 -4 3 3995.35 913.211 3
3 4 -3 6354.72 1057.4 6
3 4 -2 1082.23 629.833 6
3 4 -1 18514.2 1821.59 6
-3 -4 1 16449.6 1106.57 5
3 4 0 10898.9 1454.27 6
-3 -4 0 11424.7 987.425 5
3 4 1 3983.12 944.829 6
-3 -4 -1 2792.22 559.271 5
3 4 2 -177.662 451.932 6
-3 -4 -2 477.089 385.87 5
3 4 3 14.79 493.318 6
-3 -4 -3 133.762 364.815 5
-3 -4 -4 9126.08 1190.66 5
3 4 4 8743.09 1572.41 6
3 4 5 10348.2 1645.91 6
3 4 6 1644.59 797.197 6
3 4 7 2247.92 942.056 6
3 4 8 1128.63 662.078 6
3 4 9 4923.9 1428.83 6
-3 -5 14 2454.28 1069.29 3
-3 -5 13 -333.699 592.46 3
-3 -5 12 78.1031 539.524 3
-3 -5 11 3636.16 1008.15 3
-3 -5 10 2862.13 1038.91 3
-3 -5 9 811.491 745.497 3
-3 -5 8 -416.054 578.348 3
-3 -5 7 12453.4 1912.1 3
3 5 -6 4393.56 799.911 6
-3 -5 6 2901.82 983.364 3
-3 -5 5 7079.55 1474.83 3
3 5 -5 7775.34 1271.62 6
-3 -5 4 2055.69 593.916 3
3 5 -4 3190.65 887.161 6
3 5 -3 6426.57 1185 6
-3 -5 3 8271.67 1701.37 3
3 5 -2 1679.94 809.541 6
3 5 -1 13204.3 1812.12 6
3 5 0 -144.358 493.364 6
3 5 1 1776.17 836.028 6
3 5 2 609.542 759.966 6
3 5 3 10883.1 1847.74 6
3 5 4 2388.49 970.61 6
3 5 5 1438.39 833.943 6
3 5 6 -122.023 617.928 6
-3 -6 12 754.575 868.707 3
-3 -6 11 1191.06 760.841 3
-3 -6 10 2029.99 958.17 3
-3 -6 9 1748.01 824.608 3
-3 -6 8 -352.078 775.009 3
-3 -6 7 5724.52 1425.75 3
3 6 -6 610.911 598.488 6
-3 -6 6 1064.46 897.896 3
-3 -6 5 3618.95 1288.45 3
3 6 -5 5948.52 1333.61 6
-3 -6 4 -399.662 734.657 3
3 6 -4 -330.839 484.897 6
-3 -6 3 4569.16 1339.92 3
3 6 -3 6552.64 1368.93 6
-3 -6 2 118.58 646.475 3
3 6 -2 1525.86 855.557 6
3 6 -1 1403.21 755.929 6
3 6 0 868.476 673.548 6
3 6 1 4231.38 1226.15 6
3 6 2 -37.3254 751.56 6
3 6 3 1136.96 968.061 6
-3 -7 6 471.26 771.282 3
-3 -7 5 1910.71 1042.14 3
3 7 -5 2492.4 1022.12 6
-3 -7 4 -299.507 1132.4 3
3 7 -4 222.261 609.216 6
-4 9 2 1158.15 662.488 6
4 -9 -2 195.846 1022.59 2
4 -9 -1 823.249 605.035 2
-4 9 1 1251.02 920.136 6
4 -9 0 108.121 555.589 2
4 -9 1 1799.4 987.856 2
4 -9 2 2103.36 897.161 1
4 -9 2 4560.98 1300.85 2
4 -9 3 987.424 622.603 1
4 -9 3 3073.94 1136.7 2
4 -9 4 339.143 531.608 1
4 -9 5 1197.8 778.528 1
4 -9 6 1221.15 661.955 1
4 -9 7 -334.065 729.1 1
4 -9 8 42.4717 1000.31 1
4 -9 9 190 819.946 1
4 -8 -6 -102.655 614.45 4
-4 8 6 1413.38 930.975 6
4 -8 -5 1480.49 717.033 4
4 -8 -5 2259.2 1172.12 2
-4 8 5 1592.14 1001.82 6
-4 8 4 54.7969 841.755 6
4 -8 -4 2024.32 1126.86 2
-4 8 3 -472.438 551.215 6
4 -8 -3 1476.34 962.237 2
-4 8 2 1047.5 860.458 6
4 -8 -2 2272.38 1038.72 2
-4 8 1 2694.59 919.177 6
4 -8 -1 3410.79 1114.63 2
4 -8 0 1416.87 760.868 2
4 -8 0 -25.2395 429.938 1
4 -8 1 5542.41 1336.68 2
4 -8 1 4411.71 1120.99 1
4 -8 2 -186.329 552.777 1
4 -8 3 -4.46546 525.459 1
4 -8 4 2228.77 916.691 1
-4 8 -4 544.148 343.756 5
4 -8 5 -335.301 710.499 1
-4 8 -5 2068.31 676.977 5
4 -8 6 277.868 631.426 1
-4 8 -6 197.021 575.108 5
4 -8 7 305.164 811.427 1
-4 8 -7 -83.5611 452.917 5
4 -8 8 175.397 709.131 1
-4 8 -8 -6.57423 435.259 5
4 -8 9 1880.92 1204.38 1
-4 8 -9 4458.41 1041.44 5
4 -8 10 68.2641 712.833 1
-4 8 -10 395.296 582.397 5
4 -8 11 -803.055 1014.35 1
4 -7 -9 666.6 790.331 4
-4 7 9 1636.05 969.828 6
4 -7 -8 119.664 755.538 4
-4 7 8 336.667 641.415 6
4 -7 -7 4914.59 1257.49 4
-4 7 7 5552.01 1394.37 6
4 -7 -6 1110.2 702.59 4
4 -7 -6 -71.7772 684.134 2
-4 7 6 912.007 783.607 6
4 -7 -5 1160.51 595.86 4
-4 7 5 -296.32 689.786 6
4 -7 -5 151.846 582.742 2
4 -7 -4 -152.466 376.525 4
-4 7 4 -330.055 603.475 6
4 -7 -4 897.74 868.894 2
4 -7 -3 1861.24 643.548 1
4 -7 -3 2533.27 768.232 4
-4 7 3 2251.76 853.372 6
4 -7 -3 2156.98 780.571 2
4 -7 -2 1297.18 470.955 1
4 -7 -2 953.046 427.102 4
4 -7 -2 867.293 706.432 2
-4 7 2 1996.24 837.075 6
4 -7 -1 14657.1 1695.64 1
4 -7 -1 16404.6 1538.16 4
4 -7 -1 13695.7 2019.76 2
-4 7 1 17175.3 2044.17 6
4 -7 0 437.837 534.218 1
4 -7 0 798.189 743.402 2
4 -7 1 4265.93 1059.18 1
-4 7 -1 1594.24 616.157 5
4 -7 2 130.168 473.846 1
-4 7 -2 418.827 399.767 5
4 -7 3 15180.4 2000.12 1
-4 7 -3 15457.1 1618.66 5
4 -7 4 4980.49 1280.87 1
-4 7 -4 4276.32 942.932 5
4 -7 5 7389.09 1511.66 1
-4 7 -5 8206.54 1186.81 5
4 -7 6 1205.17 781.016 1
-4 7 -6 790.068 444.828 5
4 -7 7 20070.6 2535.29 1
-4 7 -7 18604.9 1983.79 5
4 -7 8 1759.94 1005.34 1
-4 7 -8 3850.24 1087.14 5
4 -7 9 1417.06 736.563 1
-4 7 -9 2282.02 909.789 5
4 -7 10 21.2693 774.784 1
-4 7 -10 742.585 774.562 5
-4 7 -11 11703.4 2006.04 5
4 -7 11 10335.9 2262.04 1
-4 7 -12 3508.96 1261.29 5
4 -7 12 -748.049 1358.19 1
4 -7 13 919.732 1015.51 1
-4 7 -13 -396.369 738.872 5
4 -6 -11 1237.49 842.498 4
-4 6 11 648.216 696.004 6
4 -6 -10 -427.514 662.754 4
-4 6 10 -159.621 567.703 6
4 -6 -9 12660.1 1968.45 4
-4 6 9 11595.8 1946.88 6
4 -6 -8 3441.95 953.687 4
-4 6 8 3450.47 1183.53 6
4 -6 -7 289.69 563.559 4
-4 6 7 585.792 637.852 6
4 -6 -6 1646.08 695.678 4
-4 6 6 1368.04 545.201 6
4 -6 -6 292.539 619.399 2
4 -6 -5 8067.98 1247.46 4
-4 6 5 7894.27 1419.78 6
4 -6 -5 7863.14 1571.44 2
4 -6 -5 6719.39 868.373 1
4 -6 -4 7479.99 1118.8 4
-4 6 4 8358.03 1430.62 6
4 -6 -4 10555.5 1709.69 2
4 -6 -4 7415.3 963.658 1
4 -6 -3 17726.5 1643.2 4
4 -6 -3 18257.9 2135.6 2
-4 6 3 18936.8 2001.42 6
4 -6 -3 17346.8 1531.18 1
4 -6 -2 382.935 323.787 4
4 -6 -2 915.628 686.3 2
-4 6 2 846.693 583.771 6
4 -6 -2 621.745 395.473 1
4 -6 -1 10107 1057.46 4
4 -6 -1 10556.1 1574.2 2
4 -6 -1 10473.9 1286.02 1
4 -6 0 2978.09 558.262 4
-4 6 0 2008.17 573.701 5
4 -6 0 1622.63 605.25 1
4 -6 1 27099.9 1335.61 4
4 -6 1 22924.9 1553.92 3
-4 6 -1 29085.1 2189.59 5
4 -6 1 24654.9 2159.5 1
4 -6 2 1731.38 374.446 3
-4 6 -2 1964.24 532.97 5
4 -6 2 1986.46 580.136 1
4 -6 3 5589.46 1148.93 1
-4 6 -3 8069.23 1206.22 5
4 -6 4 4113.59 1025.29 1
4 -6 4 2624.66 341.113 3
-4 6 -4 4036.14 851.851 5
4 -6 5 24454.8 2559.52 1
-4 6 -5 23379.7 2073 5
4 -6 6 7191.77 1546.21 1
-4 6 -6 6613.63 1225.35 5
4 -6 7 2077.94 989.292 1
-4 6 -7 2034.6 752.632 5
4 -6 8 18629.9 2351.05 1
-4 6 -8 18926.5 2181.78 5
4 -6 9 20172.2 2597.8 1
-4 6 -9 19728.6 2342.2 5
-4 6 -10 4540.49 1250.09 5
4 -6 10 3721.15 1216.94 1
-4 6 -11 1037.13 922.14 5
4 -6 11 -336.869 924.981 1
-4 6 -12 963.542 1051.18 5
4 -6 12 -832.69 797.173 1
-4 6 -13 5082.6 1465.94 5
4 -6 13 8695.15 1922.14 1
-4 6 -14 3261.32 1370.22 5
4 -6 14 3910 1107.61 1
-4 5 13 642.838 689.833 6
4 -5 -13 774.532 790.362 4
-4 5 12 2342.21 1031.91 6
4 -5 -12 1942.09 959.625 4
4 -5 -11 2222.1 931.79 4
-4 5 11 1280.93 874.303 6
4 -5 -10 -180.138 563.676 4
-4 5 10 -487.161 618.38 6
4 -5 -9 2417.52 822.898 4
-4 5 9 3410.12 1054.45 6
4 -5 -8 -346.469 642.79 4
-4 5 8 663.377 596.136 6
4 -5 -7 4341.87 641.041 1
4 -5 -7 6331.05 1232.98 4
-4 5 7 6101.61 1239.77 6
4 -5 -7 5425.24 1278.77 2
4 -5 -6 7743.52 896.462 1
4 -5 -6 8088.13 1291.82 4
-4 5 6 7849.07 1256.17 6
4 -5 -6 7405.53 1408.09 2
4 -5 -5 13313 1448.27 4
4 -5 -5 17226.3 2010.94 2
-4 5 5 13934.7 1636.31 6
4 -5 -5 12884.5 1200.5 1
4 -5 -4 376.112 327.801 4
4 -5 -4 -124.049 233.333 1
-4 5 4 434.157 420.883 6
4 -5 -4 -302.623 456.775 2
4 -5 -3 1057.31 406.266 4
4 -5 -3 2694.54 643.297 1
-4 5 3 1893.06 610.664 6
4 -5 -3 2687.06 883.743 2
4 -5 -2 12082 1131.33 4
4 -5 -2 9804.97 1441.62 2
4 -5 -2 12353.5 1300.44 1
-4 5 2 12756.2 1452.84 6
4 -5 -1 27201 1568.49 4
4 -5 -1 22547 1519.1 3
-4 5 1 29398.7 2158.6 5
4 -5 -1 24746.8 1875.19 1
4 -5 0 7172.04 699.887 4
4 -5 0 7374.59 1035.02 1
4 -5 0 4652.61 623.695 3
-4 5 0 7464.13 1102.48 5
4 -5 1 3574.27 413.984 4
4 -5 1 4110.93 874.044 1
4 -5 1 2851.93 434.504 3
-4 5 -1 3845.28 787.805 5
4 -5 2 9139.54 650.512 3
4 -5 2 10506.8 1379.77 1
-4 5 -2 10146.2 1272.52 5
-4 5 -3 19644.5 1884.07 5
4 -5 3 23222.7 2146.07 1
-4 5 -4 34594.3 2514.51 5
4 -5 4 35276.3 2650.24 1
4 -5 5 1187.07 558.493 1
-4 5 -5 1730.74 604.102 5
4 -5 6 12275.8 1709.23 1
-4 5 -6 16792.2 1900.58 5
4 -5 7 38158.4 3171.9 1
-4 5 -7 38323 2984.82 5
4 -5 8 26562.2 2691.69 1
-4 5 -8 20246.3 2411.4 5
-4 5 -9 1297.04 830.862 5
4 -5 9 66.6211 746.33 1
-4 5 -10 -336.662 557.411 5
4 -5 10 605.607 660.737 1
-4 5 -11 9767.87 1860.68 5
4 -5 11 4656.78 1440.07 1
-4 5 -12 15860.8 2492.14 5
4 -5 12 13824.5 2302.79 1
-4 5 -13 1592.63 1095.19 5
4 -5 13 -278.577 737.554 1
-4 5 -14 931.125 924.713 5
4 -5 14 -2603.89 1208.25 1
-4 5 -15 1483.02 1182.78 5
4 -5 15 5.63473 1061.15 1
4 -4 -14 -956.245 822.074 4
4 -4 -13 922.337 747.407 4
-4 4 13 669.232 585.563 6
4 -4 -12 6179.52 1401.23 4
-4 4 12 5291.7 1117.27 6
4 -4 -11 2793.67 1084.99 4
-4 4 11 4104.98 1069.16 6
4 -4 -10 2034.69 888.951 4
-4 4 10 1750.99 670.882 6
4 -4 -9 4441.62 1042.04 4
-4 4 9 2919.37 800.335 6
4 -4 -8 43876.2 3019.95 4
-4 4 8 49330.7 2939.9 6
4 -4 -7 -1129.2 641.353 2
4 -4 -7 -720.575 443.992 4
-4 4 7 343.071 412.359 6
4 -4 -6 933.813 514.916 4
-4 4 6 1663.35 619.118 6
4 -4 -6 1101.69 651.928 2
4 -4 -5 35.1334 273.058 4
-4 4 5 -289.173 411.819 6
4 -4 -4 65587.7 2955.75 4
4 -4 -4 73105.7 3730.59 2
-4 4 4 65712.8 3046.77 6
-4 4 3 3351.14 657.891 6
4 -4 -3 2955.92 578.637 4
4 -4 -3 2584.63 614.045 2
4 -4 -2 19896.5 1382.14 4
4 -4 -2 19053.1 1382.93 3
4 -4 -2 22989.6 1672.16 1
-4 4 2 21189.7 1825.33 5
4 -4 -1 2541.48 605.391 1
4 -4 -1 3269.3 513.789 4
-4 4 1 3877.58 833.951 5
4 -4 -1 3497.81 552.811 3
4 -4 0 18913 1083.45 4
4 -4 0 19269.1 1112.37 3
-4 4 0 19639.8 1791.25 5
4 -4 1 1202.35 243.04 3
4 -4 1 1600.39 283.465 4
4 -4 1 1589.31 504.344 1
-4 4 -1 1543.67 539.3 5
4 -4 2 69875 1678.85 4
4 -4 2 68258.4 1462.26 3
4 -4 3 581.688 449.248 1
-4 4 -3 1380.29 503.136 5
-4 4 -4 14765.6 1657.93 5
4 -4 4 16746.3 1754.49 1
4 -4 5 3070.68 817.239 1
-4 4 -5 2022.13 662.92 5
-4 4 -6 51428.4 3393.01 5
4 -4 6 56925.7 3441.39 1
-4 4 -7 946.694 691.853 5
4 -4 7 134.777 417.797 1
4 -4 8 3905.97 966.296 1
-4 4 -8 4366.98 1113.72 5
-4 4 -9 -338.825 659.106 5
4 -4 9 1097.75 640.227 1
4 -4 10 23866.8 2723.83 1
-4 4 -10 29601.6 3201.62 5
-4 4 -11 2316.57 1108.87 5
4 -4 11 2656.65 1076.05 1
-4 4 -12 1626.57 1237.06 5
4 -4 12 2175.68 1086.09 1
-4 4 -13 -195.055 822.698 5
4 -4 13 -841.804 883.947 1
-4 4 -14 14601.1 2608.07 5
4 -4 14 12406.2 2252.57 1
-4 4 -15 145.386 945.809 5
4 -4 15 -2020.69 1220.71 1
4 -3 -15 1130.72 1084.48 4
4 -3 -14 4361.15 1291.36 4
4 -3 -13 1778.2 824.823 4
-4 3 13 1826.64 673.929 6
4 -3 -12 665.034 747.087 4
-4 3 12 -245.904 386.289 6
4 -3 -11 4293.38 1133.04 4
-4 3 11 1850.69 628.946 6
4 -3 -10 10552.4 1619.61 4
-4 3 10 13863.9 1512.22 6
4 -3 -9 -393.453 516.202 4
-4 3 9 100.931 373.512 6
4 -3 -8 15335.8 1713.33 4
-4 3 8 13741.6 1335.91 6
4 -3 -7 336.783 415.279 4
-4 3 7 101.903 306.613 6
4 -3 -7 307.895 367.789 2
4 -3 -6 24160.6 1914.21 4
-4 3 6 23891 1622.86 6
-4 3 5 377.08 325.372 6
4 -3 -5 -632.589 429.477 2
4 -3 -5 -247.728 278.084 4
4 -3 -4 16818.1 1664.43 2
-4 3 4 18243.4 1309.37 6
4 -3 -4 18765.7 1330.77 6
4 -3 -3 1031.37 439.281 2
-4 3 3 609.019 274.758 3
4 -3 -3 774.875 229.545 6
4 -3 -3 1521.43 422.328 3
4 -3 -2 18853 1356.49 6
4 -3 -2 22055.4 1380.26 3
-4 3 2 19535.4 1722.79 5
-4 3 2 19505.4 1306.7 3
4 -3 -1 576.131 213.171 3
-4 3 1 968.319 342.407 3
4 -3 -1 784.415 327.571 6
-4 3 1 529.863 339.2 5
4 -3 0 98754.7 3421.55 6
-4 3 0 106956 2698.8 3
4 -3 0 99088.1 2725.88 3
-4 3 0 105161 4140.66 5
-4 3 -1 -18.7717 100.662 3
4 -3 1 -42.6595 144.888 3
-4 3 -1 159.729 379.317 5
-4 3 -2 14779.4 1577.45 5
4 -3 3 12875.8 941.241 4
-4 3 -3 11624.8 1423.91 5
4 -3 4 113813 3119.44 4
-4 3 -4 106474 4755.59 5
-4 3 -5 15547.5 1775.87 5
4 -3 5 16563.3 1115.54 4
4 -3 5 16394.8 1735.03 1
-4 3 -6 6184.02 1260.6 5
4 -3 6 4211.09 611.616 4
4 -3 6 6770.58 1196.95 1
-4 3 -7 393.973 639.861 5
4 -3 7 148.234 208.692 4
4 -3 7 434.355 482.715 1
-4 3 -7 -28.8712 79.6541 3
4 -3 8 41176.2 2171.52 4
-4 3 -8 44136.7 1524.52 3
-4 3 -8 51571.1 3747.59 5
4 -3 8 49830.1 3318.24 1
4 -3 9 12034 1776.75 1
-4 3 -9 17086.4 2312.11 5
-4 3 -10 4023.85 1233.51 5
4 -3 10 4337.68 1221.06 1
-4 3 -11 1664.44 1027.42 5
4 -3 11 1101.84 774.749 1
4 -3 12 23399.6 2740.35 1
-4 3 -12 22273.8 3076.66 5
-4 3 -12 21087.4 2224.34 4
-4 3 -13 5113.18 1621.4 5
-4 3 -13 4175.83 1047.83 4
4 -3 13 4662.4 1311.1 1
-4 3 -14 2447.09 1188.01 5
4 -3 14 991.455 689.642 1
-4 3 -15 -425.754 983.234 5
4 -3 15 88.3073 592.174 1
4 -2 -16 6059.45 1619.43 4
4 -2 -15 881.634 950.919 4
4 -2 -14 949.308 851.429 4
4 -2 -13 1088.62 715.67 4
4 -2 -12 5512.93 1322.12 4
-4 2 12 4242.33 830.462 6
-4 2 11 10432.6 1231.39 6
4 -2 -11 13244.2 1821.95 4
4 -2 -10 36865.5 2889.4 4
-4 2 10 38899.3 2197.79 6
-4 2 10 42869.1 3115.07 3
4 -2 -9 1101.65 744.766 4
-4 2 9 1115.29 368.309 6
-4 2 9 277.704 467.33 3
-4 2 8 31122.5 1655.28 6
-4 2 8 29541.1 2293.39 3
-4 2 7 46585.2 2667.1 3
-4 2 7 42668.6 1807.92 6
-4 2 6 12142.5 848.59 6
-4 2 6 10656.7 1243.29 3
4 -2 -6 10407.4 1339.97 2
4 -2 -5 298.171 341.842 2
-4 2 5 -124.482 332.413 3
4 -2 -4 56324.1 2754.64 2
4 -2 -4 56055.9 1877.45 6
-4 2 4 52614.5 2372.98 3
-4 2 3 53191.1 2274.24 3
4 -2 -3 53572.9 2607.37 2
4 -2 -3 53239.1 1860.61 6
4 -2 -3 56133.3 2424.71 3
-4 2 3 59340.9 3033.96 5
4 -2 -2 54743.6 2022.29 6
-4 2 2 58668.5 2249.41 3
4 -2 -2 63746.2 2530.65 3
-4 2 2 65423.3 3148.97 5
-4 2 1 27935.7 1414.41 3
4 -2 -1 29562.9 1600.93 3
-4 2 1 28478.1 2045.88 5
4 -2 0 3477.97 529.045 3
-4 2 0 4456.48 780.9 5
-4 2 0 3382.95 434.814 3
-4 2 -1 97052.9 2554.8 3
-4 2 -1 106727 4134.27 5
-4 2 -2 93732.3 2421.75 3
-4 2 -2 89564.1 3893.23 5
4 -2 3 64822 2712.1 4
-4 2 -3 63383.7 2003.47 3
-4 2 -3 64778.9 3478.99 5
-4 2 -4 -524.041 537.241 5
4 -2 4 354.774 301.089 4
-4 2 -4 -329.389 277.928 3
4 -2 4 -239.266 310.235 1
-4 2 -5 5054.02 1161.35 5
4 -2 5 4223.65 693.68 4
4 -2 5 4883.72 997.324 1
-4 2 -6 21815.5 2323.49 5
4 -2 6 20365.5 1914.5 1
-4 2 -7 31044.2 2876.01 5
4 -2 7 36320 2649.7 1
-4 2 -8 604.324 565.436 5
-4 2 -8 405.524 302.027 3
4 -2 8 -15.8806 406.111 1
-4 2 -9 11553.1 1871.7 5
4 -2 9 8539.78 1340.73 1
4 -2 10 6486.51 1139.4 1
-4 2 -10 6779.74 1515.12 5
4 -2 11 26762 2773.57 1
-4 2 -11 24869.9 3074.99 5
-4 2 -12 1605.34 1132.19 5
-4 2 -12 3202.38 974.431 4
4 -2 12 4481.44 1270.45 1
-4 2 -13 1583.39 1048.13 5
-4 2 -13 520.494 683.834 4
4 -2 13 2493.7 1027.39 1
-4 2 -14 1186.35 927.413 5
-4 2 -14 2761.22 1153.67 4
4 -2 14 1688.48 869.08 1
4 -1 -16 2233.45 976.433 4
4 -1 -15 5656.46 1537.04 4
4 -1 -14 -407.985 726.534 4
4 -1 -13 15142.1 2053.17 4
-4 1 13 13204.1 1996.08 3
4 -1 -12 12006.6 1740.69 4
-4 1 12 13015.1 1254.57 6
-4 1 12 13873.3 1835.2 3
-4 1 11 8475.85 909.165 6
-4 1 11 7660.6 1348.48 3
-4 1 10 1884.59 381.197 6
-4 1 10 1773.98 712.781 3
-4 1 9 21930.9 1111.24 6
-4 1 9 25181.8 2116.77 3
-4 1 8 19895.4 1754.15 3
-4 1 8 19159.8 841.416 6
-4 1 7 234.33 447.148 3
-4 1 6 3630.83 763.925 3
4 -1 -5 73036.5 2964.19 2
-4 1 5 70322.8 3027.08 3
4 -1 -4 33512.7 1843.85 2
-4 1 4 29896 1873.7 3
-4 1 4 31736.4 2279.48 5
4 -1 -3 27600.6 1616.3 2
4 -1 -3 24043.2 918.606 6
-4 1 3 27566.2 1683.77 3
-4 1 3 28680.2 1997.63 5
-4 1 2 69985.1 2710.36 3
4 -1 -2 69531.9 2955.24 3
-4 1 2 73633.2 3303.66 5
-4 1 1 166051 4406.35 3
-4 1 1 188314 5580.16 5
-4 1 0 65534.1 2597.36 3
-4 1 0 62441.2 3094.93 5
-4 1 -1 53271.7 2309.63 3
-4 1 -1 49161.6 2789.41 5
-4 1 -2 148.151 214.816 3
-4 1 -2 297.66 363.712 5
-4 1 -3 24839.6 2158.15 5
-4 1 -4 6881.57 1198.44 5
4 -1 4 7392.72 1109.68 1
-4 1 -5 73867 4095.62 5
4 -1 5 73895.5 3568.94 1
-4 1 -6 1014.73 542.541 5
4 -1 6 -52.6841 436.801 1
-4 1 -7 7460.83 1465.98 5
4 -1 7 7854.59 1270.27 1
-4 1 -8 2937.44 1083.2 5
4 -1 8 4468.17 1062.06 1
-4 1 -9 76412.4 5054.62 5
4 -1 9 83252.4 4208.77 1
-4 1 -10 8403.33 1677.4 5
4 -1 10 7027.75 1195.3 1
-4 1 -11 176.562 797.044 5
4 -1 11 -70.9488 548.406 1
-4 1 -12 1344.53 1036.51 5
4 -1 12 2005 821.28 1
-4 1 -13 19557 2913.59 5
4 -1 13 14041.9 2062.47 1
-4 1 -14 2822.34 1462.7 5
4 0 -16 735.745 682.165 4
-4 0 16 913.949 801.406 3
4 0 -15 9615.52 1776.12 4
-4 0 15 8999.12 1719.06 3
4 0 -14 2405.21 835.277 4
-4 0 14 3304.47 1111.54 3
-4 0 13 841.18 650.704 3
-4 0 12 397.386 593.201 3
-4 0 11 24184.3 2259.63 3
-4 0 10 9045.36 562.384 6
-4 0 10 12345.3 1613.14 3
-4 0 9 9943.45 1399.44 3
-4 0 8 2477.92 668.117 3
-4 0 7 83878.5 3765.79 3
-4 0 6 2780.69 697.71 3
-4 0 5 31298.4 2144.93 3
-4 0 4 -103.175 357.685 3
4 0 -4 563.827 211.149 2
-4 0 4 524.343 493.588 5
4 0 -3 132049 3194.75 2
-4 0 3 125330 4232.08 3
-4 0 3 135451 4556.05 5
-4 0 2 912.263 473.492 3
-4 0 2 145.559 379.915 5
-4 0 1 46305.5 2528.78 3
-4 0 1 51289.7 2702.65 5
-4 0 0 3676.42 780.158 3
-4 0 0 2606.28 685.997 5
-4 0 -1 17683 1586.52 3
-4 0 -1 19240.3 1722.92 5
-4 0 -2 -91.2118 308.487 5
-4 0 -3 90231.2 4075.96 5
-4 0 -4 8.17101 357.151 5
-4 0 -5 2999.91 985.021 5
4 0 5 3577.13 829.864 1
-4 0 -6 791.53 548.376 5
4 0 6 1297.44 562.404 1
-4 0 -7 62107.7 4043.98 5
4 0 7 59579.2 3235.83 1
-4 0 -8 826.44 732.025 5
4 0 8 704.984 537.226 1
-4 0 -9 1941.28 905.239 5
4 0 9 2084.14 664.351 1
-4 0 -10 600.888 630.95 5
4 0 10 502.333 390.673 1
-4 0 -11 6121.37 1580.27 5
4 0 11 10119.4 1585.71 1
-4 0 -12 800.189 667.054 5
-4 0 -13 1802.12 1067.46 5
4 1 -16 -1683.57 977.043 4
-4 -1 16 846.096 828.144 3
-4 -1 15 -26.3451 578.554 3
-4 -1 14 4077.46 1177.22 3
-4 -1 13 14705.9 1996.75 3
-4 -1 12 -428.832 451.93 3
-4 -1 11 1396.39 812.277 3
-4 -1 10 3555.85 896.688 3
-4 -1 9 8605.39 991.143 2
-4 -1 9 12038.8 1585.57 3
-4 -1 8 10909.1 1429.68 3
-4 -1 7 34952.1 2573.05 3
-4 -1 6 273.639 361.076 3
-4 -1 5 15149.8 1622.93 3
4 1 -4 14619.1 786.381 6
-4 -1 4 15660.1 1661.55 3
-4 -1 4 15976.9 1563.12 5
4 1 -3 42326.4 1642.56 6
-4 -1 3 42296.2 2712.94 3
-4 -1 3 42079.6 2382.29 5
-4 -1 2 4963.6 972.172 3
4 1 -2 4110.48 589.833 6
-4 -1 2 3699.55 735.806 5
-4 -1 1 2827.24 720.126 3
-4 -1 1 3421.58 705.301 5
-4 -1 0 16567.9 1737.9 3
-4 -1 0 16435.9 1553.56 5
-4 -1 -1 52189.4 2826.75 5
-4 -1 -2 10949.1 1306.62 5
-4 -1 -3 182.48 412.142 5
-4 -1 -4 19778.8 1937.5 5
-4 -1 -5 33401 2715.02 5
-4 -1 -6 12278.1 1744.24 5
4 1 6 15673.4 1604.9 1
-4 -1 -7 2774 936.239 5
4 1 7 1687.39 693.925 1
-4 -1 -8 2046.65 988.746 5
4 1 8 1949.41 645.653 1
-4 -1 -9 10768.2 1922.04 5
4 1 9 10107 1375.12 1
-4 -1 -10 7285.17 1708.37 5
-4 -1 -11 4330.46 1434.75 5
-4 -1 -12 622.644 968.857 5
-4 -2 16 1528.43 899.532 3
-4 -2 15 5238.75 1446.96 3
-4 -2 14 3002.31 916.055 3
-4 -2 13 2674.1 941.137 3
-4 -2 12 1327.8 718.068 3
-4 -2 11 4102.73 1057.14 3
-4 -2 10 7880.21 1362.89 3
-4 -2 9 28213.8 2489.99 3
-4 -2 8 1106.19 702.962 3
-4 -2 7 7695.69 1269.67 3
-4 -2 6 47602.4 3112.53 3
4 2 -5 15306.2 1019.18 6
-4 -2 5 17737.4 2023.07 3
-4 -2 4 3273.98 913.453 3
4 2 -4 4258.45 611.935 6
-4 -2 3 6874.74 1251.42 3
4 2 -3 5964.81 801.445 6
-4 -2 3 7129.16 957.501 5
4 2 -2 32540.2 1975.62 6
-4 -2 2 31228.8 2038.69 5
-4 -2 2 32635.2 2669.93 3
-4 -2 1 12591.6 1609.95 3
4 2 -1 9307.83 544.351 2
4 2 -1 13704.1 1336.53 6
-4 -2 1 11380.8 1273.35 5
4 2 0 24602.2 1894.72 6
-4 -2 0 27374.9 1942.28 5
-4 -2 -1 2403.45 635.61 5
-4 -2 -2 18583.8 1700.7 5
-4 -2 -3 11910.4 1466.02 5
-4 -2 -4 20866.5 1990.82 5
-4 -2 -5 2262.87 779.727 5
-4 -2 -6 3954.5 995.111 5
4 2 6 3404.18 826.577 1
-4 -2 -7 2449.69 948.248 5
4 2 7 3770.13 810.85 1
-4 -2 -8 10337.3 1769.24 5
-4 -2 -9 1172.92 880.324 5
-4 -2 -10 585.341 719.833 5
-4 -3 15 1396.37 907.46 3
-4 -3 14 1021.99 739.141 3
-4 -3 13 851.462 832.774 3
-4 -3 12 11615.3 1810.95 3
-4 -3 11 1650.66 821.471 3
-4 -3 10 1245.02 707.046 3
-4 -3 9 8095.44 1448.54 3
-4 -3 8 30371.2 2726.92 3
-4 -3 7 1907.96 699.577 3
-4 -3 6 8725.19 1539.02 3
-4 -3 5 344.951 483.882 3
4 3 -5 118.061 283.297 6
-4 -3 4 10437.7 1729.33 3
4 3 -4 13316.6 1327.24 6
-4 -3 3 168.594 541.579 3
4 3 -3 -367.151 346.093 6
-4 -3 2 9168.05 1624.38 3
4 3 -2 10586.7 1293.19 6
-4 -3 2 10428.2 1136.89 5
-4 -3 1 5249.79 1221.87 3
4 3 -1 4309.96 907.527 6
-4 -3 1 3993.74 722.919 5
4 3 0 7869.69 1229.39 6
-4 -3 0 8373.24 1107.26 5
4 3 1 395.154 468.013 6
-4 -3 -1 65.2786 342.151 5
4 3 2 30294.8 2516.03 6
-4 -3 -2 30429.3 2179.18 5
4 3 3 525.194 584.881 6
-4 -3 -3 999.005 457.298 5
4 3 4 2011.67 916.793 6
-4 -3 -4 2425.32 756.476 5
4 3 5 974.608 775.686 6
-4 -3 -5 690.588 519.704 5
-4 -3 -6 12295.4 1693.16 5
-4 -3 -7 -210.56 577.301 5
-4 -3 -8 -230.31 528.077 5
-4 -3 -9 266.818 717.033 5
-4 -4 14 4145.57 1402.6 3
-4 -4 13 211.498 599.633 3
-4 -4 12 2584.64 941.129 3
-4 -4 11 7150.17 1561.72 3
-4 -4 10 11899.7 1881.63 3
-4 -4 9 465.415 536.476 3
-4 -4 8 9900.89 1727.62 3
-4 -4 7 -605.717 795.029 3
4 4 -6 9641.68 1169.16 6
-4 -4 6 8603.39 1699.22 3
-4 -4 5 1838.13 880.263 3
4 4 -5 2077.07 581.656 6
-4 -4 4 13745.6 2076.24 3
4 4 -4 13491.8 1505.31 6
-4 -4 3 31.5358 570.558 3
4 4 -3 -525.773 436.592 6
-4 -4 2 5503.51 1365.98 3
4 4 -2 5640.76 1169.39 6
-4 -4 1 5290.74 1391.7 3
4 4 -1 4691.57 1002.98 6
4 4 0 29456.2 2572.44 6
4 4 1 1097.04 770.073 6
4 4 2 755.668 692.524 6
4 4 3 2514.03 699.796 6
4 4 4 5771.63 1409.37 6
4 4 5 270.414 693.569 6
4 4 6 -946.799 798.89 6
-4 -5 12 1672.57 1205.17 3
-4 -5 11 676.35 981.893 3
-4 -5 10 272.403 764.786 3
-4 -5 9 367.501 604.085 3
-4 -5 8 1175.28 658.62 3
-4 -5 7 3616.15 1233.61 3
-4 -5 6 2358.48 1035.82 3
-4 -5 5 -450.146 607.701 3
4 5 -5 -924.415 646.435 6
-4 -5 4 -341.958 713.351 3
4 5 -4 222.657 588.678 6
-4 -5 3 3624.55 1237.85 3
4 5 -3 4744.8 1079.22 6
-4 -5 2 4287.23 1457.55 3
4 5 -2 5187.47 1230.65 6
-4 -5 1 -329.839 932.745 3
4 5 -1 -98.7797 695.595 6
4 5 0 -389.336 496.176 6
4 5 1 2464.02 974.95 6
4 5 2 292.482 679.947 6
4 5 3 2701.36 1100.91 6
-4 -6 8 1110.51 1238.22 3
-4 -6 7 -11.9902 1121.91 3
-4 -6 6 1333.41 852.115 3
-4 -6 5 5722.54 1754.39 3
-4 -6 4 3275.94 1428.13 3
-4 -6 3 1193.96 937.778 3
4 6 -3 951.679 681.366 6
-4 -6 2 22.1724 786.954 3
4 6 -2 -531.397 646.37 6
5 -9 -2 2342.41 1150.1 2
5 -9 -1 -404.504 868.62 2
5 -9 0 2429.68 983.682 2
5 -9 1 -884.625 611.505 2
5 -9 2 519.807 671.287 2
5 -9 2 818.103 671.859 1
5 -9 3 314.901 549.95 1
5 -9 4 -287.421 732.732 1
5 -9 5 132.631 574.405 1
5 -9 6 1078.65 884.205 1
5 -9 7 -1153.52 1076.9 1
5 -8 -6 -545.843 1078.57 2
-5 8 6 168.691 665.817 6
-5 8 5 251.448 821.969 6
5 -8 -5 -1011.92 677.412 2
-5 8 4 56.7135 641.506 6
5 -8 -4 1431.55 1118.37 2
5 -8 -3 -528.845 832.294 2
5 -8 -2 2955.51 1105.7 2
5 -8 -1 1054.31 661.132 1
5 -8 -1 1586.09 960.849 2
5 -8 0 4093.39 1140.76 1
5 -8 0 2811.33 1043.87 2
5 -8 1 2725.56 972.703 1
5 -8 2 3147.16 1047.74 1
-5 8 -2 3305.6 830.332 5
5 -8 3 11745.3 1839.92 1
-5 8 -3 11416 1610.42 5
5 -8 4 5276.06 1375.91 1
-5 8 -4 4510.18 1074.86 5
5 -8 5 2998.15 1043.05 1
-5 8 -5 2555.49 877.117 5
5 -8 6 707.842 1036.64 1
-5 8 -6 689.322 692.933 5
5 -8 7 1166.44 719.409 1
-5 8 -7 1331.8 751.76 5
5 -8 8 3618.07 1323.65 1
-5 8 -8 2739.2 1050.11 5
5 -8 9 2550.21 1121.81 1
-5 8 -9 2416.81 962.819 5
5 -8 10 1175.77 977.872 1
-5 8 -10 3695.67 1195.38 5
5 -7 -9 1211.83 750.971 4
-5 7 9 -594.713 730.144 6
5 -7 -8 292.493 454.138 4
-5 7 8 870.465 773.147 6
5 -7 -7 2407.67 784.709 4
-5 7 7 2902.68 1019.22 6
5 -7 -7 3461.04 1384.3 2
5 -7 -6 898.84 646.307 4
-5 7 6 291.296 545.421 6
5 -7 -6 505.253 755.308 2
5 -7 -5 873.06 645.138 4
-5 7 5 -130.023 498.249 6
5 -7 -5 907.358 759.723 2
5 -7 -4 3628.87 868.267 4
-5 7 4 3670.77 1140.88 6
5 -7 -4 2593.78 1140.56 2
5 -7 -3 2543.58 734.061 4
5 -7 -3 2123.76 939.817 2
5 -7 -3 930.473 468.681 1
5 -7 -2 3152.48 1123.04 2
5 -7 -2 1702.54 602.433 1
5 -7 -1 604.546 643.224 2
5 -7 -1 561.526 353.721 1
-5 7 0 -651.849 575.344 5
5 -7 0 218.785 471.514 1
-5 7 -1 9583.97 1497.19 5
5 -7 1 8681.65 1369.52 1
5 -7 2 62.3167 440.802 1
-5 7 -2 1288.21 488.545 5
5 -7 3 1520.95 720.152 1
-5 7 -3 1174.53 550.453 5
5 -7 4 687.467 468.762 1
-5 7 -4 112.651 457.939 5
5 -7 5 1143.9 658.203 1
-5 7 -5 764.684 583.941 5
5 -7 6 3446.6 1275.63 1
-5 7 -6 202.845 452.797 5
5 -7 7 5423.6 1654.21 1
-5 7 -7 2256.33 801.039 5
5 -7 8 1814.88 1257.74 1
-5 7 -8 2682.03 1052.13 5
5 -7 9 656.133 778.981 1
-5 7 -9 862.863 640.979 5
5 -7 10 4340.13 1373.25 1
-5 7 -10 4374.2 1452.97 5
5 -7 11 8481.82 1989.75 1
-5 7 -11 7115.7 1647.39 5
-5 7 -12 -860.611 838.609 5
5 -7 12 1166.44 862.233 1
5 -6 -11 672.91 740.142 4
-5 6 11 697.139 871.885 6
5 -6 -10 -734.526 552.651 4
-5 6 10 43.3278 566.51 6
5 -6 -9 1949.36 844.868 4
-5 6 9 4113.93 1174.88 6
5 -6 -8 799.397 682.981 4
-5 6 8 2356.66 858.014 6
5 -6 -7 30.7316 445.17 4
-5 6 7 724.211 712.424 6
5 -6 -7 1000.69 739.002 2
5 -6 -6 462.689 425.169 4
5 -6 -6 138.829 338.167 1
-5 6 6 1065.13 645.028 6
5 -6 -6 618.068 844.853 2
5 -6 -5 2007.25 704.363 4
5 -6 -5 2415.01 637.677 1
-5 6 5 1939.34 821.744 6
5 -6 -5 1330.58 784.022 2
5 -6 -4 908.124 531.431 4
5 -6 -4 98.0815 325.538 1
-5 6 4 161.78 484.272 6
5 -6 -4 369.522 682.414 2
5 -6 -3 4417.14 805.103 4
5 -6 -3 5952.26 996.539 1
5 -6 -2 -349.987 337.022 4
5 -6 -2 -350.205 512.065 2
5 -6 -2 582.595 459.357 1
5 -6 -1 14362.3 1202.9 4
-5 6 1 15907.7 1834.56 5
5 -6 -1 14119.8 1622.28 1
5 -6 0 -79.9648 234.157 4
5 -6 0 -585.384 517.294 1
-5 6 0 -692.424 558.939 5
-5 6 -1 20298.1 2039.96 5
5 -6 1 22297.7 2178.47 1
5 -6 2 10675 1523.47 1
-5 6 -2 9446.51 1397.03 5
-5 6 -3 14723.5 1786.33 5
5 -6 3 17921.6 1975.66 1
5 -6 4 327.482 499.4 1
-5 6 -4 87.6605 472.645 5
5 -6 5 14584.1 2031.08 1
-5 6 -5 12711.9 1793.68 5
5 -6 6 6890.83 1437.96 1
-5 6 -6 7500.4 1421.92 5
5 -6 7 2373.77 1035.59 1
-5 6 -7 516.624 562.818 5
5 -6 8 2244.72 1129.92 1
-5 6 -8 585.788 704.542 5
5 -6 9 15769.4 2454.19 1
-5 6 -9 16873.4 2407.77 5
-5 6 -10 1481.15 767.029 5
5 -6 10 2231.07 1110.04 1
-5 6 -11 -517.986 640.172 5
5 -6 11 1766.01 1332.12 1
-5 6 -12 1785.29 1094.51 5
5 -6 12 1624.87 1166.96 1
-5 6 -13 3687.76 1345.85 5
5 -6 13 4545.64 1545.97 1
5 -5 -12 -103.368 668.839 4
5 -5 -11 5278.26 1431.2 4
-5 5 11 6137.77 1278.63 6
5 -5 -10 2444.87 927.072 4
-5 5 10 3090.94 969.428 6
5 -5 -9 -476.235 472.687 4
-5 5 9 378.375 516.123 6
5 -5 -8 4738.32 1049.02 4
-5 5 8 3608.75 937.31 6
5 -5 -7 5795.93 1115.78 4
-5 5 7 5512.93 1053.88 6
5 -5 -7 6406.07 1381.32 2
5 -5 -6 4316.32 1040.66 4
-5 5 6 3125.37 881.843 6
5 -5 -6 5055.22 1262.1 2
5 -5 -5 10376.5 1332.89 4
-5 5 5 8724.32 1279.81 6
5 -5 -5 8857.15 1510.98 2
5 -5 -5 8762.05 1116.93 1
5 -5 -4 -248.976 281.87 1
5 -5 -4 133.021 320.415 4
5 -5 -3 9788.86 1090.18 4
5 -5 -3 11269.2 1677.29 2
5 -5 -3 11434.8 1341.79 1
5 -5 -2 2563.43 679.219 1
5 -5 -2 3119.66 581.609 4
-5 5 2 3386.83 883.214 5
5 -5 -1 20906.2 1377.74 4
5 -5 -1 19399.4 1376.21 3
-5 5 1 20260 2020.06 5
5 -5 -1 21837.5 1987.34 1
5 -5 0 1183.02 328.262 3
5 -5 0 1191.31 345.451 4
5 -5 0 1118.49 519.468 1
-5 5 0 631.465 398.67 5
5 -5 1 4370.97 484.326 3
5 -5 1 4807.33 509.281 4
5 -5 1 5891.89 1132.12 1
-5 5 -1 3382.7 886.828 5
-5 5 -2 24012.7 2240.23 5
5 -5 2 26284.3 2260.13 1
-5 5 -3 15408.3 1881.56 5
5 -5 3 14474 1887.75 1
5 -5 4 -213.704 678.334 1
-5 5 -4 -114.043 427.944 5
5 -5 5 -47.0508 561.839 1
-5 5 -5 -137.613 482.01 5
5 -5 6 6964.7 1414.15 1
-5 5 -6 8587.86 1487.54 5
5 -5 7 11360 1738.78 1
-5 5 -7 13158.5 1932.77 5
-5 5 -8 8610.24 1720.5 5
5 -5 8 7254.17 1477.76 1
-5 5 -9 648.217 721.525 5
5 -5 9 -504.087 683.668 1
-5 5 -10 369.089 698.849 5
5 -5 10 1732.14 876.341 1
-5 5 -11 10951.4 2057.02 5
5 -5 11 10078.7 2113.48 1
-5 5 -12 12586.5 2320.11 5
5 -5 12 12145.5 2254.3 1
-5 5 -13 1878.87 1156.01 5
5 -5 13 488.241 742.436 1
5 -4 -13 1103.07 683.199 4
5 -4 -12 1968.32 875.594 4
5 -4 -11 657.614 617.258 4
5 -4 -10 247.272 490.102 4
-5 4 10 768.781 565.843 6
5 -4 -9 6252.56 1216.15 4
-5 4 9 4551.2 909.544 6
5 -4 -8 3877.45 892.52 4
-5 4 8 3625.48 817.954 6
5 -4 -7 7378.65 1210.44 4
-5 4 7 8045.34 1108.28 6
5 -4 -7 9307.23 1500.87 2
5 -4 -6 419.551 419.525 4
-5 4 6 397.105 411.202 6
5 -4 -6 74.712 406.071 2
5 -4 -5 46.9096 316.199 4
5 -4 -5 -261.629 439.39 2
5 -4 -4 24118.6 1823.66 4
5 -4 -4 27629.2 2348.31 2
5 -4 -3 16363.8 1814.91 2
-5 4 3 19185.9 2024.49 5
5 -4 -2 1686.88 430.521 3
-5 4 2 2419.68 655.99 5
5 -4 -1 3453.1 542.37 3
5 -4 -1 3142.53 782.689 1
-5 4 1 2755.64 723.307 5
5 -4 0 37935.9 1720.92 3
-5 4 0 40490.1 2866.05 5
5 -4 0 42139.4 2679.13 1
5 -4 1 26424.2 1224.36 3
-5 4 -1 32840.4 2554.05 5
5 -4 1 30952.8 2337.25 1
-5 4 -2 34131.8 2659.88 5
5 -4 2 33417.5 2500.53 1
5 -4 3 16053.4 1078.68 4
-5 4 -3 14949.4 1822.11 5
5 -4 3 16763.4 1895.98 1
5 -4 4 23446 1272.58 4
-5 4 -4 24829 2381.3 5
5 -4 4 23396.2 2286.65 1
5 -4 5 10796 1612.17 1
-5 4 -5 8950.1 1459.98 5
-5 4 -6 34275.7 3040.43 5
5 -4 6 42696.2 3201.86 1
-5 4 -7 -1100.99 931.019 5
5 -4 7 -881.29 640.844 1
-5 4 -8 1711.52 1000.26 5
5 -4 8 1878.12 832.159 1
-5 4 -9 10628.1 1973.72 5
5 -4 9 6972.73 1456.77 1
-5 4 -10 21564 2852.48 5
5 -4 10 21950.3 2604.1 1
-5 4 -11 680.642 762.704 5
5 -4 11 2349.81 1227.71 1
-5 4 -12 950.998 907 5
5 -4 12 2449.38 1087.37 1
-5 4 -13 3358.56 1310.87 5
5 -4 13 4349.04 1451.58 1
5 -3 -14 2176.31 1043.49 4
5 -3 -13 782.678 686.269 4
5 -3 -12 1243.9 812.555 4
5 -3 -11 1993.79 731.057 4
5 -3 -10 21833.3 2318.16 4
-5 3 10 22402.5 1685.84 6
5 -3 -9 863.841 575.559 4
-5 3 9 552.29 423.866 6
5 -3 -8 2584.56 773.485 4
-5 3 8 3854.24 658.584 6
-5 3 7 4946.48 992.272 3
5 -3 -7 3616.64 979.852 2
5 -3 -6 69457.5 3760.29 2
-5 3 6 63856.5 3255.04 3
5 -3 -5 7807.33 853.878 6
5 -3 -5 8830.43 1314.4 2
-5 3 5 8136.35 1090.66 3
5 -3 -4 12624.5 1504.62 2
5 -3 -4 11043 1003.2 6
-5 3 4 12029.5 1226.82 3
-5 3 4 13853.2 1649.17 5
5 -3 -3 229.775 346.931 2
5 -3 -3 -61.8744 182.186 6
-5 3 3 202.197 204.809 3
-5 3 3 87.5561 434.979 5
5 -3 -2 26482.8 1657.9 6
-5 3 2 28441 1612.16 3
5 -3 -2 29239.7 1828.82 3
-5 3 2 31135.3 2498.99 5
5 -3 -1 2402.87 482.606 3
5 -3 -1 2527.72 595.408 6
-5 3 1 2423.98 465.491 3
-5 3 1 1950.49 759.629 5
-5 3 0 26770.5 1325.97 3
5 -3 0 26692.9 1532.67 3
-5 3 0 30310.7 2408.1 5
-5 3 -1 1246.97 277.403 3
-5 3 -1 1198.89 614.86 5
-5 3 -2 29758.1 1172.97 3
-5 3 -2 32534 2551.58 5
5 -3 3 344.54 251.172 4
5 -3 3 105.308 407.106 1
-5 3 -3 230.09 108.964 3
5 -3 4 27555.8 1777.37 4
-5 3 -4 28376.3 2509.93 5
5 -3 4 27862 2464.31 1
5 -3 5 7395.87 922.063 4
-5 3 -5 6043.19 416.553 3
-5 3 -5 6599.25 1307.56 5
-5 3 -6 14050.1 2009.81 5
-5 3 -6 12392.4 697.776 3
-5 3 -7 -658.229 819.157 5
-5 3 -7 123.254 140.906 3
5 -3 7 1064.88 604.515 1
-5 3 -8 33145.4 3276.99 5
5 -3 8 32259.8 2848.52 1
-5 3 -9 414.251 778.773 5
5 -3 9 992.616 582.907 1
-5 3 -10 574.745 882.441 5
5 -3 10 -91.5066 801.75 1
-5 3 -11 1477.4 993.888 5
5 -3 11 935.082 783.026 1
-5 3 -12 13856.1 2444.72 5
5 -3 12 14817.7 2337.62 1
-5 3 -13 2003.34 1397.33 5
5 -3 13 1014.25 697.538 1
5 -2 -15 2354.28 1267.3 4
5 -2 -14 810.751 756.606 4
5 -2 -13 368.149 645.472 4
5 -2 -12 4753.61 1130.83 4
-5 2 12 6045.57 1414.22 3
5 -2 -11 1089.94 737.254 4
-5 2 11 2258.48 861.173 3
-5 2 10 1136.66 652.278 3
-5 2 9 2997.24 836.765 3
-5 2 8 30703.9 2374.1 3
5 -2 -7 1424.72 710.231 2
-5 2 7 1254.86 592.985 3
5 -2 -6 15711.8 1659.39 2
-5 2 6 13982.1 1426.14 3
5 -2 -5 1508.5 517.448 2
-5 2 5 2114.1 523.896 3
5 -2 -4 15109.7 1450.57 2
5 -2 -4 13527.9 862.619 6
-5 2 4 13068.2 1291.66 3
-5 2 4 14713.3 1741.65 5
5 -2 -3 1780.01 367.033 6
-5 2 3 1842.09 656.108 5
-5 2 3 2878.02 642.858 3
5 -2 -2 15186 1100.08 6
-5 2 2 16646.2 1327.23 3
-5 2 2 15016.9 1705.8 5
-5 2 1 1063 585.871 5
-5 2 1 1051.67 360.782 3
-5 2 0 41154.7 1947.95 3
-5 2 0 48636 3065.32 5
-5 2 -1 301.75 263.771 3
-5 2 -1 914.178 505.203 5
-5 2 -2 70958.1 2503.07 3
-5 2 -2 73584.3 3867.56 5
-5 2 -3 3483.73 553.945 3
-5 2 -3 3383.64 904.635 5
-5 2 -4 22977.3 1497.96 3
-5 2 -4 24038.7 2288.15 5
5 -2 4 27389.4 2301.44 1
-5 2 -5 6975.95 856.061 3
5 -2 5 7343.51 1293.61 1
-5 2 -5 8856.36 1501.38 5
-5 2 -6 49290.7 3611.69 5
5 -2 6 52838.5 3395.03 1
-5 2 -7 12451.4 1943.3 5
5 -2 7 13489.6 1768.93 1
-5 2 -8 1262.21 723.346 5
5 -2 8 962.97 787.152 1
-5 2 -9 -693.888 807.538 5
5 -2 9 413.505 683.052 1
-5 2 -10 14366 2407.8 5
5 -2 10 16187.3 2116.35 1
5 -2 11 1954.33 734.69 1
-5 2 -11 2508.56 1325.62 5
-5 2 -12 1101.36 948.124 5
5 -2 12 497.949 836.145 1
-5 2 -13 -59.8092 759.212 5
5 -2 13 1076.34 1097.51 1
5 -1 -15 -404.322 751.352 4
-5 1 15 224.486 803.873 3
5 -1 -14 2065.15 996.175 4
-5 1 14 2817.77 1079.57 3
5 -1 -13 2499.71 990.275 4
-5 1 13 4469.23 1310.23 3
-5 1 12 3167.32 968.93 3
-5 1 11 3868.76 1105.5 3
-5 1 10 22275.4 2199.76 3
-5 1 9 22716.5 2144.51 3
-5 1 8 170.179 538.43 3
-5 1 7 2781.96 769.513 3
5 -1 -6 5712.36 861.539 2
-5 1 6 4825.86 904.268 3
5 -1 -5 29444.6 1920.1 2
-5 1 5 25698.8 1962.06 3
5 -1 -4 15392.9 1311.72 2
-5 1 4 13590.2 1369.08 3
-5 1 4 16637.7 1810.12 5
-5 1 3 7066.07 1013.69 3
5 -1 -3 4950.73 471.65 6
-5 1 3 7789.9 1261.65 5
-5 1 2 4330.53 759.889 3
-5 1 2 4906.67 1012.25 5
-5 1 1 19084.9 1553.96 3
-5 1 1 20408 1962.36 5
-5 1 0 36416.5 2198.78 3
-5 1 0 37668.3 2637.33 5
-5 1 -1 8465.08 1058.26 3
-5 1 -1 9920.42 1423.93 5
-5 1 -2 987.455 416.389 3
-5 1 -2 1435.63 676.605 5
-5 1 -3 34208.2 2257.06 3
-5 1 -3 37491.5 2824.9 5
-5 1 -4 4948.07 1069.46 5
-5 1 -5 12969.1 1775.76 5
5 -1 5 12855.5 1603.79 1
-5 1 -6 1092.57 486.467 5
5 -1 6 1625 686.422 1
-5 1 -7 7684.64 1585.75 5
5 -1 7 7271.84 1307.34 1
-5 1 -8 2848.37 1028.27 5
5 -1 8 3445.45 994.818 1
-5 1 -9 9331.91 1847.51 5
5 -1 9 7906.37 1475.43 1
-5 1 -10 -356.721 765.372 5
5 -1 10 516.828 646.608 1
-5 1 -11 -411.625 575.179 5
5 -1 11 -1420.4 784.595 1
-5 1 -12 240.565 664.039 5
5 -1 12 5199.39 1353.59 1
5 0 -15 1753.14 1120.72 4
-5 0 15 11.7943 820.477 3
-5 0 14 5990.47 1466.76 3
-5 0 13 1144.65 822.156 3
-5 0 12 868.864 648.521 3
-5 0 11 9131.66 1502.25 3
-5 0 10 8062.34 1463.56 3
-5 0 9 -87.5758 412.176 3
-5 0 8 -920.889 565.214 3
-5 0 7 33941.3 2505.78 3
-5 0 6 23379.6 2076.73 3
-5 0 5 1187.42 596.99 3
-5 0 4 2594.24 693.42 3
5 0 -4 2189.36 404.465 2
-5 0 4 3943.98 934.984 5
5 0 -3 45506.7 1898.83 2
5 0 -3 44603.8 1578.98 6
-5 0 3 45544.5 2737.9 3
-5 0 3 47503.4 2956.3 5
-5 0 2 9337.85 1303.06 3
-5 0 2 8049.06 1238.27 5
-5 0 1 20121.2 1859 3
-5 0 1 18936.5 1849.88 5
-5 0 0 160.486 312.38 3
-5 0 0 -60.292 440.281 5
-5 0 -1 27776.8 2263.91 3
-5 0 -1 28656.6 2345.47 5
-5 0 -2 3471.2 884.319 3
-5 0 -2 2250.31 681.159 5
-5 0 -3 57577 3467.87 5
-5 0 -4 -895.021 593.503 5
5 0 5 16890.9 1838.78 1
-5 0 -5 15840.6 1983.36 5
-5 0 -6 2684 1081.31 5
5 0 6 690.094 570.831 1
-5 0 -7 26024 2714.07 5
5 0 7 28050 2474.52 1
-5 0 -8 1184.4 607.501 5
5 0 8 2060.97 761.214 1
-5 0 -9 -82.1647 525.421 5
5 0 9 236.058 504.094 1
-5 0 -10 -986.824 826.523 5
5 0 10 -403.54 539.424 1
-5 0 -11 14530.4 2511.9 5
-5 -1 15 -119.742 659.863 3
-5 -1 14 889.261 735.918 3
-5 -1 13 9798.67 1751.8 3
-5 -1 12 394.455 628.755 3
-5 -1 11 -132.047 615.437 3
-5 -1 10 926.996 610.738 3
-5 -1 9 48423.6 3375.02 3
-5 -1 8 853.859 572.824 3
-5 -1 7 271.102 635.963 3
-5 -1 6 1593 711.426 3
-5 -1 5 32189.9 2596.13 3
-5 -1 4 541.468 393.703 3
5 1 -4 1039.88 273.891 6
-5 -1 4 25.3916 332.526 5
5 1 -3 28359.5 1515.68 6
-5 -1 3 30369.3 2572.03 3
-5 -1 3 24581.4 2090.32 5
-5 -1 2 68.3978 494.663 3
5 1 -2 1145.01 422.409 6
-5 -1 2 674.58 406.092 5
-5 -1 1 12600.2 1645.95 3
-5 -1 1 14100.2 1625.13 5
-5 -1 0 1003.05 634.759 3
-5 -1 0 68.4285 527.629 5
-5 -1 -1 36100.2 2896.64 3
-5 -1 -1 35244.3 2628.14 5
-5 -1 -2 253.194 392.193 5
-5 -1 -3 13632.3 1736.13 5
-5 -1 -4 2367.83 803.998 5
-5 -1 -5 12036.6 1759.43 5
-5 -1 -6 492.253 517.005 5
5 1 6 612.716 593.958 1
-5 -1 -7 -298.73 556.671 5
5 1 7 359.631 691.176 1
-5 -1 -8 3543.73 1077.8 5
5 1 8 2693.17 854.692 1
-5 -1 -9 6972.63 1589.35 5
-5 -1 -10 1043.4 835.439 5
-5 -2 15 5878.96 1505 3
-5 -2 14 437.212 740.563 3
-5 -2 13 1133.65 932.939 3
-5 -2 12 1923.02 977.473 3
-5 -2 11 4037.15 1210.23 3
-5 -2 10 1295.92 851.368 3
-5 -2 9 5691.55 1262.32 3
-5 -2 8 3179.19 949.378 3
-5 -2 7 4069.84 1017.05 3
-5 -2 6 2236.42 864.72 3
-5 -2 5 19554.8 2216.23 3
-5 -2 4 5088.9 1163.04 3
5 2 -4 5962.04 741.301 6
-5 -2 3 3689.92 899.631 3
5 2 -3 4785.42 766.923 6
-5 -2 3 3348.55 808.712 5
-5 -2 2 9411.23 1659.48 3
5 2 -2 9247.28 1137.68 6
-5 -2 2 9014.79 1303.23 5
5 2 -1 16842 1628.21 6
-5 -2 1 19935.2 2280.38 3
-5 -2 1 16229.1 1690.47 5
-5 -2 0 -137.64 549.196 3
5 2 0 1108.01 493.067 6
-5 -2 0 1138.34 605.584 5
-5 -2 -1 339.686 705.625 3
5 2 1 505.689 368.897 6
-5 -2 -1 904.455 527.783 5
-5 -2 -2 6702.6 1168.37 5
-5 -2 -3 12719.4 1638.59 5
-5 -2 -4 2418.01 874.515 5
-5 -2 -5 -628.825 546.108 5
5 2 6 5049.49 1091.99 1
-5 -2 -6 4330.67 1175.28 5
-5 -2 -7 6372.59 1409.53 5
-5 -2 -8 2611.22 1102.41 5
-5 -3 13 454.338 896.434 3
-5 -3 12 1956.93 988.652 3
-5 -3 11 1503.45 837.946 3
-5 -3 10 -399.155 696.954 3
-5 -3 9 8884.12 1615.71 3
-5 -3 8 9316.43 1752.47 3
-5 -3 7 1500.68 666.5 3
-5 -3 6 937.031 684.508 3
-5 -3 5 1827.45 1083.11 3
-5 -3 4 10908 1926 3
-5 -3 3 5023.95 1328.89 3
5 3 -3 4969.25 943.987 6
-5 -3 3 5343.74 993.2 5
-5 -3 2 4769.87 1331.12 3
5 3 -2 4369.85 956.669 6
-5 -3 2 4436.31 909.32 5
-5 -3 1 1263.43 743.035 3
5 3 -1 995.042 621.065 6
-5 -3 1 619.371 478.268 5
-5 -3 0 5792.59 1497.33 3
5 3 0 5797.16 1134.32 6
-5 -3 0 7301.85 1146.01 5
5 3 1 3622.25 907.257 6
-5 -3 -1 4131.91 980.199 5
5 3 2 1300.33 724.059 6
-5 -3 -2 3195.33 900.475 5
5 3 3 453.254 497.017 6
5 3 4 5064.93 1253.43 6
5 3 5 157.913 640.813 6
5 3 6 1948.82 832.602 6
-5 -4 12 90.4353 798.557 3
-5 -4 11 -290.004 818.386 3
-5 -4 10 2450.13 1056.72 3
-5 -4 9 1097.95 783.297 3
-5 -4 8 -177.409 828.556 3
-5 -4 7 1126.01 728.911 3
-5 -4 6 5162.97 1431.2 3
-5 -4 5 -541.391 702.359 3
-5 -4 4 3095.33 1241.01 3
-5 -4 3 1236.06 849.046 3
-5 -4 2 2311.05 928.849 3
5 4 -2 2406.07 878.902 6
-5 -4 1 534.46 661.888 3
5 4 -1 999.703 665.629 6
-5 -4 0 3005.34 1218.11 3
5 4 0 3243.62 1043.72 6
5 4 1 1822.72 814.028 6
5 4 2 294.739 646.426 6
5 4 3 -734.043 714.125 6
-5 -5 8 3448.36 1384.36 3
-5 -5 7 4362.91 1589.58 3
-5 -5 6 2300.85 1327.87 3
-5 -5 5 1084.76 1104.95 3
-5 -5 4 1480.85 1161.35 3
-5 -5 3 -17.2144 841.987 3
-5 -5 2 2300.51 1231.29 3
6 -9 1 1132.83 854.174 1
6 -9 1 -310.173 885.108 2
6 -9 2 1446.42 801.999 1
6 -9 3 2661.41 1151.55 1
6 -9 4 803.853 794.998 1
6 -8 -5 583.166 920.873 2
6 -8 -4 777.928 836.418 2
6 -8 -3 861.756 907.056 2
6 -8 -2 -296.711 647.722 2
6 -8 -1 903.291 844.076 2
6 -8 -1 91.4274 393.889 1
6 -8 0 736.734 898.05 2
6 -8 0 -208.467 490.593 1
6 -8 1 -832.154 692.294 1
-6 8 -1 1785.87 935.886 5
6 -8 2 -688.644 792.519 1
-6 8 -2 171.229 768.452 5
6 -8 3 598.254 806.854 1
-6 8 -3 -555.623 591.966 5
6 -8 4 2494.95 1014.76 1
-6 8 -4 1214.39 532.931 5
6 -8 5 4008.8 1356.21 1
-6 8 -5 461.281 557.11 5
6 -8 6 4726.09 1398.53 1
-6 8 -6 2702.22 972.809 5
6 -8 7 1915.8 1159.6 1
-6 8 -7 -635.734 745.322 5
6 -8 8 6441.05 1717.38 1
-6 8 -8 4534.88 1262.91 5
6 -7 -8 501.052 555.131 4
-6 7 8 1678.4 986.703 6
6 -7 -7 1003.01 519.339 4
-6 7 7 284.735 603.037 6
6 -7 -7 -68.3651 648.878 2
6 -7 -6 1178.4 715.967 2
6 -7 -5 1024.38 1013.98 2
6 -7 -4 2088.05 1105.77 2
6 -7 -4 1840.94 777.622 1
6 -7 -3 10512.3 1874.92 2
6 -7 -3 10548.7 1494.77 1
6 -7 -2 322.46 688.149 2
6 -7 -2 1779.8 754.669 1
6 -7 -1 -672.628 708.941 2
6 -7 -1 45.8995 398.942 1
-6 7 1 1182.41 662.624 5
6 -7 0 5538.4 1208.52 1
-6 7 0 6689.1 1355.54 5
6 -7 1 5523.35 1272.54 1
-6 7 -1 5433.88 1387.45 5
6 -7 2 2075.58 889.069 1
-6 7 -2 1694.43 735.986 5
6 -7 3 238.54 494.274 1
-6 7 -3 -629.598 677.685 5
-6 7 -4 689.717 572.896 5
6 -7 4 1145.53 869.168 1
-6 7 -5 705.497 665.085 5
6 -7 5 1626.67 846.99 1
6 -7 6 2503.38 866.885 1
-6 7 -6 2237.92 1008.99 5
6 -7 7 8547.74 1853 1
-6 7 -7 7530.9 1612.81 5
6 -7 8 2566.8 1194.88 1
-6 7 -8 1301.06 912.645 5
6 -7 9 5718.55 1927.57 1
-6 7 -9 3954.09 1135.2 5
6 -7 10 1604.48 1145.4 1
-6 7 -10 416.13 736.417 5
6 -6 -10 834.034 620.477 4
6 -6 -9 4841.72 1224.33 4
6 -6 -8 248.975 551.046 4
-6 6 8 798.208 816.189 6
6 -6 -8 1083.63 773.848 2
6 -6 -7 105.661 433.934 4
6 -6 -7 428.274 733.682 2
6 -6 -6 1353.96 529.954 1
6 -6 -6 1466.4 745.916 4
6 -6 -6 857.081 580.494 2
6 -6 -5 7150.99 1196.92 1
6 -6 -5 8029.47 1253.04 4
6 -6 -5 5380.63 1490.4 2
6 -6 -4 5249.53 1118.33 1
6 -6 -4 5573.51 994.87 4
6 -6 -4 4755.91 1303.98 2
6 -6 -3 292.006 507.315 4
6 -6 -3 966.205 625.907 1
6 -6 -3 -321.677 521.86 2
6 -6 -2 862.185 394.253 4
6 -6 -2 47.6363 469.312 1
-6 6 2 696.89 814.314 5
6 -6 -1 6086.82 1153.64 1
-6 6 1 6465.56 1420.33 5
6 -6 0 816.005 556.718 1
-6 6 0 279.101 539.088 5
6 -6 1 772.297 667.413 1
-6 6 -1 433.933 482.981 5
6 -6 2 371.009 529.182 1
-6 6 -2 -322.029 576.987 5
6 -6 3 1998.19 890.742 1
-6 6 -3 1911.75 790.019 5
6 -6 4 2321.69 842.949 1
-6 6 -4 1599.54 762.515 5
6 -6 5 11765.1 1867.63 1
-6 6 -5 12454.7 1893.21 5
6 -6 6 -266.639 518.142 1
-6 6 -6 730.177 717.207 5
6 -6 7 12752.7 2014.72 1
-6 6 -7 12648.4 2107.56 5
6 -6 8 3296.97 1242.33 1
-6 6 -8 3509.68 1053.73 5
6 -6 9 10277.7 1919.5 1
-6 6 -9 6863.47 1684.33 5
6 -6 10 2374.16 1117.02 1
-6 6 -10 3052.41 1360.37 5
6 -6 11 550.166 846.996 1
-6 6 -11 1600.6 798.71 5
6 -5 -11 1968.83 959.605 4
6 -5 -10 701.935 653.368 4
6 -5 -9 949.882 687.979 4
6 -5 -8 20.5953 539.83 4
6 -5 -8 666.133 763.203 2
6 -5 -7 3729.71 967.1 4
6 -5 -7 4353.85 1275.52 2
6 -5 -6 168.105 400.165 4
6 -5 -6 15.5978 494.381 2
6 -5 -5 960.393 514.311 4
6 -5 -5 2469.57 1020.62 2
6 -5 -4 -145.135 363.976 4
6 -5 -4 944.092 650.702 2
6 -5 -3 20641.7 1661.44 4
6 -5 -3 20397.8 2261.31 2
-6 5 3 23610.6 2424.62 5
6 -5 -3 20827.8 1988.64 1
6 -5 -2 1852.53 709.279 1
6 -5 -2 1168.67 387.503 4
-6 5 2 2080.72 796.354 5
6 -5 -1 4486.45 1071.43 1
6 -5 -1 4180.12 718.04 4
-6 5 1 3713.2 1056.65 5
6 -5 0 4311.81 1071.29 1
-6 5 0 6016.34 1295.89 5
6 -5 1 17270.5 1894.57 1
-6 5 -1 13691.8 1856.96 5
6 -5 2 2048.97 876.65 1
-6 5 -2 2489.64 949.17 5
6 -5 3 12040.2 1789.18 1
-6 5 -3 11316.6 1816.24 5
6 -5 4 1569.51 774.313 1
-6 5 -4 601.674 667.573 5
6 -5 5 8794.48 1640.9 1
-6 5 -5 7277.27 1678.4 5
6 -5 6 40.4804 510.706 1
-6 5 -6 -103.41 538.167 5
6 -5 7 10286 1868.81 1
-6 5 -7 7583.14 1597.16 5
6 -5 8 2616.37 1031.48 1
-6 5 -8 2466.89 889.288 5
6 -5 9 1465.33 948.245 1
-6 5 -9 112.39 712.445 5
-6 5 -10 -194.237 781.063 5
6 -5 10 -1446.41 984.292 1
-6 5 -11 4765.08 1524.49 5
6 -5 11 5363.98 1669.24 1
-6 5 -12 5714.84 1831.18 5
6 -5 12 4980.32 1669.95 1
6 -4 -12 1172.31 887.69 4
6 -4 -11 -451.59 608.439 4
6 -4 -10 740.347 539.466 4
6 -4 -9 6031.23 1311 4
6 -4 -8 1576.82 584.179 4
6 -4 -8 871.445 623.964 2
6 -4 -7 1780.79 676.225 4
6 -4 -7 2923.77 877.074 2
6 -4 -6 247.268 382.494 4
6 -4 -6 -166.071 589.408 2
6 -4 -5 10654.7 1640.31 2
6 -4 -4 722.345 635.986 2
6 -4 -3 7813.37 1337.13 2
-6 4 3 8588.68 1488.01 5
-6 4 2 -313.755 634.378 5
-6 4 1 3107.68 1077.36 5
6 -4 0 12863.9 1734.8 1
-6 4 0 13771 1939.38 5
6 -4 1 8185.45 1348.24 1
-6 4 -1 7954.95 1455.68 5
6 -4 2 530.736 583.821 1
-6 4 -2 1027.86 573.706 5
6 -4 3 566.275 556.676 1
-6 4 -3 1247.67 870.123 5
6 -4 4 4412.05 1120.42 1
-6 4 -4 5359.02 1262.9 5
6 -4 5 14243.3 2031.99 1
-6 4 -5 14528.7 2110.88 5
6 -4 6 7232.54 1535.74 1
-6 4 -6 8140.82 1647.86 5
6 -4 7 3120.94 1161.4 1
-6 4 -7 3238.62 1219.04 5
6 -4 8 3058.87 1108.86 1
-6 4 -8 2551.69 1149.69 5
-6 4 -9 6665.67 1699.65 5
6 -4 9 5233.88 1190.71 1
-6 4 -10 9896.52 2162.27 5
6 -4 10 8687.13 1748.15 1
-6 4 -11 417.549 864.084 5
6 -4 11 -906.877 978.569 1
-6 4 -12 254.344 759.51 5
6 -4 12 1674.36 1043.15 1
6 -3 -13 -349.417 682.982 4
6 -3 -12 27.6717 454.687 4
6 -3 -11 -125.637 701.554 4
6 -3 -10 3601.47 1133.32 4
-6 3 9 2793.98 902.583 3
-6 3 8 260.992 611.32 3
6 -3 -7 2198.32 824.916 2
-6 3 7 1825.17 778.603 3
6 -3 -6 7317.13 1274.48 2
-6 3 6 6346.7 1046.69 3
6 -3 -5 2328.3 760.648 2
-6 3 5 2314.47 593.357 3
6 -3 -4 58.9455 392.162 2
-6 3 4 683.981 285.685 3
-6 3 4 928.092 689.998 5
-6 3 3 6852.02 905.96 3
-6 3 3 7987.68 1382.28 5
6 -3 -2 29699.7 1881.16 6
-6 3 2 32064.3 1875.75 3
-6 3 1 6033.06 777.565 3
-6 3 1 5752.92 1250.32 5
-6 3 0 13900.2 1097.29 3
-6 3 0 17796.6 2103.14 5
-6 3 -1 1143.22 614.381 5
-6 3 -1 1292.62 380.876 3
-6 3 -2 31488.9 1471.09 3
-6 3 -2 32223.1 2885.16 5
6 -3 2 37248.3 2929.73 1
6 -3 3 1417.79 761.27 1
-6 3 -3 3321.8 1024.2 5
-6 3 -3 2177.93 384.471 3
6 -3 4 15934.9 2017.18 1
-6 3 -4 11875.6 814.621 3
-6 3 -4 15405.6 2068.69 5
6 -3 5 3532.86 1038.86 1
-6 3 -5 2441.05 926.199 5
6 -3 6 2358.58 955.486 1
-6 3 -6 2972.6 1049.76 5
6 -3 7 4158.69 1180.03 1
-6 3 -7 2197.93 718.139 5
6 -3 8 11714.3 1839.81 1
-6 3 -8 9938.31 1985.57 5
-6 3 -9 -12.0325 710.115 5
6 -3 9 499.65 780.934 1
-6 3 -10 2227.29 962.569 5
6 -3 10 4224.85 1202.53 1
-6 3 -11 1380.83 967.385 5
6 -3 11 23.0432 565.204 1
6 -2 -14 2095.03 993.077 4
6 -2 -13 204.159 570.493 4
-6 2 13 2926.37 1235.8 3
-6 2 12 14496.5 2110.94 3
-6 2 11 1618.76 948.249 3
-6 2 10 2198.13 932.995 3
-6 2 9 -499.233 404.211 3
-6 2 8 16083.4 1800.27 3
6 -2 -7 2523.9 753.27 2
-6 2 7 2140.22 624.356 3
6 -2 -6 1082.74 552.309 2
-6 2 6 -232.52 399.309 3
6 -2 -5 241.756 331.084 2
-6 2 5 841.094 568.311 3
6 -2 -4 23518.9 1938.63 2
-6 2 4 22966.5 1851.81 3
-6 2 4 22949.7 2408.45 5
-6 2 3 -296.894 597.748 5
-6 2 3 890.02 434.966 3
-6 2 2 25540 1831.64 3
-6 2 2 29158 2563.73 5
-6 2 1 13306.9 1286.11 3
-6 2 1 11889.6 1659.4 5
-6 2 0 34431 2038.1 3
-6 2 0 33371.3 2875.5 5
-6 2 -1 269.66 281.395 3
-6 2 -1 521.053 427.201 5
-6 2 -2 3585.39 631.414 3
-6 2 -2 5285.06 1219.83 5
-6 2 -3 1894.18 521.189 3
-6 2 -3 2011.46 823.645 5
-6 2 -4 2871.02 652.675 3
6 -2 4 3503.47 1047.19 1
-6 2 -4 3008.85 1014.88 5
-6 2 -5 241.164 302.879 3
6 -2 5 79.6524 467.28 1
-6 2 -5 326.358 659.815 5
6 -2 6 18361 2162.43 1
-6 2 -6 15742.4 2299.7 5
6 -2 7 458.623 617.022 1
-6 2 -7 515.577 699.215 5
-6 2 -8 2499.91 1055.52 5
6 -2 8 4020.54 1138.63 1
-6 2 -9 2425.16 1274.62 5
6 -2 9 1263.6 853.206 1
-6 2 -10 17584.2 2783.62 5
6 -2 10 21405 2561.42 1
-6 2 -11 43.6532 851.949 5
6 -2 11 -719.105 849.091 1
-6 1 14 12664.7 2131.31 3
-6 1 13 2177.99 921.746 3
-6 1 12 1134.18 794.055 3
-6 1 11 417.929 464.766 3
-6 1 10 9143.07 1522.36 3
-6 1 9 428.685 601.714 3
-6 1 8 1738.18 767.551 3
-6 1 7 2128.04 686.898 3
6 -1 -6 13906.3 1441.07 2
-6 1 6 13970.5 1658.86 3
6 -1 -5 2737.13 640.867 2
-6 1 5 3082.28 843.364 3
6 -1 -4 12063.8 1240.89 2
-6 1 4 14381.4 1606.43 3
-6 1 4 13477.4 1734.46 5
-6 1 3 5020.24 938.009 3
6 -1 -3 4637.71 748.085 2
-6 1 3 5773.78 1149.68 5
-6 1 2 43943.1 2684.49 3
-6 1 2 46055.8 3226.26 5
-6 1 1 1547.81 517.401 3
-6 1 1 1638.14 547.111 5
-6 1 0 12665.9 1440.83 3
-6 1 0 13804.2 1814.39 5
-6 1 -1 2588.58 723.121 3
-6 1 -1 2720.3 840.262 5
-6 1 -2 10416.2 1377.41 3
-6 1 -2 11787.2 1743.25 5
-6 1 -3 5684.55 1015.09 3
-6 1 -3 8144.78 1465.58 5
-6 1 -4 16364.4 1774.59 3
-6 1 -4 14266.8 2015.28 5
-6 1 -5 1009.58 550.935 3
6 -1 5 1716.19 733.138 1
-6 1 -5 46.1814 565.042 5
6 -1 6 1551.55 822.234 1
-6 1 -6 507.789 580.869 5
6 -1 7 3008.39 970.084 1
-6 1 -7 2752.01 964.275 5
-6 1 -8 11320 2029.13 5
6 -1 8 18753 2266.27 1
-6 1 -9 107.946 654.507 5
6 -1 9 -52.6567 774.015 1
-6 1 -10 711.095 762.472 5
6 -1 10 1432.07 798.158 1
-6 0 14 -688.338 792.933 3
-6 0 13 5128.5 1334.41 3
-6 0 12 4001.32 1221.95 3
-6 0 11 -34.9988 594.031 3
-6 0 10 206.233 566.052 3
-6 0 9 165.372 587.355 3
-6 0 8 3751.91 1092.07 3
-6 0 7 8949.76 1468.7 3
-6 0 6 7418.52 1339.43 3
-6 0 5 88.3281 434.027 3
-6 0 4 5150.62 1080.87 3
6 0 -4 4457.31 619.999 2
-6 0 4 6252.44 1230.8 5
-6 0 3 4744.8 1080.21 3
6 0 -3 5657.24 682.549 2
-6 0 3 5941.9 1181.51 5
-6 0 2 9013.28 1429.84 3
-6 0 2 12517.6 1640.85 5
-6 0 1 716.832 482.394 3
-6 0 1 -168.585 418.615 5
-6 0 0 81.2419 521.31 3
-6 0 0 653.896 507.252 5
-6 0 -1 18898.3 2087.5 3
-6 0 -1 17182.3 2062.57 5
-6 0 -2 1629.2 738.984 3
-6 0 -2 1702.34 883.11 5
-6 0 -3 -190.762 555.255 3
-6 0 -3 9.67642 449.307 5
-6 0 -4 1166.09 567.257 3
-6 0 -4 1605.42 789.864 5
6 0 5 6088.96 1362.62 1
-6 0 -5 3966.85 1135.95 5
6 0 6 2914.28 939.429 1
-6 0 -6 2757.76 987.687 5
6 0 7 2650.95 1044.01 1
-6 0 -7 2552.53 985.255 5
6 0 8 -5.13926 638.792 1
-6 0 -8 -95.5808 649.782 5
-6 0 -9 -266.416 692.919 5
-6 -1 13 179.691 842.636 3
-6 -1 12 118.109 589.774 3
-6 -1 11 -52.4538 570.685 3
-6 -1 10 1513.6 788.05 3
-6 -1 9 8012.38 1585.75 3
-6 -1 8 4117.4 1186.2 3
-6 -1 7 1135.6 775.792 3
-6 -1 6 8.85129 458.952 3
-6 -1 5 14310.8 1904.19 3
-6 -1 4 1578.55 669.734 3
-6 -1 4 1918.56 745.473 5
-6 -1 3 1219.51 674.187 3
-6 -1 3 94.074 539.682 5
-6 -1 2 1103.34 585.977 3
-6 -1 2 643.127 604.285 5
-6 -1 1 15112.2 1998.93 3
6 1 -1 15550.9 1502.42 6
-6 -1 1 14023.6 1850.86 5
-6 -1 0 811.385 587.427 3
-6 -1 0 1486.91 793.068 5
-6 -1 -1 13045 1890.13 3
-6 -1 -1 11907.6 1757.79 5
-6 -1 -2 461.301 546.371 3
-6 -1 -2 677.147 583.843 5
-6 -1 -3 7410.35 1553.3 3
-6 -1 -3 8812.75 1556.17 5
-6 -1 -4 421.955 685.266 5
6 1 5 8712.63 1468.73 1
-6 -1 -5 8266.8 1551.31 5
6 1 6 649.456 632.339 1
-6 -1 -6 573.418 547.939 5
-6 -1 -7 262.211 611.229 5
-6 -2 12 485.563 829.352 3
-6 -2 11 5151.63 1330.17 3
-6 -2 10 101.715 653.912 3
-6 -2 9 354.436 659.91 3
-6 -2 8 2834.89 983.792 3
-6 -2 7 10124 1772.72 3
-6 -2 6 -120.649 763.41 3
-6 -2 5 1863.71 846.186 3
-6 -2 4 577.724 861.487 3
-6 -2 3 3515.47 1250.07 3
-6 -2 3 3052.36 916.42 5
-6 -2 2 1471.72 720.447 3
-6 -2 2 463.686 528.372 5
-6 -2 1 5592.88 1383.39 3
-6 -2 1 5615.73 1161.15 5
6 2 0 1383.72 638.292 6
-6 -2 0 598.192 443.372 5
-6 -2 -1 3412.71 1244.15 3
6 2 1 4123.37 1055.95 6
-6 -2 -1 4763.71 1162.38 5
-6 -2 -2 2523.35 1069.34 3
6 2 2 3245.84 989.027 6
-6 -2 -2 3168.66 899.547 5
-6 -2 -3 4063.31 1268.01 3
6 2 3 4446.84 1242.55 6
-6 -2 -3 2520.25 890.073 5
-6 -2 -4 2560.06 928.248 5
-6 -2 -5 1363.77 819.889 5
-6 -3 11 3165.54 1205.39 3
-6 -3 10 4859.83 1587.77 3
-6 -3 9 2176.49 1054.99 3
-6 -3 8 628.521 714.304 3
-6 -3 7 1698.13 718.74 3
-6 -3 6 816.057 579.27 3
-6 -3 5 757.246 957.305 3
-6 -3 4 2425.81 935.325 3
-6 -3 3 4956.66 1448.39 3
-6 -3 2 -573.944 629.759 3
-6 -3 1 514.334 859.155 3
-6 -3 0 5706.13 1600.7 3
-6 -3 -1 7655.71 1886.87 3
-6 -3 -2 417.052 843.45 3
6 3 2 1734.63 859.964 6
-6 -4 5 247.028 824.324 3
-6 -4 4 227.499 862.341 3
7 -8 -3 -468.55 958.334 2
7 -8 -2 793.099 823.272 2
7 -8 -2 2621.88 860.538 1
7 -8 -1 788.434 919.283 2
7 -8 -1 473.438 558.026 1
-7 8 0 940.897 733.849 5
7 -8 0 1589.17 818.346 1
-7 8 -1 919.102 746.872 5
7 -8 1 -142.76 461.038 1
-7 8 -2 3197.65 1238.7 5
7 -8 2 2687.43 1120.56 1
-7 8 -3 966.264 771.219 5
7 -8 3 -85.946 562.593 1
-7 8 -4 36.7757 817.844 5
7 -8 4 -22.1724 603.167 1
7 -8 5 1788.39 867.406 1
-7 8 -5 362.205 773.879 5
7 -7 -6 104.867 723.57 2
7 -7 -5 139.063 781.157 2
7 -7 -4 94.8168 375.694 1
7 -7 -4 299.392 559.133 2
7 -7 -3 414.305 564.137 2
7 -7 -3 392.901 456.581 1
7 -7 -2 574.564 901.835 2
7 -7 -2 362.602 397.992 1
7 -7 -1 80.6497 438.223 1
-7 7 1 -968.654 917.91 5
7 -7 0 1141.92 773.089 1
-7 7 0 3397.11 1123.41 5
7 -7 1 687.351 876.859 1
-7 7 -1 3013.07 1093.05 5
7 -7 2 -33.1967 480.074 1
-7 7 -2 895.991 797.259 5
7 -7 3 1109.7 825.791 1
-7 7 -3 -38.7786 655.153 5
7 -7 4 2385.32 1151.13 1
-7 7 -4 2460.85 1028.35 5
7 -7 5 906.392 531.687 1
-7 7 -5 -10.6603 622.226 5
7 -7 6 3466.79 1410.89 1
-7 7 -6 577.591 883.53 5
-7 7 -7 2227.35 1230.5 5
7 -7 7 521.753 729.853 1
7 -7 8 -789.254 890.819 1
-7 7 -8 2447.23 1311.08 5
7 -6 -8 -111.526 525.75 4
7 -6 -8 821.49 664.948 2
7 -6 -7 73.3403 370.644 1
7 -6 -7 381.643 525.159 4
7 -6 -7 285.092 655.044 2
7 -6 -6 1437.15 694.579 1
7 -6 -6 1896.49 786.203 4
7 -6 -6 127.884 670.046 2
7 -6 -5 4541.96 1025.75 1
7 -6 -5 6879.92 1546.23 2
7 -6 -4 -274.148 496.851 1
7 -6 -4 79.4927 528.825 2
7 -6 -3 833.504 746.385 1
7 -6 -3 -411.752 787.821 2
7 -6 -2 917.574 611.058 2
7 -6 -2 -524.252 540.485 1
-7 6 2 2120.41 1057.6 5
7 -6 -1 2279.18 846.525 1
-7 6 1 3126.1 1103.18 5
7 -6 0 2795.01 988.119 1
-7 6 0 2233.45 1108.76 5
7 -6 1 1140.33 613.834 1
-7 6 -1 2006.7 940.405 5
7 -6 2 2268.02 1031.51 1
-7 6 -2 -10.9329 741.321 5
7 -6 3 4471.62 1226.81 1
-7 6 -3 4687.82 1343.9 5
7 -6 4 798.66 674.217 1
-7 6 -4 3247.57 1126.21 5
7 -6 5 4465.7 1359.37 1
-7 6 -5 3702.17 1251.59 5
7 -6 6 -744.662 743.379 1
-7 6 -6 1310.19 1010.71 5
7 -6 7 2939.79 1257.91 1
-7 6 -7 6141.88 1827.91 5
7 -6 8 715.917 643.742 1
-7 6 -8 1324.92 1146.8 5
-7 6 -9 2472.68 1166.36 5
7 -6 9 822.785 736.054 1
7 -5 -10 579.969 625.519 4
7 -5 -9 966.56 629.079 4
7 -5 -8 261.942 471.393 4
7 -5 -8 1255.79 1009.61 2
7 -5 -7 1138.08 580.02 4
7 -5 -7 1992.85 916.338 2
7 -5 -6 558.799 540.037 4
7 -5 -6 1542.05 771.76 2
7 -5 -5 -448.582 435.305 4
7 -5 -5 617.113 694.564 2
7 -5 -4 470.775 511.692 2
7 -5 -4 57.8847 315.148 4
7 -5 -3 5434.13 1289.18 2
-7 5 3 4425.11 1219.32 5
7 -5 -2 814.436 606.134 1
-7 5 2 2260.21 1090.77 5
7 -5 -1 1073.74 660.774 1
-7 5 1 509.77 717.591 5
7 -5 0 797.273 753.865 1
-7 5 0 473.609 769.407 5
7 -5 1 11430.5 1772.84 1
-7 5 -1 10307.6 1822.5 5
7 -5 2 880.442 674.859 1
-7 5 -2 2350.87 965.219 5
7 -5 3 5965.16 1396.71 1
-7 5 -3 3685.61 1237.3 5
7 -5 4 -9.20701 504.915 1
-7 5 -4 1043.89 648.635 5
7 -5 5 9017.03 1693.72 1
-7 5 -5 6813.07 1652.27 5
7 -5 6 1594.77 1000.09 1
-7 5 -6 -620.037 635.228 5
7 -5 7 5139.04 1396.44 1
-7 5 -7 8072.16 1832.22 5
7 -5 8 795.983 630.337 1
-7 5 -8 2288.71 1452.88 5
7 -5 9 1420.73 965.925 1
-7 5 -9 1708.37 1332.96 5
7 -4 -11 985.479 800.933 4
7 -4 -10 62.603 525.421 4
7 -4 -9 2900.3 995.969 4
7 -4 -8 184.643 539.302 4
7 -4 -8 -465.56 791.097 2
7 -4 -7 1448.12 877.58 2
7 -4 -6 374.008 478.269 2
7 -4 -5 20235.2 2302.48 2
-7 4 5 20640.9 1922.99 3
7 -4 -4 909.658 477.123 2
-7 4 4 946.984 429.585 3
-7 4 4 1287.14 897.338 5
7 -4 -3 436.132 459.893 2
-7 4 3 615.135 399.786 3
-7 4 3 139.258 692.85 5
-7 4 2 -515.787 343.026 3
-7 4 2 133.638 565.518 5
-7 4 1 8904.68 1002.25 3
-7 4 1 6305.66 1405.7 5
-7 4 0 -304.274 691.369 5
7 -4 1 3535.73 1012.2 1
-7 4 -1 3911.86 1084.66 5
7 -4 2 -502.342 675.311 1
-7 4 -2 -259.129 550.133 5
7 -4 3 6633.69 1434.99 1
-7 4 -3 6210 1531.96 5
7 -4 4 1855.65 968.609 1
-7 4 -4 1368.05 940.368 5
7 -4 5 12460 2042.13 1
-7 4 -5 8751.38 1799.26 5
7 -4 6 274.805 648.529 1
-7 4 -6 -331.188 741.648 5
7 -4 7 451.784 543.093 1
-7 4 -7 1539.94 787.076 5
7 -4 8 2207.76 1088.97 1
-7 4 -8 1084.97 1186.03 5
7 -4 9 3393.72 1184.09 1
-7 4 -9 1551.91 909.94 5
7 -3 -12 -45.7125 584.315 4
7 -3 -11 6004.51 1488.06 4
-7 3 11 5508.55 1388.18 3
-7 3 10 1037.26 880.646 3
-7 3 9 465.557 649.507 3
7 -3 -8 2530.55 877.237 2
-7 3 8 3364.97 959.752 3
7 -3 -7 8963.35 1538.94 2
-7 3 7 7611.43 1278.73 3
7 -3 -6 172.06 779.98 2
-7 3 6 858.395 577.501 3
7 -3 -5 3459.8 843.688 2
-7 3 5 3671.53 849.121 3
7 -3 -4 -490.497 569.115 2
-7 3 4 -530.36 664.649 5
-7 3 4 751.859 503.873 3
7 -3 -3 1690.19 655.384 2
-7 3 3 1263.42 740.252 5
-7 3 3 1373.36 526.483 3
-7 3 2 1193.93 653.112 5
-7 3 2 1448.83 489.884 3
-7 3 1 970.608 752.97 5
-7 3 1 4028.22 727.371 3
-7 3 0 1265.54 814.624 5
-7 3 0 -36.1314 269.74 3
-7 3 -1 3899.77 1199.12 5
-7 3 -1 4756.28 752.765 3
7 -3 2 5732.89 1339.29 1
-7 3 -2 4628.03 1187.73 5
7 -3 3 12004.1 1882.74 1
-7 3 -3 14132.4 2152.09 5
7 -3 4 1256.61 891.846 1
-7 3 -4 1890.39 1120.2 5
7 -3 5 2436.85 927.843 1
-7 3 -5 4145.03 1388.94 5
7 -3 6 4263.97 1259.1 1
-7 3 -6 3692.98 1224.15 5
7 -3 7 4473.46 1332.89 1
-7 3 -7 2201.28 1096.63 5
7 -3 8 6361.51 1559.95 1
-7 3 -8 4191.93 1288.53 5
7 -3 9 1484.79 734.595 1
-7 3 -9 40.3716 772.297 5
-7 2 12 1656.27 1032.36 3
-7 2 11 1583.65 911.448 3
-7 2 10 3344.07 1003.48 3
-7 2 9 1880.13 897.184 3
-7 2 8 2048.05 820.513 3
7 -2 -7 1216.09 631.642 2
-7 2 7 378.656 469.35 3
7 -2 -6 185.714 396.198 2
-7 2 6 142.403 497.079 3
7 -2 -5 1751.63 557.904 2
-7 2 5 1067.99 477.689 3
7 -2 -4 13367.6 1523.84 2
-7 2 4 11739.3 1922.13 5
-7 2 4 11788.1 1506.02 3
7 -2 -3 -18.8083 301.16 2
-7 2 3 -455.462 748.796 5
-7 2 3 -637.95 608.663 3
-7 2 2 139.484 468.904 5
-7 2 2 432.913 310.394 3
-7 2 1 2096.25 634.182 3
-7 2 1 1559.25 691.403 5
-7 2 0 9219.32 1236 3
-7 2 0 10579.7 1768.93 5
-7 2 -1 2808.55 699.21 3
-7 2 -1 2334.01 1020.01 5
-7 2 -2 963.742 520.526 3
-7 2 -2 545.507 618.778 5
-7 2 -3 591.357 731.292 5
7 -2 4 7399.01 1498.67 1
-7 2 -4 7625.07 1587.98 5
7 -2 5 601.85 720.828 1
-7 2 -5 -732.13 762.082 5
7 -2 6 4966.84 1350.37 1
-7 2 -6 4174.19 1376.62 5
7 -2 7 401.577 636.606 1
-7 2 -7 440.225 668.088 5
7 -2 8 2045.34 1020.25 1
-7 2 -8 3036.48 1397.99 5
-7 1 12 6.13817 596.766 3
-7 1 11 1694.88 912.376 3
-7 1 10 6063.9 1374.88 3
-7 1 9 -443.109 711.782 3
-7 1 8 -1349.5 886.262 3
-7 1 7 407.116 568.998 3
-7 1 6 9843.54 1564.3 3
-7 1 5 1421.19 690.072 3
-7 1 4 2257.4 790.047 3
-7 1 4 1998.79 902.298 5
-7 1 3 1812.82 647.366 3
-7 1 3 3289.19 1086.39 5
-7 1 2 7981.23 1309.44 3
-7 1 2 8526.52 1571.41 5
-7 1 1 -499.029 573.302 3
-7 1 1 625.268 711.603 5
-7 1 0 1417.08 648.465 3
-7 1 0 4723.3 1292.99 5
-7 1 -1 325.417 501.251 3
-7 1 -1 1331.18 762.338 5
-7 1 -2 4047.31 1045.59 3
-7 1 -2 4701.36 1372.15 5
-7 1 -3 250.82 517.541 3
-7 1 -3 1887.73 938.805 5
7 -1 4 11791.9 1932.56 1
-7 1 -4 9233.13 1729.32 5
7 -1 5 705.914 729.589 1
-7 1 -5 973.246 780.475 5
7 -1 6 2365.34 991.912 1
-7 1 -6 2327 1187.48 5
7 -1 7 1259.18 872.944 1
-7 1 -7 1100.29 838.239 5
-7 0 12 1079.85 879.252 3
-7 0 11 346.813 703.745 3
-7 0 10 -783.779 986.382 3
-7 0 9 3028.87 1145.44 3
-7 0 8 5741.22 1463.77 3
-7 0 7 420.118 518.986 3
-7 0 6 1507.56 812.115 3
-7 0 5 1748.44 879.603 3
-7 0 4 9837.11 1597.37 3
-7 0 4 12595.3 1859.64 5
-7 0 3 1952.24 739.738 3
-7 0 3 3231.23 1045.56 5
-7 0 2 3348.64 1037.04 3
-7 0 2 3902.31 1113.72 5
-7 0 1 -428.873 745.249 3
-7 0 1 -631.658 718.73 5
-7 0 0 5554.02 1306.98 3
-7 0 0 3196.65 984.235 5
-7 0 -1 3757.52 1129.24 3
-7 0 -1 5335.5 1431.23 5
-7 0 -2 6028.22 1373.39 3
-7 0 -2 4778.87 1379.25 5
-7 0 -3 -1148.85 899.862 3
-7 0 -3 -491.115 499.212 5
-7 0 -4 637.815 699.308 3
-7 0 -4 1815.32 953.999 5
7 0 5 1855.09 988.05 1
-7 0 -5 2133.48 1120.93 5
7 0 6 3076.61 1039.82 1
-7 0 -6 3749.03 1252.04 5
-7 -1 10 3520.45 1209.88 3
-7 -1 9 277.667 626.421 3
-7 -1 8 2656.9 1106.04 3
-7 -1 7 1511.05 1001.03 3
-7 -1 6 1363.57 786.931 3
-7 -1 5 2871.04 1034.05 3
-7 -1 4 4606.72 1289.7 3
-7 -1 4 6102.35 1312.58 5
-7 -1 3 1070.65 902.832 3
-7 -1 3 120.829 531.944 5
-7 -1 2 -1162.16 741.412 3
-7 -1 2 -71.1385 633.112 5
-7 -1 1 3408.18 1245.43 3
-7 -1 1 5153.39 1280.41 5
-7 -1 0 1774.29 961.185 3
-7 -1 0 1484.16 749.783 5
-7 -1 -1 291.904 886.009 3
-7 -1 -1 -696.191 530.499 5
-7 -1 -2 633.958 781.236 3
-7 -1 -2 -302.757 533.778 5
-7 -1 -3 -208.768 576.259 3
-7 -1 -3 2929.81 1085.51 5
-7 -1 -4 2201.27 935.061 3
-7 -1 -4 2893.31 1180.43 5
-7 -2 8 -48.8703 726.431 3
-7 -2 7 4200.12 1334.25 3
-7 -2 6 124.446 601.584 3
-7 -2 5 1422.43 947.067 3
-7 -2 4 -1154.59 941.51 3
-7 -2 3 5022.17 1444.06 3
-7 -2 2 -1054.52 898.488 3
-7 -2 1 932.862 902.112 3
-7 -2 0 1114.94 867.127 3
8 -7 -2 -235.419 753.031 2
8 -7 -2 389.37 666.171 1
-8 7 2 2218.12 1159.24 5
8 -7 -1 1504.75 750.104 2
8 -7 -1 -102.862 476.885 1
-8 7 1 598.987 758.179 5
8 -7 0 2526.69 1125.83 1
-8 7 0 2386.57 1081.42 5
8 -7 1 1254.67 778.469 1
-8 7 -1 11.3696 675.702 5
8 -7 2 844.922 549.83 1
-8 7 -2 1556.52 1170.49 5
8 -7 3 2815.24 1089.5 1
-8 7 -3 459.191 759.041 5
8 -6 -6 1860.18 733.85 1
8 -6 -6 1386.9 894.027 2
8 -6 -5 -520.728 459.85 1
8 -6 -5 1207.36 880.814 2
8 -6 -4 94.7173 667.39 1
8 -6 -4 -1240.64 809.031 2
8 -6 -3 -413.302 438.226 1
8 -6 -3 819.858 742.838 2
-8 6 3 445.547 720.215 5
8 -6 -2 1261.83 807.869 2
8 -6 -2 4057.43 1090.37 1
-8 6 2 2229.4 1111.74 5
8 -6 -1 265.618 489.895 1
-8 6 1 861.395 705.851 5
8 -6 0 -934.399 706.922 1
-8 6 0 765.72 828.094 5
8 -6 1 690.608 840.657 1
-8 6 -1 793.464 903.573 5
8 -6 2 797.699 709.419 1
-8 6 -2 -1192.83 1035.33 5
8 -6 3 796.637 671.474 1
-8 6 -3 274.632 635.041 5
8 -6 4 2409.82 1169.15 1
-8 6 -4 1096.81 784.739 5
8 -6 5 413.7 884.062 1
-8 6 -5 -1080.34 1056.88 5
8 -5 -7 692.525 558.457 4
8 -5 -7 2499.17 1014.39 2
8 -5 -6 -92.3568 502.806 4
8 -5 -6 283.553 559.013 2
8 -5 -5 -68.8053 664.516 2
8 -5 -4 1527.03 885.857 2
8 -5 -3 -1115.34 889.843 2
-8 5 3 942.699 1046.71 5
8 -5 -2 931.679 710.688 1
-8 5 2 265.814 575.181 5
8 -5 -1 1510.48 889.815 1
-8 5 1 833.264 790.624 5
8 -5 0 692.093 677.174 1
-8 5 0 -566.52 839.627 5
8 -5 1 4110.6 1235.42 1
-8 5 -1 6564.54 1635.91 5
8 -5 2 1149.89 703.946 1
-8 5 -2 -32.887 746.406 5
8 -5 3 2346.35 1123.98 1
-8 5 -3 206.549 725.74 5
8 -5 4 956.678 782.393 1
-8 5 -4 2824.72 1117.56 5
8 -5 5 2542.87 1156.69 1
-8 5 -5 2688.08 1184.71 5
8 -5 6 1080.36 892.861 1
-8 5 -6 -65.5967 823.137 5
8 -4 -8 -3.6749 588.706 2
-8 4 7 -367.776 529.253 3
8 -4 -7 494.225 635.305 2
8 -4 -6 294.17 538.924 2
-8 4 6 -47.0671 579.734 3
8 -4 -5 1611.4 779.051 2
-8 4 5 -100.95 424.271 3
8 -4 -4 815.477 559.731 2
-8 4 4 1279.98 990.536 5
8 -4 -3 -306.054 734.84 2
-8 4 3 -81.7309 648.887 5
-8 4 2 932.712 792.755 5
-8 4 1 9032.1 1817.91 5
8 -4 0 418.869 512.001 1
-8 4 0 -493.788 725.511 5
8 -4 1 492.792 746.194 1
-8 4 -1 1735.81 1114.84 5
8 -4 2 1537.86 803.376 1
-8 4 -2 -1309.56 1014.96 5
8 -4 3 2593.64 1077.73 1
-8 4 -3 1092.32 984.85 5
8 -4 4 227.706 674.594 1
-8 4 -4 982.469 786.957 5
8 -4 5 1817.96 1030.3 1
-8 4 -5 4038.62 1544.81 5
8 -4 6 2131.62 1058.61 1
-8 4 -6 3624.62 1447.7 5
-8 3 9 715.954 764.151 3
-8 3 8 459.184 637.373 3
-8 3 7 3222.19 920.699 3
-8 3 6 745.976 543.589 3
8 -3 -5 361.346 606.446 2
-8 3 5 797.468 595.116 3
8 -3 -4 -268.464 462.523 2
-8 3 4 303.995 613.336 5
-8 3 4 -301.525 431.452 3
8 -3 -3 2810.14 911.422 2
-8 3 3 1858.5 791.967 5
-8 3 3 3896.12 839.135 3
-8 3 2 262.222 716.512 5
-8 3 1 6452.01 1584.34 5
-8 3 0 374.055 695.925 5
-8 3 -1 2560.08 1266.95 5
8 -3 2 1848.36 962.546 1
-8 3 -2 1669.1 1010.76 5
8 -3 3 2162.56 1068.02 1
-8 3 -3 -1228.76 974.573 5
8 -3 4 -146.883 725.827 1
-8 3 -4 -35.0096 727.265 5
8 -3 5 1200.79 909.365 1
-8 3 -5 -659.616 733.248 5
8 -3 6 3145.46 1297.76 1
-8 3 -6 2136.44 1211 5
-8 2 9 1034.17 541.74 3
-8 2 8 51.9689 472.56 3
-8 2 7 347.034 576.385 3
-8 2 6 896.582 633.012 3
-8 2 5 2002.89 794.336 3
-8 2 4 2848.9 1106.06 5
-8 2 4 1989.26 766.725 3
-8 2 3 2833.77 1056.1 5
-8 2 3 5860.03 1143.35 3
-8 2 2 868.805 533.499 5
-8 2 2 2419.49 766.192 3
-8 2 1 2143.08 1035.76 5
-8 2 1 3794.24 955.249 3
-8 2 0 338.477 655.071 5
-8 2 -1 818.89 839.776 5
-8 2 -2 -421.236 547.521 5
8 -2 3 1130.36 822.963 1
-8 2 -3 334.455 788.614 5
8 -2 4 1764.92 994.407 1
-8 2 -4 1570.6 955.514 5
8 -2 5 2729.3 1181.57 1
-8 2 -5 2314.94 1088.62 5
-8 1 9 -812.597 735.049 3
-8 1 8 -57.357 616.964 3
-8 1 7 -356.158 535.373 3
-8 1 6 4855.65 1244.22 3
-8 1 5 1560.59 802.042 3
-8 1 4 1332 731.426 5
-8 1 4 913.656 683.886 3
-8 1 3 2563.22 967.185 3
-8 1 3 622.746 569.339 5
-8 1 2 2721.24 916.117 3
-8 1 2 1507.54 869.914 5
-8 1 1 1214.86 748.73 3
-8 1 1 2051.74 979.021 5
-8 1 0 -489.497 708.285 3
-8 1 0 -874.088 764.606 5
-8 1 -1 -174.714 774.988 5
-8 1 -2 2716.76 1088.4 5
-8 1 -3 393.124 759.692 5
-8 0 7 817.041 569.862 3
-8 0 6 -279.801 788.654 3
-8 0 5 1530.8 839.822 3
-8 0 4 805.776 772.694 3
-8 0 4 921.652 1022.63 5
-8 0 3 412.448 522.021 3
-8 0 3 -727.602 846.022 5
-8 0 2 321.724 577.797 3
-8 0 2 644.271 743.648 5
-8 0 1 -1133.37 835.048 3
-8 0 1 475.262 663.829 5
-8 0 0 1197.41 778.234 3
-8 0 0 1025.09 571.156 5
