#------------------------------------------------------------------------------
#$Date: 2019-11-11 15:46:41 +0200 (Mon, 11 Nov 2019) $
#$Revision: 226435 $
#$URL: file:///home/coder/svn-repositories/cod/cif/4/03/49/4034920.cif $
#------------------------------------------------------------------------------
#
# This file is available in the Crystallography Open Database (COD),
# http://www.crystallography.net/
#
# All data on this site have been placed in the public domain by the
# contributors.
#
data_4034920
loop_
_publ_author_name
'Yaremenko, Ivan A.'
'Gomes, Gabriel Dos Passos'
'Radulov, Peter S.'
'Belyakova, Yulia Yu'
'Vilikotskiy, Anatoliy E.'
'Vil', Vera A.'
'Korlyukov, Alexander A.'
'Nikishin, Gennady I.'
'Alabugin, Igor V.'
'Terent'ev, Alexander O.'
_publ_section_title
;
 Ozone-Free Synthesis of Ozonides: Assembling Bicyclic Structures from
 1,5-Diketones and Hydrogen Peroxide.
;
_journal_issue                   8
_journal_name_full               'The Journal of organic chemistry'
_journal_page_first              4402
_journal_page_last               4426
_journal_paper_doi               10.1021/acs.joc.8b00130
_journal_volume                  83
_journal_year                    2018
_chemical_formula_moiety         'C12 H18 O7'
_chemical_formula_sum            'C12 H18 O7'
_chemical_formula_weight         274.26
_space_group_crystal_system      triclinic
_space_group_IT_number           2
_space_group_name_Hall           '-P 1'
_space_group_name_H-M_alt        'P -1'
_atom_sites_solution_hydrogens   geom
_audit_creation_date             2016-07-12
_audit_creation_method
;
Olex2 1.2
(compiled 2016.02.19 svn.r3266 for OlexSys, GUI svn.r5155)
;
_cell_angle_alpha                65.5520(10)
_cell_angle_beta                 70.1030(10)
_cell_angle_gamma                79.8020(10)
_cell_formula_units_Z            2
_cell_length_a                   8.7888(5)
_cell_length_b                   9.4369(5)
_cell_length_c                   9.6073(5)
_cell_measurement_reflns_used    4775
_cell_measurement_temperature    120
_cell_measurement_theta_max      33.37
_cell_measurement_theta_min      2.37
_cell_volume                     681.46(6)
_computing_cell_refinement       'SAINT v8.34A (Bruker, 2013)'
_computing_data_reduction        'SAINT v8.34A (Bruker, 2013)'
_computing_molecular_graphics    'Olex2 (Dolomanov et al., 2009)'
_computing_publication_material  'Olex2 (Dolomanov et al., 2009)'
_computing_structure_refinement  'ShelXL (Sheldrick, 2015)'
_diffrn_ambient_temperature      120
_diffrn_detector_area_resol_mean 8
_diffrn_measured_fraction_theta_full 1.000
_diffrn_measured_fraction_theta_max 0.916
_diffrn_measurement_device_type  'Bruker APEX-II CCD'
_diffrn_measurement_method       '\w and \f scans'
_diffrn_radiation_monochromator  graphite
_diffrn_radiation_type           MoK\a
_diffrn_radiation_wavelength     0.71073
_diffrn_reflns_av_R_equivalents  0.0170
_diffrn_reflns_av_unetI/netI     0.0240
_diffrn_reflns_Laue_measured_fraction_full 1.000
_diffrn_reflns_Laue_measured_fraction_max 0.916
_diffrn_reflns_limit_h_max       13
_diffrn_reflns_limit_h_min       -13
_diffrn_reflns_limit_k_max       14
_diffrn_reflns_limit_k_min       -14
_diffrn_reflns_limit_l_max       14
_diffrn_reflns_limit_l_min       -14
_diffrn_reflns_number            10242
_diffrn_reflns_point_group_measured_fraction_full 1.000
_diffrn_reflns_point_group_measured_fraction_max 0.916
_diffrn_reflns_theta_full        25.242
_diffrn_reflns_theta_max         33.599
_diffrn_reflns_theta_min         2.373
_diffrn_source                   'sealed tube'
_diffrn_standards_number         0
_exptl_absorpt_coefficient_mu    0.111
_exptl_absorpt_correction_T_max  0.7466
_exptl_absorpt_correction_T_min  0.7078
_exptl_absorpt_correction_type   multi-scan
_exptl_absorpt_process_details
;
SADABS-2014/5 (Bruker,2014/5) was used for absorption correction.
wR2(int) was 0.0492 before and 0.0280 after correction.
The Ratio of minimum to maximum transmission is 0.9480.
The \l/2 correction factor is 0.00150.
;
_exptl_crystal_colour            colourless
_exptl_crystal_colour_primary    colourless
_exptl_crystal_density_diffrn    1.337
_exptl_crystal_description       prism
_exptl_crystal_F_000             292
_exptl_crystal_size_max          0.36
_exptl_crystal_size_mid          0.24
_exptl_crystal_size_min          0.21
_refine_diff_density_max         0.452
_refine_diff_density_min         -0.252
_refine_diff_density_rms         0.052
_refine_ls_extinction_method     none
_refine_ls_goodness_of_fit_ref   1.035
_refine_ls_hydrogen_treatment    constr
_refine_ls_matrix_type           full
_refine_ls_number_parameters     176
_refine_ls_number_reflns         4936
_refine_ls_number_restraints     0
_refine_ls_restrained_S_all      1.035
_refine_ls_R_factor_all          0.0476
_refine_ls_R_factor_gt           0.0382
_refine_ls_shift/su_max          0.000
_refine_ls_shift/su_mean         0.000
_refine_ls_structure_factor_coef Fsqd
_refine_ls_weighting_details
'w=1/[\s^2^(Fo^2^)+(0.0571P)^2^+0.1294P] where P=(Fo^2^+2Fc^2^)/3'
_refine_ls_weighting_scheme      calc
_refine_ls_wR_factor_gt          0.0998
_refine_ls_wR_factor_ref         0.1069
_reflns_Friedel_coverage         0.000
_reflns_number_gt                4162
_reflns_number_total             4936
_reflns_threshold_expression     'I > 2\s(I)'
_cod_data_source_file            jo8b00130_si_006.cif
_cod_data_source_block           fr1
_cod_database_code               4034920
_shelxl_version_number           2014/6
_shelx_space_group_comment
;
The symmetry employed for this shelxl refinement is uniquely defined
by the following loop, which should always be used as a source of
symmetry information in preference to the above space-group names.
They are only intended as comments.
;
_olex2_refinement_description
;
1. Fixed Uiso
 At 1.2 times of:
  All C(H,H) groups
 At 1.5 times of:
  All C(H,H,H) groups, All O(H) groups
2.a Secondary CH2 refined with riding coordinates:
 C3(H3A,H3B), C2(H2A,H2B), C9(H9A,H9B), C6(H6A,H6B)
2.b Idealised Me refined as rotating group:
 C12(H12A,H12B,H12C), C10(H10A,H10B,H10C), C11(H11A,H11B,H11C)
2.c Idealised tetrahedral OH refined as rotating group:
 O5(H5)
;
_shelx_res_file
;
TITL fr1 in P-1
CELL 0.71073 8.7888 9.4369 9.6073 65.552 70.103 79.802
ZERR 2 0.0005 0.0005 0.0005 0.001 0.001 0.001
LATT 1
SFAC C H O
UNIT 24 36 14

L.S. 4
PLAN  -4 0 0
TEMP -153.15
HTAB
BOND $H
CONF
fmap 2
acta
MORE -1
REM <olex2.extras>
REM <HklSrc "%.\\fr1.hkl">
REM </olex2.extras>

WGHT    0.057100    0.129400
FVAR       0.37411
O7    3    0.416774    0.282058    0.069480    11.00000    0.01621    0.02388 =
         0.02276   -0.01021   -0.00392    0.00153
O3    3    0.236141    0.362319    0.369955    11.00000    0.01756    0.01629 =
         0.02150   -0.00977   -0.00946    0.00100
O1    3   -0.012937    0.265308    0.487645    11.00000    0.01643    0.02233 =
         0.01747   -0.00895   -0.00696    0.00170
C12   1    0.351794    0.227817    0.585779    11.00000    0.02605    0.02999 =
         0.02921   -0.01713   -0.01680    0.00472
AFIX 137
H12A  2    0.462178    0.255892    0.516387    11.00000   -1.50000
H12B  2    0.355400    0.127818    0.674536    11.00000   -1.50000
H12C  2    0.301466    0.308543    0.628503    11.00000   -1.50000
AFIX   0
C4    1    0.253749    0.214263    0.490156    11.00000    0.01863    0.01861 =
         0.02020   -0.00991   -0.00940    0.00272
C3    1    0.318337    0.093332    0.415670    11.00000    0.02040    0.01744 =
         0.02272   -0.01058   -0.01060    0.00485
AFIX  23
H3A   2    0.326412   -0.010073    0.500746    11.00000   -1.20000
H3B   2    0.428310    0.120032    0.340431    11.00000   -1.20000
AFIX   0
C2    1    0.207377    0.085714    0.325790    11.00000    0.01972    0.01398 =
         0.02008   -0.00930   -0.00851    0.00257
AFIX  23
H2A   2    0.114839    0.020930    0.404099    11.00000   -1.20000
H2B   2    0.268265    0.033605    0.251135    11.00000   -1.20000
AFIX   0
C1    1    0.141141    0.246918    0.229814    11.00000    0.01583    0.01375 =
         0.01726   -0.00895   -0.00675    0.00160
C8    1    0.264708    0.331708    0.068639    11.00000    0.01784    0.01610 =
         0.01911   -0.01048   -0.00570    0.00014
C9    1    0.547463    0.352091   -0.076191    11.00000    0.01914    0.02909 =
         0.02552   -0.01486   -0.00054   -0.00307
AFIX  23
H9A   2    0.641520    0.364326   -0.048175    11.00000   -1.20000
H9B   2    0.511010    0.456608   -0.141225    11.00000   -1.20000
AFIX   0
C10   1    0.596307    0.249934   -0.171265    11.00000    0.03216    0.04628 =
         0.03358   -0.02825   -0.00333   -0.00308
AFIX 137
H10A  2    0.687692    0.294604   -0.266505    11.00000   -1.50000
H10B  2    0.504694    0.243183   -0.204173    11.00000   -1.50000
H10C  2    0.628351    0.145468   -0.105049    11.00000   -1.50000
AFIX   0
O6    3    0.228855    0.433199   -0.044013    11.00000    0.02549    0.02524 =
         0.02163   -0.00497   -0.00913   -0.00005
C6    1   -0.015248    0.233101    0.199415    11.00000    0.01700    0.01744 =
         0.02068   -0.01158   -0.00803    0.00146
AFIX  23
H6A   2   -0.098999    0.191097    0.304119    11.00000   -1.20000
H6B   2   -0.053665    0.338974    0.139550    11.00000   -1.20000
AFIX   0
C7    1   -0.001295    0.132225    0.108326    11.00000    0.01881    0.01650 =
         0.01769   -0.00770   -0.00860   -0.00005
O4    3    0.126565    0.081822    0.039310    11.00000    0.01899    0.02680 =
         0.02592   -0.01775   -0.00673   -0.00024
O5    3   -0.145030    0.107866    0.107816    11.00000    0.01843    0.02634 =
         0.02953   -0.01872   -0.01130    0.00222
AFIX 147
H5    2   -0.133566    0.048804    0.058959    11.00000   -1.50000
AFIX   0
C5    1    0.098522    0.349462    0.332968    11.00000    0.01512    0.01519 =
         0.01778   -0.00923   -0.00654    0.00122
O2    3    0.089389    0.181539    0.594170    11.00000    0.02111    0.02418 =
         0.01726   -0.00786   -0.00899    0.00267
C11   1    0.020961    0.509212    0.266011    11.00000    0.02315    0.01655 =
         0.02511   -0.01174   -0.01170    0.00571
AFIX 137
H11A  2    0.014121    0.567393    0.332181    11.00000   -1.50000
H11B  2   -0.088125    0.498538    0.266455    11.00000   -1.50000
H11C  2    0.086582    0.565317    0.155971    11.00000   -1.50000
AFIX   0
HKLF 4

REM  fr1 in P-1
REM R1 =  0.0382 for    4162 Fo > 4sig(Fo)  and  0.0476 for all    4936 data
REM    176 parameters refined using      0 restraints

END

WGHT      0.0571      0.1293

REM Instructions for potential hydrogen bonds
HTAB C3 O7
EQIV $1 -x, -y+1, -z
HTAB C6 O6_$1
EQIV $2 -x, -y, -z
HTAB O5 O4_$2
HTAB C11 O6_$1
HTAB C11 O6

REM Highest difference peak  0.452,  deepest hole -0.252,  1-sigma level  0.052
Q1    1   0.2808  0.1562  0.4461  11.00000  0.05    0.45
Q2    1  -0.0023  0.1824  0.1540  11.00000  0.05    0.41
Q3    1   0.1201  0.3117  0.2742  11.00000  0.05    0.38
Q4    1   0.5620  0.2967 -0.1252  11.00000  0.05    0.38
;
_shelx_res_checksum              68336
_shelx_hkl_file
;
  -1   0   0  418.51    8.27
  -1   0   0  412.54    6.17
   1   0   0  424.35    8.38
  -2   0   0    3.21    0.11
  -2   0   0    3.61    0.13
   2   0   0    3.06    0.09
  -3   0   0    5.66    0.16
  -3   0   0    5.60    0.17
   3   0   0    5.43    0.14
  -4   0   0    8.71    0.23
  -4   0   0    8.47    0.25
   4   0   0    8.17    0.21
  -5   0   0   18.24    0.40
  -5   0   0   18.59    0.43
   5   0   0   18.13    0.39
  -6   0   0    6.86    0.27
  -6   0   0    7.59    0.24
   6   0   0    7.21    0.23
  -7   0   0   28.63    0.67
  -7   0   0   29.30    0.62
   7   0   0   29.95    0.61
  -8   0   0   42.16    0.82
  -8   0   0   39.77    0.87
   8   0   0   40.81    0.81
  -9   0   0   34.34    0.81
   9   0   0   34.80    0.75
  10   0   0    0.14    0.09
  11   0   0    0.08    0.11
  12   0   0    4.54    0.29
  12  -1   0    0.54    0.14
  11  -1   0    9.96    0.39
  10  -1   0    1.25    0.16
   9  -1   0    1.23    0.14
  -9   1   0    1.64    0.20
   8  -1   0   16.54    0.44
  -8   1   0   16.98    0.46
  -8   1   0   17.46    0.50
   7  -1   0   20.62    0.48
  -7   1   0   21.55    0.51
  -7   1   0   21.04    0.54
   6  -1   0    8.92    0.26
  -6   1   0    9.14    0.28
  -6   1   0    8.68    0.31
   5  -1   0    5.31    0.18
  -5   1   0    5.81    0.23
  -5   1   0    5.69    0.20
   4  -1   0  100.83    1.53
  -4   1   0   98.65    1.55
  -4   1   0   98.64    1.58
   3  -1   0   56.61    0.91
  -3   1   0   57.71    0.93
  -3   1   0   59.47    0.95
   2  -1   0    3.10    0.09
  -2   1   0    2.92    0.10
  -2   1   0    2.65    0.12
  -1   1   0  787.45   14.81
   0  -1   0    5.49    0.13
   0   1   0    5.67    0.13
   0   1   0    6.05    0.13
  -1  -1   0  380.61    7.13
  -1  -1   0  389.20    5.66
   1   1   0  374.58    6.84
   1   1   0  341.50    5.74
   1   1   0  387.85    5.66
  -2  -1   0   39.70    0.66
   2   1   0   44.19    0.64
   2   1   0   38.22    0.65
  -3  -1   0    5.93    0.18
  -3  -1   0    6.12    0.18
   3   1   0    5.99    0.16
  -4  -1   0  156.80    2.34
  -4  -1   0  152.76    2.36
   4   1   0  155.57    2.33
  -5  -1   0   36.05    0.69
  -5  -1   0   35.37    0.66
   5   1   0   35.03    0.64
  -6  -1   0   51.13    0.92
  -6  -1   0   50.95    0.96
   6   1   0   51.57    0.90
  -7  -1   0   87.36    1.52
  -7  -1   0   88.31    1.46
   7   1   0   85.42    1.45
  -8  -1   0   12.98    0.45
  -8  -1   0   12.37    0.37
   8   1   0   13.40    0.38
  -9  -1   0    1.16    0.20
   9   1   0    0.80    0.12
  10   1   0    0.49    0.13
  11   1   0    3.01    0.26
  12   1   0    0.23    0.12
  12  -2   0    3.74    0.27
  11  -2   0    0.25    0.11
  10  -2   0    0.07    0.08
   9  -2   0    2.68    0.19
  -9   2   0    2.57    0.21
  -9   2   0    2.67    0.23
   8  -2   0   15.09    0.41
  -8   2   0   15.34    0.47
  -8   2   0   15.79    0.45
   7  -2   0    0.25    0.07
  -7   2   0    0.35    0.09
  -7   2   0    0.42    0.11
   6  -2   0    0.71    0.09
  -6   2   0    0.69    0.11
  -6   2   0    0.70    0.10
   5  -2   0   29.32    0.55
  -5   2   0   30.02    0.60
  -5   2   0   29.13    0.60
   4  -2   0   23.19    0.43
  -4   2   0   22.56    0.48
  -4   2   0   22.46    0.47
   3  -2   0    0.65    0.05
  -3   2   0    0.58    0.07
  -3   2   0    0.48    0.07
   2  -2   0  139.85    3.23
  -2   2   0  142.73    2.21
  -2   2   0  142.22    2.32
   1  -2   0    0.03    0.02
   1  -2   0    0.14    0.04
  -1   2   0    0.01    0.01
  -1   2   0   -0.06    0.03
   0  -2   0  407.60    6.35
   0   2   0  409.15    6.29
  -1  -2   0   48.37    0.79
  -1  -2   0   50.19    0.74
   1   2   0   48.07    0.79
   1   2   0   49.64    0.73
  -2  -2   0   36.28    0.62
   2   2   0   35.14    0.57
   2   2   0   36.08    0.61
  -3  -2   0  221.91    3.31
   3   2   0  226.45    3.69
   3   2   0  220.47    3.47
  -4  -2   0    9.94    0.27
  -4  -2   0    9.98    0.28
  -5  -2   0    1.08    0.12
  -5  -2   0    1.04    0.12
   5   2   0    0.94    0.09
  -6  -2   0   17.25    0.45
  -6  -2   0   17.33    0.43
   6   2   0   17.29    0.40
  -7  -2   0   49.76    0.99
  -7  -2   0   50.95    0.94
   7   2   0   49.28    0.91
  -8  -2   0   -0.01    0.13
  -8  -2   0   -0.05    0.08
   8   2   0   -0.08    0.06
  -9  -2   0    2.23    0.26
   9   2   0    2.53    0.19
  10   2   0   -0.06    0.08
  11   2   0    7.35    0.34
  12   2   0    9.67    0.41
  12  -3   0    0.30    0.12
  11  -3   0   10.47    0.40
  10  -3   0    4.56    0.25
   9  -3   0    1.22    0.14
  -9   3   0    1.10    0.16
  -9   3   0    1.41    0.18
   8  -3   0    8.28    0.29
  -8   3   0    8.09    0.33
  -8   3   0    7.66    0.33
   7  -3   0    0.44    0.08
  -7   3   0    0.38    0.11
  -7   3   0    0.33    0.10
   6  -3   0    0.19    0.06
  -6   3   0    0.39    0.10
  -6   3   0    0.18    0.08
   5  -3   0   11.53    0.28
  -5   3   0   11.19    0.33
  -5   3   0   11.08    0.33
   4  -3   0    8.43    0.21
  -4   3   0    8.38    0.27
  -4   3   0    8.71    0.27
   3  -3   0   99.94    1.50
  -3   3   0  101.18    1.58
  -3   3   0   97.34    1.60
   2  -3   0    7.88    0.16
   2  -3   0    7.39    0.22
  -2   3   0    7.67    0.22
  -2   3   0    7.69    0.23
   1  -3   0   31.11    0.58
   1  -3   0   31.54    0.47
  -1   3   0   31.57    0.47
  -1   3   0   31.23    0.57
   0  -3   0    1.01    0.08
   0   3   0    0.96    0.08
  -1  -3   0  243.23    4.01
   1   3   0  245.10    4.10
   1   3   0  250.80    3.68
  -2  -3   0   57.77    0.98
   2   3   0   58.54    0.97
   2   3   0   59.43    0.89
  -3  -3   0    8.60    0.26
   3   3   0    8.25    0.24
   3   3   0    8.10    0.19
  -4  -3   0    0.26    0.09
   4   3   0    0.24    0.05
   4   3   0    0.16    0.06
  -5  -3   0   18.55    0.45
  -5  -3   0   18.44    0.45
   5   3   0   18.36    0.39
  -6  -3   0   68.15    1.21
  -6  -3   0   67.82    1.23
   6   3   0   69.32    1.16
  -7  -3   0    0.12    0.11
  -7  -3   0    0.25    0.12
   7   3   0    0.15    0.07
  -8  -3   0    1.07    0.18
  -8  -3   0    1.27    0.16
   8   3   0    1.14    0.13
  -9  -3   0    0.70    0.19
   9   3   0    0.49    0.11
  10   3   0   11.44    0.40
  11   3   0   10.59    0.40
  12   3   0    0.39    0.15
  11  -4   0    1.47    0.18
  10  -4   0    3.43    0.22
   9  -4   0    7.22    0.29
  -9   4   0    7.47    0.35
  -9   4   0    7.70    0.35
   8  -4   0    7.05    0.27
  -8   4   0    7.44    0.33
  -8   4   0    7.17    0.32
   7  -4   0    5.51    0.21
  -7   4   0    5.12    0.28
  -7   4   0    5.20    0.26
   6  -4   0    0.70    0.09
  -6   4   0    0.67    0.12
  -6   4   0    0.74    0.13
   5  -4   0   18.27    0.38
  -5   4   0   18.52    0.48
  -5   4   0   17.27    0.45
   4  -4   0    0.01    0.03
  -4   4   0   -0.01    0.05
  -4   4   0    0.01    0.05
   3  -4   0   72.97    1.24
   3  -4   0   73.71    1.11
  -3   4   0   70.04    1.22
   2  -4   0   56.24    1.00
   2  -4   0   57.62    0.87
  -2   4   0   58.86    1.00
   1  -4   0    0.41    0.06
  -1   4   0    0.28    0.06
   0  -4   0    0.41    0.06
   0   4   0    0.42    0.07
  -1  -4   0    6.43    0.13
  -1  -4   0    6.95    0.23
   1   4   0    7.03    0.13
  -2  -4   0  107.92    1.73
   2   4   0  110.01    1.60
   2   4   0  105.93    1.72
  -3  -4   0   49.13    0.89
   3   4   0   48.39    0.78
   3   4   0   48.38    0.88
  -4  -4   0    0.82    0.12
   4   4   0    0.72    0.10
   4   4   0    0.84    0.07
  -5  -4   0   34.26    0.72
   5   4   0   34.79    0.63
   5   4   0   33.95    0.70
  -6  -4   0    9.96    0.37
  -6  -4   0    9.89    0.35
   6   4   0    9.71    0.28
  -7  -4   0    6.27    0.31
  -7  -4   0    6.63    0.31
   7   4   0    6.94    0.25
  -8  -4   0    0.93    0.17
  -8  -4   0    0.84    0.18
   8   4   0    0.64    0.10
  -9  -4   0    0.26    0.17
   9   4   0    0.21    0.08
  10   4   0    0.95    0.15
  11   4   0    2.51    0.23
  11  -5   0   -0.04    0.09
  10  -5   0    0.74    0.13
   9  -5   0    0.01    0.07
  -9   5   0    0.14    0.10
   8  -5   0    0.10    0.08
   8  -5   0    0.11    0.07
  -8   5   0    0.18    0.10
   7  -5   0   11.09    0.39
   7  -5   0   11.10    0.31
  -7   5   0   11.11    0.40
   6  -5   0   33.60    0.64
   6  -5   0   32.95    0.75
  -6   5   0   34.04    0.76
   5  -5   0   34.99    0.76
   5  -5   0   34.14    0.62
  -5   5   0   34.69    0.75
   4  -5   0    8.24    0.29
   4  -5   0    8.42    0.20
  -4   5   0    8.11    0.29
   3  -5   0    0.04    0.02
   3  -5   0   -0.01    0.04
  -3   5   0    0.00    0.05
   2  -5   0   17.83    0.45
   2  -5   0   18.27    0.29
  -2   5   0   17.47    0.44
   1  -5   0    0.58    0.09
  -1   5   0    0.28    0.07
   0  -5   0   50.93    0.94
   0   5   0   51.54    0.94
  -1  -5   0   14.50    0.23
  -1  -5   0   14.83    0.39
   1   5   0   14.32    0.38
   1   5   0   14.57    0.23
  -2  -5   0    2.65    0.17
   2   5   0    2.72    0.08
   2   5   0    2.54    0.16
  -3  -5   0    0.08    0.08
   3   5   0   -0.01    0.02
   3   5   0   -0.05    0.05
  -4  -5   0   47.79    0.94
   4   5   0   48.46    0.92
   4   5   0   47.87    0.80
  -5  -5   0    1.86    0.19
   5   5   0    2.19    0.17
   5   5   0    2.05    0.12
  -6  -5   0    2.45    0.24
   6   5   0    1.95    0.13
   6   5   0    2.04    0.20
  -7  -5   0   37.84    0.86
  -7  -5   0   37.73    0.85
   7   5   0   38.64    0.75
  -8  -5   0    1.13    0.19
  -8  -5   0    0.86    0.18
   8   5   0    1.03    0.13
  -9  -5   0    1.26    0.23
   9   5   0    1.05    0.14
  10   5   0    3.27    0.23
  11   5   0    6.10    0.32
  -9   6   0    1.63    0.21
   8  -6   0    2.79    0.17
   8  -6   0    2.82    0.22
  -8   6   0    3.04    0.24
   7  -6   0   14.67    0.37
   7  -6   0   14.15    0.47
  -7   6   0   14.52    0.48
   6  -6   0   16.99    0.38
   6  -6   0   16.49    0.51
  -6   6   0   17.16    0.51
   5  -6   0   17.84    0.37
   5  -6   0   17.80    0.51
  -5   6   0   17.47    0.50
   4  -6   0   24.65    0.43
   4  -6   0   24.18    0.61
  -4   6   0   23.83    0.59
   3  -6   0   -0.01    0.02
   3  -6   0    0.07    0.06
  -3   6   0    0.00    0.06
   2  -6   0   49.38    0.97
  -2   6   0   49.71    0.96
   1  -6   0    7.70    0.29
  -1   6   0    7.52    0.29
   0  -6   0   39.73    0.82
   0   6   0   39.98    0.81
  -1  -6   0   17.64    0.47
  -2  -6   0   10.23    0.35
   2   6   0   10.02    0.33
   2   6   0   10.36    0.19
  -3  -6   0    5.95    0.27
   3   6   0    5.63    0.15
   3   6   0    5.76    0.26
  -4  -6   0    0.13    0.12
   4   6   0    0.16    0.09
   4   6   0    0.03    0.03
  -5  -6   0    8.67    0.38
   5   6   0    9.08    0.35
   5   6   0    8.61    0.24
  -6  -6   0   13.95    0.50
   6   6   0   14.33    0.46
   6   6   0   14.35    0.36
  -7  -6   0    0.13    0.15
   7   6   0    0.12    0.12
   7   6   0    0.03    0.06
  -8  -6   0    0.59    0.17
  -8  -6   0    0.29    0.18
   8   6   0    0.46    0.09
  -9  -6   0    7.91    0.44
   9   6   0    8.41    0.32
  10   6   0   -0.13    0.08
  11   6   0   13.93    0.48
  -9   7   0    1.56    0.21
   8  -7   0    0.13    0.09
  -8   7   0   -0.07    0.09
   7  -7   0    0.21    0.09
  -7   7   0    0.18    0.10
   6  -7   0    0.47    0.12
  -6   7   0    0.66    0.15
   5  -7   0   23.74    0.65
  -5   7   0   24.81    0.65
   4  -7   0    0.98    0.14
  -4   7   0    1.16    0.15
   3  -7   0    6.13    0.29
  -3   7   0    6.15    0.28
   2  -7   0   27.13    0.67
  -2   7   0   26.45    0.65
   1  -7   0    2.67    0.19
  -1   7   0    2.73    0.20
   0  -7   0   32.00    0.75
   0   7   0   32.88    0.74
  -1  -7   0    4.53    0.24
   1   7   0    4.81    0.25
  -2  -7   0    1.09    0.15
   2   7   0    1.27    0.16
  -3  -7   0    0.00    0.10
   3   7   0    0.15    0.10
  -4  -7   0    1.50    0.20
   4   7   0    1.22    0.08
   4   7   0    1.01    0.15
  -5  -7   0    1.56    0.22
   5   7   0    1.34    0.11
   5   7   0    1.23    0.17
  -6  -7   0    0.35    0.18
   6   7   0    0.33    0.07
   6   7   0    0.22    0.13
  -7  -7   0    5.88    0.39
   7   7   0    6.52    0.24
   7   7   0    6.61    0.35
  -8  -7   0    5.50    0.34
  -8  -7   0    4.14    0.35
   8   7   0    4.46    0.23
  -9  -7   0    1.53    0.25
   9   7   0    1.21    0.15
  10   7   0    5.64    0.30
  11   7   0    0.52    0.14
  -9   8   0    0.29    0.15
   8  -8   0   17.96    0.62
  -8   8   0   18.34    0.62
   7  -8   0   22.54    0.69
  -7   8   0   22.31    0.68
   6  -8   0   13.77    0.51
  -6   8   0   13.62    0.50
   5  -8   0   12.97    0.48
  -5   8   0   12.24    0.46
   4  -8   0    2.14    0.22
  -4   8   0    2.47    0.22
   3  -8   0   38.60    0.90
  -3   8   0   37.13    0.88
   2  -8   0    8.10    0.35
  -2   8   0    7.89    0.35
   1  -8   0    5.23    0.29
  -1   8   0    4.97    0.27
   0  -8   0   12.26    0.44
   0   8   0   11.98    0.43
  -1  -8   0   36.84    0.86
   1   8   0   36.09    0.84
  -2  -8   0   24.96    0.68
   2   8   0   25.03    0.66
  -3  -8   0    1.24    0.19
   3   8   0    1.04    0.16
  -4  -8   0   11.00    0.46
   4   8   0   11.65    0.44
  -5  -8   0    6.85    0.40
   5   8   0    7.71    0.36
  -6  -8   0   11.79    0.52
   6   8   0   11.22    0.46
  -7  -8   0    1.53    0.27
   7   8   0    1.51    0.22
   8   8   0   -0.13    0.16
  -9  -8   0    2.04    0.28
   8  -9   0    1.29    0.22
  -8   9   0    1.47    0.22
   7  -9   0    2.58    0.28
  -7   9   0    2.02    0.25
   6  -9   0    0.34    0.14
  -6   9   0    0.48    0.14
   5  -9   0    9.29    0.44
  -5   9   0    9.46    0.43
   4  -9   0    0.16    0.11
  -4   9   0    0.14    0.10
   3  -9   0    1.53    0.20
  -3   9   0    1.59    0.20
   2  -9   0    9.02    0.40
  -2   9   0    8.32    0.38
   1  -9   0    2.84    0.23
  -1   9   0    3.04    0.24
   0  -9   0   10.82    0.44
   0   9   0   11.40    0.45
  -1  -9   0    2.82    0.24
   1   9   0    2.99    0.25
  -2  -9   0   18.97    0.63
   2   9   0   18.91    0.60
  -3  -9   0    0.17    0.13
   3   9   0    0.17    0.13
  -4  -9   0    0.48    0.19
   4   9   0    0.67    0.17
  -5  -9   0    0.06    0.19
   5   9   0    0.05    0.13
  -6  -9   0    0.61    0.24
   6   9   0    0.59    0.19
  -7  -9   0    1.42    0.28
   7   9   0    1.29    0.23
   8   9   0    2.05    0.28
  -9  -9   0    0.76    0.19
   7 -10   0    0.00    0.11
  -7  10   0    0.01    0.12
   6 -10   0    1.08    0.20
  -6  10   0    1.19    0.21
   5 -10   0   -0.01    0.11
  -5  10   0    0.34    0.14
   4 -10   0    0.16    0.10
  -4  10   0    0.18    0.13
   3 -10   0    1.94    0.24
  -3  10   0    2.60    0.28
   2 -10   0    6.93    0.38
  -2  10   0    5.82    0.35
   1 -10   0    0.75    0.17
  -1  10   0    0.95    0.19
   0 -10   0    1.37    0.21
   0  10   0    1.87    0.24
  -1 -10   0    0.06    0.13
   1  10   0   -0.08    0.11
  -2 -10   0    0.19    0.14
   2  10   0    0.25    0.15
  -3 -10   0    4.77    0.36
   3  10   0    4.73    0.34
  -4 -10   0    3.20    0.35
   4  10   0    3.53    0.33
  -5 -10   0    1.40    0.29
   5  10   0    1.37    0.24
  -6 -10   0   -0.20    0.22
   6  10   0    0.10    0.16
  -7 -10   0   -0.28    0.25
   7  10   0    0.28    0.19
   8  10   0    2.49    0.32
   6 -11   0    0.66    0.19
  -6  11   0    1.03    0.22
   5 -11   0   -0.11    0.11
  -5  11   0    0.02    0.13
   4 -11   0    3.20    0.34
  -4  11   0    2.58    0.29
   3 -11   0    4.30    0.33
  -3  11   0    4.20    0.33
   2 -11   0   19.50    0.70
  -2  11   0   19.59    0.69
   1 -11   0    5.90    0.40
  -1  11   0    5.50    0.37
   0 -11   0    4.93    0.38
   0  11   0    4.74    0.35
  -1 -11   0    2.20    0.29
   1  11   0    2.47    0.28
  -2 -11   0    3.86    0.38
   2  11   0    3.84    0.32
  -3 -11   0    7.30    0.46
   3  11   0    7.64    0.44
  -4 -11   0    2.34    0.34
   4  11   0    1.66    0.25
  -5 -11   0    3.85    0.44
   5  11   0    3.64    0.37
  -6 -11   0    4.94    0.47
   6  11   0    5.52    0.42
   7  11   0    2.64    0.34
  -4  12   0   -0.13    0.24
   3 -12   0    0.10    0.15
  -3  12   0    0.34    0.16
   2 -12   0    0.19    0.18
  -2  12   0    0.12    0.16
   1 -12   0    6.47    0.45
  -1  12   0    7.31    0.45
   0 -12   0    5.88    0.44
   0  12   0    5.70    0.41
  -1 -12   0   -0.15    0.18
   1  12   0    0.01    0.15
  -2 -12   0    0.95    0.26
   2  12   0    0.77    0.20
  -3 -12   0   -0.17    0.22
   3  12   0    0.04    0.15
  -4 -12   0    1.78    0.33
   4  12   0    2.74    0.35
  -5 -12   0    3.73    0.46
   5  12   0    3.52    0.43
  -6 -12   0   -0.70    0.40
  -4 -12   1   -0.43    0.22
  -3 -12   1   -0.28    0.21
   2  12  -1    0.50    0.22
  -2 -12   1    0.07    0.22
   1  12  -1    1.57    0.29
  -1 -12   1    1.23    0.29
   0  12  -1    0.41    0.20
   0 -12   1    0.59    0.22
  -1  12  -1    4.68    0.40
   1 -12   1    4.31    0.38
  -2  12  -1   18.72    0.71
   2 -12   1   17.98    0.75
   6  11  -1    0.00    0.32
   5  11  -1    0.29    0.20
  -5 -11   1    0.18    0.26
   4  11  -1    3.46    0.36
  -4 -11   1    3.22    0.39
   3  11  -1   11.23    0.55
  -3 -11   1   10.39    0.54
   2  11  -1    0.11    0.14
  -2 -11   1    0.04    0.18
   1  11  -1    0.69    0.21
  -1 -11   1    0.54    0.20
   0  11  -1    6.60    0.43
   0 -11   1    7.33    0.45
  -1  11  -1   41.10    1.08
   1 -11   1   42.97    1.13
  -2  11  -1    0.55    0.19
   2 -11   1    0.73    0.19
  -3  11  -1    1.09    0.21
   3 -11   1    0.75    0.19
  -4  11  -1    2.20    0.28
   4 -11   1    2.39    0.30
  -5  11  -1   -0.02    0.12
   5 -11   1   -0.10    0.10
  -6  11  -1    1.09    0.34
   7  10  -1    8.94    0.52
   6  10  -1    4.40    0.39
  -6 -10   1    4.19    0.43
   5  10  -1    0.10    0.18
  -5 -10   1    0.26    0.23
   4  10  -1    0.01    0.16
  -4 -10   1    0.13    0.20
   3  10  -1    1.92    0.26
  -3 -10   1    2.42    0.31
   2  10  -1    0.84    0.19
  -2 -10   1    0.73    0.19
   1  10  -1    0.99    0.21
  -1 -10   1    1.02    0.21
   0  10  -1    0.13    0.12
   0 -10   1    0.26    0.14
  -1  10  -1   19.25    0.65
   1 -10   1   20.19    0.68
  -2  10  -1   24.56    0.75
   2 -10   1   24.01    0.76
  -3  10  -1    0.33    0.15
   3 -10   1    0.47    0.15
  -4  10  -1    1.11    0.20
   4 -10   1    0.97    0.19
  -5  10  -1    0.27    0.14
   5 -10   1   -0.04    0.09
  -6  10  -1    0.36    0.15
   6 -10   1    0.15    0.13
  -7  10  -1    0.24    0.15
   7 -10   1    0.05    0.12
  -9  -9   1    1.07    0.28
  -8  -9   1    1.56    0.24
   7   9  -1    0.24    0.20
   6   9  -1    1.14    0.22
  -6  -9   1    1.13    0.27
   5   9  -1    0.28    0.17
  -5  -9   1   -0.02    0.19
   4   9  -1    0.86    0.19
  -4  -9   1    0.96    0.22
   3   9  -1    0.01    0.13
  -3  -9   1   -0.06    0.12
   2   9  -1    1.70    0.22
  -2  -9   1    1.85    0.23
   1   9  -1   34.04    0.88
  -1  -9   1   33.84    0.88
   0   9  -1    5.54    0.32
   0  -9   1    6.30    0.34
  -1   9  -1   17.88    0.58
   1  -9   1   17.18    0.59
  -2   9  -1    0.32    0.13
   2  -9   1    0.54    0.14
  -3   9  -1    0.61    0.15
   3  -9   1    0.79    0.16
  -4   9  -1    8.26    0.39
   4  -9   1    7.85    0.40
  -5   9  -1    0.74    0.17
   5  -9   1    0.81    0.17
  -6   9  -1    3.11    0.27
   6  -9   1    3.04    0.31
  -7   9  -1   14.43    0.56
   7  -9   1   13.08    0.56
  -8   9  -1   21.09    0.69
   8  -9   1   19.71    0.71
  -9  -8   1    0.75    0.24
  -8  -8   1    2.08    0.28
   7   8  -1    0.19    0.17
   6   8  -1    0.03    0.13
  -6  -8   1   -0.01    0.19
   5   8  -1    0.00    0.13
  -5  -8   1    0.07    0.16
   4   8  -1    0.72    0.18
  -4  -8   1    0.62    0.16
   3   8  -1    1.92    0.22
  -3  -8   1    1.88    0.22
   2   8  -1   47.31    1.04
  -2  -8   1   45.72    1.03
   1   8  -1   12.96    0.46
  -1  -8   1   13.28    0.47
   0   8  -1   14.50    0.49
   0  -8   1   14.22    0.49
  -1   8  -1   -0.04    0.08
   1  -8   1   -0.05    0.06
  -2   8  -1    2.78    0.22
   2  -8   1    2.62    0.21
  -3   8  -1   -0.01    0.08
   3  -8   1    0.02    0.06
  -4   8  -1    5.68    0.31
   4  -8   1    5.86    0.32
  -5   8  -1    0.41    0.12
   5  -8   1    0.65    0.14
  -6   8  -1    3.67    0.26
   6  -8   1    4.21    0.29
  -7   8  -1    6.91    0.37
   7  -8   1    7.65    0.40
  -8   8  -1    3.36    0.27
   8  -8   1    3.26    0.32
   9  -8   1    2.46    0.28
  -9  -7   1    1.69    0.29
   8   7  -1    0.05    0.08
  -8  -7   1    0.31    0.16
   7   7  -1    6.14    0.25
   7   7  -1    6.57    0.38
  -7  -7   1    5.89    0.54
   6   7  -1   16.61    0.55
   6   7  -1   16.23    0.43
  -6  -7   1   16.46    0.58
   5   7  -1    0.41    0.15
  -5  -7   1    0.10    0.16
   4   7  -1    5.00    0.29
  -4  -7   1    5.10    0.31
   3   7  -1   32.95    0.79
  -3  -7   1   34.59    0.81
   2   7  -1   18.88    0.55
  -2  -7   1   18.33    0.54
   1   7  -1   90.42    1.64
  -1  -7   1   93.00    1.66
   0   7  -1    0.02    0.08
   0  -7   1    0.02    0.07
  -1   7  -1    0.29    0.10
   1  -7   1    0.15    0.07
  -2   7  -1   18.59    0.52
   2  -7   1   18.19    0.53
  -3   7  -1    8.86    0.35
   3  -7   1    9.08    0.36
  -4   7  -1    0.20    0.10
   4  -7   1    0.20    0.09
  -5   7  -1    3.82    0.25
   5  -7   1    4.27    0.26
  -6   7  -1   15.59    0.51
   6  -7   1   15.46    0.53
  -7   7  -1   11.30    0.43
   7  -7   1   10.55    0.44
  -8   7  -1    0.77    0.16
   8  -7   1    0.67    0.15
   9  -7   1    0.97    0.18
  11   6  -1    0.85    0.26
  10   6  -1    0.10    0.10
 -10  -6   1   -0.05    0.34
   9   6  -1    3.80    0.24
  -9  -6   1    3.93    0.38
   8   6  -1    0.88    0.13
  -8  -6   1    0.85    0.20
   7   6  -1    2.73    0.17
  -7  -6   1    3.08    0.25
  -7  -6   1    2.86    0.27
   6   6  -1    9.38    0.40
   6   6  -1    9.32    0.29
  -6  -6   1    9.46    0.41
   5   6  -1   44.42    0.96
   5   6  -1   45.90    0.81
  -5  -6   1   45.76    0.97
   4   6  -1   39.96    0.70
   4   6  -1   40.86    0.88
  -4  -6   1   39.98    0.87
   3   6  -1   11.72    0.26
   3   6  -1   12.01    0.40
  -3  -6   1   11.66    0.39
   2   6  -1    5.18    0.13
   2   6  -1    5.48    0.26
  -2  -6   1    5.32    0.25
   1   6  -1    4.23    0.23
   1   6  -1    4.37    0.10
  -1  -6   1    5.07    0.24
   0   6  -1    3.04    0.20
   0  -6   1    3.15    0.19
  -1   6  -1   26.90    0.63
   1  -6   1   27.14    0.64
  -2   6  -1    0.60    0.12
   2  -6   1    0.71    0.11
  -3   6  -1   36.69    0.80
   3  -6   1   38.58    0.82
   3  -6   1   37.12    0.61
  -4   6  -1   34.67    0.77
   4  -6   1   35.04    0.59
   4  -6   1   35.95    0.81
  -5   6  -1   23.82    0.61
   5  -6   1   23.86    0.46
   5  -6   1   24.61    0.64
  -6   6  -1    0.08    0.08
   6  -6   1    0.10    0.05
   6  -6   1    0.05    0.07
  -7   6  -1    1.40    0.18
   7  -6   1    1.62    0.19
  -8   6  -1    0.42    0.12
   8  -6   1    0.36    0.11
   9  -6   1    5.65    0.32
  11   5  -1    2.80    0.25
  10   5  -1    3.73    0.25
 -10  -5   1    3.10    0.37
   9   5  -1    1.00    0.15
  -9  -5   1    0.81    0.24
   8   5  -1    1.67    0.17
  -8  -5   1    1.63    0.25
   7   5  -1    0.21    0.07
  -7  -5   1    0.33    0.16
  -7  -5   1    0.33    0.15
   6   5  -1   11.09    0.32
   6   5  -1   11.61    0.41
  -6  -5   1   11.75    0.43
   5   5  -1    4.62    0.26
   5   5  -1    4.37    0.18
  -5  -5   1    4.89    0.27
   4   5  -1    8.82    0.33
   4   5  -1    8.38    0.23
  -4  -5   1    8.32    0.32
   3   5  -1    6.75    0.18
   3   5  -1    6.82    0.28
  -3  -5   1    6.65    0.27
   2   5  -1    0.83    0.12
   2   5  -1    1.16    0.06
  -2  -5   1    1.00    0.11
   1   5  -1   45.58    0.87
   1   5  -1   45.76    0.69
  -1  -5   1   44.21    0.87
   0   5  -1   73.80    1.29
   0  -5   1   74.86    1.30
   1  -5   1   28.40    0.62
  -2   5  -1   24.10    0.55
   2  -5   1   23.33    0.37
   2  -5   1   23.67    0.56
  -3   5  -1   30.07    0.65
   3  -5   1   31.01    0.50
   3  -5   1   31.17    0.68
  -4   5  -1    3.34    0.19
   4  -5   1    2.79    0.11
   4  -5   1    2.60    0.17
  -5   5  -1   24.91    0.59
  -5   5  -1   24.61    0.64
   5  -5   1   25.27    0.48
  -6   5  -1   38.29    0.82
  -6   5  -1   37.96    0.88
   6  -5   1   38.82    0.70
  -7   5  -1    0.10    0.08
  -7   5  -1   -0.01    0.10
   7  -5   1    0.04    0.05
  -8   5  -1   24.40    0.70
  -8   5  -1   23.90    0.63
   8  -5   1   24.97    0.55
  -9   5  -1    0.27    0.14
  -9   5  -1    0.15    0.12
   9  -5   1    0.05    0.07
  10  -5   1   16.80    0.48
  11   4  -1    3.81    0.27
  10   4  -1    7.50    0.33
 -10  -4   1    5.93    0.46
   9   4  -1    0.05    0.08
  -9  -4   1   -0.10    0.17
   8   4  -1    0.89    0.12
  -8  -4   1    0.89    0.20
   7   4  -1    1.68    0.15
  -7  -4   1    1.83    0.19
  -7  -4   1    1.37    0.20
   6   4  -1   23.87    0.51
  -6  -4   1   24.21    0.59
  -6  -4   1   24.10    0.63
   5   4  -1   13.51    0.32
   5   4  -1   13.06    0.40
  -5  -4   1   13.10    0.40
   4   4  -1   49.36    0.83
   4   4  -1   49.68    0.94
  -4  -4   1   49.28    0.92
   3   4  -1   17.31    0.34
  -3  -4   1   17.32    0.42
   2   4  -1   27.64    0.47
   2   4  -1   27.08    0.58
  -2  -4   1   28.28    0.57
   1   4  -1   26.37    0.55
   1   4  -1   25.74    0.42
  -1  -4   1   26.52    0.55
   0   4  -1   18.15    0.29
   0   4  -1   18.90    0.43
   0  -4   1   18.10    0.29
   0  -4   1   18.10    0.42
  -1   4  -1    0.25    0.07
   1  -4   1    0.32    0.02
   1  -4   1    0.34    0.06
   1  -4   1    0.30    0.02
  -2   4  -1   44.46    0.82
   2  -4   1   44.84    0.69
   2  -4   1   45.99    0.85
  -3   4  -1    5.87    0.21
  -3   4  -1    5.44    0.24
   3  -4   1    5.57    0.14
  -4   4  -1    1.31    0.14
  -4   4  -1    1.46    0.12
   4  -4   1    1.33    0.08
  -5   4  -1    3.01    0.18
  -5   4  -1    2.87    0.20
   5  -4   1    2.87    0.13
  -6   4  -1   43.43    0.87
  -6   4  -1   45.32    0.94
   6  -4   1   44.33    0.79
  -7   4  -1   44.58    0.91
  -7   4  -1   46.29    0.98
   7  -4   1   45.37    0.84
  -8   4  -1   23.93    0.66
  -8   4  -1   23.74    0.60
   8  -4   1   23.83    0.54
  -9   4  -1    0.18    0.12
  -9   4  -1    0.28    0.10
   9  -4   1    0.05    0.07
 -10   4  -1    1.41    0.21
  10  -4   1    1.63    0.18
  11  -4   1    5.67    0.30
  12  -4   1   11.07    0.42
  11   3  -1    0.32    0.13
  10   3  -1    0.02    0.09
 -10  -3   1   -0.14    0.20
   9   3  -1    4.85    0.25
  -9  -3   1    5.03    0.39
   8   3  -1    4.70    0.23
  -8  -3   1    4.35    0.32
   7   3  -1    1.48    0.14
  -7  -3   1    1.53    0.16
  -7  -3   1    1.40    0.19
   6   3  -1   31.50    0.63
  -6  -3   1   31.44    0.73
  -6  -3   1   31.88    0.66
   5   3  -1    2.71    0.14
  -5  -3   1    2.67    0.19
  -5  -3   1    3.06    0.20
   4   3  -1   27.98    0.52
   4   3  -1   27.90    0.59
  -4  -3   1   26.63    0.56
   3   3  -1   10.82    0.24
   3   3  -1   10.93    0.31
  -3  -3   1   11.03    0.29
   2   3  -1   12.48    0.32
   2   3  -1   12.41    0.25
  -2  -3   1   12.17    0.30
   1   3  -1    2.00    0.06
  -1  -3   1    2.00    0.11
   0   3  -1   66.31    1.12
   0   3  -1   69.41    1.01
   0  -3   1   69.25    1.12
  -1   3  -1  225.64    3.74
   1  -3   1  222.04    3.65
   1  -3   1  219.59    3.35
   1  -3   1  228.51    3.65
  -2   3  -1   34.29    0.65
  -2   3  -1   33.74    0.62
   2  -3   1   33.07    0.53
  -3   3  -1   33.30    0.62
  -3   3  -1   33.11    0.66
   3  -3   1   33.15    0.55
  -4   3  -1    8.41    0.28
  -4   3  -1    8.13    0.25
   4  -3   1    7.98    0.20
  -5   3  -1   28.65    0.59
  -5   3  -1   28.60    0.64
   5  -3   1   29.13    0.54
  -6   3  -1    4.96    0.25
  -6   3  -1    5.60    0.23
   6  -3   1    5.08    0.19
  -7   3  -1    4.98    0.26
  -7   3  -1    5.08    0.23
   7  -3   1    5.12    0.20
  -8   3  -1    4.88    0.25
  -8   3  -1    5.48    0.29
   8  -3   1    4.68    0.22
  -9   3  -1    2.46    0.24
  -9   3  -1    2.32    0.20
   9  -3   1    1.88    0.17
 -10   3  -1    0.41    0.14
  10  -3   1    0.83    0.14
  11  -3   1    1.39    0.18
  12  -3   1    0.08    0.11
  11   2  -1    0.40    0.13
  10   2  -1    0.25    0.10
 -10  -2   1    0.18    0.21
   9   2  -1    3.31    0.21
  -9  -2   1    3.68    0.34
   8   2  -1    7.44    0.29
  -8  -2   1    8.79    0.40
   7   2  -1   10.80    0.33
  -7  -2   1   11.12    0.42
  -7  -2   1   11.35    0.33
   6   2  -1   91.51    1.50
  -6  -2   1   92.12    1.50
  -6  -2   1   92.25    1.60
   5   2  -1    3.15    0.14
  -5  -2   1    3.05    0.17
  -5  -2   1    3.19    0.19
   4   2  -1   94.30    1.51
  -4  -2   1   99.46    1.53
  -4  -2   1   96.56    1.59
   3   2  -1   26.67    0.48
   3   2  -1   27.55    0.54
  -3  -2   1   27.53    0.51
   2   2  -1    0.07    0.02
   2   2  -1    0.12    0.05
  -2  -2   1    0.09    0.04
   1   2  -1  328.07    5.31
   1   2  -1  329.01    4.96
  -1  -2   1  332.70    5.22
   0   2  -1  174.51    2.83
   0   2  -1  170.12    2.59
   0  -2   1  174.01    2.59
   0  -2   1  172.39    2.74
  -1   2  -1   44.09    0.74
  -1   2  -1   43.04    0.72
   1  -2   1   42.74    0.66
   1  -2   1   43.40    0.65
  -2   2  -1    2.71    0.11
   2  -2   1    2.76    0.08
  -3   2  -1    8.83    0.25
  -3   2  -1    8.58    0.22
   3  -2   1    8.60    0.19
  -4   2  -1   18.47    0.43
  -4   2  -1   18.08    0.39
   4  -2   1   18.06    0.36
  -5   2  -1    0.96    0.12
  -5   2  -1    0.98    0.10
   5  -2   1    0.87    0.08
  -6   2  -1    5.03    0.21
  -6   2  -1    5.35    0.24
   6  -2   1    5.35    0.19
  -7   2  -1    5.27    0.23
  -7   2  -1    5.34    0.26
   7  -2   1    5.57    0.22
  -8   2  -1    8.17    0.31
  -8   2  -1    8.47    0.34
   8  -2   1    8.39    0.29
  -9   2  -1    5.71    0.30
  -9   2  -1    6.71    0.29
   9  -2   1    5.62    0.25
 -10   2  -1    2.00    0.22
  10  -2   1    2.10    0.20
  11  -2   1    0.26    0.11
  12  -2   1    5.51    0.32
  11   1  -1    2.42    0.23
  10   1  -1    0.85    0.13
 -10  -1   1    0.87    0.24
   9   1  -1   -0.01    0.07
  -9  -1   1   -0.18    0.16
   8   1  -1    0.47    0.10
  -8  -1   1    0.12    0.16
   7   1  -1   40.61    0.79
  -7  -1   1   42.07    0.89
  -7  -1   1   40.24    0.76
   6   1  -1   14.42    0.36
  -6  -1   1   14.93    0.35
  -6  -1   1   14.50    0.44
   5   1  -1    0.27    0.06
  -5  -1   1    0.37    0.07
  -5  -1   1    0.30    0.10
   4   1  -1    0.45    0.06
  -4  -1   1    0.54    0.08
  -4  -1   1    0.44    0.09
   3   1  -1   73.92    1.15
  -3  -1   1   73.67    1.21
  -3  -1   1   73.80    1.14
   2   1  -1    0.53    0.05
  -2  -1   1    0.50    0.05
   1   1  -1  892.02   17.14
   1   1  -1  935.17   16.24
  -1  -1   1  918.93   16.38
   0   1  -1   79.73    1.26
   0   1  -1   82.57    1.32
   0   1  -1   80.32    1.23
   0  -1   1   82.76    1.26
  -1   1  -1  296.53    4.59
  -1   1  -1  293.05    4.75
   1  -1   1  302.65    4.48
   1  -1   1  295.26    6.04
  -2   1  -1   46.44    0.77
  -2   1  -1   46.21    0.73
   2  -1   1   47.08    0.72
  -3   1  -1    4.54    0.13
  -3   1  -1    4.09    0.15
   3  -1   1    4.38    0.12
  -4   1  -1   13.00    0.30
  -4   1  -1   13.40    0.33
  -5   1  -1   19.99    0.45
  -5   1  -1   19.50    0.42
   5  -1   1   19.48    0.40
  -6   1  -1   22.28    0.51
  -6   1  -1   21.74    0.48
   6  -1   1   22.77    0.47
  -7   1  -1   45.18    0.89
  -7   1  -1   45.60    0.86
   7  -1   1   45.96    0.84
  -8   1  -1  112.16    1.90
  -8   1  -1  113.71    1.86
   8  -1   1  111.68    1.84
  -9   1  -1    7.97    0.34
  -9   1  -1    7.69    0.32
   9  -1   1    8.08    0.30
 -10   1  -1    2.10    0.26
  10  -1   1    2.32    0.20
  11  -1   1    0.03    0.10
  12  -1   1    1.72    0.21
  11   0  -1    1.11    0.16
  10   0  -1    0.05    0.09
 -10   0   1    0.16    0.18
   9   0  -1    1.61    0.17
  -9   0   1    2.01    0.25
   8   0  -1    1.31    0.14
  -8   0   1    1.74    0.23
   7   0  -1   13.76    0.38
  -7   0   1   14.01    0.36
  -7   0   1   15.08    0.48
   6   0  -1    3.08    0.16
  -6   0   1    3.40    0.24
  -6   0   1    3.16    0.15
   5   0  -1   44.47    0.78
  -5   0   1   44.08    0.76
  -5   0   1   44.76    0.86
   4   0  -1   89.55    1.38
  -4   0   1   88.89    1.36
  -4   0   1   86.65    1.45
   3   0  -1  134.36    2.09
  -3   0   1  132.82    1.98
  -3   0   1  135.37    2.07
   2   0  -1    0.46    0.04
   2   0  -1    0.44    0.04
  -2   0   1    0.44    0.07
  -2   0   1    0.44    0.04
   1   0  -1   57.01    0.85
   1   0  -1   54.94    0.86
  -1   0   1   57.97    0.86
  -1   0   1   57.34    0.89
   0   0  -1   21.88    0.34
   0   0  -1   22.10    0.35
   0   0  -1   22.30    0.34
   0   0   1   21.72    0.34
   0   0   1   21.93    0.34
  -1   0  -1  417.55    6.16
  -1   0  -1  412.72    6.82
  -1   0  -1  396.44    6.24
   1   0   1  415.83    7.92
   1   0   1  415.12    6.86
  -2   0  -1   47.87    0.73
  -2   0  -1   46.75    0.76
   2   0   1   46.16    0.73
   2   0   1   47.79    0.71
  -3   0  -1  171.88    2.77
  -3   0  -1  166.64    2.71
   3   0   1  176.73    2.73
  -4   0  -1    0.06    0.06
  -4   0  -1    0.01    0.05
   4   0   1    0.05    0.03
  -5   0  -1   -0.03    0.05
  -5   0  -1    0.10    0.07
   5   0   1    0.00    0.04
  -6   0  -1    0.50    0.09
  -6   0  -1    0.53    0.10
   6   0   1    0.32    0.06
  -7   0  -1   63.49    1.15
  -7   0  -1   66.41    1.18
   7   0   1   66.01    1.13
  -8   0  -1    0.80    0.13
  -8   0  -1    0.54    0.13
   8   0   1    0.65    0.10
  -9   0  -1    0.48    0.12
  -9   0  -1    0.50    0.14
   9   0   1    0.21    0.09
  10   0   1    8.66    0.34
  11   0   1    5.56    0.30
  12   0   1    0.52    0.14
  11  -1  -1    2.66    0.25
  10  -1  -1    1.24    0.16
 -10   1   1    1.19    0.22
   9  -1  -1    9.79    0.35
  -9   1   1    9.24    0.42
   8  -1  -1    8.96    0.31
  -8   1   1    8.31    0.38
   7  -1  -1    0.17    0.07
  -7   1   1    0.13    0.13
  -7   1   1    0.14    0.07
   6  -1  -1    7.22    0.24
  -6   1   1    7.29    0.31
  -6   1   1    7.77    0.24
   5  -1  -1    8.27    0.23
  -5   1   1    8.36    0.23
  -5   1   1    7.89    0.30
   4  -1  -1  130.61    1.96
  -4   1   1  128.82    1.95
  -4   1   1  126.71    2.03
   3  -1  -1   30.88    0.54
  -3   1   1   32.28    0.54
  -3   1   1   32.42    0.61
   2  -1  -1   20.90    0.36
  -2   1   1   20.71    0.35
  -2   1   1   21.62    0.42
   1  -1  -1  193.54    2.98
   1  -1  -1  193.57    2.97
   1  -1  -1  197.62    2.98
   0  -1  -1  312.16    6.13
   0  -1  -1  331.27    4.81
   0  -1  -1  304.11    4.71
   0   1   1  293.56    4.71
   0   1   1  315.54    4.64
   0   1   1  326.71    4.79
  -1  -1  -1   77.63    1.21
  -1  -1  -1   76.86    1.15
  -1  -1  -1   76.04    1.22
   1   1   1   78.88    1.21
   1   1   1   76.74    1.22
  -2  -1  -1  164.32    2.49
  -2  -1  -1  160.65    2.62
   2   1   1  167.37    2.52
   2   1   1  160.15    2.50
  -3  -1  -1   44.56    0.71
  -3  -1  -1   46.09    0.76
   3   1   1   43.30    0.71
  -4  -1  -1   12.25    0.28
  -4  -1  -1   12.09    0.30
   4   1   1   12.14    0.27
  -5  -1  -1    2.93    0.15
  -5  -1  -1    3.10    0.17
   5   1   1    3.00    0.13
  -6  -1  -1    0.29    0.09
  -6  -1  -1    0.22    0.09
   6   1   1    0.13    0.05
  -7  -1  -1    0.60    0.13
  -7  -1  -1    1.19    0.14
   7   1   1    0.66    0.10
  -8  -1  -1    5.55    0.28
  -8  -1  -1    5.53    0.26
   8   1   1    5.87    0.24
  -9  -1  -1    0.27    0.11
  -9  -1  -1    0.19    0.14
   9   1   1    0.25    0.09
  10   1   1    1.89    0.19
  11   1   1    0.79    0.15
  12   1   1    0.38    0.12
  11  -2  -1   14.15    0.48
  10  -2  -1    0.12    0.09
 -10   2   1    0.24    0.15
   9  -2  -1    5.28    0.26
  -9   2   1    5.18    0.32
   8  -2  -1    1.43    0.15
  -8   2   1    1.67    0.21
   7  -2  -1    1.84    0.13
  -7   2   1    1.89    0.21
  -7   2   1    1.97    0.15
   6  -2  -1    8.07    0.25
  -6   2   1    7.60    0.32
  -6   2   1    7.76    0.26
   5  -2  -1   11.26    0.28
  -5   2   1   10.48    0.35
  -5   2   1   11.38    0.30
   4  -2  -1   32.63    0.58
  -4   2   1   31.66    0.65
  -4   2   1   32.72    0.59
   3  -2  -1   10.73    0.23
  -3   2   1   10.65    0.30
  -3   2   1   10.91    0.25
   2  -2  -1    0.59    0.04
  -2   2   1    0.55    0.08
  -2   2   1    0.71    0.06
   1  -2  -1    2.26    0.08
   1  -2  -1    2.42    0.07
   0  -2  -1   18.55    0.29
   0   2   1   18.02    0.33
   0   2   1   18.32    0.28
  -1  -2  -1  544.92    8.39
  -1  -2  -1  540.23    9.97
   1   2   1  539.71    9.67
   1   2   1  562.11    8.24
  -2  -2  -1   77.15    1.20
   2   2   1   74.11    1.13
   2   2   1   75.56    1.15
  -3  -2  -1    2.21    0.14
   3   2   1    2.20    0.09
   3   2   1    2.31    0.09
  -4  -2  -1   12.05    0.32
  -4  -2  -1   11.76    0.27
   4   2   1   11.55    0.26
  -5  -2  -1   43.18    0.76
  -5  -2  -1   41.92    0.80
   5   2   1   42.68    0.74
  -6  -2  -1   33.88    0.70
  -6  -2  -1   34.68    0.68
   6   2   1   34.48    0.65
  -7  -2  -1   63.50    1.16
  -7  -2  -1   63.60    1.14
   7   2   1   64.68    1.12
  -8  -2  -1   44.29    0.89
  -8  -2  -1   43.89    0.89
   8   2   1   42.51    0.84
  -9  -2  -1    0.01    0.13
  -9  -2  -1   -0.04    0.09
   9   2   1    0.03    0.07
  10   2   1    1.98    0.20
  11   2   1    0.72    0.15
  12   2   1    0.20    0.11
  11  -3  -1    0.06    0.10
  10  -3  -1    8.85    0.35
 -10   3   1    8.91    0.41
   9  -3  -1    0.25    0.08
  -9   3   1    0.38    0.14
   8  -3  -1   23.28    0.55
  -8   3   1   23.83    0.59
  -8   3   1   23.52    0.64
   7  -3  -1   14.82    0.39
  -7   3   1   14.96    0.42
  -7   3   1   14.95    0.47
   6  -3  -1   16.15    0.38
  -6   3   1   15.97    0.42
  -6   3   1   15.91    0.46
   5  -3  -1    0.14    0.05
  -5   3   1   -0.01    0.07
  -5   3   1    0.08    0.06
   4  -3  -1    2.11    0.10
  -4   3   1    1.98    0.13
  -4   3   1    2.23    0.16
   3  -3  -1    0.13    0.03
  -3   3   1    0.08    0.06
   2  -3  -1  144.37    2.28
   2  -3  -1  146.79    2.30
  -2   3   1  145.41    2.22
   1  -3  -1   37.52    0.65
   1  -3  -1   37.78    0.57
   0  -3  -1    4.56    0.15
   0  -3  -1    4.53    0.08
   0   3   1    4.47    0.08
  -1  -3  -1  228.26    3.60
  -1  -3  -1  243.38    3.91
   1   3   1  239.99    3.87
   1   3   1  245.53    3.57
  -2  -3  -1    1.85    0.12
   2   3   1    1.79    0.06
   2   3   1    1.74    0.09
  -3  -3  -1    8.89    0.27
   3   3   1    8.91    0.20
   3   3   1    9.25    0.23
  -4  -3  -1    2.11    0.16
   4   3   1    2.57    0.11
   4   3   1    2.06    0.12
  -5  -3  -1   15.88    0.42
   5   3   1   15.51    0.36
   5   3   1   15.39    0.34
  -6  -3  -1    3.10    0.18
  -6  -3  -1    3.25    0.22
   6   3   1    3.25    0.15
  -7  -3  -1   75.45    1.36
  -7  -3  -1   75.62    1.34
   7   3   1   78.09    1.30
  -8  -3  -1    9.15    0.36
  -8  -3  -1    9.14    0.36
   8   3   1    8.60    0.30
  -9  -3  -1    8.68    0.36
  -9  -3  -1    8.02    0.36
   9   3   1    7.88    0.30
  10   3   1    0.34    0.10
  11   3   1    5.29    0.30
  12   3   1    0.09    0.12
  11  -4  -1    5.94    0.32
  10  -4  -1    0.20    0.10
 -10   4   1    0.36    0.13
   9  -4  -1    0.02    0.07
  -9   4   1    0.12    0.11
   8  -4  -1    6.84    0.26
  -8   4   1    6.79    0.33
   7  -4  -1   13.95    0.37
  -7   4   1   14.00    0.43
  -7   4   1   14.05    0.45
   6  -4  -1   19.66    0.44
  -6   4   1   19.70    0.53
  -6   4   1   19.46    0.50
   5  -4  -1    2.67    0.15
   5  -4  -1    2.80    0.13
  -5   4   1    2.72    0.19
   4  -4  -1    0.05    0.04
   4  -4  -1    0.04    0.03
  -4   4   1    0.07    0.07
   3  -4  -1   97.26    1.47
   3  -4  -1   97.98    1.58
  -3   4   1   96.87    1.59
   2  -4  -1    1.10    0.06
   2  -4  -1    1.54    0.10
  -2   4   1    1.25    0.11
   1  -4  -1   90.28    1.45
   1  -4  -1   91.42    1.34
  -1   4   1   87.45    1.44
   0  -4  -1  324.71    5.29
   0   4   1  325.64    5.39
  -1  -4  -1   87.77    1.42
   1   4   1   90.72    1.29
   1   4   1   87.09    1.29
   1   4   1   83.92    1.39
  -2  -4  -1    4.56    0.19
   2   4   1    4.37    0.11
  -3  -4  -1  107.30    1.72
   3   4   1  105.52    1.68
   3   4   1  106.84    1.60
  -4  -4  -1    2.69    0.18
   4   4   1    2.58    0.14
   4   4   1    2.50    0.11
  -5  -4  -1   14.76    0.43
   5   4   1   14.96    0.37
   5   4   1   14.67    0.33
  -6  -4  -1    0.90    0.16
   6   4   1    0.69    0.11
   6   4   1    0.55    0.08
  -7  -4  -1    1.09    0.15
  -7  -4  -1    0.87    0.17
   7   4   1    0.77    0.10
  -8  -4  -1   85.34    1.53
  -8  -4  -1   85.62    1.56
   8   4   1   86.59    1.47
  -9  -4  -1    6.34    0.34
  -9  -4  -1    6.79    0.35
   9   4   1    6.67    0.28
  10   4   1    2.80    0.21
  11   4   1    0.63    0.14
  12   4   1    0.10    0.11
  11  -5  -1    0.09    0.11
  10  -5  -1    7.59    0.32
 -10   5   1    6.84    0.41
   9  -5  -1    3.55    0.21
  -9   5   1    3.83    0.28
   8  -5  -1    3.45    0.19
   8  -5  -1    3.47    0.36
  -8   5   1    3.39    0.26
   7  -5  -1   22.67    0.51
   7  -5  -1   22.41    0.57
  -7   5   1   22.35    0.61
   6  -5  -1    1.10    0.13
  -6   5   1    1.27    0.17
   5  -5  -1    7.71    0.22
   5  -5  -1    7.88    0.29
  -5   5   1    7.75    0.31
   4  -5  -1    6.37    0.25
   4  -5  -1    6.66    0.18
  -4   5   1    6.33    0.26
   3  -5  -1   41.17    0.81
   3  -5  -1   43.44    0.69
  -3   5   1   42.34    0.83
   2  -5  -1   16.05    0.41
   2  -5  -1   16.36    0.28
  -2   5   1   16.25    0.41
   1  -5  -1    0.48    0.08
   1  -5  -1    0.54    0.03
  -1   5   1    0.59    0.08
  -1   5   1    0.54    0.03
   0  -5  -1   39.47    0.77
   0   5   1   40.65    0.76
   1   5   1   17.12    0.41
   1   5   1   17.32    0.27
   1   5   1   17.60    0.27
  -2  -5  -1   56.83    1.03
   2   5   1   57.73    1.01
   2   5   1   55.94    0.86
  -3  -5  -1   10.69    0.34
   3   5   1   10.58    0.22
   3   5   1   10.62    0.31
  -4  -5  -1  107.69    1.80
   4   5   1  107.70    1.75
   4   5   1  106.71    1.64
  -5  -5  -1    3.99    0.26
   5   5   1    4.27    0.16
   5   5   1    3.72    0.20
  -6  -5  -1    8.49    0.37
   6   5   1    8.87    0.31
   6   5   1    8.61    0.26
  -7  -5  -1    4.92    0.26
  -7  -5  -1    5.05    0.31
   7   5   1    5.27    0.21
  -8  -5  -1    0.01    0.14
  -8  -5  -1    0.17    0.12
   8   5   1    0.05    0.06
  -9  -5  -1    0.01    0.14
  -9  -5  -1    0.29    0.15
   9   5   1    0.05    0.08
  10   5   1    0.54    0.12
  11   5   1    0.58    0.14
  12   5   1    2.39    0.25
   9  -6  -1    1.26    0.15
  -9   6   1    1.44    0.21
   8  -6  -1    0.43    0.10
   8  -6  -1    0.35    0.12
  -8   6   1    0.71    0.16
   7  -6  -1   15.22    0.39
   7  -6  -1   14.05    0.46
  -7   6   1   14.53    0.49
   6  -6  -1   10.47    0.37
   6  -6  -1   10.57    0.29
  -6   6   1    9.45    0.38
   5  -6  -1    0.99    0.09
   5  -6  -1    1.02    0.13
  -5   6   1    0.78    0.13
   4  -6  -1   20.73    0.39
   4  -6  -1   19.62    0.52
  -4   6   1   20.82    0.54
   3  -6  -1   14.91    0.28
   3  -6  -1   14.14    0.41
  -3   6   1   14.10    0.42
   2  -6  -1   11.31    0.20
  -2   6   1   11.21    0.35
   1  -6  -1  122.35    1.97
  -1   6   1  115.64    1.95
   0  -6  -1    6.97    0.26
   0   6   1    6.34    0.25
  -1  -6  -1    0.62    0.10
   1   6   1    0.74    0.11
  -2  -6  -1    1.63    0.16
   2   6   1    1.72    0.06
   2   6   1    1.53    0.14
  -3  -6  -1   51.89    1.01
   3   6   1   52.38    0.98
   3   6   1   51.17    0.82
  -4  -6  -1    0.43    0.12
   4   6   1    0.19    0.08
   4   6   1    0.22    0.04
  -5  -6  -1   15.69    0.50
   5   6   1   15.28    0.34
   5   6   1   15.47    0.44
  -6  -6  -1   26.42    0.70
   6   6   1   25.81    0.62
   6   6   1   26.34    0.53
  -7  -6  -1    0.98    0.20
   7   6   1    0.97    0.11
   7   6   1    0.93    0.16
  -8  -6  -1   10.89    0.47
  -8  -6  -1   11.18    0.42
   8   6   1   10.42    0.34
  -9  -6  -1    3.52    0.29
  -9  -6  -1    4.45    0.34
   9   6   1    4.32    0.23
  10   6   1    0.27    0.10
  11   6   1    1.70    0.20
  -9   7   1    5.64    0.35
   8  -7  -1    6.82    0.51
  -8   7   1    6.96    0.37
   7  -7  -1    0.10    0.08
  -7   7   1    0.12    0.11
   6  -7  -1    0.06    0.08
  -6   7   1    0.00    0.09
   5  -7  -1   -0.03    0.06
  -5   7   1    0.05    0.09
   4  -7  -1    1.98    0.20
  -4   7   1    1.77    0.18
   3  -7  -1    2.50    0.18
  -3   7   1    2.43    0.20
   2  -7  -1   64.91    1.23
  -2   7   1   64.67    1.23
   1  -7  -1    3.75    0.22
  -1   7   1    3.99    0.22
   0  -7  -1   96.89    1.69
   0   7   1   95.22    1.66
  -1  -7  -1   14.74    0.45
   1   7   1   14.65    0.44
  -2  -7  -1    1.65    0.18
   2   7   1    1.89    0.18
  -3  -7  -1    1.49    0.18
   3   7   1    1.44    0.16
   3   7   1    1.37    0.07
  -4  -7  -1    6.17    0.33
   4   7   1    6.14    0.17
   4   7   1    5.39    0.27
  -5  -7  -1   24.46    0.68
   5   7   1   25.82    0.49
   5   7   1   24.24    0.62
  -6  -7  -1    0.23    0.18
   6   7   1    0.58    0.08
   6   7   1    0.30    0.12
  -7  -7  -1    2.19    0.27
   7   7   1    2.48    0.16
   7   7   1    2.55    0.23
  -8  -7  -1    1.94    0.22
  -8  -7  -1    1.39    0.25
   8   7   1    1.59    0.15
  -9  -7  -1    3.16    0.32
  -9  -7  -1    3.31    0.34
   9   7   1    3.44    0.21
  10   7   1    0.77    0.14
  11   7   1    0.22    0.11
  -9   8   1    0.63    0.17
  -8   8   1    1.22    0.20
   7  -8  -1   -0.02    0.07
  -7   8   1    0.25    0.12
   6  -8  -1    0.87    0.16
  -6   8   1    0.58    0.14
   5  -8  -1    0.06    0.07
  -5   8   1    0.15    0.10
   4  -8  -1    8.43    0.37
  -4   8   1    8.62    0.37
   3  -8  -1    0.06    0.07
  -3   8   1   -0.05    0.07
   2  -8  -1    1.56    0.19
  -2   8   1    1.52    0.18
   1  -8  -1   67.49    1.32
  -1   8   1   67.79    1.30
   0  -8  -1    4.19    0.25
   0   8   1    4.31    0.25
  -1  -8  -1    5.36    0.29
   1   8   1    5.56    0.28
  -2  -8  -1    2.29    0.23
   2   8   1    2.24    0.21
  -3  -8  -1    9.72    0.40
   3   8   1    9.25    0.37
  -4  -8  -1    0.24    0.14
   4   8   1    0.21    0.11
  -5  -8  -1   14.11    0.54
   5   8   1   13.86    0.47
  -6  -8  -1    0.26    0.20
   6   8   1    0.34    0.13
  -7  -8  -1    0.09    0.21
   7   8   1    0.23    0.13
  -8  -8  -1   -0.16    0.20
   8   8   1   -0.15    0.13
  -9   9   1    6.06    0.39
  -8   9   1    2.50    0.28
   7  -9  -1    0.26    0.13
  -7   9   1    0.33    0.14
   6  -9  -1    0.07    0.10
  -6   9   1    0.08    0.12
   5  -9  -1    0.57    0.15
  -5   9   1    0.65    0.16
   4  -9  -1   17.26    0.58
  -4   9   1   17.31    0.58
   3  -9  -1    1.67    0.20
  -3   9   1    1.52    0.20
   2  -9  -1    0.53    0.14
  -2   9   1    0.45    0.12
   1  -9  -1    0.16    0.09
  -1   9   1    0.34    0.12
   0  -9  -1    0.37    0.12
   0   9   1    0.13    0.11
  -1  -9  -1    2.58    0.25
   1   9   1    2.78    0.23
  -2  -9  -1    0.14    0.13
   2   9   1    0.09    0.09
  -3  -9  -1    0.49    0.17
   3   9   1    0.49    0.14
  -4  -9  -1    0.18    0.17
   4   9   1    0.28    0.13
  -5  -9  -1    2.51    0.31
   5   9   1    2.76    0.24
  -6  -9  -1    3.21    0.35
   6   9   1    2.96    0.28
  -7  -9  -1   -0.20    0.21
   7   9   1   -0.27    0.12
  -8  -9  -1    0.14    0.24
   8   9   1   -0.42    0.14
   7 -10  -1    0.08    0.12
  -7  10   1    0.09    0.12
   6 -10  -1    1.61    0.23
  -6  10   1    1.58    0.23
   5 -10  -1    6.04    0.37
  -5  10   1    5.99    0.37
   4 -10  -1    1.45    0.22
  -4  10   1    1.44    0.22
   3 -10  -1   34.24    0.91
  -3  10   1   32.92    0.88
   2 -10  -1    7.54    0.40
  -2  10   1    7.46    0.38
   1 -10  -1    3.05    0.30
  -1  10   1    3.51    0.28
   0 -10  -1    1.93    0.24
   0  10   1    1.58    0.21
  -1 -10  -1    0.14    0.12
   1  10   1    0.06    0.11
  -2 -10  -1    0.21    0.14
   2  10   1    0.40    0.13
  -3 -10  -1    2.35    0.28
   3  10   1    2.86    0.25
  -4 -10  -1    9.53    0.50
   4  10   1    9.00    0.42
  -5 -10  -1    2.31    0.31
   5  10   1    2.49    0.27
  -6 -10  -1    8.55    0.50
   6  10   1    8.17    0.43
  -7 -10  -1    5.95    0.50
   7  10   1    6.30    0.40
  -8 -10  -1    1.37    0.32
   6 -11  -1    0.57    0.19
  -6  11   1    0.63    0.18
   5 -11  -1    0.16    0.13
  -5  11   1    0.11    0.14
   4 -11  -1    8.73    0.46
  -4  11   1    9.26    0.47
   3 -11  -1    0.20    0.14
  -3  11   1    0.12    0.12
   2 -11  -1    2.36    0.29
  -2  11   1    3.21    0.32
   1 -11  -1    0.17    0.13
  -1  11   1    0.37    0.15
   0 -11  -1    0.18    0.15
   0  11   1    0.11    0.12
  -1 -11  -1    0.03    0.15
   1  11   1   -0.02    0.12
  -2 -11  -1    2.87    0.32
   2  11   1    3.08    0.28
  -3 -11  -1    9.10    0.49
   3  11   1    9.34    0.46
  -4 -11  -1    0.92    0.25
   4  11   1    1.14    0.21
  -5 -11  -1    1.54    0.33
   5  11   1    1.50    0.25
  -6 -11  -1    1.25    0.33
   6  11   1    1.03    0.23
  -7 -11  -1   -0.23    0.27
   7  11   1   -0.03    0.18
  -8 -11  -1    2.46    0.50
   8  11   1    3.15    0.35
   4 -12  -1    0.42    0.18
  -4  12   1    0.63    0.20
   3 -12  -1    1.17    0.23
  -3  12   1    1.03    0.23
   2 -12  -1    1.21    0.24
  -2  12   1    1.17    0.22
   1 -12  -1    0.39    0.18
  -1  12   1    0.49    0.16
   0 -12  -1    0.29    0.18
   0  12   1    0.48    0.17
  -1 -12  -1    0.70    0.22
   1  12   1    1.65    0.25
  -2 -12  -1    0.57    0.23
   2  12   1    0.70    0.21
  -3 -12  -1    0.18    0.21
   3  12   1    0.15    0.16
  -4 -12  -1    1.87    0.32
   4  12   1    1.82    0.27
  -5 -12  -1    0.10    0.24
   5  12   1   -0.13    0.17
  -6 -12  -1    2.26    0.42
   6  12   1    3.34    0.37
  -7 -12  -1   -0.53    0.47
  -1  13   1    6.21    0.73
   0 -13  -1   -0.16    0.19
   0  13   1    0.13    0.17
  -1 -13  -1    2.38    0.36
   1  13   1    2.54    0.33
  -2 -13  -1    2.94    0.41
   2  13   1    2.70    0.34
  -3 -13  -1   10.47    1.03
   3  13   1   10.11    0.61
   4  11  -2   -0.07    0.19
  -4 -11   2   -0.30    0.21
   3  11  -2    2.52    0.33
  -3 -11   2    1.62    0.28
   2  11  -2    4.19    0.37
  -2 -11   2    4.84    0.41
   1  11  -2    0.81    0.23
  -1 -11   2    0.32    0.20
   0  11  -2    7.16    0.44
   0 -11   2    6.95    0.45
  -1  11  -2   11.05    0.53
   1 -11   2   11.30    0.55
  -2  11  -2    7.96    0.46
   2 -11   2    7.12    0.45
  -3  11  -2    0.70    0.20
   3 -11   2    0.57    0.19
  -4  11  -2    0.47    0.18
   4 -11   2    0.09    0.12
  -5  11  -2    0.93    0.22
   6  10  -2    0.03    0.21
   5  10  -2    0.98    0.25
  -5 -10   2    0.16    0.24
   4  10  -2   -0.29    0.16
  -4 -10   2   -0.13    0.19
   3  10  -2    6.26    0.43
  -3 -10   2    5.90    0.42
   2  10  -2    0.35    0.19
  -2 -10   2   -0.04    0.15
   1  10  -2    0.47    0.19
  -1 -10   2    0.32    0.17
   0  10  -2    5.72    0.39
   0 -10   2    5.06    0.36
  -1  10  -2    4.16    0.34
   1 -10   2    3.82    0.31
  -2  10  -2    8.94    0.45
   2 -10   2    8.14    0.43
  -3  10  -2    5.32    0.36
   3 -10   2    4.98    0.36
  -4  10  -2    0.40    0.16
   4 -10   2    0.66    0.17
  -5  10  -2   -0.06    0.11
   5 -10   2    0.09    0.11
  -6  10  -2    3.23    0.34
   6 -10   2    3.45    0.37
  -7  10  -2    5.44    0.38
   7   9  -2   -0.11    0.20
   6   9  -2   -0.03    0.18
   5   9  -2    0.45    0.21
  -5  -9   2    0.01    0.20
   4   9  -2    7.49    0.42
  -4  -9   2    6.94    0.43
   3   9  -2    0.58    0.19
  -3  -9   2    0.52    0.17
   2   9  -2    7.23    0.41
  -2  -9   2    6.94    0.38
   1   9  -2    0.23    0.14
  -1  -9   2    0.08    0.11
   0   9  -2   -0.02    0.11
   0  -9   2   -0.04    0.10
  -1   9  -2    1.42    0.22
   1  -9   2    1.44    0.20
  -2   9  -2    6.60    0.37
   2  -9   2    5.75    0.35
  -3   9  -2    6.64    0.36
   3  -9   2    6.37    0.37
  -4   9  -2    5.48    0.33
   4  -9   2    5.54    0.34
  -5   9  -2    1.91    0.24
   5  -9   2    1.46    0.23
  -6   9  -2   16.59    0.60
   6  -9   2   16.11    0.62
  -7   9  -2    0.33    0.15
   7  -9   2    0.02    0.11
   8  -9   2    0.08    0.11
  -9  -8   2    6.07    0.73
  -8  -8   2    1.58    0.28
   7   8  -2   -0.13    0.19
   6   8  -2    0.06    0.17
   5   8  -2   -0.04    0.13
  -5  -8   2   -0.22    0.16
   4   8  -2    2.80    0.29
  -4  -8   2    2.73    0.28
   3   8  -2    1.31    0.22
  -3  -8   2    1.56    0.22
   2   8  -2    0.64    0.16
  -2  -8   2    0.76    0.15
   1   8  -2    7.34    0.36
  -1  -8   2    6.87    0.34
   0   8  -2    1.26    0.18
   0  -8   2    1.09    0.16
  -1   8  -2    4.68    0.29
   1  -8   2    4.48    0.28
  -2   8  -2    8.19    0.37
   2  -8   2    8.78    0.39
  -3   8  -2    4.94    0.30
   3  -8   2    5.07    0.30
  -4   8  -2    0.23    0.12
   4  -8   2    0.12    0.09
  -5   8  -2    0.83    0.16
   5  -8   2    0.65    0.15
  -6   8  -2    2.89    0.25
   6  -8   2    3.32    0.28
  -7   8  -2    8.88    0.41
   7  -8   2    8.78    0.44
   8  -8   2   16.25    0.62
   9  -8   2    0.28    0.14
  -9  -7   2    1.03    0.27
  -8  -7   2    1.84    0.29
  -7  -7   2    3.49    0.31
   6   7  -2    0.03    0.16
   5   7  -2    8.90    0.42
  -5  -7   2    8.34    0.42
   4   7  -2    6.96    0.37
  -4  -7   2    6.93    0.35
   3   7  -2    6.12    0.34
  -3  -7   2    6.09    0.32
   2   7  -2    0.93    0.16
  -2  -7   2    1.11    0.17
   1   7  -2    3.16    0.23
  -1  -7   2    3.19    0.23
   0   7  -2    6.58    0.31
   0  -7   2    6.98    0.32
  -1   7  -2    1.25    0.16
   1  -7   2    0.98    0.14
  -2   7  -2    7.70    0.34
   2  -7   2    8.67    0.36
  -3   7  -2    5.99    0.30
   3  -7   2    5.38    0.29
  -4   7  -2   10.52    0.40
   4  -7   2   10.71    0.42
  -5   7  -2    4.06    0.26
   5  -7   2    4.62    0.29
  -6   7  -2    6.04    0.32
   6  -7   2    5.78    0.33
  -7   7  -2    1.15    0.18
   7  -7   2    0.81    0.17
  -8   7  -2    0.21    0.11
   8  -7   2    0.07    0.10
   9  -7   2   11.93    0.52
  10  -7   2    2.74    0.29
  10   6  -2    0.19    0.11
 -10  -6   2   -0.54    0.24
   9   6  -2    8.39    0.35
  -9  -6   2    8.12    0.51
   8   6  -2    6.00    0.27
  -8  -6   2    6.34    0.43
   7   6  -2    0.25    0.08
  -7  -6   2    0.11    0.13
   6   6  -2    0.18    0.13
   6   6  -2    0.20    0.07
  -6  -6   2   -0.01    0.14
   5   6  -2    0.06    0.05
   5   6  -2   -0.08    0.12
  -5  -6   2   -0.07    0.13
   4   6  -2    6.19    0.31
   4   6  -2    5.87    0.20
  -4  -6   2    5.86    0.30
   3   6  -2    1.75    0.10
   3   6  -2    1.72    0.19
  -3  -6   2    1.99    0.20
   2   6  -2    1.69    0.18
   2   6  -2    1.94    0.09
  -2  -6   2    2.04    0.18
   1   6  -2    0.12    0.09
  -1  -6   2    0.06    0.07
   0   6  -2   30.19    0.70
   0  -6   2   29.87    0.69
  -1   6  -2   20.08    0.54
   1  -6   2   19.83    0.53
  -2   6  -2    0.84    0.13
   2  -6   2    0.99    0.13
  -3   6  -2    0.80    0.12
   3  -6   2    1.09    0.15
  -4   6  -2    0.11    0.09
   4  -6   2    0.23    0.09
  -5   6  -2   12.74    0.42
   5  -6   2   12.51    0.45
  -6   6  -2    1.12    0.15
   6  -6   2    1.10    0.17
  -7   6  -2   15.42    0.49
   7  -6   2   15.44    0.53
  -8   6  -2    1.61    0.19
   8  -6   2    1.60    0.21
   9  -6   2    0.30    0.12
  10  -6   2    0.10    0.11
  10   5  -2    5.92    0.31
 -10  -5   2    5.55    0.50
   9   5  -2    0.37    0.11
  -9  -5   2    0.40    0.23
   8   5  -2    0.11    0.09
  -8  -5   2    0.17    0.18
   7   5  -2    0.20    0.08
  -7  -5   2    0.35    0.17
   6   5  -2    5.28    0.22
  -6  -5   2    5.07    0.31
  -6  -5   2    5.57    0.33
   5   5  -2   14.84    0.49
   5   5  -2   15.18    0.37
  -5  -5   2   14.65    0.46
   4   5  -2   13.38    0.44
   4   5  -2   12.01    0.31
  -4  -5   2   13.15    0.40
   3   5  -2    1.45    0.17
   3   5  -2    1.24    0.08
  -3  -5   2    1.08    0.14
   2   5  -2    3.80    0.13
   2   5  -2    3.87    0.22
  -2  -5   2    3.49    0.19
   1   5  -2    6.51    0.27
   1   5  -2    6.38    0.16
  -1  -5   2    6.10    0.25
   0   5  -2    0.13    0.03
   0   5  -2    0.11    0.07
   0  -5   2    0.16    0.06
  -1   5  -2    1.16    0.13
   1  -5   2    1.09    0.05
   1  -5   2    0.92    0.11
  -2   5  -2   40.56    0.82
   2  -5   2   41.94    0.64
   2  -5   2   41.57    0.85
  -3   5  -2    3.37    0.19
   3  -5   2    3.58    0.11
   3  -5   2    3.24    0.19
  -4   5  -2    4.78    0.22
  -4   5  -2    4.55    0.26
   4  -5   2    4.86    0.14
   4  -5   2    4.52    0.23
  -5   5  -2   19.04    0.50
  -5   5  -2   20.39    0.59
   5  -5   2   19.71    0.40
  -6   5  -2    0.93    0.16
  -6   5  -2    1.22    0.14
   6  -5   2    1.37    0.11
  -7   5  -2   38.40    0.83
  -7   5  -2   38.74    0.93
   7  -5   2   39.25    0.73
  -8   5  -2    0.03    0.11
  -8   5  -2    0.02    0.07
   8  -5   2    0.10    0.07
  -9   5  -2    3.21    0.31
   9  -5   2    3.03    0.19
 -10   5  -2    0.30    0.16
  10  -5   2    0.07    0.13
  10   4  -2    0.79    0.15
 -10  -4   2    0.72    0.27
   9   4  -2    2.43    0.22
  -9  -4   2    2.09    0.30
   8   4  -2    0.90    0.13
  -8  -4   2    1.61    0.26
   7   4  -2    1.35    0.14
  -7  -4   2    1.28    0.20
   6   4  -2    1.21    0.12
  -6  -4   2    1.34    0.17
  -6  -4   2    1.37    0.20
   5   4  -2   10.44    0.37
   5   4  -2    9.85    0.28
  -5  -4   2   10.68    0.35
   4   4  -2    0.12    0.09
   4   4  -2    0.29    0.06
  -4  -4   2    0.22    0.10
   3   4  -2    5.19    0.25
   3   4  -2    5.05    0.16
  -3  -4   2    5.08    0.21
   2   4  -2    0.46    0.05
   2   4  -2    0.46    0.09
  -2  -4   2    0.58    0.09
   1   4  -2   28.34    0.48
   1   4  -2   28.45    0.61
  -1  -4   2   28.86    0.59
   0   4  -2   18.78    0.45
   0   4  -2   19.56    0.33
  -1   4  -2  234.39    3.56
   1  -4   2  234.93    3.57
   1  -4   2  233.89    3.46
  -2   4  -2   28.80    0.60
   2  -4   2   29.20    0.62
   2  -4   2   28.08    0.47
  -3   4  -2    2.09    0.16
  -3   4  -2    1.87    0.13
   3  -4   2    2.11    0.08
  -4   4  -2    9.43    0.29
  -4   4  -2    9.97    0.36
   4  -4   2    9.36    0.22
  -5   4  -2    0.31    0.10
  -5   4  -2    0.70    0.10
   5  -4   2    0.52    0.07
  -6   4  -2   39.92    0.90
  -6   4  -2   39.90    0.81
   6  -4   2   40.96    0.73
  -7   4  -2    4.35    0.28
  -7   4  -2    3.89    0.21
   7  -4   2    3.98    0.18
  -8   4  -2    9.86    0.42
  -8   4  -2    9.60    0.34
   8  -4   2    9.65    0.31
  -9   4  -2    5.34    0.34
   9  -4   2    5.17    0.24
 -10   4  -2    6.13    0.37
  10  -4   2    6.48    0.29
  11  -4   2    0.06    0.09
  12  -4   2    2.54    0.24
  11   3  -2    0.08    0.12
  10   3  -2    2.18    0.22
 -10  -3   2    1.81    0.32
   9   3  -2    4.82    0.27
  -9  -3   2    5.21    0.42
   8   3  -2   17.84    0.49
  -8  -3   2   17.30    0.61
   7   3  -2   42.30    0.84
  -7  -3   2   43.57    0.99
   6   3  -2    9.73    0.30
  -6  -3   2   10.90    0.42
  -6  -3   2   10.92    0.33
   5   3  -2   17.44    0.41
  -5  -3   2   17.64    0.51
  -5  -3   2   17.38    0.43
   4   3  -2   29.99    0.57
   4   3  -2   29.68    0.65
  -4  -3   2   29.40    0.59
   3   3  -2    0.15    0.07
   3   3  -2    0.16    0.04
  -3  -3   2    0.22    0.06
   2   3  -2    8.07    0.27
   2   3  -2    7.38    0.18
  -2  -3   2    7.56    0.23
   1   3  -2    2.29    0.14
   1   3  -2    2.58    0.09
   0   3  -2   21.73    0.47
   0   3  -2   22.19    0.37
   0  -3   2   22.14    0.46
  -1   3  -2   35.14    0.67
   1  -3   2   36.89    0.68
  -2   3  -2  486.21    7.89
  -2   3  -2  488.17   13.41
   2  -3   2  503.72    8.77
  -3   3  -2    1.48    0.13
  -3   3  -2    1.61    0.11
   3  -3   2    1.59    0.08
  -4   3  -2   21.76    0.53
  -4   3  -2   21.28    0.46
   4  -3   2   21.13    0.40
  -5   3  -2    0.12    0.05
  -5   3  -2    0.09    0.08
   5  -3   2    0.21    0.05
  -6   3  -2   15.24    0.47
  -6   3  -2   15.41    0.39
   6  -3   2   15.57    0.36
  -7   3  -2   20.45    0.49
  -7   3  -2   20.30    0.58
   7  -3   2   20.45    0.46
  -8   3  -2    2.09    0.22
  -8   3  -2    2.41    0.17
   8  -3   2    2.32    0.16
  -9   3  -2    3.86    0.28
   9  -3   2    3.38    0.20
 -10   3  -2    0.69    0.17
  10  -3   2    0.47    0.11
  11  -3   2    1.52    0.18
  12  -3   2    4.46    0.28
  11   2  -2    0.36    0.14
  10   2  -2    1.87    0.21
 -10  -2   2    1.23    0.29
   9   2  -2    9.09    0.35
  -9  -2   2    8.83    0.50
   8   2  -2   11.72    0.38
  -8  -2   2   12.08    0.50
   7   2  -2    0.49    0.09
  -7  -2   2    0.66    0.18
   6   2  -2    5.06    0.21
  -6  -2   2    5.23    0.20
  -6  -2   2    4.28    0.27
   5   2  -2    5.53    0.20
  -5  -2   2    5.76    0.21
  -5  -2   2    5.60    0.28
   4   2  -2   54.23    0.93
  -4  -2   2   54.83    0.92
  -4  -2   2   54.88    1.03
   3   2  -2  367.03    5.98
   3   2  -2  365.50    5.75
  -3  -2   2  357.59    5.48
   2   2  -2    0.11    0.03
   2   2  -2    0.10    0.06
  -2  -2   2    0.21    0.05
   1   2  -2    0.80    0.05
   1   2  -2    0.74    0.08
  -1  -2   2    0.76    0.06
   0   2  -2   94.86    1.41
   0   2  -2   94.99    1.48
   0  -2   2   93.18    1.47
  -1   2  -2  387.60    6.20
  -1   2  -2  383.00    5.80
  -1   2  -2  383.76    6.29
  -2   2  -2   12.77    0.32
  -2   2  -2   12.60    0.28
   2  -2   2   12.71    0.24
  -3   2  -2    6.94    0.19
  -3   2  -2    6.86    0.24
   3  -2   2    7.08    0.17
  -4   2  -2   32.52    0.60
  -4   2  -2   33.54    0.68
   4  -2   2   33.62    0.58
  -5   2  -2   35.71    0.65
  -5   2  -2   35.32    0.73
   5  -2   2   34.81    0.63
  -6   2  -2    7.85    0.24
  -6   2  -2    7.63    0.30
   6  -2   2    7.30    0.23
  -7   2  -2    0.65    0.10
  -7   2  -2    0.60    0.12
   7  -2   2    0.66    0.09
  -8   2  -2    7.67    0.28
  -8   2  -2    7.89    0.34
   8  -2   2    7.90    0.28
  -9   2  -2    3.70    0.27
   9  -2   2    3.41    0.20
 -10   2  -2    0.42    0.14
  10  -2   2    0.38    0.11
  11  -2   2    2.92    0.22
  12  -2   2    0.06    0.10
  11   1  -2    2.11    0.24
  10   1  -2    0.09    0.10
 -10  -1   2    0.00    0.22
   9   1  -2    0.38    0.11
  -9  -1   2    0.26    0.20
   8   1  -2    0.17    0.08
  -8  -1   2   -0.21    0.16
   7   1  -2   18.11    0.45
  -7  -1   2   17.27    0.55
   6   1  -2   25.66    0.55
  -6  -1   2   25.08    0.65
  -6  -1   2   24.74    0.48
   5   1  -2   19.93    0.44
  -5  -1   2   21.04    0.40
  -5  -1   2   20.61    0.54
   4   1  -2   49.89    0.85
  -4  -1   2   49.64    0.81
  -4  -1   2   50.42    0.95
   3   1  -2   27.36    0.50
  -3  -1   2   26.88    0.57
  -3  -1   2   27.67    0.47
   2   1  -2  356.99    5.76
   2   1  -2  357.27    5.56
  -2  -1   2  353.59    5.38
   1   1  -2   48.16    0.82
   1   1  -2   48.81    0.77
  -1  -1   2   50.21    0.77
   0   1  -2   96.61    1.43
   0   1  -2   97.00    1.47
   0   1  -2   95.09    1.46
  -1   1  -2  599.81    9.03
  -1   1  -2  572.95   14.11
  -1   1  -2  599.54    8.82
  -2   1  -2    4.76    0.17
   2  -1   2    4.84    0.12
  -3   1  -2   35.95    0.60
  -3   1  -2   36.63    0.67
   3  -1   2   36.82    0.60
  -4   1  -2  156.73    2.33
  -4   1  -2  155.20    2.43
   4  -1   2  159.03    2.34
  -5   1  -2   22.09    0.42
  -5   1  -2   21.48    0.50
   5  -1   2   21.35    0.43
  -6   1  -2    9.00    0.31
  -6   1  -2    9.49    0.25
   6  -1   2    9.51    0.27
  -7   1  -2   35.00    0.66
  -7   1  -2   33.29    0.74
   7  -1   2   34.58    0.67
  -8   1  -2   26.40    0.56
  -8   1  -2   27.18    0.66
   8  -1   2   26.26    0.58
  -9   1  -2    2.37    0.23
   9  -1   2    2.40    0.18
 -10   1  -2   -0.01    0.11
  10  -1   2    0.04    0.07
  11  -1   2    0.11    0.10
  12  -1   2    2.01    0.22
  11   0  -2    0.26    0.13
  10   0  -2    9.04    0.37
 -10   0   2    7.94    0.47
   9   0  -2   -0.04    0.07
  -9   0   2    0.08    0.19
   8   0  -2    5.61    0.25
  -8   0   2    4.68    0.35
   7   0  -2    0.01    0.05
  -7   0   2    0.08    0.15
   6   0  -2   20.77    0.47
  -6   0   2   20.90    0.41
  -6   0   2   19.95    0.56
   5   0  -2    0.20    0.05
  -5   0   2    0.24    0.05
  -5   0   2    0.33    0.12
   4   0  -2    3.85    0.15
  -4   0   2    4.08    0.21
  -4   0   2    4.36    0.12
   3   0  -2  173.05    2.58
   3   0  -2  174.74    2.76
  -3   0   2  171.66    2.60
  -3   0   2  172.77    2.66
   2   0  -2  224.62    3.48
   2   0  -2  237.97    3.40
  -2   0   2  237.65    3.41
  -2   0   2  230.50    3.47
   1   0  -2   64.41    1.00
  -1   0   2   66.93    0.98
  -1   0   2   65.16    1.05
  -1   0   2   65.88    1.00
   0   0  -2  216.10    3.34
   0   0  -2  216.65    5.24
   0   0  -2  217.19    3.45
   0   0   2  215.33    3.43
  -1   0  -2    0.10    0.03
  -1   0  -2    0.02    0.02
  -1   0  -2   -0.03    0.03
  -2   0  -2   43.15    0.64
  -2   0  -2   41.89    0.72
   2   0   2   42.33    0.64
   2   0   2   43.05    0.67
  -3   0  -2  227.73    3.43
  -3   0  -2  221.79    3.73
   3   0   2  235.52    3.59
   3   0   2  218.80    3.42
  -4   0  -2    1.14    0.07
  -4   0  -2    1.32    0.12
   4   0   2    1.49    0.08
  -5   0  -2    0.46    0.09
  -5   0  -2    0.63    0.07
   5   0   2    0.51    0.06
  -6   0  -2    0.02    0.06
  -6   0  -2    0.12    0.06
   6   0   2    0.00    0.05
  -7   0  -2   10.26    0.35
  -7   0  -2    9.97    0.29
   7   0   2   10.04    0.30
  -8   0  -2    0.61    0.14
  -8   0  -2    1.32    0.13
   8   0   2    0.80    0.11
  -9   0  -2    9.86    0.38
   9   0   2   10.59    0.34
 -10   0  -2    1.33    0.19
  10   0   2    1.12    0.15
  11   0   2    1.49    0.18
  12   0   2    0.37    0.13
  11  -1  -2    3.33    0.28
  10  -1  -2    0.56    0.13
 -10   1   2    0.49    0.21
   9  -1  -2    0.49    0.11
  -9   1   2    0.56    0.20
   8  -1  -2    2.23    0.17
  -8   1   2    2.46    0.27
   7  -1  -2   42.72    0.83
  -7   1   2   42.46    0.95
   6  -1  -2    4.26    0.19
  -6   1   2    3.42    0.25
  -6   1   2    4.05    0.15
   5  -1  -2    4.01    0.17
  -5   1   2    4.09    0.14
  -5   1   2    4.02    0.25
   4  -1  -2    8.05    0.22
  -4   1   2    8.27    0.31
  -4   1   2    8.25    0.19
   3  -1  -2    8.08    0.19
  -3   1   2    7.88    0.16
  -3   1   2    8.34    0.27
   2  -1  -2    6.08    0.16
   2  -1  -2    6.24    0.11
   2  -1  -2    6.24    0.12
  -2   1   2    6.10    0.21
   1  -1  -2   62.94    0.93
   1  -1  -2   61.53    0.95
  -1   1   2   62.97    1.01
  -1   1   2   61.60    0.93
   0  -1  -2    1.83    0.08
   0  -1  -2    1.69    0.06
   0   1   2    1.77    0.09
  -1  -1  -2   61.25    0.97
  -1  -1  -2   62.76    0.93
  -1  -1  -2   63.48    0.95
   1   1   2   61.94    0.96
  -2  -1  -2   15.92    0.33
   2   1   2   15.79    0.29
  -3  -1  -2    0.22    0.03
  -3  -1  -2    0.27    0.02
  -3  -1  -2    0.13    0.06
   3   1   2    0.24    0.04
  -4  -1  -2   20.32    0.45
  -4  -1  -2   20.38    0.36
  -5  -1  -2  115.89    1.75
  -5  -1  -2  113.74    1.85
   5   1   2  117.43    1.79
  -6  -1  -2    9.61    0.26
  -6  -1  -2    9.41    0.32
   6   1   2    9.51    0.27
  -7  -1  -2   39.18    0.73
  -7  -1  -2   39.08    0.81
   7   1   2   39.16    0.75
  -8  -1  -2    3.32    0.20
  -8  -1  -2    3.10    0.22
   8   1   2    3.72    0.19
  -9  -1  -2    1.66    0.19
   9   1   2    1.97    0.17
 -10  -1  -2    0.20    0.11
  10   1   2    0.12    0.09
  11   1   2    0.05    0.08
  12   1   2    2.71    0.24
  11  -2  -2    1.98    0.22
  10  -2  -2   -0.06    0.09
 -10   2   2    0.15    0.17
   9  -2  -2    0.97    0.14
  -9   2   2    1.10    0.22
   8  -2  -2   14.84    0.42
  -8   2   2   15.41    0.54
   7  -2  -2    0.04    0.06
  -7   2   2    0.04    0.14
   6  -2  -2    2.75    0.15
  -6   2   2    2.71    0.14
  -6   2   2    2.84    0.25
   5  -2  -2   13.97    0.34
  -5   2   2   13.47    0.42
  -5   2   2   13.90    0.31
   4  -2  -2    0.31    0.05
  -4   2   2    0.31    0.05
  -4   2   2    0.42    0.12
   3  -2  -2   -0.02    0.02
   3  -2  -2   -0.02    0.03
  -3   2   2   -0.02    0.08
   2  -2  -2    1.42    0.06
   2  -2  -2    1.27    0.07
  -2   2   2    1.71    0.15
   1  -2  -2  500.10    7.48
   1  -2  -2  483.57    7.44
  -1   2   2  507.27    7.84
   0  -2  -2  462.05    6.79
   0  -2  -2  446.25    6.95
   0   2   2  450.04    6.99
  -1  -2  -2    0.20    0.03
  -1  -2  -2    0.10    0.07
   1   2   2    0.09    0.03
  -2  -2  -2  366.21    5.78
  -2  -2  -2  381.43    6.15
   2   2   2  393.21    5.84
   2   2   2  384.77    5.72
   3   2   2   16.07    0.31
   3   2   2   16.10    0.28
  -4  -2  -2  162.80    2.52
  -4  -2  -2  163.03    2.51
   4   2   2  163.09    2.43
  -5  -2  -2    0.22    0.06
  -5  -2  -2    0.02    0.08
   5   2   2    0.18    0.05
  -6  -2  -2   43.52    0.86
  -6  -2  -2   44.08    0.77
   6   2   2   44.01    0.79
  -7  -2  -2    3.54    0.19
  -7  -2  -2    3.39    0.23
   7   2   2    3.35    0.17
  -8  -2  -2    8.85    0.31
  -8  -2  -2    8.66    0.34
   8   2   2    8.58    0.29
  -9  -2  -2   21.92    0.60
   9   2   2   21.88    0.54
 -10  -2  -2    0.57    0.15
  10   2   2    0.56    0.13
  11   2   2   17.73    0.53
  12   2   2    9.06    0.39
  11  -3  -2    0.28    0.12
  10  -3  -2    4.53    0.27
 -10   3   2    5.07    0.35
   9  -3  -2   20.83    0.56
  -9   3   2   21.79    0.66
   8  -3  -2    2.19    0.19
  -8   3   2    1.88    0.22
   7  -3  -2    5.26    0.22
  -7   3   2    4.82    0.31
   6  -3  -2   11.40    0.32
  -6   3   2   11.84    0.41
   5  -3  -2    2.11    0.11
   5  -3  -2    2.13    0.12
  -5   3   2    1.76    0.19
   4  -3  -2    8.74    0.23
   4  -3  -2    9.08    0.24
   3  -3  -2    5.72    0.16
   3  -3  -2    5.50    0.17
  -3   3   2    5.53    0.24
   2  -3  -2   10.02    0.21
   2  -3  -2   10.09    0.23
  -2   3   2    9.63    0.28
   1  -3  -2   50.64    0.83
   1  -3  -2   50.42    0.78
  -1   3   2   50.06    0.86
   0  -3  -2  178.92    2.79
   0  -3  -2  179.31    2.89
  -1  -3  -2   27.06    0.51
   1   3   2   27.46    0.44
   1   3   2   27.18    0.48
  -2  -3  -2    3.72    0.16
   2   3   2    3.61    0.12
   2   3   2    3.47    0.10
  -3  -3  -2   94.72    1.53
   3   3   2   96.05    1.43
   3   3   2   92.61    1.44
  -4  -3  -2  104.55    1.68
   4   3   2  103.77    1.57
   4   3   2   99.60    1.57
  -5  -3  -2   55.85    1.03
   5   3   2   56.85    0.94
   5   3   2   55.93    0.92
  -6  -3  -2    7.58    0.24
   6   3   2    7.64    0.23
  -7  -3  -2   29.14    0.61
  -7  -3  -2   29.45    0.68
   7   3   2   28.82    0.60
  -8  -3  -2   45.05    0.87
  -8  -3  -2   44.80    0.95
   8   3   2   46.29    0.88
  -9  -3  -2    0.74    0.16
   9   3   2    0.73    0.12
 -10  -3  -2    4.18    0.29
  10   3   2    4.17    0.24
  11   3   2    0.55    0.13
  12   3   2    0.65    0.14
  11  -4  -2    2.09    0.22
  10  -4  -2   13.14    0.44
 -10   4   2   12.82    0.52
   9  -4  -2    0.65    0.13
  -9   4   2    0.34    0.15
   8  -4  -2    0.17    0.08
  -8   4   2    0.14    0.12
   7  -4  -2   41.96    0.82
  -7   4   2   41.74    0.93
   6  -4  -2    8.21    0.26
   6  -4  -2    8.43    0.27
  -6   4   2    8.23    0.35
   5  -4  -2   21.41    0.48
   5  -4  -2   21.55    0.46
  -5   4   2   21.90    0.57
   4  -4  -2    0.30    0.06
   4  -4  -2    0.30    0.06
  -4   4   2    0.26    0.09
   3  -4  -2   61.97    0.97
   3  -4  -2   59.38    1.03
  -3   4   2   61.06    1.09
   2  -4  -2    0.62    0.07
   2  -4  -2    0.77    0.05
  -2   4   2    0.56    0.09
   1  -4  -2   45.98    0.71
   1  -4  -2   45.06    0.80
  -1   4   2   45.75    0.81
   0  -4  -2    4.61    0.18
   0  -4  -2    4.82    0.11
   0   4   2    5.54    0.18
  -1  -4  -2   62.38    1.05
   1   4   2   61.87    0.93
   1   4   2   62.31    1.02
  -2  -4  -2   16.60    0.40
   2   4   2   16.89    0.36
   2   4   2   16.77    0.30
  -3  -4  -2    2.79    0.19
   3   4   2    2.27    0.11
   3   4   2    2.14    0.09
  -4  -4  -2   27.33    0.60
   4   4   2   27.21    0.50
   4   4   2   27.42    0.52
  -5  -4  -2   38.72    0.80
   5   4   2   38.31    0.68
   5   4   2   38.00    0.70
  -6  -4  -2    1.43    0.17
   6   4   2    1.75    0.12
   6   4   2    1.72    0.13
  -7  -4  -2   12.43    0.43
  -7  -4  -2   13.51    0.38
   7   4   2   12.94    0.35
  -8  -4  -2   19.76    0.57
  -8  -4  -2   18.63    0.49
   8   4   2   18.37    0.47
  -9  -4  -2   12.72    0.47
   9   4   2   13.97    0.41
 -10  -4  -2    0.73    0.17
  10   4   2    0.33    0.10
  11   4   2   14.22    0.47
  12   4   2   11.13    0.44
  11  -5  -2    1.39    0.19
  10  -5  -2    1.32    0.17
 -10   5   2    1.57    0.23
   9  -5  -2    5.26    0.26
  -9   5   2    5.43    0.34
   8  -5  -2    7.86    0.30
  -8   5   2    7.33    0.37
   7  -5  -2    2.49    0.17
  -7   5   2    2.60    0.24
   6  -5  -2    0.47    0.09
   6  -5  -2    0.33    0.08
  -6   5   2    0.30    0.13
   5  -5  -2    0.27    0.06
   5  -5  -2    0.29    0.07
  -5   5   2    0.22    0.10
   4  -5  -2   22.79    0.51
   4  -5  -2   22.55    0.44
  -4   5   2   21.27    0.55
   3  -5  -2   26.91    0.58
   3  -5  -2   27.44    0.49
  -3   5   2   28.67    0.62
   2  -5  -2    6.29    0.22
   2  -5  -2    6.31    0.15
   1  -5  -2   57.92    0.88
   1  -5  -2   59.06    1.03
  -1   5   2   57.17    1.03
   0  -5  -2    5.17    0.21
   0  -5  -2    4.91    0.11
   0   5   2    5.01    0.20
  -1  -5  -2   15.41    0.39
   1   5   2   14.75    0.26
   1   5   2   15.28    0.37
  -2  -5  -2   20.29    0.48
   2   5   2   19.70    0.44
   2   5   2   19.70    0.34
  -3  -5  -2    6.62    0.27
   3   5   2    6.64    0.16
   3   5   2    6.20    0.22
  -4  -5  -2   19.79    0.51
   4   5   2   19.77    0.44
   4   5   2   18.94    0.38
  -5  -5  -2   13.04    0.43
   5   5   2   12.99    0.34
   5   5   2   12.67    0.30
  -6  -5  -2    0.46    0.15
   6   5   2    0.69    0.11
   6   5   2    0.35    0.07
  -7  -5  -2   19.12    0.58
  -7  -5  -2   19.66    0.49
   7   5   2   19.09    0.45
  -8  -5  -2    6.09    0.35
  -8  -5  -2    6.08    0.29
   8   5   2    6.08    0.24
  -9  -5  -2    0.63    0.18
   9   5   2    0.59    0.11
 -10  -5  -2    0.14    0.16
  10   5   2    0.07    0.08
  11   5   2    0.45    0.13
  12   5   2    1.00    0.18
  10  -6  -2    3.01    0.25
 -10   6   2    3.00    0.31
   9  -6  -2    0.02    0.08
  -9   6   2    0.03    0.11
   8  -6  -2   -0.01    0.07
  -8   6   2    0.12    0.11
   7  -6  -2   13.20    0.37
   7  -6  -2   13.61    0.60
  -7   6   2   12.91    0.47
   6  -6  -2    4.87    0.19
   6  -6  -2    4.58    0.23
  -6   6   2    4.35    0.28
   5  -6  -2    4.99    0.23
   5  -6  -2    5.19    0.18
  -5   6   2    4.65    0.27
   4  -6  -2    6.39    0.19
   4  -6  -2    6.54    0.26
  -4   6   2    5.95    0.28
   3  -6  -2   58.69    0.93
   3  -6  -2   58.40    1.08
   2  -6  -2    2.61    0.16
   2  -6  -2    2.73    0.09
  -2   6   2    2.69    0.17
   1  -6  -2    0.35    0.03
   1  -6  -2    0.35    0.07
  -1   6   2    0.30    0.08
   0  -6  -2    1.98    0.15
   0   6   2    2.24    0.05
   0   6   2    2.23    0.05
   0   6   2    1.80    0.14
  -1  -6  -2   23.87    0.56
   1   6   2   23.04    0.36
   1   6   2   22.53    0.52
   2   6   2   15.21    0.39
   2   6   2   15.47    0.27
  -3  -6  -2    0.05    0.09
   3   6   2    0.07    0.05
   3   6   2    0.06    0.03
  -4  -6  -2    4.72    0.28
   4   6   2    4.12    0.20
   4   6   2    4.21    0.14
  -5  -6  -2    0.68    0.17
   5   6   2    0.67    0.08
   5   6   2    0.56    0.10
  -6  -6  -2    3.28    0.29
   6   6   2    3.22    0.20
   6   6   2    3.52    0.16
  -7  -6  -2    0.39    0.18
   7   6   2    0.08    0.06
   7   6   2    0.13    0.10
  -8  -6  -2    0.03    0.09
  -8  -6  -2   -0.15    0.15
   8   6   2   -0.05    0.06
  -9  -6  -2    5.41    0.37
   9   6   2    4.82    0.24
 -10  -6  -2    0.46    0.19
  11   6   2    0.16    0.10
  12   6   2   -0.10    0.10
 -10   7   2    4.77    0.34
  -9   7   2    1.20    0.20
  -8   7   2    5.08    0.33
   7  -7  -2    1.24    0.19
  -7   7   2    1.50    0.21
   6  -7  -2   20.08    0.56
   6  -7  -2   19.49    0.58
  -6   7   2   20.88    0.62
   5  -7  -2   45.30    0.95
   5  -7  -2   43.97    0.79
  -5   7   2   46.58    1.01
   4  -7  -2    0.22    0.08
   4  -7  -2    0.33    0.06
  -4   7   2    0.44    0.12
   3  -7  -2    1.21    0.07
   3  -7  -2    1.41    0.16
  -3   7   2    1.09    0.15
   2  -7  -2   62.78    0.97
   2  -7  -2   65.23    1.21
  -2   7   2   64.44    1.21
   1  -7  -2   63.63    1.20
  -1   7   2   63.42    1.19
   0  -7  -2    6.18    0.27
   0   7   2    5.26    0.25
  -1  -7  -2    1.55    0.16
   1   7   2    1.87    0.16
  -2  -7  -2    3.18    0.23
   2   7   2    3.04    0.08
   2   7   2    3.13    0.19
  -3  -7  -2    3.46    0.24
   3   7   2    3.03    0.10
   3   7   2    2.88    0.18
  -4  -7  -2    2.38    0.24
   4   7   2    1.81    0.16
   4   7   2    2.04    0.10
  -5  -7  -2    9.14    0.42
   5   7   2    9.33    0.25
   5   7   2    9.70    0.34
  -6  -7  -2    4.40    0.34
   6   7   2    4.31    0.24
   6   7   2    4.44    0.18
  -7  -7  -2   10.05    0.47
   7   7   2    9.93    0.37
   7   7   2   10.29    0.30
  -8  -7  -2    0.47    0.20
   8   7   2    0.61    0.10
   8   7   2    0.55    0.15
  -9  -7  -2    3.92    0.35
   9   7   2    3.71    0.22
 -10  -7  -2    0.09    0.19
  10   7   2    0.08    0.09
  11   7   2    0.55    0.13
  -9   8   2   18.38    0.66
  -8   8   2    0.84    0.20
   7  -8  -2    0.84    0.21
  -7   8   2    1.06    0.19
   6  -8  -2   14.54    0.49
  -6   8   2   14.88    0.53
   5  -8  -2    0.49    0.12
  -5   8   2    0.49    0.14
   4  -8  -2   21.23    0.60
  -4   8   2   21.05    0.62
   3  -8  -2    7.16    0.32
  -3   8   2    7.02    0.33
   2  -8  -2    4.94    0.27
  -2   8   2    5.14    0.28
   1  -8  -2    8.65    0.35
  -1   8   2    8.77    0.35
   0  -8  -2   40.05    0.89
   0   8   2   39.46    0.86
  -1  -8  -2    9.26    0.37
   1   8   2    8.92    0.35
  -2  -8  -2   22.05    0.62
   2   8   2   21.73    0.57
  -3  -8  -2    0.22    0.12
   3   8   2    0.22    0.09
  -4  -8  -2   15.81    0.54
   4   8   2   17.33    0.50
  -5  -8  -2    0.82    0.19
   5   8   2    0.67    0.14
  -6  -8  -2    6.66    0.39
   6   8   2    5.76    0.23
   6   8   2    5.98    0.31
  -7  -8  -2    0.27    0.22
   7   8   2    0.27    0.13
   7   8   2    0.24    0.07
  -8  -8  -2    3.58    0.36
   8   8   2    3.50    0.19
   8   8   2    3.57    0.28
  -9  -8  -2    1.54    0.28
   9   8   2    1.39    0.15
  10   8   2    0.15    0.11
  -8   9   2    1.07    0.20
  -7   9   2    0.35    0.15
   6  -9  -2    0.52    0.14
  -6   9   2    0.64    0.16
   5  -9  -2    1.95    0.23
  -5   9   2    1.99    0.23
   4  -9  -2   -0.01    0.08
  -4   9   2    0.10    0.10
   3  -9  -2   26.67    0.73
  -3   9   2   26.48    0.72
   2  -9  -2   47.36    1.06
  -2   9   2   46.97    1.04
   1  -9  -2   31.59    0.81
  -1   9   2   33.43    0.81
   0  -9  -2    5.94    0.32
   0   9   2    6.58    0.31
  -1  -9  -2    8.05    0.38
   1   9   2    7.59    0.34
  -2  -9  -2    1.34    0.21
   2   9   2    0.95    0.15
  -3  -9  -2    0.53    0.16
   3   9   2    0.45    0.12
  -4  -9  -2   -0.05    0.16
   4   9   2    0.05    0.10
  -5  -9  -2   10.96    0.50
   5   9   2   11.03    0.43
  -6  -9  -2   50.82    1.20
   6   9   2   49.41    1.08
  -7  -9  -2    7.30    0.46
   7   9   2    6.20    0.34
  -8  -9  -2    1.21    0.29
   8   9   2    0.89    0.19
  -9  -9  -2    0.32    0.25
  -7  10   2    2.22    0.29
   6 -10  -2    0.27    0.14
  -6  10   2    0.37    0.14
   5 -10  -2    0.05    0.10
  -5  10   2    0.29    0.14
   4 -10  -2   17.60    0.61
  -4  10   2   17.37    0.61
   3 -10  -2   27.90    0.79
  -3  10   2   28.34    0.79
   2 -10  -2    0.68    0.16
  -2  10   2    0.66    0.16
   1 -10  -2   -0.07    0.10
  -1  10   2    0.03    0.09
   0 -10  -2    1.76    0.24
   0  10   2    1.38    0.20
  -1 -10  -2    1.42    0.22
   1  10   2    1.24    0.18
  -2 -10  -2    0.29    0.14
   2  10   2    0.25    0.12
  -3 -10  -2    0.12    0.15
   3  10   2   -0.04    0.10
  -4 -10  -2   38.96    1.01
   4  10   2   39.01    0.94
  -5 -10  -2   40.11    1.06
   5  10   2   41.48    0.98
  -6 -10  -2   24.42    0.82
   6  10   2   24.66    0.72
  -7 -10  -2    4.16    0.42
   7  10   2    4.83    0.34
  -8 -10  -2    0.87    0.30
   8  10   2    0.34    0.18
  -9 -10  -2    2.62    0.38
   6 -11  -2    1.05    0.21
  -6  11   2    1.06    0.22
   5 -11  -2    0.23    0.15
  -5  11   2    0.31    0.16
   4 -11  -2    0.21    0.15
  -4  11   2    0.03    0.11
   3 -11  -2   33.33    0.93
  -3  11   2   32.13    0.90
   2 -11  -2    8.15    0.43
  -2  11   2    8.23    0.41
   1 -11  -2    0.41    0.15
  -1  11   2    0.28    0.14
   0 -11  -2    0.05    0.14
   0  11   2   -0.03    0.10
  -1 -11  -2   12.00    0.54
   1  11   2   12.10    0.49
  -2 -11  -2    1.87    0.28
   2  11   2    2.04    0.24
  -3 -11  -2    3.00    0.34
   3  11   2    3.07    0.30
  -4 -11  -2    0.42    0.22
   4  11   2    0.39    0.16
  -5 -11  -2    0.57    0.24
   5  11   2    0.51    0.16
  -6 -11  -2    7.09    0.54
   6  11   2    7.81    0.43
  -7 -11  -2    1.12    0.33
   7  11   2    1.02    0.23
  -8 -11  -2    1.00    0.33
   8  11   2    0.44    0.21
  -9 -11  -2   -0.49    0.36
   5 -12  -2    1.19    0.25
   4 -12  -2    0.74    0.21
  -4  12   2    0.89    0.21
   3 -12  -2    0.59    0.20
  -3  12   2    0.82    0.19
   2 -12  -2   -0.01    0.16
  -2  12   2    0.12    0.12
   1 -12  -2   -0.14    0.13
  -1  12   2   -0.03    0.11
   0 -12  -2    1.09    0.25
   0  12   2    1.00    0.20
  -1 -12  -2    0.24    0.18
   1  12   2    0.25    0.14
  -2 -12  -2    0.69    0.23
   2  12   2    0.92    0.19
  -3 -12  -2    4.85    0.46
   3  12   2    5.36    0.38
  -4 -12  -2    4.95    0.47
   4  12   2    4.33    0.35
  -5 -12  -2   -0.33    0.24
   5  12   2    0.15    0.17
  -6 -12  -2    0.84    0.34
   6  12   2    1.31    0.25
  -7 -12  -2    0.73    0.35
   7  12   2    0.75    0.23
   2 -13  -2    0.64    0.24
  -2  13   2    1.68    0.42
   1 -13  -2    1.66    0.29
  -1  13   2    1.62    0.28
   0 -13  -2    2.03    0.32
   0  13   2    2.38    0.30
  -1 -13  -2    0.10    0.19
   1  13   2    0.19    0.17
  -2 -13  -2   -0.18    0.19
   2  13   2    0.41    0.18
  -3 -13  -2    0.10    0.25
   3  13   2    0.12    0.17
  -4 -13  -2    7.48    0.58
   4  13   2    8.73    0.49
   5  13   2    0.43    0.21
  -3 -11   3    0.71    0.26
  -2 -11   3    0.86    0.26
   1  11  -3    7.95    0.50
   0  11  -3   13.16    0.61
   0 -11   3   13.16    0.61
  -1  11  -3    0.52    0.20
   1 -11   3    0.77    0.23
  -2  11  -3    0.15    0.17
   2 -11   3    0.31    0.15
  -3  11  -3    1.03    0.24
   4  10  -3    0.06    0.18
   3  10  -3   -0.03    0.16
  -3 -10   3   -0.25    0.16
   2  10  -3    2.10    0.31
  -2 -10   3    1.96    0.29
   1  10  -3    4.63    0.36
  -1 -10   3    4.95    0.37
   0  10  -3    0.80    0.22
   0 -10   3    0.56    0.18
  -1  10  -3   -0.11    0.12
   1 -10   3   -0.06    0.11
  -2  10  -3    2.27    0.30
   2 -10   3    2.34    0.30
  -3  10  -3    0.69    0.20
   3 -10   3    0.38    0.15
  -4  10  -3    0.48    0.18
   4 -10   3    0.38    0.16
  -5  10  -3    1.81    0.26
   5 -10   3    1.65    0.26
  -6  10  -3    2.42    0.30
   6   9  -3    2.34    0.33
   5   9  -3    1.48    0.28
   4   9  -3    5.75    0.41
  -4  -9   3    5.62    0.40
   3   9  -3    0.15    0.17
  -3  -9   3   -0.18    0.15
   2   9  -3    0.99    0.21
  -2  -9   3    1.05    0.20
   1   9  -3    2.34    0.27
  -1  -9   3    2.14    0.26
   0   9  -3    0.20    0.15
   0  -9   3    0.40    0.13
  -1   9  -3    2.45    0.28
   1  -9   3    2.09    0.25
  -2   9  -3    0.45    0.16
   2  -9   3    0.56    0.15
  -3   9  -3    2.12    0.25
   3  -9   3    1.76    0.24
  -4   9  -3    1.22    0.21
   4  -9   3    1.55    0.23
  -5   9  -3    0.47    0.16
   5  -9   3    0.67    0.16
  -6   9  -3    0.59    0.17
   6  -9   3    0.57    0.17
  -7   9  -3   11.27    0.71
   7  -9   3   13.05    0.58
  -7  -8   3    3.24    0.36
   6   8  -3   -0.13    0.19
   5   8  -3    2.00    0.27
   4   8  -3    0.51    0.20
  -4  -8   3    0.43    0.18
   3   8  -3    0.17    0.15
  -3  -8   3   -0.13    0.12
   2   8  -3    9.91    0.46
  -2  -8   3   10.13    0.44
   1   8  -3    3.15    0.28
  -1  -8   3    3.27    0.25
   0   8  -3    9.94    0.44
   0  -8   3    9.99    0.43
  -1   8  -3   18.36    0.60
   1  -8   3   17.37    0.58
  -2   8  -3   -0.02    0.10
   2  -8   3    0.05    0.07
  -3   8  -3    0.06    0.11
   3  -8   3    0.02    0.08
  -4   8  -3   -0.03    0.10
   4  -8   3    0.00    0.07
  -5   8  -3    0.11    0.11
   5  -8   3    0.18    0.10
  -6   8  -3    3.35    0.27
   6  -8   3    3.19    0.27
  -7   8  -3    0.03    0.12
   7  -8   3    0.03    0.10
   8  -8   3    5.10    0.36
  -8  -7   3    3.92    0.42
  -7  -7   3    1.94    0.29
   6   7  -3    2.52    0.30
   5   7  -3    0.10    0.16
   4   7  -3    0.89    0.20
  -4  -7   3    0.43    0.16
   3   7  -3   10.06    0.45
  -3  -7   3   10.93    0.43
   2   7  -3    5.70    0.33
  -2  -7   3    6.36    0.32
   1   7  -3   13.81    0.49
  -1  -7   3   13.45    0.47
   0   7  -3   14.02    0.48
   0  -7   3   13.77    0.47
  -1   7  -3    3.46    0.26
   1  -7   3    3.22    0.23
  -2   7  -3    0.11    0.10
   2  -7   3    0.03    0.06
  -3   7  -3    3.05    0.23
   3  -7   3    3.44    0.24
  -4   7  -3    4.66    0.28
   4  -7   3    4.24    0.27
  -5   7  -3    4.28    0.27
   5  -7   3    4.48    0.29
  -6   7  -3    6.99    0.34
   6  -7   3    6.76    0.37
  -7   7  -3    0.52    0.13
   7  -7   3    0.49    0.15
   8  -7   3    1.54    0.22
   9  -7   3    4.61    0.34
  10  -7   3    9.48    0.54
   9   6  -3    1.70    0.19
  -9  -6   3    1.70    0.34
   8   6  -3    4.08    0.25
  -8  -6   3    3.95    0.40
   7   6  -3    0.73    0.12
  -7  -6   3    0.71    0.22
   6   6  -3    2.46    0.16
  -6  -6   3    2.84    0.30
   5   6  -3   -0.23    0.12
   5   6  -3    0.01    0.06
   4   6  -3    1.68    0.12
   4   6  -3    1.64    0.21
  -4  -6   3    1.80    0.20
   3   6  -3    4.99    0.31
   3   6  -3    5.20    0.18
  -3  -6   3    5.44    0.29
   2   6  -3    1.78    0.20
  -2  -6   3    2.33    0.19
   1   6  -3   13.17    0.45
  -1  -6   3   13.90    0.44
   0   6  -3    3.70    0.24
   0  -6   3    3.70    0.22
  -1   6  -3    2.77    0.21
   1  -6   3    2.55    0.19
  -2   6  -3    0.05    0.08
   2  -6   3   -0.02    0.05
  -3   6  -3   11.96    0.41
   3  -6   3   12.54    0.44
  -4   6  -3   34.65    0.78
   4  -6   3   33.10    0.82
  -5   6  -3    1.17    0.16
   5  -6   3    1.00    0.16
  -6   6  -3    1.22    0.16
   6  -6   3    1.57    0.20
  -7   6  -3    0.17    0.09
   7  -6   3    0.32    0.11
   8  -6   3    0.62    0.14
   9  -6   3   12.49    0.52
  10  -6   3    0.01    0.11
  11  -6   3    5.09    0.40
  10   5  -3    0.23    0.12
 -10  -5   3   -0.66    0.24
   9   5  -3    2.32    0.23
  -9  -5   3    2.23    0.36
   8   5  -3    5.49    0.28
  -8  -5   3    5.35    0.41
   7   5  -3    0.17    0.08
  -7  -5   3   -0.11    0.14
   6   5  -3    1.09    0.13
  -6  -5   3    1.08    0.20
   5   5  -3    1.85    0.23
   5   5  -3    1.75    0.13
  -5  -5   3    1.54    0.19
   4   5  -3    4.39    0.18
   4   5  -3    4.75    0.28
  -4  -5   3    4.45    0.25
   3   5  -3    5.86    0.31
   3   5  -3    5.72    0.19
  -3  -5   3    5.98    0.27
   2   5  -3   64.57    1.23
   2   5  -3   62.93    1.04
  -2  -5   3   64.54    1.18
   1   5  -3   14.12    0.29
   1   5  -3   13.36    0.43
  -1  -5   3   13.36    0.40
   0   5  -3   15.47    0.31
   0   5  -3   15.87    0.45
   0  -5   3   15.62    0.44
  -1   5  -3    1.25    0.15
   1  -5   3    0.99    0.12
   1  -5   3    1.00    0.06
  -2   5  -3    3.22    0.20
   2  -5   3    3.33    0.11
   2  -5   3    3.47    0.20
  -3   5  -3    4.79    0.23
   3  -5   3    4.68    0.14
   3  -5   3    4.95    0.25
  -4   5  -3    6.76    0.32
  -4   5  -3    6.82    0.28
   4  -5   3    6.43    0.18
  -5   5  -3    2.35    0.18
  -5   5  -3    2.19    0.22
   5  -5   3    2.14    0.11
  -6   5  -3    0.06    0.07
  -6   5  -3    0.05    0.10
   6  -5   3    0.02    0.05
  -7   5  -3    0.15    0.12
  -7   5  -3    0.06    0.08
   7  -5   3    0.18    0.07
  -8   5  -3   13.16    0.54
   8  -5   3   13.02    0.36
  -9   5  -3    6.15    0.38
 -10   5  -3    5.13    0.38
 -11   5  -3    0.46    0.19
  10   4  -3    0.85    0.16
 -10  -4   3    0.61    0.29
   9   4  -3    7.32    0.33
  -9  -4   3    6.85    0.51
   8   4  -3    0.05    0.08
  -8  -4   3    0.19    0.21
   7   4  -3    0.10    0.07
  -7  -4   3   -0.05    0.16
   6   4  -3    1.20    0.13
  -6  -4   3    1.29    0.21
   5   4  -3    6.59    0.24
  -5  -4   3    6.53    0.28
  -5  -4   3    6.60    0.35
   4   4  -3   20.02    0.55
   4   4  -3   18.70    0.43
  -4  -4   3   19.61    0.48
   3   4  -3    0.13    0.05
   3   4  -3    0.03    0.09
  -3  -4   3    0.07    0.07
   2   4  -3    6.13    0.27
   2   4  -3    6.18    0.18
  -2  -4   3    5.37    0.22
   1   4  -3   42.46    0.71
   1   4  -3   42.37    0.85
  -1  -4   3   42.22    0.81
   0   4  -3    1.77    0.08
   0   4  -3    1.70    0.15
   0  -4   3    1.69    0.12
  -1   4  -3   43.05    0.69
  -1   4  -3   41.04    0.82
   1  -4   3   42.82    0.83
  -2   4  -3    1.29    0.12
   2  -4   3    1.32    0.13
   2  -4   3    1.30    0.07
  -3   4  -3    4.86    0.21
  -3   4  -3    5.19    0.26
   3  -4   3    4.79    0.14
  -4   4  -3   10.29    0.37
  -4   4  -3    9.92    0.31
   4  -4   3   10.13    0.24
  -5   4  -3    8.57    0.29
  -5   4  -3    7.97    0.35
   5  -4   3    8.48    0.23
  -6   4  -3    3.71    0.27
  -6   4  -3    3.46    0.19
   6  -4   3    3.31    0.16
  -7   4  -3   -0.03    0.10
  -7   4  -3    0.04    0.06
   7  -4   3   -0.01    0.05
  -8   4  -3    4.52    0.30
   8  -4   3    4.14    0.20
  -9   4  -3    3.49    0.30
   9  -4   3    3.16    0.19
 -10   4  -3    0.58    0.18
  10  -4   3    0.17    0.10
 -11   4  -3    0.45    0.18
  11  -4   3    0.63    0.14
  12  -4   3    2.11    0.24
  10   3  -3    0.42    0.13
 -10  -3   3    0.58    0.29
   9   3  -3    1.13    0.17
  -9  -3   3    0.93    0.27
   8   3  -3   22.26    0.58
  -8  -3   3   23.49    0.76
   7   3  -3    7.22    0.29
  -7  -3   3    7.36    0.43
   6   3  -3    8.36    0.29
  -6  -3   3    8.03    0.40
   5   3  -3    0.02    0.05
  -5  -3   3   -0.04    0.10
  -5  -3   3    0.03    0.10
   4   3  -3    3.19    0.15
  -4  -3   3    2.96    0.21
  -4  -3   3    3.09    0.18
   3   3  -3   30.11    0.67
   3   3  -3   30.47    0.57
  -3  -3   3   30.53    0.59
   2   3  -3   43.95    0.76
   2   3  -3   45.60    0.87
  -2  -3   3   44.93    0.81
   1   3  -3   33.88    0.58
   1   3  -3   33.39    0.69
  -1  -3   3   34.06    0.65
   0   3  -3  113.17    1.70
   0   3  -3  110.96    1.82
   0  -3   3  115.29    1.80
  -1   3  -3   65.13    1.01
  -1   3  -3   65.54    1.14
  -1   3  -3   62.95    1.11
  -2   3  -3    2.23    0.13
  -2   3  -3    2.42    0.16
   2  -3   3    2.18    0.09
  -3   3  -3   68.92    1.25
  -3   3  -3   69.09    1.17
   3  -3   3   70.07    1.09
  -4   3  -3   32.92    0.65
  -4   3  -3   32.74    0.73
   4  -3   3   34.70    0.60
  -5   3  -3   74.08    1.38
  -5   3  -3   75.32    1.26
   5  -3   3   75.80    1.21
  -6   3  -3    3.88    0.24
  -6   3  -3    3.75    0.18
   6  -3   3    3.39    0.16
  -7   3  -3    1.40    0.18
  -7   3  -3    1.67    0.14
   7  -3   3    1.68    0.13
  -8   3  -3    1.86    0.21
   8  -3   3    1.96    0.16
  -9   3  -3    2.25    0.25
   9  -3   3    2.36    0.19
 -10   3  -3    2.22    0.26
  10  -3   3    2.07    0.19
 -11   3  -3    0.19    0.15
  11  -3   3    0.21    0.10
  12  -3   3    2.49    0.23
 -11  -2   3    2.57    0.55
  10   2  -3    0.38    0.12
 -10  -2   3    0.25    0.25
   9   2  -3    6.04    0.30
  -9  -2   3    5.99    0.46
   8   2  -3    0.16    0.08
  -8  -2   3   -0.16    0.19
   7   2  -3    4.91    0.24
  -7  -2   3    5.25    0.37
   6   2  -3   14.75    0.40
  -6  -2   3   14.49    0.52
   5   2  -3    5.55    0.21
  -5  -2   3    5.81    0.20
  -5  -2   3    6.15    0.32
   4   2  -3   50.98    0.90
  -4  -2   3   51.91    0.87
  -4  -2   3   52.61    1.03
   3   2  -3   -0.02    0.03
   3   2  -3   -0.01    0.07
  -3  -2   3    0.08    0.05
  -3  -2   3    0.01    0.06
   2   2  -3   32.93    0.66
   2   2  -3   32.26    0.58
  -2  -2   3   33.30    0.59
   1   2  -3   66.94    1.13
   1   2  -3   65.36    1.04
  -1  -2   3   66.60    1.07
   0   2  -3  193.89    3.20
   0   2  -3  193.24    2.89
   0  -2   3  202.12    3.13
  -1   2  -3   21.34    0.44
  -1   2  -3   20.62    0.38
  -1   2  -3   21.58    0.46
  -2   2  -3    0.53    0.08
  -2   2  -3    0.63    0.07
   2  -2   3    0.54    0.05
  -3   2  -3    1.28    0.09
  -3   2  -3    1.17    0.12
   3  -2   3    1.21    0.07
  -4   2  -3    4.81    0.16
  -4   2  -3    4.54    0.22
   4  -2   3    4.68    0.15
  -5   2  -3   43.79    0.77
  -5   2  -3   43.92    0.89
   5  -2   3   43.60    0.76
  -6   2  -3   74.42    1.23
  -6   2  -3   74.58    1.38
   6  -2   3   75.68    1.24
  -7   2  -3   70.48    1.35
  -7   2  -3   70.90    1.19
   7  -2   3   71.47    1.21
  -8   2  -3   52.24    1.11
   8  -2   3   52.80    0.97
  -9   2  -3    8.94    0.41
   9  -2   3    8.84    0.32
 -10   2  -3    1.91    0.24
  10  -2   3    1.79    0.18
 -11   2  -3   -0.12    0.11
  11  -2   3    0.12    0.10
  12  -2   3   -0.02    0.10
 -11  -1   3    2.41    0.41
  10   1  -3    0.85    0.15
 -10  -1   3    0.69    0.28
   9   1  -3    0.85    0.15
  -9  -1   3    0.31    0.24
   8   1  -3    0.20    0.09
  -8  -1   3    0.22    0.21
   7   1  -3   18.14    0.48
  -7  -1   3   18.41    0.61
   6   1  -3    0.10    0.07
  -6  -1   3    0.33    0.16
   5   1  -3    0.49    0.08
  -5  -1   3    0.51    0.15
  -5  -1   3    0.88    0.08
   4   1  -3    5.47    0.19
  -4  -1   3    5.57    0.27
  -4  -1   3    5.42    0.15
   3   1  -3   31.35    0.58
  -3  -1   3   31.13    0.67
  -3  -1   3   32.29    0.53
   2   1  -3   12.06    0.27
  -2  -1   3   12.24    0.24
  -2  -1   3   11.94    0.34
   1   1  -3  113.56    1.77
   1   1  -3  111.66    1.71
  -1  -1   3  114.32    1.70
   0   1  -3    3.29    0.11
   0   1  -3    2.96    0.13
   0   1  -3    3.17    0.12
  -1   1  -3   35.75    0.64
  -1   1  -3   37.10    0.63
  -1   1  -3   35.58    0.60
  -2   1  -3   10.70    0.29
  -2   1  -3   11.05    0.25
   2  -1   3   11.00    0.23
  -3   1  -3   37.05    0.62
  -3   1  -3   37.03    0.71
   3  -1   3   37.45    0.62
  -4   1  -3   14.64    0.30
  -4   1  -3   14.46    0.39
   4  -1   3   14.63    0.31
  -5   1  -3   25.03    0.46
  -5   1  -3   25.60    0.58
   5  -1   3   25.61    0.49
  -6   1  -3    1.72    0.10
  -6   1  -3    1.91    0.18
   6  -1   3    1.68    0.12
  -7   1  -3    4.13    0.24
  -7   1  -3    4.25    0.16
   7  -1   3    4.06    0.18
  -8   1  -3    0.09    0.11
   8  -1   3    0.06    0.06
  -9   1  -3    2.28    0.23
   9  -1   3    2.23    0.19
 -10   1  -3    3.83    0.29
  10  -1   3    3.78    0.23
 -11   1  -3    1.93    0.24
  11  -1   3    2.49    0.23
  12  -1   3    0.59    0.14
  11   0  -3    0.63    0.17
 -11   0   3    0.79    0.29
  10   0  -3    0.52    0.14
 -10   0   3    0.29    0.25
   9   0  -3    0.18    0.10
  -9   0   3    0.41    0.24
   8   0  -3    0.49    0.10
  -8   0   3    0.26    0.21
   7   0  -3   22.39    0.54
  -7   0   3   21.87    0.68
   6   0  -3   43.60    0.84
  -6   0   3   45.03    0.98
   5   0  -3    1.19    0.11
  -5   0   3    1.42    0.19
   4   0  -3   27.01    0.53
  -4   0   3   26.30    0.62
   3   0  -3   69.21    1.13
  -3   0   3   70.24    1.23
   2   0  -3  387.10    6.13
  -2   0   3  394.43    6.52
   1   0  -3    0.69    0.06
  -1   0   3    0.59    0.08
  -1   0   3    0.58    0.04
  -1   0   3    0.53    0.03
   0   0  -3   10.53    0.22
   0   0  -3   10.99    0.23
   0   0   3   10.52    0.25
  -1   0  -3   -0.02    0.03
  -1   0  -3   -0.02    0.02
  -1   0  -3   -0.01    0.03
  -2   0  -3   -0.08    0.04
  -2   0  -3    0.01    0.03
   2   0   3   -0.05    0.02
  -3   0  -3   51.05    0.89
  -3   0  -3   52.17    0.78
   3   0   3   50.82    0.83
  -4   0  -3    0.18    0.03
  -4   0  -3    0.23    0.07
   4   0   3    0.14    0.04
  -5   0  -3  103.17    1.52
  -5   0  -3  101.53    1.68
   5   0   3  100.68    1.59
  -6   0  -3   15.13    0.42
  -6   0  -3   15.17    0.30
   6   0   3   15.00    0.36
  -7   0  -3   24.44    0.61
  -7   0  -3   25.15    0.47
   7   0   3   24.58    0.53
  -8   0  -3    6.45    0.31
   8   0   3    6.38    0.25
  -9   0  -3   15.85    0.52
   9   0   3   17.43    0.46
 -10   0  -3    0.15    0.12
  10   0   3    0.09    0.09
 -11   0  -3    0.81    0.18
  11   0   3    0.45    0.12
  12   0   3    3.41    0.26
  11  -1  -3   13.93    0.56
 -11   1   3   13.28    0.64
  10  -1  -3    9.48    0.39
 -10   1   3    9.45    0.53
   9  -1  -3   -0.07    0.08
  -9   1   3   -0.19    0.19
   8  -1  -3    2.23    0.19
  -8   1   3    2.92    0.32
   7  -1  -3    9.10    0.31
  -7   1   3    9.18    0.44
   6  -1  -3   26.11    0.57
  -6   1   3   26.42    0.70
   5  -1  -3    6.37    0.22
  -5   1   3    6.12    0.31
   4  -1  -3   15.02    0.35
  -4   1   3   14.86    0.44
   3  -1  -3    0.06    0.03
  -3   1   3    0.08    0.09
   2  -1  -3   51.06    0.84
  -2   1   3   50.96    0.92
   1  -1  -3   75.48    1.12
   1  -1  -3   74.55    1.15
  -1   1   3   73.61    1.22
  -1   1   3   73.65    1.08
   0  -1  -3   59.56    0.95
   0  -1  -3   60.68    0.93
   0   1   3   62.10    0.99
  -1  -1  -3   69.43    1.09
  -1  -1  -3   69.12    1.07
   1   1   3   70.68    1.08
  -2  -1  -3   15.24    0.33
   2   1   3   14.79    0.25
   2   1   3   15.00    0.29
   2   1   3   15.09    0.26
  -3  -1  -3   77.03    1.27
   3   1   3   78.32    1.20
  -4  -1  -3  163.77    2.54
   4   1   3  165.51    2.46
  -5  -1  -3   49.40    0.94
  -5  -1  -3   50.61    0.77
  -5  -1  -3   50.77    0.82
   5   1   3   51.55    0.86
  -6  -1  -3    3.53    0.12
  -6  -1  -3    3.31    0.21
   6   1   3    3.39    0.15
  -7  -1  -3   29.76    0.69
  -7  -1  -3   30.47    0.54
   7   1   3   30.85    0.62
  -8  -1  -3    9.83    0.37
   8   1   3    9.82    0.31
  -9  -1  -3    0.26    0.12
   9   1   3    0.18    0.08
 -10  -1  -3   21.56    0.63
  10   1   3   21.20    0.56
 -11  -1  -3    4.55    0.31
  11   1   3    4.16    0.26
  12   1   3   13.21    0.47
  11  -2  -3    1.13    0.21
 -11   2   3    1.29    0.27
  10  -2  -3    0.13    0.09
 -10   2   3   -0.11    0.19
   9  -2  -3    0.52    0.12
  -9   2   3    0.28    0.20
   8  -2  -3    1.81    0.17
  -8   2   3    2.14    0.27
   7  -2  -3    2.96    0.19
  -7   2   3    3.10    0.30
   6  -2  -3   31.07    0.65
  -6   2   3   30.89    0.77
   5  -2  -3   20.01    0.36
   5  -2  -3   19.99    0.45
  -5   2   3   20.81    0.57
   4  -2  -3   69.83    1.17
   4  -2  -3   70.63    1.07
  -4   2   3   72.22    1.30
   3  -2  -3  140.66    2.07
   3  -2  -3  140.79    2.15
  -3   2   3  143.36    2.27
   2  -2  -3   42.96    0.66
   2  -2  -3   43.13    0.72
   2  -2  -3   43.37    0.66
  -2   2   3   42.11    0.81
   1  -2  -3   14.68    0.29
   1  -2  -3   14.57    0.27
  -1   2   3   14.05    0.35
   0  -2  -3  106.90    1.70
   0  -2  -3  103.93    1.58
   0   2   3  105.69    1.63
  -1  -2  -3   68.12    1.08
  -1  -2  -3   66.75    1.04
   1   2   3   68.62    1.06
  -2  -2  -3   20.55    0.42
  -2  -2  -3   21.03    0.43
   2   2   3   20.48    0.34
   2   2   3   20.51    0.37
  -3  -2  -3    9.18    0.27
  -3  -2  -3    8.78    0.15
   3   2   3    8.78    0.15
   3   2   3    8.81    0.21
  -4  -2  -3   33.34    0.68
  -4  -2  -3   34.92    0.52
  -4  -2  -3   34.70    0.51
   4   2   3   34.13    0.60
  -5  -2  -3  488.21    8.11
  -5  -2  -3  502.65    7.42
   5   2   3  505.89    7.82
  -6  -2  -3    0.13    0.05
  -6  -2  -3    0.07    0.08
   6   2   3    0.18    0.05
  -7  -2  -3   20.56    0.54
  -7  -2  -3   20.54    0.41
   7   2   3   19.91    0.46
  -8  -2  -3   21.68    0.59
   8   2   3   21.33    0.51
  -9  -2  -3    0.06    0.11
   9   2   3    0.00    0.07
 -10  -2  -3    4.99    0.31
  10   2   3    5.26    0.27
 -11  -2  -3    0.13    0.13
  11   2   3    0.03    0.09
  12   2   3    5.90    0.32
  11  -3  -3    0.10    0.17
 -11   3   3    0.80    0.33
  10  -3  -3    1.22    0.18
 -10   3   3    1.58    0.26
   9  -3  -3    1.72    0.19
  -9   3   3    2.18    0.28
   8  -3  -3   11.51    0.38
  -8   3   3   11.36    0.50
   7  -3  -3   21.76    0.52
  -7   3   3   20.85    0.63
   6  -3  -3   76.16    1.31
  -6   3   3   77.99    1.47
   5  -3  -3   29.19    0.52
   5  -3  -3   29.07    0.58
  -5   3   3   27.33    0.69
   4  -3  -3    4.78    0.15
   4  -3  -3    4.81    0.17
  -4   3   3    4.53    0.26
   3  -3  -3   13.32    0.28
   3  -3  -3   13.42    0.30
   2  -3  -3   59.84    0.97
   2  -3  -3   60.07    0.96
  -2   3   3   61.51    1.08
   1  -3  -3  104.66    1.58
   1  -3  -3  102.39    1.57
  -1   3   3  103.67    1.65
   0  -3  -3   11.17    0.26
   0  -3  -3   10.91    0.23
   0   3   3   11.37    0.28
  -1  -3  -3  982.74   15.09
  -1  -3  -3 1000.00   18.97
   1   3   3  996.08   20.65
  -2  -3  -3  233.82    3.81
   2   3   3  244.77    3.68
   2   3   3  242.92    3.73
  -3  -3  -3    0.31    0.09
   3   3   3    0.33    0.05
   3   3   3    0.39    0.04
  -4  -3  -3  210.81    3.23
   4   3   3  210.19    3.27
   4   3   3  211.53    3.21
  -5  -3  -3    0.32    0.05
  -5  -3  -3    0.14    0.10
   5   3   3    0.24    0.05
  -6  -3  -3   39.72    0.68
  -6  -3  -3   40.30    0.83
   6   3   3   39.29    0.73
  -7  -3  -3    8.87    0.26
  -7  -3  -3    9.62    0.37
   7   3   3    9.63    0.28
  -8  -3  -3    9.51    0.38
   8   3   3   10.21    0.32
  -9  -3  -3    7.22    0.36
   9   3   3    6.92    0.28
 -10  -3  -3    0.11    0.13
  10   3   3   -0.03    0.06
 -11  -3  -3    8.72    0.42
  11   3   3    7.94    0.34
  12   3   3    4.69    0.29
  10  -4  -3    0.57    0.14
 -10   4   3    0.77    0.20
   9  -4  -3   12.95    0.42
  -9   4   3   12.40    0.53
   8  -4  -3    2.64    0.19
  -8   4   3    2.69    0.28
   7  -4  -3    7.78    0.29
  -7   4   3    7.67    0.39
   6  -4  -3    9.75    0.30
  -6   4   3   10.14    0.42
   5  -4  -3    0.25    0.06
   5  -4  -3    0.28    0.06
  -5   4   3    0.19    0.11
   4  -4  -3    4.39    0.17
   4  -4  -3    4.32    0.16
  -4   4   3    4.92    0.27
   3  -4  -3    4.72    0.16
   3  -4  -3    4.60    0.16
   2  -4  -3   77.54    1.25
   2  -4  -3   79.12    1.22
  -2   4   3   77.20    1.33
   1  -4  -3   30.29    0.51
   1  -4  -3   29.81    0.57
  -1   4   3   30.14    0.60
   0  -4  -3  878.60   13.93
   0  -4  -3  935.92   13.61
   0   4   3  939.18   14.17
  -1  -4  -3   50.09    0.88
  -1  -4  -3   50.51    0.79
   1   4   3   49.98    0.85
  -2  -4  -3    5.37    0.22
   2   4   3    5.35    0.17
   2   4   3    5.30    0.14
  -3  -4  -3   14.54    0.39
   3   4   3   14.55    0.31
   3   4   3   14.73    0.29
  -4  -4  -3    9.46    0.32
   4   4   3    8.93    0.22
   4   4   3    8.82    0.23
  -5  -4  -3    0.57    0.14
   5   4   3    0.37    0.06
   5   4   3    0.44    0.06
  -6  -4  -3   46.55    0.95
   6   4   3   47.06    0.79
   6   4   3   46.15    0.83
  -7  -4  -3    7.44    0.36
  -7  -4  -3    7.88    0.25
   7   4   3    8.25    0.26
  -8  -4  -3   40.16    0.91
   8   4   3   39.66    0.79
  -9  -4  -3    1.32    0.21
   9   4   3    1.29    0.15
 -10  -4  -3    0.93    0.19
  10   4   3    0.95    0.14
 -11  -4  -3    0.57    0.18
  11   4   3    0.69    0.14
  12   4   3    4.15    0.28
  10  -5  -3    0.02    0.09
 -10   5   3    0.30    0.15
   9  -5  -3    3.93    0.24
  -9   5   3    4.50    0.34
   8  -5  -3   31.06    0.70
  -8   5   3   31.32    0.83
   7  -5  -3    9.04    0.31
  -7   5   3    9.42    0.42
   6  -5  -3   27.52    0.59
  -6   5   3   27.78    0.72
   5  -5  -3    2.52    0.15
   5  -5  -3    2.53    0.14
  -5   5   3    2.68    0.22
   4  -5  -3    0.16    0.05
   4  -5  -3    0.18    0.05
  -4   5   3    0.08    0.09
   3  -5  -3    0.89    0.10
   3  -5  -3    0.95    0.08
  -3   5   3    1.21    0.15
   2  -5  -3   10.67    0.30
   2  -5  -3   10.55    0.24
  -2   5   3   11.12    0.34
   1  -5  -3    0.38    0.07
  -1   5   3    0.40    0.08
   0  -5  -3    0.58    0.09
   0  -5  -3    0.60    0.05
   0   5   3    0.54    0.09
  -1  -5  -3  110.62    1.79
   1   5   3  110.24    1.75
  -2  -5  -3   40.66    0.80
   2   5   3   42.08    0.67
   2   5   3   41.21    0.74
  -3  -5  -3    5.37    0.25
   3   5   3    5.14    0.15
   3   5   3    4.79    0.18
  -4  -5  -3   74.17    1.33
   4   5   3   74.49    1.21
   4   5   3   73.89    1.17
  -5  -5  -3   10.93    0.39
   5   5   3   10.18    0.28
   5   5   3   10.05    0.26
  -6  -5  -3    1.55    0.21
   6   5   3    1.65    0.11
   6   5   3    1.56    0.12
  -7  -5  -3   24.71    0.67
   7   5   3   24.98    0.54
  -8  -5  -3    0.22    0.16
   8   5   3    0.22    0.08
  -9  -5  -3    6.88    0.39
   9   5   3    6.99    0.28
 -10  -5  -3    9.95    0.46
  10   5   3   10.07    0.36
 -11  -5  -3    8.76    0.45
  11   5   3    8.54    0.36
  12   5   3    1.16    0.18
  10  -6  -3    0.01    0.09
 -10   6   3    0.20    0.14
   9  -6  -3    4.38    0.25
  -9   6   3    5.57    0.37
   8  -6  -3   -0.04    0.06
  -8   6   3    0.00    0.12
   7  -6  -3   11.55    0.35
  -7   6   3   11.48    0.47
   6  -6  -3    1.75    0.13
  -6   6   3    1.83    0.21
   5  -6  -3    0.93    0.10
   5  -6  -3    0.93    0.12
  -5   6   3    1.08    0.17
   4  -6  -3   14.06    0.39
   4  -6  -3   14.14    0.33
  -4   6   3   13.31    0.44
   3  -6  -3    4.05    0.20
   3  -6  -3    4.25    0.15
  -3   6   3    4.93    0.25
   2  -6  -3   92.46    1.56
   2  -6  -3   92.80    1.42
  -2   6   3   91.46    1.59
   1  -6  -3   19.80    0.36
   1  -6  -3   19.75    0.48
  -1   6   3   19.76    0.49
   0  -6  -3  154.86    2.25
   0  -6  -3  154.16    2.44
   0   6   3  150.39    2.41
  -1  -6  -3    3.13    0.19
   1   6   3    2.45    0.08
   1   6   3    2.25    0.14
  -2  -6  -3  108.68    1.81
   2   6   3  107.35    1.75
   2   6   3  107.90    1.61
  -3  -6  -3  110.33    1.84
   3   6   3  111.40    1.64
   3   6   3  103.68    1.75
  -4  -6  -3    0.90    0.16
   4   6   3    1.27    0.12
   4   6   3    1.25    0.08
  -5  -6  -3    1.56    0.20
   5   6   3    1.73    0.10
   5   6   3    1.71    0.13
  -6  -6  -3    5.05    0.34
   6   6   3    5.17    0.19
   6   6   3    5.20    0.22
  -7  -6  -3   47.74    1.07
   7   6   3   48.10    0.90
   7   6   3   48.97    0.89
  -8  -6  -3    9.17    0.43
   8   6   3    8.96    0.30
  -9  -6  -3    1.87    0.26
   9   6   3    2.07    0.18
 -10  -6  -3    3.96    0.35
  10   6   3    4.24    0.25
 -11  -6  -3    9.86    0.49
  11   6   3    9.91    0.38
  12   6   3    9.26    0.40
 -10   7   3    2.59    0.34
  -9   7   3    6.75    0.41
  -8   7   3    1.63    0.25
   7  -7  -3    0.11    0.07
  -7   7   3    0.34    0.15
   6  -7  -3    0.45    0.12
   6  -7  -3    0.73    0.10
  -6   7   3    0.64    0.16
   5  -7  -3    7.34    0.30
   5  -7  -3    7.32    0.23
  -5   7   3    7.10    0.35
   4  -7  -3    0.17    0.05
   4  -7  -3    0.24    0.08
  -4   7   3    0.15    0.10
   3  -7  -3    4.26    0.15
   3  -7  -3    4.27    0.22
  -3   7   3    4.70    0.26
   2  -7  -3    4.80    0.14
   2  -7  -3    4.56    0.23
  -2   7   3    4.95    0.25
   1  -7  -3   45.73    0.73
   1  -7  -3   45.35    0.92
  -1   7   3   46.93    0.93
   0  -7  -3    0.73    0.12
   0   7   3    0.87    0.05
   0   7   3    0.62    0.11
  -1  -7  -3    6.93    0.29
   1   7   3    6.01    0.25
   1   7   3    6.34    0.14
  -2  -7  -3    4.50    0.25
   2   7   3    4.96    0.13
   2   7   3    5.03    0.23
  -3  -7  -3   10.62    0.40
   3   7   3   10.94    0.23
   3   7   3   11.11    0.34
  -4  -7  -3    7.67    0.36
   4   7   3    7.83    0.28
   4   7   3    7.60    0.20
  -5  -7  -3    1.09    0.19
   5   7   3    1.12    0.09
   5   7   3    1.16    0.14
  -6  -7  -3    1.69    0.24
   6   7   3    1.53    0.11
   6   7   3    1.60    0.16
  -7  -7  -3    0.10    0.19
   7   7   3    0.09    0.09
   7   7   3    0.11    0.06
  -8  -7  -3    3.80    0.33
   8   7   3    3.66    0.24
   8   7   3    3.76    0.20
  -9  -7  -3    2.73    0.32
   9   7   3    2.67    0.19
 -10  -7  -3    2.73    0.31
  10   7   3    2.60    0.22
 -11  -7  -3   -0.07    0.29
  11   7   3    0.11    0.10
  12   7   3   -0.07    0.10
  -9   8   3    5.82    0.39
  -8   8   3    2.00    0.27
  -7   8   3    3.57    0.30
   6  -8  -3   -0.07    0.07
  -6   8   3    0.08    0.12
   5  -8  -3    0.72    0.13
  -5   8   3    0.91    0.17
   4  -8  -3    0.45    0.11
  -4   8   3    0.42    0.13
   3  -8  -3    7.54    0.32
  -3   8   3    7.73    0.35
   2  -8  -3   80.60    1.47
  -2   8   3   77.58    1.47
   1  -8  -3    3.38    0.22
  -1   8   3    3.50    0.23
   0  -8  -3    9.52    0.38
   0   8   3    9.80    0.36
  -1  -8  -3   10.19    0.39
   1   8   3   10.07    0.36
  -2  -8  -3    4.38    0.29
   2   8   3    4.19    0.23
  -3  -8  -3    0.36    0.14
   3   8   3    0.10    0.08
  -4  -8  -3   -0.02    0.15
   4   8   3    0.01    0.04
   4   8   3   -0.04    0.07
  -5  -8  -3   92.65    1.72
   5   8   3   89.71    1.59
   5   8   3   88.66    1.42
  -6  -8  -3   15.98    0.59
   6   8   3   15.48    0.46
   6   8   3   15.19    0.37
  -7  -8  -3    2.98    0.31
   7   8   3    2.79    0.22
   7   8   3    2.95    0.16
  -8  -8  -3    2.14    0.30
   8   8   3    2.61    0.17
   8   8   3    2.47    0.23
  -9  -8  -3   -0.05    0.21
   9   8   3   -0.05    0.06
 -10  -8  -3    0.49    0.23
  10   8   3    0.27    0.10
  11   8   3    0.00    0.09
  -8   9   3    0.72    0.19
  -7   9   3    0.43    0.16
  -6   9   3    1.95    0.24
   5  -9  -3    2.67    0.23
  -5   9   3    3.25    0.28
   4  -9  -3    0.78    0.15
  -4   9   3    0.56    0.14
   3  -9  -3    3.79    0.26
  -3   9   3    3.51    0.26
   2  -9  -3    2.27    0.23
  -2   9   3    1.95    0.22
   1  -9  -3    9.27    0.39
  -1   9   3    8.45    0.36
   0  -9  -3   -0.02    0.09
   0   9   3    0.03    0.08
  -1  -9  -3    2.01    0.23
   1   9   3    1.67    0.18
  -2  -9  -3    0.51    0.15
   2   9   3    0.65    0.13
  -3  -9  -3    0.20    0.14
   3   9   3    0.31    0.11
  -4  -9  -3   50.71    1.14
   4   9   3   50.46    1.04
  -5  -9  -3   45.15    1.09
   5   9   3   46.52    0.98
  -6  -9  -3    0.30    0.22
   6   9   3    0.28    0.12
  -7  -9  -3    1.50    0.28
   7   9   3    1.20    0.19
  -8  -9  -3    2.46    0.33
   8   9   3    2.89    0.29
  -9  -9  -3    0.15    0.21
 -10  -9  -3    0.21    0.23
  -7  10   3    2.45    0.29
  -6  10   3    3.78    0.32
   5 -10  -3    1.74    0.24
  -5  10   3    1.60    0.24
   4 -10  -3    0.50    0.15
  -4  10   3    0.51    0.16
   3 -10  -3    5.29    0.32
  -3  10   3    5.41    0.33
   2 -10  -3    0.34    0.14
  -2  10   3    0.20    0.12
   1 -10  -3    4.62    0.30
  -1  10   3    4.29    0.29
   0 -10  -3    4.36    0.32
   0  10   3    4.04    0.27
  -1 -10  -3    0.54    0.16
   1  10   3    0.77    0.15
  -2 -10  -3   13.26    0.54
   2  10   3   13.32    0.48
  -3 -10  -3    2.34    0.28
   3  10   3    2.37    0.21
  -4 -10  -3    2.94    0.33
   4  10   3    3.08    0.25
  -5 -10  -3   36.69    1.00
   5  10   3   37.27    0.89
  -6 -10  -3    8.69    0.53
   6  10   3    8.89    0.40
  -7 -10  -3   -0.11    0.24
   7  10   3    0.11    0.14
  -8 -10  -3    0.47    0.28
  -9 -10  -3    3.58    0.42
 -10 -10  -3    0.05    0.25
  -6  11   3    6.42    0.42
   5 -11  -3    6.30    0.40
  -5  11   3    7.27    0.43
   4 -11  -3   -0.16    0.09
  -4  11   3    0.18    0.14
   3 -11  -3    0.23    0.13
  -3  11   3    0.16    0.13
   2 -11  -3   21.54    0.71
  -2  11   3   21.63    0.70
   1 -11  -3   -0.01    0.13
  -1  11   3    0.04    0.10
   0 -11  -3    0.03    0.13
   0  11   3    0.19    0.12
  -1 -11  -3    0.77    0.21
   1  11   3    0.93    0.18
  -2 -11  -3   -0.05    0.14
   2  11   3   -0.02    0.10
  -3 -11  -3    1.30    0.26
   3  11   3    1.19    0.20
  -4 -11  -3    3.95    0.39
   4  11   3    4.04    0.30
  -5 -11  -3    1.58    0.29
   5  11   3    1.68    0.24
  -6 -11  -3    1.61    0.34
   6  11   3    1.80    0.24
  -7 -11  -3   14.70    0.71
   7  11   3   15.15    0.56
  -8 -11  -3    0.18    0.29
  -9 -11  -3    0.00    0.25
   5 -12  -3    0.05    0.16
   4 -12  -3    6.12    0.42
  -4  12   3    6.93    0.43
   3 -12  -3    4.56    0.36
  -3  12   3    4.26    0.35
   2 -12  -3    0.19    0.17
  -2  12   3    0.20    0.15
   1 -12  -3   13.18    0.59
  -1  12   3   12.34    0.54
   0 -12  -3    0.33    0.19
   0  12   3    0.24    0.15
  -1 -12  -3    0.08    0.18
   1  12   3    0.27    0.15
  -2 -12  -3    0.38    0.22
   2  12   3    0.29    0.15
  -3 -12  -3   -0.22    0.17
   3  12   3    0.03    0.13
  -4 -12  -3    0.11    0.24
   4  12   3    0.75    0.19
  -5 -12  -3    1.05    0.32
   5  12   3    0.95    0.20
  -6 -12  -3   -0.02    0.25
   6  12   3    0.01    0.15
  -7 -12  -3   -0.14    0.25
   7  12   3   -0.10    0.16
  -8 -12  -3    0.31    0.36
   3 -13  -3    0.92    0.25
   2 -13  -3    4.09    0.42
  -2  13   3    4.09    0.36
   1 -13  -3    1.53    0.29
  -1  13   3    1.31    0.24
   0 -13  -3   -0.01    0.17
   0  13   3    0.26    0.16
  -1 -13  -3   -0.23    0.17
   1  13   3    0.17    0.14
  -2 -13  -3    0.32    0.25
   2  13   3    1.35    0.24
  -3 -13  -3    1.22    0.32
   3  13   3    2.04    0.28
  -4 -13  -3    1.59    0.32
   4  13   3    1.98    0.28
  -5 -13  -3    2.87    0.45
   5  13   3    3.23    0.34
   6  13   3   -0.10    0.16
   2  10  -4   -0.05    0.17
  -2 -10   4    0.16    0.19
   1  10  -4    4.35    0.42
  -1 -10   4    4.24    0.39
   0  10  -4    0.65    0.21
   0 -10   4    0.90    0.22
  -1  10  -4    0.36    0.20
   1 -10   4    0.39    0.15
  -2  10  -4    0.12    0.15
   2 -10   4    0.27    0.14
  -3  10  -4    1.70    0.28
   3 -10   4    1.81    0.27
  -4  10  -4    6.99    0.44
   4 -10   4    7.10    0.45
  -5  10  -4    0.79    0.22
   5   9  -4   -0.09    0.24
   4   9  -4    0.67    0.24
   3   9  -4    1.09    0.26
  -3  -9   4    0.78    0.22
   2   9  -4    2.59    0.31
  -2  -9   4    2.69    0.30
   1   9  -4    1.80    0.28
  -1  -9   4    1.94    0.26
   0   9  -4    3.77    0.34
   0  -9   4    3.49    0.30
  -1   9  -4    3.57    0.35
   1  -9   4    3.50    0.30
  -2   9  -4    4.81    0.36
   2  -9   4    4.23    0.32
  -3   9  -4    2.57    0.29
   3  -9   4    2.25    0.27
  -4   9  -4    0.26    0.15
   4  -9   4    0.34    0.13
  -5   9  -4    6.23    0.38
   5  -9   4    6.44    0.40
  -6   9  -4    8.89    0.44
   6  -9   4    8.95    0.48
  -6  -8   4    1.57    0.26
   5   8  -4    1.24    0.27
   4   8  -4    0.26    0.20
   3   8  -4    1.77    0.26
  -3  -8   4    1.87    0.25
   2   8  -4   11.02    0.51
  -2  -8   4   10.61    0.46
   1   8  -4    0.76    0.19
  -1  -8   4    0.67    0.16
   0   8  -4    0.17    0.15
   0  -8   4    0.25    0.13
  -1   8  -4    0.26    0.14
   1  -8   4    0.23    0.11
  -2   8  -4   16.56    0.58
   2  -8   4   16.05    0.58
  -3   8  -4    4.79    0.32
   3  -8   4    5.31    0.33
  -4   8  -4    0.06    0.12
   4  -8   4    0.23    0.11
  -5   8  -4    0.57    0.16
   5  -8   4    0.69    0.17
  -6   8  -4    1.26    0.21
   6  -8   4    1.27    0.22
   7  -8   4    3.51    0.31
   8  -8   4    6.10    0.40
  -7  -7   4    2.63    0.37
  -6  -7   4    4.55    0.38
   5   7  -4   10.76    0.50
   4   7  -4    0.03    0.14
   3   7  -4    4.77    0.35
  -3  -7   4    5.26    0.32
   2   7  -4    1.36    0.22
  -2  -7   4    1.54    0.20
   1   7  -4    0.81    0.17
  -1  -7   4    0.86    0.15
   0   7  -4    1.71    0.22
   0  -7   4    1.93    0.21
  -1   7  -4    3.67    0.26
   1  -7   4    3.69    0.25
  -2   7  -4    3.28    0.26
   2  -7   4    3.34    0.24
  -3   7  -4    4.02    0.28
   3  -7   4    4.30    0.28
  -4   7  -4    0.34    0.12
   4  -7   4    0.13    0.09
  -5   7  -4    0.04    0.10
   5  -7   4    0.19    0.10
  -6   7  -4    1.57    0.20
   6  -7   4    1.07    0.19
   7  -7   4    0.88    0.18
   8  -7   4   10.86    0.51
   9  -7   4    3.26    0.34
  -8  -6   4    5.98    0.52
  -7  -6   4   14.90    0.67
  -6  -6   4    0.46    0.20
   5   6  -4   -0.18    0.16
   4   6  -4    0.07    0.13
   3   6  -4    1.08    0.19
  -3  -6   4    1.11    0.17
   2   6  -4    0.50    0.16
  -2  -6   4    0.30    0.11
   1   6  -4    3.79    0.27
  -1  -6   4    3.92    0.24
   0   6  -4    8.10    0.36
   0  -6   4    8.96    0.35
  -1   6  -4   24.00    0.64
   1  -6   4   22.81    0.62
  -2   6  -4   17.33    0.52
   2  -6   4   17.40    0.53
  -3   6  -4    1.10    0.16
   3  -6   4    1.26    0.17
  -4   6  -4    3.80    0.24
   4  -6   4    3.60    0.25
  -5   6  -4    2.51    0.21
   5  -6   4    2.23    0.23
  -6   6  -4    9.95    0.38
   6  -6   4    9.02    0.41
   7  -6   4    1.20    0.19
  -8   6  -4   -0.07    0.14
   8  -6   4    0.11    0.08
   9  -6   4    0.32    0.13
  10  -6   4    0.38    0.15
   9   5  -4    0.99    0.17
  -9  -5   4    0.50    0.30
   8   5  -4    2.07    0.21
  -8  -5   4    2.46    0.35
   7   5  -4   16.67    0.48
  -7  -5   4   16.71    0.69
   6   5  -4    0.14    0.08
  -6  -5   4    0.13    0.18
   5   5  -4    0.55    0.10
  -5  -5   4    1.08    0.20
   4   5  -4    0.63    0.16
   4   5  -4    0.62    0.10
  -4  -5   4    0.52    0.21
   3   5  -4   -0.05    0.10
   3   5  -4    0.00    0.05
  -3  -5   4   -0.07    0.08
   2   5  -4   13.53    0.33
   2   5  -4   13.47    0.46
  -2  -5   4   14.09    0.42
   1   5  -4  113.50    1.98
   1   5  -4  114.76    1.77
  -1  -5   4  114.00    1.92
   0   5  -4    3.48    0.23
   0   5  -4    3.43    0.14
   0  -5   4    3.77    0.21
  -1   5  -4    4.03    0.24
   1  -5   4    3.83    0.22
  -2   5  -4    0.36    0.10
   2  -5   4    0.45    0.06
   2  -5   4    0.37    0.09
  -3   5  -4   19.47    0.51
   3  -5   4   19.09    0.55
   3  -5   4   18.85    0.37
  -4   5  -4   41.74    0.87
  -4   5  -4   42.28    0.97
   4  -5   4   42.11    0.72
  -5   5  -4   14.26    0.52
  -5   5  -4   14.26    0.44
   5  -5   4   14.51    0.33
  -6   5  -4    0.06    0.07
  -6   5  -4   -0.02    0.11
   6  -5   4    0.02    0.05
  -7   5  -4   22.68    0.71
  -7   5  -4   22.00    0.58
  -8   5  -4    8.47    0.44
  -9   5  -4    1.34    0.25
 -10   5  -4    0.45    0.19
 -11   5  -4    3.82    0.38
   9   4  -4    3.33    0.25
  -9  -4   4    2.94    0.41
   8   4  -4   21.11    0.58
  -8  -4   4   20.72    0.79
   7   4  -4   14.66    0.44
  -7  -4   4   14.99    0.63
   6   4  -4    4.50    0.23
  -6  -4   4    3.95    0.33
   5   4  -4   16.70    0.43
  -5  -4   4   16.37    0.59
   4   4  -4   24.78    0.67
   4   4  -4   26.12    0.55
  -4  -4   4   25.60    0.58
   3   4  -4   17.93    0.41
   3   4  -4   17.65    0.52
  -3  -4   4   18.15    0.46
   2   4  -4   28.14    0.55
   2   4  -4   29.25    0.70
  -2  -4   4   28.84    0.62
   1   4  -4   49.42    0.84
   1   4  -4   48.16    0.98
  -1  -4   4   49.28    0.93
   0   4  -4  187.66    2.98
   0   4  -4  187.53    2.81
   0  -4   4  191.33    2.96
  -1   4  -4   41.12    0.70
  -1   4  -4   40.55    0.83
   1  -4   4   42.15    0.84
  -2   4  -4    6.56    0.27
   2  -4   4    6.86    0.27
   2  -4   4    6.42    0.18
  -3   4  -4    8.75    0.30
  -3   4  -4    8.64    0.35
   3  -4   4    9.27    0.22
  -4   4  -4   28.32    0.62
  -4   4  -4   27.24    0.70
   4  -4   4   28.20    0.52
  -5   4  -4   10.84    0.42
  -5   4  -4   11.72    0.35
   5  -4   4   11.09    0.28
  -6   4  -4   11.61    0.46
  -6   4  -4   12.52    0.38
   6  -4   4   12.71    0.32
  -7   4  -4    5.11    0.24
  -7   4  -4    4.68    0.31
   7  -4   4    5.09    0.21
  -8   4  -4   14.81    0.56
   8  -4   4   15.14    0.40
  -9   4  -4    3.44    0.34
   9  -4   4    3.27    0.20
 -10   4  -4    4.42    0.36
  10  -4   4    4.05    0.24
 -11   4  -4    0.38    0.18
  11  -4   4    0.53    0.13
 -12   4  -4    0.89    0.23
  10   3  -4    0.50    0.23
 -10  -3   4    0.20    0.31
   9   3  -4   -0.01    0.09
  -9  -3   4    0.00    0.26
   8   3  -4    1.62    0.18
  -8  -3   4    1.65    0.31
   7   3  -4   -0.05    0.07
  -7  -3   4    0.12    0.17
   6   3  -4    5.28    0.24
  -6  -3   4    4.77    0.34
   5   3  -4    2.41    0.16
  -5  -3   4    2.14    0.25
   4   3  -4   12.62    0.34
  -4  -3   4   12.10    0.46
  -4  -3   4   12.18    0.34
   3   3  -4   14.47    0.35
  -3  -3   4   14.65    0.36
   2   3  -4    0.44    0.11
   2   3  -4    0.56    0.07
  -2  -3   4    0.36    0.07
   1   3  -4  146.71    2.26
   1   3  -4  152.56    2.40
  -1  -3   4  147.50    2.32
   0   3  -4    2.30    0.11
   0   3  -4    2.32    0.16
   0  -3   4    2.43    0.14
  -1   3  -4   30.53    0.65
  -1   3  -4   31.21    0.66
  -1   3  -4   31.02    0.55
  -2   3  -4   70.09    1.26
  -2   3  -4   67.26    1.19
   2  -3   4   71.37    1.10
  -3   3  -4    5.73    0.22
  -3   3  -4    5.63    0.26
   3  -3   4    5.71    0.17
  -4   3  -4    0.17    0.08
  -4   3  -4   -0.03    0.05
   4  -3   4   -0.01    0.03
  -5   3  -4   22.96    0.51
  -5   3  -4   23.38    0.62
   5  -3   4   22.47    0.47
  -6   3  -4   60.40    1.08
  -6   3  -4   63.49    1.25
   6  -3   4   61.24    1.05
  -7   3  -4   28.24    0.60
  -7   3  -4   27.93    0.75
   7  -3   4   28.11    0.59
  -8   3  -4    5.03    0.32
   8  -3   4    4.48    0.21
  -9   3  -4    0.58    0.17
   9  -3   4    0.64    0.11
 -10   3  -4    4.49    0.35
  10  -3   4    4.03    0.23
 -11   3  -4    8.02    0.45
  11  -3   4    9.33    0.36
 -12   3  -4    0.19    0.17
  12  -3   4   -0.04    0.10
  10   2  -4    1.10    0.18
 -10  -2   4    1.06    0.33
   9   2  -4   -0.09    0.09
  -9  -2   4   -0.26    0.24
   8   2  -4    2.26    0.21
  -8  -2   4    1.74    0.32
   7   2  -4    1.01    0.14
  -7  -2   4    0.52    0.20
   6   2  -4    0.46    0.10
  -6  -2   4    0.53    0.19
   5   2  -4    0.12    0.06
  -5  -2   4    0.07    0.13
   4   2  -4    3.31    0.17
  -4  -2   4    3.53    0.27
   3   2  -4   11.44    0.30
  -3  -2   4   11.83    0.28
  -3  -2   4   11.27    0.39
   2   2  -4    0.06    0.07
  -2  -2   4    0.00    0.03
   1   2  -4   27.96    0.59
   1   2  -4   26.69    0.51
  -1  -2   4   26.80    0.52
   0   2  -4   18.20    0.37
   0   2  -4   18.45    0.43
   0  -2   4   17.64    0.40
  -1   2  -4   77.53    1.29
  -1   2  -4   74.61    1.29
  -1   2  -4   79.51    1.22
  -2   2  -4    2.10    0.14
  -2   2  -4    2.13    0.10
  -2   2  -4    2.26    0.13
  -3   2  -4   22.80    0.54
  -3   2  -4   22.59    0.47
   3  -2   4   22.89    0.43
  -4   2  -4    9.66    0.26
  -4   2  -4    9.43    0.33
   4  -2   4   10.24    0.25
  -5   2  -4    9.47    0.26
  -5   2  -4    9.46    0.36
   5  -2   4    9.42    0.26
  -6   2  -4    3.63    0.16
  -6   2  -4    3.45    0.23
   6  -2   4    3.83    0.17
  -7   2  -4   33.81    0.82
  -7   2  -4   33.65    0.65
   7  -2   4   33.93    0.67
  -8   2  -4    0.03    0.10
   8  -2   4    0.11    0.07
  -9   2  -4   22.57    0.68
   9  -2   4   22.63    0.55
 -10   2  -4    3.48    0.33
  10  -2   4    3.27    0.22
 -11   2  -4    1.39    0.23
  11  -2   4    1.33    0.17
 -12   2  -4    1.30    0.23
  12  -2   4    1.47    0.20
  10   1  -4    2.01    0.22
 -10  -1   4    1.69    0.36
   9   1  -4    4.71    0.28
  -9  -1   4    4.63    0.45
   8   1  -4    4.66    0.26
  -8  -1   4    5.44    0.41
   7   1  -4    3.06    0.20
  -7  -1   4    2.83    0.33
   6   1  -4    3.48    0.20
  -6  -1   4    3.11    0.31
   5   1  -4    0.42    0.08
  -5  -1   4    0.53    0.17
   4   1  -4   12.84    0.34
  -4  -1   4   12.69    0.44
   3   1  -4   24.23    0.50
  -3  -1   4   24.65    0.60
  -3  -1   4   24.42    0.42
   2   1  -4    0.22    0.05
  -2  -1   4    0.17    0.08
  -2  -1   4    0.21    0.04
   1   1  -4   13.68    0.35
   1   1  -4   13.88    0.31
  -1  -1   4   13.33    0.28
   0   1  -4   14.62    0.36
   0   1  -4   14.73    0.33
   0   1  -4   15.10    0.32
  -1   1  -4   62.54    1.03
  -1   1  -4   61.90    1.05
  -1   1  -4   62.06    1.00
  -2   1  -4   36.26    0.63
  -2   1  -4   36.30    0.70
  -2   1  -4   36.64    0.65
  -3   1  -4   10.23    0.24
  -3   1  -4    9.96    0.31
   3  -1   4   10.19    0.24
  -4   1  -4   92.97    1.58
  -4   1  -4   94.84    1.44
   4  -1   4   92.66    1.46
  -5   1  -4   47.86    0.94
  -5   1  -4   46.61    0.78
   5  -1   4   47.46    0.82
  -6   1  -4  232.88    3.62
  -6   1  -4  230.48    3.41
   6  -1   4  229.89    3.47
  -7   1  -4    0.74    0.14
   7  -1   4    0.89    0.11
  -8   1  -4   25.52    0.68
   8  -1   4   24.85    0.56
  -9   1  -4    0.60    0.16
   9  -1   4    0.70    0.12
 -10   1  -4    0.85    0.18
  10  -1   4    1.03    0.15
 -11   1  -4    3.20    0.31
  11  -1   4    2.69    0.23
 -12   1  -4    0.22    0.16
  12  -1   4    0.34    0.13
 -11   0   4    0.37    0.31
  10   0  -4    0.40    0.14
 -10   0   4    0.10    0.26
   9   0  -4    0.30    0.12
  -9   0   4    0.26    0.25
   8   0  -4    0.65    0.13
  -8   0   4    0.52    0.23
   7   0  -4    2.65    0.21
  -7   0   4    2.01    0.28
   6   0  -4    1.46    0.14
  -6   0   4    1.32    0.22
   5   0  -4   16.95    0.42
  -5   0   4   16.86    0.55
   4   0  -4   11.60    0.31
  -4   0   4   11.50    0.42
   3   0  -4   66.67    1.11
  -3   0   4   66.19    1.22
   2   0  -4    7.58    0.22
  -2   0   4    7.37    0.28
   1   0  -4   59.29    0.97
  -1   0   4   59.35    1.05
   0   0  -4   17.63    0.35
   0   0  -4   17.19    0.34
   0   0   4   17.37    0.40
  -1   0  -4    0.20    0.05
  -1   0  -4    0.25    0.05
  -1   0  -4    0.25    0.06
  -2   0  -4    1.65    0.12
  -2   0  -4    1.85    0.09
  -2   0  -4    1.84    0.09
  -3   0  -4   40.25    0.75
  -3   0  -4   39.65    0.64
   3   0   4   39.14    0.68
  -4   0  -4   16.48    0.42
  -4   0  -4   16.64    0.30
   4   0   4   16.52    0.35
  -5   0  -4    3.48    0.10
  -5   0  -4    3.21    0.20
   5   0   4    3.11    0.14
  -6   0  -4   11.47    0.39
  -6   0  -4   11.37    0.23
   6   0   4   11.58    0.31
  -7   0  -4   16.10    0.48
   7   0   4   16.13    0.40
  -8   0  -4   10.04    0.40
   8   0   4   10.58    0.33
  -9   0  -4    0.83    0.17
   9   0   4    0.45    0.10
 -10   0  -4    0.50    0.15
  10   0   4    0.64    0.12
 -11   0  -4    3.06    0.31
  11   0   4    2.81    0.23
 -12   0  -4   28.81    0.85
  12   0   4   29.23    0.75
 -11   1   4    0.33    0.28
  10  -1  -4    2.37    0.24
 -10   1   4    2.73    0.36
   9  -1  -4    3.15    0.26
  -9   1   4    2.51    0.35
   8  -1  -4    0.20    0.09
  -8   1   4    0.06    0.21
   7  -1  -4    3.03    0.20
  -7   1   4    3.68    0.35
   6  -1  -4    0.80    0.11
  -6   1   4    0.64    0.19
   5  -1  -4   10.33    0.31
  -5   1   4   10.34    0.44
   4  -1  -4    0.10    0.05
  -4   1   4    0.01    0.11
   3  -1  -4    5.52    0.19
  -3   1   4    5.12    0.26
   2  -1  -4   13.06    0.30
  -2   1   4   12.67    0.37
   1  -1  -4    1.07    0.08
   1  -1  -4    1.17    0.05
  -1   1   4    1.21    0.07
  -1   1   4    1.32    0.14
   0  -1  -4  167.83    2.65
   0  -1  -4  170.47    2.56
   0   1   4  177.01    2.75
  -1  -1  -4   13.19    0.29
  -1  -1  -4   13.00    0.30
   1   1   4   14.00    0.30
  -2  -1  -4  113.56    1.78
  -2  -1  -4  114.77    1.74
   2   1   4  113.49    1.81
  -3  -1  -4   11.52    0.32
   3   1   4   11.28    0.26
   3   1   4   11.20    0.21
   3   1   4   11.02    0.20
  -4  -1  -4  313.08    5.31
   4   1   4  321.75    4.95
  -5  -1  -4    6.45    0.26
   5   1   4    5.87    0.19
  -6  -1  -4   15.27    0.44
   6   1   4   14.59    0.36
  -7  -1  -4    3.45    0.24
   7   1   4    3.64    0.18
  -8  -1  -4    0.61    0.14
   8   1   4    0.59    0.10
  -9  -1  -4    1.54    0.21
   9   1   4    1.66    0.17
 -10  -1  -4    6.57    0.36
  10   1   4    5.88    0.28
 -11  -1  -4    0.04    0.13
  11   1   4    0.13    0.09
 -12  -1  -4    0.67    0.18
  12   1   4    0.70    0.16
 -11   2   4    0.60    0.27
  10  -2  -4    1.98    0.22
 -10   2   4    1.63    0.31
   9  -2  -4    0.99    0.15
  -9   2   4    0.88    0.27
   8  -2  -4    0.36    0.11
  -8   2   4    0.18    0.21
   7  -2  -4   11.21    0.36
  -7   2   4   10.61    0.50
   6  -2  -4   18.76    0.46
  -6   2   4   17.29    0.58
   5  -2  -4   21.86    0.50
  -5   2   4   22.05    0.63
   4  -2  -4   17.55    0.40
  -4   2   4   16.54    0.51
  -3   2   4    6.18    0.28
   2  -2  -4   26.69    0.51
  -2   2   4   27.07    0.61
   1  -2  -4   33.03    0.53
   1  -2  -4   32.30    0.58
  -1   2   4   31.94    0.65
   0  -2  -4   40.22    0.68
   0  -2  -4   39.79    0.66
   0   2   4   39.35    0.73
  -1  -2  -4   70.29    1.12
  -1  -2  -4   68.36    1.09
   1   2   4   69.41    1.11
  -2  -2  -4  109.61    1.76
  -2  -2  -4  115.05    1.72
   2   2   4  113.99    1.83
  -3  -2  -4  165.33    2.56
   3   2   4  166.89    2.48
   3   2   4  165.73    2.46
   3   2   4  165.68    2.48
  -4  -2  -4    4.76    0.22
   4   2   4    4.19    0.15
  -5  -2  -4    1.05    0.14
   5   2   4    1.58    0.10
  -6  -2  -4    6.78    0.29
  -7  -2  -4   -0.06    0.10
   7   2   4    0.15    0.06
  -8  -2  -4   33.34    0.79
   8   2   4   32.59    0.69
  -9  -2  -4   29.36    0.75
   9   2   4   28.55    0.65
 -10  -2  -4    0.54    0.16
  10   2   4    0.53    0.11
 -11  -2  -4    0.15    0.15
  11   2   4    0.29    0.10
 -12  -2  -4   14.07    0.56
  12   2   4   14.26    0.50
  13   2   4    0.52    0.24
  10  -3  -4    1.69    0.20
 -10   3   4    1.64    0.28
   9  -3  -4    0.07    0.09
  -9   3   4    0.20    0.19
   8  -3  -4    5.06    0.26
  -8   3   4    4.95    0.40
   7  -3  -4    1.47    0.15
  -7   3   4    1.24    0.22
   6  -3  -4    6.67    0.26
  -6   3   4    6.92    0.37
   5  -3  -4    0.58    0.10
  -5   3   4    1.07    0.20
   4  -3  -4   30.68    0.54
   4  -3  -4   32.34    0.62
  -4   3   4   31.71    0.75
   3  -3  -4   52.21    0.83
   3  -3  -4   53.54    0.91
  -3   3   4   53.44    1.04
   2  -3  -4    8.82    0.20
   2  -3  -4    8.62    0.23
   1  -3  -4   41.17    0.69
   1  -3  -4   41.33    0.71
  -1   3   4   41.87    0.80
   0  -3  -4    1.05    0.10
   0  -3  -4    0.87    0.07
   0   3   4    0.93    0.11
  -1  -3  -4  357.71    5.62
  -1  -3  -4  374.34    5.77
   1   3   4  359.90    5.70
  -2  -3  -4    1.60    0.15
  -2  -3  -4    1.38    0.08
   2   3   4    1.40    0.08
  -3  -3  -4    5.41    0.23
   3   3   4    5.40    0.13
   3   3   4    5.41    0.16
  -4  -3  -4   20.73    0.50
  -4  -3  -4   20.32    0.33
   4   3   4   19.66    0.33
   4   3   4   20.96    0.41
  -5  -3  -4    0.93    0.15
  -5  -3  -4    0.98    0.04
   5   3   4    0.88    0.09
  -6  -3  -4    7.20    0.15
  -6  -3  -4    7.05    0.31
   6   3   4    7.34    0.23
  -7  -3  -4    2.76    0.24
   7   3   4    2.87    0.16
  -8  -3  -4   28.40    0.72
   8   3   4   27.11    0.60
  -9  -3  -4    6.82    0.36
   9   3   4    6.54    0.28
 -10  -3  -4    0.20    0.15
  10   3   4    0.07    0.08
 -11  -3  -4    0.05    0.15
  11   3   4    0.00    0.08
 -12  -3  -4    0.24    0.15
  12   3   4    0.02    0.10
  10  -4  -4    0.20    0.12
 -10   4   4    0.00    0.16
   9  -4  -4    3.04    0.23
  -9   4   4    2.97    0.33
   8  -4  -4    5.66    0.27
  -8   4   4    5.03    0.38
   7  -4  -4   17.38    0.47
  -7   4   4   17.19    0.61
   6  -4  -4   20.47    0.50
  -6   4   4   21.15    0.64
   5  -4  -4   14.42    0.38
  -5   4   4   14.77    0.51
   4  -4  -4   33.01    0.64
   4  -4  -4   33.29    0.59
  -4   4   4   31.83    0.77
   3  -4  -4   79.60    1.28
   3  -4  -4   81.74    1.26
  -3   4   4   74.75    1.40
   2  -4  -4   24.78    0.48
   2  -4  -4   25.17    0.48
  -2   4   4   24.74    0.58
   1  -4  -4    9.14    0.22
   1  -4  -4    8.63    0.24
  -1   4   4    8.63    0.29
   0  -4  -4   85.40    1.37
   0  -4  -4   85.14    1.32
   0   4   4   84.77    1.39
  -1  -4  -4  190.69    2.83
  -1  -4  -4  183.98    2.75
   1   4   4  181.82    2.78
  -2  -4  -4   55.18    1.00
   2   4   4   55.89    0.92
   2   4   4   57.37    0.90
  -3  -4  -4    0.46    0.11
   3   4   4    0.37    0.05
   3   4   4    0.31    0.05
  -4  -4  -4    0.72    0.13
   4   4   4    0.72    0.06
   4   4   4    0.77    0.07
  -5  -4  -4   19.74    0.53
   5   4   4   19.53    0.42
   5   4   4   19.30    0.36
  -6  -4  -4   29.49    0.51
  -6  -4  -4   29.42    0.70
   6   4   4   29.45    0.58
  -7  -4  -4    3.03    0.27
   7   4   4    3.32    0.17
  -8  -4  -4    0.77    0.19
   8   4   4    0.75    0.10
  -9  -4  -4    2.31    0.26
   9   4   4    1.72    0.16
 -10  -4  -4    3.32    0.31
  10   4   4    2.87    0.21
 -11  -4  -4    1.96    0.26
  11   4   4    1.75    0.19
 -12  -4  -4    1.49    0.25
  12   4   4    1.69    0.21
  10  -5  -4    0.30    0.12
 -10   5   4    0.82    0.21
   9  -5  -4   -0.07    0.08
  -9   5   4    0.11    0.15
   8  -5  -4   -0.06    0.07
  -8   5   4    0.11    0.15
   7  -5  -4    0.26    0.09
  -7   5   4    0.24    0.17
   6  -5  -4    1.33    0.13
  -6   5   4    1.78    0.23
   5  -5  -4    6.70    0.24
  -5   5   4    6.39    0.34
   4  -5  -4   42.65    0.78
   4  -5  -4   42.67    0.78
  -4   5   4   42.01    0.91
   3  -5  -4    0.56    0.08
   3  -5  -4    0.65    0.08
  -3   5   4    0.59    0.13
   2  -5  -4   11.09    0.30
   2  -5  -4   11.12    0.27
  -2   5   4   10.78    0.35
   1  -5  -4   79.31    1.25
   1  -5  -4   80.34    1.33
  -1   5   4   79.44    1.37
   0  -5  -4   14.61    0.30
   0  -5  -4   14.50    0.37
   0   5   4   13.25    0.36
  -1  -5  -4   15.21    0.40
  -1  -5  -4   15.41    0.31
   1   5   4   15.62    0.37
  -2  -5  -4  105.97    1.77
   2   5   4  107.14    1.69
   2   5   4  109.18    1.63
  -3  -5  -4    1.08    0.15
   3   5   4    1.13    0.09
   3   5   4    1.11    0.07
  -4  -5  -4    6.52    0.30
   4   5   4    6.76    0.20
   4   5   4    6.92    0.20
  -5  -5  -4    0.64    0.15
   5   5   4    0.93    0.09
   5   5   4    0.68    0.08
  -6  -5  -4    7.09    0.35
   6   5   4    7.87    0.25
   6   5   4    7.84    0.22
  -7  -5  -4   20.85    0.61
  -7  -5  -4   20.61    0.47
   7   5   4   21.30    0.49
  -8  -5  -4   27.68    0.74
   8   5   4   27.77    0.61
  -9  -5  -4    0.08    0.16
   9   5   4   -0.01    0.07
 -10  -5  -4    1.18    0.23
  10   5   4    0.56    0.12
 -11  -5  -4    4.02    0.35
  11   5   4    4.28    0.26
 -12  -5  -4   16.28    0.63
  12   5   4   16.52    0.54
  10  -6  -4    1.37    0.19
 -10   6   4    1.73    0.30
   9  -6  -4    2.98    0.24
  -9   6   4    3.25    0.33
   8  -6  -4    1.58    0.17
  -8   6   4    1.63    0.25
   7  -6  -4    2.34    0.17
  -7   6   4    2.73    0.28
   6  -6  -4    0.75    0.11
  -6   6   4    0.83    0.17
   5  -6  -4   32.71    0.65
  -5   6   4   31.97    0.80
   4  -6  -4    1.30    0.13
   4  -6  -4    1.28    0.11
  -4   6   4    1.26    0.18
   3  -6  -4    0.05    0.06
   3  -6  -4   -0.02    0.04
  -3   6   4   -0.05    0.09
   2  -6  -4    1.67    0.10
   2  -6  -4    1.45    0.14
  -2   6   4    1.60    0.17
   1  -6  -4   25.36    0.47
   1  -6  -4   25.25    0.57
   0  -6  -4   17.22    0.44
   0  -6  -4   16.89    0.34
   0   6   4   17.15    0.44
  -1  -6  -4   61.06    0.97
  -1  -6  -4   62.48    1.13
   1   6   4   60.46    1.08
  -2  -6  -4   39.47    0.82
   2   6   4   40.18    0.66
   2   6   4   39.29    0.75
  -3  -6  -4    3.03    0.22
   3   6   4    3.11    0.12
   3   6   4    3.57    0.16
  -4  -6  -4   10.29    0.39
   4   6   4   10.33    0.25
   4   6   4   10.33    0.29
  -5  -6  -4    0.21    0.15
   5   6   4    0.06    0.05
   5   6   4    0.11    0.05
  -6  -6  -4   21.10    0.62
   6   6   4   21.59    0.46
   6   6   4   20.69    0.46
  -7  -6  -4   10.74    0.46
   7   6   4   11.12    0.32
   7   6   4   11.19    0.31
  -8  -6  -4   17.98    0.60
   8   6   4   18.15    0.46
  -9  -6  -4    2.61    0.30
   9   6   4    2.30    0.18
 -10  -6  -4    1.49    0.26
  10   6   4    1.31    0.16
 -11  -6  -4    0.22    0.19
  11   6   4   -0.07    0.08
 -12  -6  -4    0.14    0.19
  12   6   4    0.22    0.12
  -9   7   4    1.81    0.26
   8  -7  -4   -0.04    0.07
  -8   7   4    0.20    0.14
   7  -7  -4    1.40    0.15
  -7   7   4    1.57    0.24
   6  -7  -4    0.63    0.10
  -6   7   4    0.69    0.17
   5  -7  -4    8.77    0.27
  -5   7   4    8.70    0.40
   4  -7  -4    0.75    0.12
   4  -7  -4    0.55    0.08
  -4   7   4    0.42    0.14
   3  -7  -4   26.90    0.52
   3  -7  -4   27.16    0.63
  -3   7   4   25.97    0.67
   2  -7  -4  107.23    1.66
   2  -7  -4  106.80    1.82
  -2   7   4  108.43    1.87
   1  -7  -4  102.66    1.58
   1  -7  -4  104.53    1.77
  -1   7   4  103.05    1.77
   0  -7  -4    0.19    0.04
   0  -7  -4    0.13    0.08
   0   7   4    0.20    0.08
  -1  -7  -4    4.15    0.24
   1   7   4    4.32    0.21
   1   7   4    4.27    0.13
  -2  -7  -4   30.75    0.72
   2   7   4   31.14    0.66
   2   7   4   31.26    0.53
  -3  -7  -4    0.21    0.12
   3   7   4    0.28    0.05
   3   7   4    0.21    0.07
  -4  -7  -4    3.06    0.26
   4   7   4    3.08    0.13
   4   7   4    2.87    0.17
  -5  -7  -4    1.75    0.24
   5   7   4    1.29    0.11
   5   7   4    1.24    0.13
  -6  -7  -4   14.71    0.53
   6   7   4   14.55    0.39
   6   7   4   14.61    0.36
  -7  -7  -4   35.54    0.91
   7   7   4   35.56    0.70
   7   7   4   34.88    0.72
  -8  -7  -4    8.63    0.45
   8   7   4    8.31    0.29
  -9  -7  -4   13.55    0.58
   9   7   4   13.43    0.41
 -10  -7  -4    0.29    0.21
  10   7   4    0.17    0.10
 -11  -7  -4    1.38    0.26
  11   7   4    0.74    0.15
  12   7   4    0.59    0.13
  -8   8   4    0.77    0.18
  -7   8   4    0.31    0.14
  -6   8   4   12.88    0.52
  -5   8   4   -0.03    0.10
   4  -8  -4   -0.05    0.07
  -4   8   4   -0.03    0.09
   3  -8  -4   10.83    0.39
  -3   8   4   10.37    0.41
   2  -8  -4   11.57    0.41
  -2   8   4   10.89    0.41
   1  -8  -4   12.51    0.30
   1  -8  -4   12.59    0.43
  -1   8   4   12.45    0.42
   0  -8  -4    0.22    0.10
   0   8   4    0.20    0.09
  -1  -8  -4   40.34    0.88
   1   8   4   38.25    0.83
  -2  -8  -4    9.64    0.40
   2   8   4   10.04    0.35
   2   8   4   10.39    0.22
  -3  -8  -4    7.69    0.37
   3   8   4    8.08    0.31
   3   8   4    8.01    0.20
  -4  -8  -4    9.51    0.42
   4   8   4    9.43    0.33
   4   8   4    9.40    0.24
  -5  -8  -4   23.87    0.70
   5   8   4   24.05    0.58
   5   8   4   24.04    0.48
  -6  -8  -4    9.74    0.47
   6   8   4   10.53    0.29
   6   8   4    9.36    0.33
  -7  -8  -4   11.28    0.54
   7   8   4   12.16    0.39
   7   8   4   11.91    0.34
  -8  -8  -4   15.49    0.62
   8   8   4   16.53    0.43
  -9  -8  -4    0.15    0.21
   9   8   4    0.09    0.08
 -10  -8  -4    0.57    0.24
  10   8   4    0.09    0.09
 -11  -8  -4    0.26    0.22
  11   8   4   -0.03    0.10
  12   8   4    3.81    0.27
  -8   9   4    0.59    0.18
  -7   9   4    0.35    0.15
  -6   9   4    8.86    0.45
   5  -9  -4    2.18    0.33
  -5   9   4    2.23    0.26
   4  -9  -4    0.86    0.16
  -4   9   4    1.15    0.19
   3  -9  -4    7.60    0.35
  -3   9   4    7.17    0.36
   2  -9  -4    4.76    0.29
  -2   9   4    4.89    0.30
   1  -9  -4    2.00    0.22
  -1   9   4    2.26    0.20
   0  -9  -4    0.08    0.10
   0   9   4    0.14    0.08
  -1  -9  -4    3.39    0.26
   1   9   4    2.92    0.22
  -2  -9  -4    0.26    0.14
   2   9   4    0.18    0.09
  -3  -9  -4   19.82    0.63
   3   9   4   20.03    0.56
  -4  -9  -4    0.71    0.19
   4   9   4    0.96    0.15
  -5  -9  -4    0.92    0.24
   5   9   4    1.01    0.15
  -6  -9  -4    1.11    0.24
   6   9   4    1.53    0.18
  -7  -9  -4    3.72    0.37
   7   9   4    3.85    0.25
  -8  -9  -4    0.17    0.21
  -9  -9  -4    0.49    0.27
 -10  -9  -4    2.46    0.36
 -11  -9  -4    0.55    0.25
  -7  10   4    4.29    0.35
  -6  10   4    1.16    0.21
  -5  10   4    8.36    0.44
   4 -10  -4    0.07    0.12
  -4  10   4    0.00    0.10
   3 -10  -4    2.80    0.27
  -3  10   4    3.28    0.26
   2 -10  -4    5.34    0.32
  -2  10   4    4.90    0.31
   1 -10  -4    7.28    0.38
  -1  10   4    7.50    0.37
   0 -10  -4    4.26    0.32
   0  10   4    4.95    0.29
  -1 -10  -4    3.01    0.30
   1  10   4    3.06    0.24
  -2 -10  -4    1.77    0.25
   2  10   4    1.72    0.20
  -3 -10  -4    0.06    0.15
   3  10   4   -0.07    0.07
  -4 -10  -4   11.03    0.51
   4  10   4   11.09    0.42
  -5 -10  -4    0.03    0.18
   5  10   4   -0.08    0.08
  -6 -10  -4   37.79    1.03
   6  10   4   38.44    0.88
  -7 -10  -4    0.16    0.27
   7  10   4    0.01    0.12
  -8 -10  -4   -0.02    0.23
  -9 -10  -4    2.33    0.35
 -10 -10  -4    0.39    0.24
 -11 -10  -4    0.38    0.42
  -6  11   4    0.21    0.17
  -5  11   4    0.44    0.17
   4 -11  -4    5.44    0.37
  -4  11   4    4.95    0.36
   3 -11  -4    4.76    0.35
  -3  11   4    5.13    0.34
   2 -11  -4    7.42    0.43
  -2  11   4    7.98    0.40
   1 -11  -4    1.36    0.23
  -1  11   4    1.32    0.19
   0 -11  -4    4.97    0.36
   0  11   4    4.59    0.31
  -1 -11  -4    0.43    0.17
   1  11   4    0.47    0.14
  -2 -11  -4    1.65    0.26
   2  11   4    1.62    0.22
  -3 -11  -4    0.94    0.23
   3  11   4    1.02    0.18
  -4 -11  -4   -0.02    0.21
   4  11   4    0.28    0.13
  -5 -11  -4    2.73    0.37
   5  11   4    2.95    0.26
  -6 -11  -4    1.82    0.32
   6  11   4    2.08    0.24
  -7 -11  -4    4.81    0.46
   7  11   4    5.19    0.35
  -8 -11  -4    3.43    0.41
  -9 -11  -4    0.63    0.31
   4 -12  -4   -0.02    0.17
  -4  12   4    0.11    0.14
   3 -12  -4   -0.03    0.16
  -3  12   4    0.02    0.14
   2 -12  -4    3.33    0.35
  -2  12   4    3.10    0.31
   1 -12  -4   -0.11    0.14
  -1  12   4    0.27    0.13
   0 -12  -4    0.66    0.20
   0  12   4    0.64    0.16
  -1 -12  -4   -0.12    0.15
   1  12   4    0.12    0.11
  -2 -12  -4    2.00    0.31
   2  12   4    1.33    0.21
  -3 -12  -4    1.15    0.28
   3  12   4    0.60    0.16
  -4 -12  -4    1.57    0.33
   4  12   4    1.48    0.22
  -5 -12  -4    2.13    0.35
   5  12   4    1.54    0.23
  -6 -12  -4    6.64    0.52
   6  12   4    7.26    0.41
  -7 -12  -4   -0.02    0.30
  -8 -12  -4    0.08    0.31
   3 -13  -4    0.27    0.22
   2 -13  -4    3.94    0.39
  -2  13   4    4.35    0.35
   1 -13  -4    0.73    0.25
  -1  13   4    1.12    0.23
   0 -13  -4   -0.29    0.19
   0  13   4    0.18    0.15
  -1 -13  -4   -0.40    0.18
   1  13   4   -0.03    0.12
  -2 -13  -4    0.05    0.23
   2  13   4    0.20    0.14
  -3 -13  -4    0.13    0.25
   3  13   4   -0.07    0.11
  -4 -13  -4   -0.40    0.23
   4  13   4   -0.11    0.13
  -5 -13  -4    0.87    0.35
   5  13   4    1.31    0.24
  -6 -13  -4    0.04    0.30
   6  13   4   -0.25    0.14
   2  14   4    0.80    0.23
   3  14   4    1.79    0.31
   4  14   4    0.73    0.33
  -1 -10   5    1.16    0.25
   0 -10   5   -0.05    0.15
  -1  10  -5    1.28    0.30
   1 -10   5    1.10    0.24
  -2  10  -5   -0.11    0.17
   2 -10   5    0.00    0.13
  -3  10  -5    0.38    0.20
  -4  10  -5    1.43    0.42
   3   9  -5    1.29    0.28
   2   9  -5    0.25    0.21
   1   9  -5    0.54    0.21
  -1  -9   5    0.46    0.18
   0   9  -5    0.46    0.20
   0  -9   5    0.53    0.17
  -1   9  -5    0.20    0.16
   1  -9   5    0.14    0.13
  -2   9  -5    0.42    0.19
   2  -9   5    0.33    0.15
  -3   9  -5    0.45    0.18
   3  -9   5    0.58    0.16
  -4   9  -5    2.88    0.32
   4  -9   5    2.41    0.31
  -5   9  -5   10.17    0.49
   5  -9   5   10.35    0.53
   5   8  -5   -0.12    0.23
   4   8  -5    1.33    0.29
   3   8  -5    0.16    0.17
   2   8  -5    1.34    0.26
  -2  -8   5    1.09    0.21
   1   8  -5    1.70    0.27
  -1  -8   5    1.26    0.21
   0   8  -5    0.43    0.18
   0  -8   5    0.19    0.12
  -1   8  -5    3.57    0.32
   1  -8   5    3.28    0.28
  -2   8  -5    0.28    0.16
   2  -8   5    0.11    0.10
  -3   8  -5    4.36    0.32
   3  -8   5    4.05    0.30
  -4   8  -5    0.85    0.19
   4  -8   5    0.64    0.17
  -5   8  -5   12.31    0.50
   5  -8   5   11.87    0.54
   6  -8   5    0.33    0.13
   7  -8   5    8.54    0.47
  -6  -7   5    4.35    0.45
  -5  -7   5    5.49    0.43
   4   7  -5    1.13    0.26
   3   7  -5    3.53    0.35
   2   7  -5    8.18    0.45
  -2  -7   5    8.12    0.38
   1   7  -5    0.01    0.13
  -1  -7   5    0.08    0.10
   0   7  -5    5.33    0.35
   0  -7   5    5.15    0.30
  -1   7  -5    6.84    0.38
   1  -7   5    6.87    0.35
  -2   7  -5    5.24    0.32
   2  -7   5    5.60    0.32
  -3   7  -5    3.12    0.25
   3  -7   5    3.59    0.26
  -4   7  -5    3.96    0.28
   4  -7   5    3.76    0.28
  -5   7  -5    1.29    0.20
   5  -7   5    1.48    0.22
  -6   7  -5    3.44    0.28
   6  -7   5    3.33    0.28
   7  -7   5    2.10    0.27
   8  -7   5    0.50    0.15
  -7  -6   5   -0.35    0.22
  -6  -6   5    2.85    0.35
  -5  -6   5    6.94    0.46
   4   6  -5    0.99    0.23
   3   6  -5   14.66    0.55
   2   6  -5    2.30    0.28
  -2  -6   5    2.02    0.21
   1   6  -5    3.68    0.30
  -1  -6   5    4.96    0.27
   0   6  -5    5.24    0.32
   0  -6   5    5.96    0.30
  -1   6  -5    2.91    0.25
   1  -6   5    2.47    0.21
  -2   6  -5   -0.05    0.10
   2  -6   5   -0.05    0.06
  -3   6  -5    1.97    0.21
   3  -6   5    1.69    0.20
  -4   6  -5    1.25    0.17
   4  -6   5    1.00    0.17
  -5   6  -5    2.41    0.21
   5  -6   5    2.88    0.24
  -6   6  -5    7.78    0.34
   6  -6   5    7.29    0.39
   7  -6   5    7.52    0.40
  -8   6  -5    2.32    0.30
   8  -6   5    2.71    0.30
  -9   6  -5    7.62    0.47
   9  -6   5    7.14    0.42
   8   5  -5    0.25    0.13
  -8  -5   5   -0.35    0.26
   7   5  -5    4.52    0.27
  -7  -5   5    4.08    0.42
   6   5  -5    0.93    0.14
  -6  -5   5    0.64    0.25
   5   5  -5    7.34    0.29
  -5  -5   5    6.80    0.43
   4   5  -5   10.47    0.48
   4   5  -5   10.76    0.34
   3   5  -5    1.76    0.23
   3   5  -5    1.85    0.14
   2   5  -5   12.63    0.34
   2   5  -5   11.93    0.46
  -2  -5   5   12.38    0.41
   1   5  -5    2.53    0.14
   1   5  -5    2.76    0.26
  -1  -5   5    2.71    0.19
   0   5  -5   48.47    1.04
   0   5  -5   50.46    0.86
   0  -5   5   49.18    1.00
  -1   5  -5   34.38    0.68
  -1   5  -5   35.60    0.82
   1  -5   5   36.24    0.81
  -2   5  -5   24.74    0.64
   2  -5   5   25.09    0.48
   2  -5   5   24.66    0.65
  -3   5  -5    0.12    0.10
   3  -5   5   -0.04    0.05
   3  -5   5   -0.01    0.07
  -4   5  -5    0.02    0.11
  -4   5  -5    0.09    0.09
  -5   5  -5   -0.01    0.12
  -5   5  -5   -0.02    0.07
  -6   5  -5    1.02    0.21
  -6   5  -5    0.93    0.14
  -7   5  -5    6.01    0.39
  -8   5  -5    9.21    0.48
  -9   5  -5   13.35    0.60
 -10   5  -5    6.02    0.44
   9   4  -5    1.51    0.22
   8   4  -5   -0.07    0.08
  -8  -4   5   -0.10    0.24
   7   4  -5   -0.05    0.09
  -7  -4   5   -0.24    0.23
   6   4  -5    4.33    0.24
  -6  -4   5    4.23    0.38
   5   4  -5    1.60    0.16
  -5  -4   5    2.02    0.28
   4   4  -5    3.36    0.19
  -4  -4   5    3.39    0.29
   3   4  -5    0.00    0.05
   3   4  -5    0.08    0.13
   2   4  -5    7.84    0.36
   2   4  -5    7.74    0.25
  -2  -4   5    7.53    0.28
   1   4  -5    6.59    0.32
   1   4  -5    6.30    0.22
  -1  -4   5    6.64    0.26
   0   4  -5   19.46    0.53
   0   4  -5   19.05    0.41
   0  -4   5   17.98    0.48
  -1   4  -5    0.75    0.13
  -1   4  -5    0.77    0.08
   1  -4   5    0.74    0.11
  -2   4  -5    5.67    0.26
   2  -4   5    5.17    0.25
   2  -4   5    5.17    0.17
  -3   4  -5    2.65    0.23
  -3   4  -5    2.94    0.20
   3  -4   5    2.52    0.12
  -4   4  -5    3.25    0.20
  -4   4  -5    3.05    0.24
   4  -4   5    2.93    0.14
  -5   4  -5    2.46    0.18
  -5   4  -5    2.39    0.24
   5  -4   5    2.19    0.13
  -6   4  -5    0.27    0.12
  -6   4  -5    0.22    0.09
   6  -4   5    0.27    0.06
  -7   4  -5   24.70    0.74
   7  -4   5   24.52    0.54
  -8   4  -5   15.27    0.60
   8  -4   5   14.71    0.40
  -9   4  -5    5.16    0.39
   9  -4   5    5.49    0.25
 -10   4  -5    0.57    0.18
  10  -4   5    0.53    0.18
 -11   4  -5    0.07    0.16
   9   3  -5    1.04    0.17
  -9  -3   5    1.16    0.35
   8   3  -5   -0.06    0.08
  -8  -3   5   -0.18    0.26
   7   3  -5    0.73    0.14
  -7  -3   5    1.09    0.29
   6   3  -5    9.51    0.35
  -6  -3   5    9.93    0.50
   5   3  -5    2.84    0.18
  -5  -3   5    2.48    0.28
   4   3  -5    0.15    0.07
  -4  -3   5   -0.01    0.14
   3   3  -5    2.32    0.15
  -3  -3   5    2.32    0.24
  -3  -3   5    1.80    0.19
   2   3  -5    3.05    0.24
   2   3  -5    3.02    0.15
  -2  -3   5    2.88    0.16
   1   3  -5    1.26    0.17
   1   3  -5    1.31    0.11
  -1  -3   5    1.42    0.11
   0   3  -5   45.88    0.80
   0   3  -5   44.80    0.91
   0  -3   5   45.67    0.87
  -1   3  -5    8.70    0.24
  -1   3  -5    7.89    0.30
   1  -3   5    8.36    0.29
  -2   3  -5    0.89    0.09
  -2   3  -5    0.63    0.11
  -2   3  -5    0.58    0.10
  -3   3  -5    0.33    0.09
  -3   3  -5    0.20    0.10
   3  -3   5    0.24    0.05
  -4   3  -5    0.26    0.08
  -4   3  -5    0.18    0.10
   4  -3   5    0.26    0.06
  -5   3  -5    2.16    0.15
  -5   3  -5    2.34    0.23
   5  -3   5    2.19    0.13
  -6   3  -5   11.23    0.44
  -6   3  -5   11.11    0.33
   6  -3   5   10.96    0.31
  -7   3  -5   -0.08    0.09
   7  -3   5    0.03    0.05
  -8   3  -5    6.67    0.38
   8  -3   5    6.60    0.26
  -9   3  -5    0.04    0.14
   9  -3   5   -0.13    0.06
 -10   3  -5    1.70    0.25
  10  -3   5    1.69    0.18
 -11   3  -5    0.10    0.17
  11  -3   5    0.05    0.09
 -12   3  -5    4.29    0.41
  12  -3   5    4.96    0.30
   9   2  -5    5.79    0.32
  -9  -2   5    5.08    0.49
   8   2  -5    0.02    0.09
  -8  -2   5   -0.20    0.20
   7   2  -5    3.39    0.23
  -7  -2   5    3.00    0.37
   6   2  -5    0.08    0.08
  -6  -2   5   -0.11    0.18
   5   2  -5    0.16    0.07
  -5  -2   5    0.31    0.18
   4   2  -5    2.60    0.16
  -4  -2   5    1.98    0.24
   3   2  -5    7.08    0.25
  -3  -2   5    7.39    0.34
   2   2  -5   15.65    0.38
  -2  -2   5   15.78    0.48
  -2  -2   5   16.09    0.36
   1   2  -5   16.12    0.44
   1   2  -5   16.18    0.37
  -1  -2   5   16.09    0.37
   0   2  -5    9.03    0.25
   0   2  -5    9.38    0.31
   0  -2   5    9.01    0.27
  -1   2  -5   12.19    0.35
  -1   2  -5   12.02    0.29
  -1   2  -5   12.24    0.35
  -2   2  -5    0.50    0.10
  -2   2  -5    0.38    0.08
  -2   2  -5    0.36    0.06
  -3   2  -5    0.96    0.13
  -3   2  -5    1.18    0.12
   3  -2   5    1.24    0.09
  -4   2  -5   11.76    0.31
  -4   2  -5   11.71    0.39
   4  -2   5   11.83    0.29
  -5   2  -5   16.96    0.50
  -5   2  -5   16.56    0.38
   5  -2   5   16.02    0.38
  -6   2  -5   53.56    0.92
  -6   2  -5   52.46    1.11
   6  -2   5   52.56    0.94
  -7   2  -5    1.88    0.22
   7  -2   5    1.66    0.14
  -8   2  -5    3.97    0.30
   8  -2   5    3.53    0.19
  -9   2  -5    0.47    0.17
   9  -2   5    0.53    0.11
 -10   2  -5    1.19    0.23
  10  -2   5    1.32    0.17
 -11   2  -5   10.06    0.51
  11  -2   5    9.81    0.38
 -12   2  -5    0.82    0.21
  12  -2   5    0.93    0.17
 -10  -1   5    0.27    0.35
   9   1  -5    2.22    0.22
  -9  -1   5    2.51    0.39
   8   1  -5   -0.01    0.10
  -8  -1   5   -0.15    0.24
   7   1  -5   -0.01    0.08
  -7  -1   5   -0.17    0.20
   6   1  -5    0.02    0.07
  -6  -1   5   -0.01    0.17
   5   1  -5    0.32    0.09
  -5  -1   5    0.17    0.16
   4   1  -5   16.65    0.42
  -4  -1   5   16.72    0.55
   3   1  -5    0.21    0.06
  -3  -1   5    0.35    0.14
   2   1  -5   11.56    0.30
  -2  -1   5   11.71    0.39
  -2  -1   5   10.62    0.24
   1   1  -5    0.39    0.07
  -1  -1   5    0.19    0.09
  -1  -1   5    0.20    0.04
   0   1  -5    3.12    0.18
   0   1  -5    3.30    0.15
   0   1  -5    3.13    0.14
  -1   1  -5   12.76    0.34
  -1   1  -5   13.08    0.34
  -1   1  -5   13.00    0.31
  -2   1  -5   36.25    0.66
  -2   1  -5   35.09    0.70
  -2   1  -5   34.52    0.64
  -3   1  -5   72.96    1.29
  -3   1  -5   74.58    1.20
   3  -1   5   73.00    1.18
  -4   1  -5    2.77    0.19
  -4   1  -5    2.94    0.13
   4  -1   5    2.91    0.13
  -5   1  -5   32.12    0.58
  -5   1  -5   31.57    0.73
   5  -1   5   33.49    0.62
  -6   1  -5    0.32    0.11
  -6   1  -5    0.25    0.05
   6  -1   5    0.30    0.07
  -7   1  -5   96.23    1.74
   7  -1   5   93.96    1.57
  -8   1  -5    1.00    0.18
   8  -1   5    0.99    0.12
  -9   1  -5    1.33    0.21
   9  -1   5    0.80    0.12
 -10   1  -5    0.16    0.14
  10  -1   5   -0.13    0.07
 -11   1  -5    0.52    0.16
  11  -1   5    0.09    0.10
 -12   1  -5    1.23    0.24
  12  -1   5    1.48    0.19
 -13   1  -5    8.10    0.49
 -10   0   5   -0.02    0.26
   9   0  -5    1.08    0.17
  -9   0   5    0.99    0.29
   8   0  -5    5.04    0.28
  -8   0   5    5.47    0.48
   7   0  -5    2.37    0.20
  -7   0   5    1.96    0.31
   6   0  -5   18.21    0.49
  -6   0   5   18.52    0.64
   5   0  -5   19.69    0.49
  -5   0   5   19.32    0.63
   4   0  -5   11.52    0.33
  -4   0   5   11.00    0.43
   3   0  -5   14.25    0.36
  -3   0   5   14.33    0.47
   2   0  -5   13.06    0.33
  -2   0   5   13.08    0.23
  -2   0   5   13.32    0.41
  -2   0   5   13.07    0.23
   1   0  -5    3.31    0.15
  -1   0   5    3.45    0.20
  -1   0   5    3.44    0.11
   0   0  -5   11.88    0.29
   0   0  -5   11.89    0.28
   0   0   5   11.70    0.33
  -1   0  -5    1.39    0.10
  -1   0  -5    1.26    0.09
   1   0   5    1.33    0.12
  -2   0  -5    6.71    0.20
  -2   0  -5    6.31    0.22
  -2   0  -5    6.56    0.20
  -3   0  -5   22.33    0.43
  -3   0  -5   23.30    0.52
   3   0   5   23.34    0.45
  -4   0  -5   47.10    0.76
  -4   0  -5   47.46    0.92
   4   0   5   48.12    0.82
  -5   0  -5    3.44    0.21
  -5   0  -5    3.48    0.11
   5   0   5    3.27    0.15
  -6   0  -5   25.30    0.63
   6   0   5   25.17    0.53
  -7   0  -5   55.54    1.13
   7   0   5   55.04    1.00
  -8   0  -5   48.56    1.07
   8   0   5   50.43    0.94
  -9   0  -5    2.83    0.27
   9   0   5    2.94    0.19
 -10   0  -5    0.14    0.12
  10   0   5    0.43    0.12
 -11   0  -5    0.87    0.21
  11   0   5    1.17    0.17
 -12   0  -5    0.57    0.19
  12   0   5    0.49    0.14
 -13   0  -5    1.03    0.24
 -10   1   5    1.72    0.34
   9  -1  -5    9.11    0.39
  -9   1   5    8.19    0.57
   8  -1  -5   15.51    0.49
  -8   1   5   15.05    0.67
   7  -1  -5   10.49    0.37
  -7   1   5   10.24    0.54
   6  -1  -5    5.81    0.26
  -6   1   5    5.63    0.39
   5  -1  -5   36.48    0.74
  -5   1   5   35.40    0.88
   4  -1  -5    6.92    0.25
  -4   1   5    7.32    0.37
   3  -1  -5    4.54    0.19
  -3   1   5    4.80    0.29
   2  -1  -5   77.31    1.27
  -2   1   5   77.58    1.39
   1  -1  -5   59.97    0.92
   1  -1  -5   60.43    1.01
  -1   1   5   59.81    1.09
   0  -1  -5    1.58    0.09
   0  -1  -5    1.48    0.10
   0   1   5    1.75    0.15
  -1  -1  -5   63.14    1.01
  -1  -1  -5   59.89    1.01
   1   1   5   60.76    1.04
  -2  -1  -5   60.35    1.00
  -2  -1  -5   60.51    1.04
   2   1   5   61.29    0.99
  -3  -1  -5    0.19    0.07
   3   1   5    0.15    0.04
   3   1   5    0.19    0.05
  -4  -1  -5    4.11    0.22
   4   1   5    4.15    0.16
   4   1   5    4.66    0.10
   4   1   5    4.19    0.11
  -5  -1  -5    0.44    0.10
   5   1   5    0.40    0.07
  -6  -1  -5    3.90    0.24
   6   1   5    3.97    0.18
  -7  -1  -5   19.93    0.56
   7   1   5   19.24    0.46
  -8  -1  -5    4.01    0.28
   8   1   5    4.25    0.21
  -9  -1  -5    0.11    0.13
   9   1   5    0.09    0.08
 -10  -1  -5    1.85    0.25
  10   1   5    1.89    0.18
 -11  -1  -5   10.40    0.48
  11   1   5   10.02    0.38
 -12  -1  -5    5.93    0.40
  12   1   5    5.10    0.30
 -13  -1  -5    2.25    0.30
  13   1   5    1.80    0.35
 -10   2   5    0.12    0.26
   9  -2  -5    4.13    0.28
  -9   2   5    3.89    0.41
   8  -2  -5    0.03    0.09
  -8   2   5   -0.16    0.22
   7  -2  -5    2.96    0.21
  -7   2   5    3.04    0.35
   6  -2  -5    3.31    0.20
  -6   2   5    3.06    0.31
   5  -2  -5    7.54    0.27
  -5   2   5    7.04    0.39
   4  -2  -5   72.21    1.24
  -4   2   5   72.33    1.39
   3  -2  -5   81.11    1.35
  -3   2   5   81.74    1.49
   2  -2  -5   21.97    0.47
  -2   2   5   22.37    0.57
   1  -2  -5    6.62    0.15
   1  -2  -5    6.70    0.21
  -1   2   5    6.66    0.27
   0  -2  -5   44.41    0.73
   0  -2  -5   44.26    0.77
   0   2   5   42.98    0.82
  -1  -2  -5   16.64    0.37
  -1  -2  -5   16.64    0.36
   1   2   5   16.91    0.39
  -2  -2  -5    6.89    0.20
  -2  -2  -5    6.70    0.23
   2   2   5    6.82    0.21
  -3  -2  -5   58.45    1.04
   3   2   5   58.69    0.97
   3   2   5   59.34    0.92
  -4  -2  -5   14.60    0.40
  -5  -2  -5  126.07    2.11
   5   2   5  131.16    2.01
  -6  -2  -5   15.78    0.47
   6   2   5   15.59    0.38
  -7  -2  -5   16.37    0.51
   7   2   5   15.91    0.41
  -8  -2  -5    5.62    0.32
   8   2   5    5.73    0.24
  -9  -2  -5    4.78    0.31
   9   2   5    4.26    0.22
 -10  -2  -5    1.14    0.20
  10   2   5    1.33    0.16
 -11  -2  -5    0.16    0.14
  11   2   5    0.00    0.09
 -12  -2  -5    0.25    0.17
  12   2   5    0.07    0.11
 -13  -2  -5    7.68    0.45
  13   2   5    7.38    0.42
 -10   3   5   -0.23    0.21
   9  -3  -5    0.05    0.10
  -9   3   5   -0.03    0.23
   8  -3  -5   12.41    0.43
  -8   3   5   13.87    0.60
   7  -3  -5    0.30    0.10
  -7   3   5    0.20    0.19
   6  -3  -5    8.88    0.32
  -6   3   5    8.67    0.46
   5  -3  -5   65.37    1.17
  -5   3   5   65.94    1.34
   4  -3  -5    3.31    0.17
  -4   3   5    3.14    0.28
   3  -3  -5    0.70    0.09
  -3   3   5    0.84    0.17
   2  -3  -5   68.65    1.15
   2  -3  -5   68.92    1.05
  -2   3   5   70.22    1.28
   1  -3  -5   28.14    0.54
   1  -3  -5   27.69    0.49
  -1   3   5   26.71    0.61
   0  -3  -5   31.63    0.58
   0  -3  -5   30.72    0.57
   0   3   5   31.64    0.65
  -1  -3  -5   22.61    0.47
  -1  -3  -5   22.96    0.45
   1   3   5   22.31    0.48
  -2  -3  -5    0.08    0.04
  -2  -3  -5    0.11    0.09
  -3  -3  -5   14.57    0.39
   3   3   5   14.41    0.28
   3   3   5   14.61    0.32
  -4  -3  -5  157.72    2.32
  -4  -3  -5  160.81    2.52
   4   3   5  154.28    2.40
   4   3   5  159.65    2.31
  -5  -3  -5   85.26    1.50
   5   3   5   86.08    1.39
  -6  -3  -5   13.10    0.44
   6   3   5   13.14    0.34
  -7  -3  -5    8.14    0.35
   7   3   5    8.11    0.27
  -8  -3  -5    0.14    0.12
   8   3   5    0.05    0.06
  -9  -3  -5    0.05    0.14
   9   3   5    0.10    0.07
 -10  -3  -5    1.40    0.23
  10   3   5    1.30    0.16
 -11  -3  -5    1.12    0.22
  11   3   5    0.78    0.15
 -12  -3  -5    5.88    0.38
  12   3   5    5.46    0.31
 -13  -3  -5    4.06    0.38
  13   3   5    3.05    0.42
 -10   4   5    2.56    0.38
   9  -4  -5    2.08    0.21
  -9   4   5    2.97    0.35
   8  -4  -5    0.30    0.10
  -8   4   5    0.37    0.22
   7  -4  -5    0.05    0.08
  -7   4   5    0.06    0.18
   6  -4  -5    4.93    0.24
  -6   4   5    5.45    0.38
   5  -4  -5    1.21    0.13
  -5   4   5    0.65    0.18
   4  -4  -5   12.73    0.35
  -4   4   5   11.92    0.45
   3  -4  -5   37.32    0.63
   3  -4  -5   36.57    0.70
  -3   4   5   37.60    0.85
   2  -4  -5   23.21    0.48
   2  -4  -5   23.52    0.46
  -2   4   5   24.21    0.60
   1  -4  -5    3.36    0.16
   1  -4  -5    3.73    0.15
  -1   4   5    3.31    0.22
   0  -4  -5    4.54    0.19
   0  -4  -5    4.21    0.16
  -1  -4  -5    0.59    0.11
   1   4   5    0.45    0.09
  -2  -4  -5    2.80    0.12
  -2  -4  -5    3.12    0.19
   2   4   5    3.00    0.14
  -3  -4  -5    1.23    0.15
   3   4   5    1.11    0.08
   3   4   5    1.31    0.09
  -4  -4  -5    7.44    0.31
   4   4   5    7.59    0.18
   4   4   5    7.68    0.22
  -5  -4  -5    3.54    0.25
   5   4   5    3.19    0.15
   5   4   5    3.10    0.09
   6   4   5   19.53    0.45
  -7  -4  -5    1.26    0.19
   7   4   5    1.25    0.12
  -8  -4  -5    6.07    0.36
   8   4   5    6.63    0.25
  -9  -4  -5   12.51    0.49
   9   4   5   12.07    0.38
 -10  -4  -5   10.60    0.47
  10   4   5    9.66    0.36
 -11  -4  -5    7.09    0.42
  11   4   5    6.02    0.31
 -12  -4  -5    0.22    0.17
  12   4   5   -0.02    0.10
 -13  -4  -5    0.46    0.18
   9  -5  -5    0.23    0.10
  -9   5   5    0.17    0.18
   8  -5  -5    0.13    0.09
  -8   5   5    0.00    0.15
   7  -5  -5    0.19    0.09
  -7   5   5    0.19    0.18
   6  -5  -5    3.09    0.19
  -6   5   5    2.39    0.27
   5  -5  -5    0.21    0.08
  -5   5   5    0.01    0.14
   4  -5  -5   18.45    0.44
  -4   5   5   18.61    0.58
   3  -5  -5    0.72    0.09
   3  -5  -5    0.97    0.11
  -3   5   5    0.75    0.16
   2  -5  -5    0.10    0.07
   2  -5  -5    0.23    0.06
  -2   5   5    0.10    0.10
   1  -5  -5    3.71    0.15
   1  -5  -5    3.93    0.18
  -1   5   5    3.64    0.21
   0  -5  -5    1.61    0.10
   0  -5  -5    1.87    0.16
   0   5   5    1.55    0.14
  -1  -5  -5  106.16    1.63
  -1  -5  -5  105.29    1.72
   1   5   5  102.84    1.68
  -2  -5  -5    1.03    0.09
  -2  -5  -5    0.78    0.13
   2   5   5    0.71    0.09
  -3  -5  -5   24.16    0.58
   3   5   5   23.46    0.46
   3   5   5   23.79    0.47
  -4  -5  -5    1.23    0.17
   4   5   5    1.23    0.09
   4   5   5    1.57    0.09
  -5  -5  -5   71.83    1.36
   5   5   5   73.73    1.15
   5   5   5   72.76    1.20
  -6  -5  -5    2.38    0.24
   6   5   5    2.77    0.15
   6   5   5    2.88    0.12
  -7  -5  -5   14.83    0.53
   7   5   5   15.14    0.39
  -8  -5  -5    1.16    0.21
   8   5   5    1.34    0.14
  -9  -5  -5   -0.01    0.16
   9   5   5    0.05    0.07
 -10  -5  -5    6.47    0.39
  10   5   5    6.83    0.30
 -11  -5  -5    1.52    0.26
  11   5   5    1.02    0.16
 -12  -5  -5    0.56    0.21
  12   5   5    0.50    0.14
 -13  -5  -5    0.80    0.26
   9  -6  -5    0.83    0.15
  -9   6   5    0.99    0.22
   8  -6  -5    5.07    0.27
  -8   6   5    5.04    0.39
   7  -6  -5    0.48    0.11
  -7   6   5    0.81    0.20
   6  -6  -5    0.48    0.10
  -6   6   5    0.47    0.16
   5  -6  -5   19.14    0.47
  -5   6   5   19.44    0.61
   4  -6  -5    5.20    0.21
  -4   6   5    5.28    0.32
   3  -6  -5   10.45    0.29
   3  -6  -5   10.06    0.31
  -3   6   5    9.48    0.38
   2  -6  -5   25.39    0.51
   2  -6  -5   25.15    0.56
  -2   6   5   25.60    0.63
   1  -6  -5   -0.08    0.07
   1  -6  -5   -0.03    0.04
  -1   6   5   -0.05    0.08
   0  -6  -5    0.28    0.10
   0  -6  -5    0.42    0.06
   0   6   5    0.55    0.11
  -1  -6  -5    0.15    0.04
  -1  -6  -5    0.13    0.10
   1   6   5    0.11    0.07
  -2  -6  -5   69.01    1.26
   2   6   5   68.64    1.18
   2   6   5   68.82    1.10
  -3  -6  -5    0.03    0.11
   3   6   5    0.06    0.05
   3   6   5    0.09    0.04
  -4  -6  -5    4.07    0.30
   4   6   5    3.95    0.15
   4   6   5    4.26    0.17
  -5  -6  -5   23.49    0.64
   5   6   5   22.65    0.47
   5   6   5   23.55    0.48
  -6  -6  -5   78.73    1.50
   6   6   5   79.20    1.27
   6   6   5   77.13    1.30
  -7  -6  -5    6.47    0.37
   7   6   5    6.17    0.24
  -8  -6  -5    1.09    0.21
   8   6   5    1.18    0.13
  -9  -6  -5    4.43    0.35
   9   6   5    4.79    0.23
 -10  -6  -5    4.81    0.39
  10   6   5    5.09    0.26
 -11  -6  -5    0.23    0.19
  11   6   5    0.04    0.10
 -12  -6  -5    0.29    0.19
  12   6   5    0.23    0.11
   8  -7  -5    5.54    0.29
  -8   7   5    5.97    0.41
   7  -7  -5    3.32    0.22
  -7   7   5    3.68    0.33
   6  -7  -5    0.78    0.12
  -6   7   5    0.79    0.19
   5  -7  -5    0.08    0.07
  -5   7   5    0.16    0.12
   4  -7  -5    6.34    0.23
  -4   7   5    6.43    0.35
   3  -7  -5    1.99    0.13
   3  -7  -5    2.11    0.18
  -3   7   5    1.73    0.20
   2  -7  -5    3.31    0.21
   2  -7  -5    3.03    0.14
  -2   7   5    2.72    0.21
   1  -7  -5    4.97    0.25
   1  -7  -5    4.74    0.17
  -1   7   5    5.08    0.26
   0  -7  -5    0.63    0.12
   0  -7  -5    0.84    0.08
   0   7   5    0.50    0.11
  -1  -7  -5    6.97    0.30
  -1  -7  -5    6.51    0.19
   1   7   5    6.58    0.26
  -2  -7  -5    7.39    0.34
   2   7   5    7.20    0.20
   2   7   5    7.16    0.26
  -3  -7  -5   41.83    0.92
   3   7   5   40.89    0.71
   3   7   5   41.76    0.80
  -4  -7  -5    2.17    0.23
   4   7   5    1.92    0.14
   4   7   5    1.93    0.11
  -5  -7  -5   36.24    0.88
   5   7   5   35.61    0.70
   5   7   5   35.41    0.67
  -6  -7  -5   44.97    1.04
   6   7   5   44.35    0.83
   6   7   5   45.38    0.82
  -7  -7  -5    3.18    0.32
   7   7   5    2.98    0.17
  -8  -7  -5    2.43    0.28
   8   7   5    2.84    0.18
  -9  -7  -5   19.90    0.69
   9   7   5   20.75    0.53
 -10  -7  -5    1.42    0.28
  10   7   5    0.87    0.14
 -11  -7  -5    0.84    0.24
  11   7   5    0.59    0.13
 -12  -7  -5    6.07    0.45
  12   7   5    5.29    0.31
  -8   8   5    0.51    0.18
  -7   8   5   -0.08    0.12
  -6   8   5    2.61    0.29
   5  -8  -5    0.51    0.12
  -5   8   5    0.43    0.16
   4  -8  -5    0.25    0.07
  -4   8   5    0.14    0.12
   3  -8  -5    5.12    0.28
   3  -8  -5    5.02    0.20
  -3   8   5    5.20    0.30
   2  -8  -5    2.71    0.14
   2  -8  -5    2.53    0.21
  -2   8   5    2.59    0.23
   1  -8  -5   14.74    0.46
   1  -8  -5   14.40    0.32
  -1   8   5   14.11    0.46
   0  -8  -5   18.85    0.54
   0  -8  -5   17.91    0.37
   0   8   5   18.65    0.52
  -1  -8  -5    2.38    0.23
   1   8   5    2.56    0.11
   1   8   5    2.31    0.19
  -2  -8  -5   88.00    1.60
   2   8   5   83.70    1.50
   2   8   5   87.23    1.34
  -3  -8  -5    2.74    0.26
   3   8   5    3.27    0.13
   3   8   5    3.27    0.19
  -4  -8  -5    0.76    0.19
   4   8   5    0.36    0.09
   4   8   5    0.74    0.08
  -5  -8  -5   24.03    0.72
   5   8   5   23.83    0.56
   5   8   5   23.49    0.48
  -6  -8  -5    9.21    0.45
   6   8   5    8.56    0.30
   6   8   5    8.70    0.27
  -7  -8  -5    0.63    0.21
   7   8   5    0.72    0.10
  -8  -8  -5    1.13    0.28
   8   8   5    1.01    0.13
  -9  -8  -5    7.50    0.49
   9   8   5    7.70    0.30
 -10  -8  -5    2.12    0.32
  10   8   5    1.55    0.17
 -11  -8  -5   11.24    0.59
  11   8   5   10.99    0.41
 -12  -8  -5    5.53    0.46
  12   8   5    4.98    0.30
  -7   9   5    1.58    0.24
  -6   9   5    1.65    0.25
  -5   9   5    3.34    0.32
  -4   9   5    0.65    0.16
   3  -9  -5    0.02    0.10
  -3   9   5    0.41    0.14
   2  -9  -5    8.35    0.37
  -2   9   5    8.26    0.37
   1  -9  -5   -0.07    0.11
  -1   9   5    0.12    0.10
   0  -9  -5    2.45    0.24
   0   9   5    2.13    0.22
  -1  -9  -5    0.25    0.14
   1   9   5    0.38    0.11
  -2  -9  -5    9.93    0.43
   2   9   5    9.24    0.35
  -3  -9  -5   68.57    1.39
   3   9   5   66.21    1.26
  -4  -9  -5    7.09    0.40
   4   9   5    7.21    0.30
  -5  -9  -5    0.12    0.20
   5   9   5    0.13    0.08
  -6  -9  -5    4.99    0.39
   6   9   5    5.46    0.29
   6   9   5    4.67    0.25
  -7  -9  -5   -0.03    0.19
   7   9   5    0.05    0.06
  -8  -9  -5   -0.17    0.22
   8   9   5    0.35    0.09
  -9  -9  -5   -0.18    0.23
   9   9   5    0.04    0.08
 -10  -9  -5    2.12    0.33
  10   9   5    3.08    0.23
 -11  -9  -5    1.15    0.30
  -6  10   5    3.24    0.35
  -5  10   5    8.88    0.46
  -4  10   5    7.90    0.43
   3 -10  -5    7.39    0.39
  -3  10   5    7.11    0.39
   2 -10  -5    2.77    0.27
  -2  10   5    3.46    0.28
   1 -10  -5    0.07    0.13
  -1  10   5    0.16    0.11
   0 -10  -5    0.35    0.16
   0  10   5    0.50    0.12
  -1 -10  -5    2.05    0.25
   1  10   5    2.37    0.21
  -2 -10  -5   19.27    0.65
   2  10   5   18.87    0.56
  -3 -10  -5    0.19    0.17
   3  10   5    0.27    0.11
  -4 -10  -5    0.51    0.20
   4  10   5    0.44    0.12
  -5 -10  -5   -0.14    0.17
   5  10   5    0.03    0.08
  -6 -10  -5    0.00    0.20
   6  10   5    0.05    0.10
  -7 -10  -5    1.41    0.29
  -8 -10  -5    0.27    0.26
  -9 -10  -5    8.62    0.55
 -10 -10  -5    0.98    0.30
 -11 -10  -5    1.04    0.34
  -5  11   5   13.70    0.58
  -4  11   5    0.24    0.14
   3 -11  -5    8.28    0.44
  -3  11   5    8.91    0.45
   2 -11  -5    3.24    0.31
  -2  11   5    4.10    0.30
   1 -11  -5    0.53    0.19
  -1  11   5    0.47    0.16
   0 -11  -5    0.27    0.18
   0  11   5    0.59    0.16
  -1 -11  -5    6.32    0.40
   1  11   5    6.06    0.34
  -2 -11  -5   -0.07    0.15
   2  11   5   -0.05    0.09
  -3 -11  -5    2.71    0.32
   3  11   5    3.00    0.25
  -4 -11  -5    0.00    0.18
   4  11   5    0.15    0.10
  -5 -11  -5    0.61    0.26
   5  11   5    0.55    0.14
  -6 -11  -5    2.55    0.38
   6  11   5    2.46    0.25
  -7 -11  -5    0.97    0.30
  -8 -11  -5    1.43    0.35
  -9 -11  -5    0.05    0.28
 -10 -11  -5    0.59    0.49
  -4  12   5    0.07    0.12
   3 -12  -5    4.86    0.39
  -3  12   5    4.67    0.36
   2 -12  -5    0.96    0.23
  -2  12   5    1.19    0.22
   1 -12  -5    6.50    0.44
  -1  12   5    7.80    0.41
   0 -12  -5    7.60    0.45
   0  12   5    7.61    0.42
  -1 -12  -5    2.66    0.34
   1  12   5    2.66    0.28
  -2 -12  -5   10.57    0.56
   2  12   5    9.93    0.45
  -3 -12  -5    1.10    0.29
   3  12   5    1.54    0.22
  -4 -12  -5    4.30    0.44
   4  12   5    4.91    0.32
  -5 -12  -5    3.17    0.41
   5  12   5    3.25    0.28
  -6 -12  -5    0.09    0.25
   6  12   5    0.30    0.15
  -7 -12  -5   -0.22    0.25
  -8 -12  -5   -0.43    0.27
   3 -13  -5    8.11    0.51
   2 -13  -5   26.48    0.88
  -2  13   5   26.06    0.84
   1 -13  -5    4.10    0.42
  -1  13   5    4.41    0.34
   0 -13  -5    0.90    0.27
   0  13   5    0.50    0.17
  -1 -13  -5   -0.14    0.21
   1  13   5    0.18    0.15
  -2 -13  -5    0.34    0.23
   2  13   5    0.62    0.16
  -3 -13  -5   -0.34    0.22
   3  13   5   -0.04    0.12
  -4 -13  -5    3.06    0.41
   4  13   5    3.40    0.30
  -5 -13  -5    8.13    0.62
   5  13   5    8.01    0.44
  -6 -13  -5   16.28    0.80
   6  13   5   16.20    0.62
  -1 -14  -5    0.15    0.27
   1  14   5    0.43    0.19
  -2 -14  -5   -0.14    0.25
   2  14   5    0.22    0.16
   3  14   5    2.23    0.29
   4  14   5    0.49    0.19
   5  14   5    3.13    0.35
   0   9  -6    1.19    0.27
   0  -9   6    0.86    0.20
  -1   9  -6    0.74    0.21
   1  -9   6    0.65    0.19
  -2   9  -6    1.43    0.26
   2  -9   6    1.67    0.25
  -3   9  -6    0.15    0.16
   3  -9   6    0.32    0.14
  -4   9  -6    1.14    0.24
   3   8  -6   -0.08    0.19
   2   8  -6    2.61    0.34
   1   8  -6    1.35    0.27
  -1  -8   6    0.91    0.23
   0   8  -6    1.16    0.26
   0  -8   6    0.85    0.18
  -1   8  -6   12.99    0.57
   1  -8   6   12.82    0.53
  -2   8  -6    5.39    0.38
   2  -8   6    4.87    0.34
  -3   8  -6    0.51    0.18
   3  -8   6    0.43    0.15
  -4   8  -6    1.33    0.23
   4  -8   6    1.10    0.21
  -5   8  -6    8.32    0.48
   5  -8   6    8.33    0.46
   6  -8   6    6.30    0.43
  -4  -7   6    2.14    0.32
   3   7  -6    2.74    0.33
   2   7  -6    0.74    0.22
   1   7  -6    3.24    0.34
  -1  -7   6    3.28    0.27
   0   7  -6    1.08    0.22
   0  -7   6    1.06    0.18
  -1   7  -6    0.44    0.18
   1  -7   6    0.31    0.12
  -2   7  -6    0.30    0.16
   2  -7   6    0.21    0.12
  -3   7  -6    2.18    0.26
   3  -7   6    1.88    0.23
  -4   7  -6    0.03    0.12
   4  -7   6    0.08    0.09
  -5   7  -6    0.51    0.16
   5  -7   6    0.56    0.15
   6  -7   6    5.40    0.38
   7  -7   6    0.53    0.16
  -6  -6   6    6.67    0.63
  -5  -6   6    0.23    0.21
  -4  -6   6    0.71    0.20
   3   6  -6    5.69    0.41
   2   6  -6    2.96    0.31
   1   6  -6    0.02    0.13
  -1  -6   6    0.03    0.09
   0   6  -6   -0.01    0.12
   0  -6   6    0.14    0.09
  -1   6  -6    1.18    0.20
   1  -6   6    0.78    0.14
  -2   6  -6    2.13    0.24
   2  -6   6    1.93    0.21
  -3   6  -6    2.85    0.25
   3  -6   6    2.69    0.23
  -4   6  -6    3.23    0.26
   4  -6   6    2.88    0.28
  -5   6  -6    1.57    0.21
   5  -6   6    1.64    0.22
   6  -6   6    0.24    0.12
   7  -6   6   -0.18    0.06
   8  -6   6    5.66    0.37
   9  -6   6    1.14    0.22
   6   5  -6    2.79    0.28
  -6  -5   6    2.84    0.40
   5   5  -6    0.15    0.10
  -5  -5   6    0.12    0.22
   4   5  -6    2.47    0.18
  -4  -5   6    2.35    0.29
   3   5  -6    9.63    0.36
   3   5  -6   10.11    0.48
   2   5  -6    1.53    0.24
   2   5  -6    1.59    0.22
   1   5  -6   -0.03    0.11
  -1  -5   6   -0.02    0.06
   0   5  -6    3.04    0.28
   0  -5   6    2.89    0.20
  -1   5  -6    1.49    0.21
   1  -5   6    1.54    0.18
  -2   5  -6   20.80    0.59
   2  -5   6   19.60    0.58
  -3   5  -6    0.00    0.09
   3  -5   6    0.01    0.07
  -4   5  -6    0.57    0.13
   4  -5   6    0.59    0.14
  -5   5  -6    0.01    0.13
  -5   5  -6    0.01    0.10
  -6   5  -6    2.93    0.30
  -7   5  -6   14.95    0.61
  -8   5  -6    1.15    0.23
  -9   5  -6    0.19    0.17
 -10   5  -6    0.68    0.24
   8   4  -6    8.77    0.40
   7   4  -6    1.14    0.17
  -7  -4   6    0.82    0.31
   6   4  -6    1.51    0.18
  -6  -4   6    1.59    0.32
   5   4  -6   -0.01    0.08
  -5  -4   6    0.07    0.21
   4   4  -6    5.14    0.24
  -4  -4   6    4.92    0.37
   3   4  -6   -0.01    0.06
  -3  -4   6   -0.05    0.13
   2   4  -6   16.76    0.56
   2   4  -6   16.86    0.43
   1   4  -6    2.25    0.24
   1   4  -6    2.05    0.14
  -1  -4   6    2.13    0.16
   0   4  -6   13.12    0.34
   0   4  -6   12.99    0.45
   0  -4   6   13.43    0.41
  -1   4  -6    4.40    0.18
  -1   4  -6    4.57    0.27
   1  -4   6    4.34    0.23
  -2   4  -6    6.89    0.31
   2  -4   6    7.16    0.31
   2  -4   6    6.81    0.22
  -3   4  -6    3.03    0.21
  -3   4  -6    3.07    0.25
   3  -4   6    3.11    0.15
  -4   4  -6    8.84    0.41
  -4   4  -6    8.98    0.34
   4  -4   6    9.28    0.27
  -5   4  -6    0.02    0.08
  -5   4  -6    0.04    0.11
   5  -4   6    0.06    0.05
  -6   4  -6    1.00    0.20
   6  -4   6    0.97    0.11
  -7   4  -6    1.04    0.21
   7  -4   6    0.84    0.11
  -8   4  -6    1.49    0.24
   8  -4   6    1.83    0.17
  -9   4  -6    3.04    0.34
 -10   4  -6    0.10    0.17
 -11   4  -6    0.58    0.22
   8   3  -6   -0.05    0.11
  -8  -3   6    0.14    0.30
   7   3  -6    4.01    0.26
  -7  -3   6    3.73    0.44
  -6  -3   6    0.55    0.25
   5   3  -6   -0.02    0.07
  -5  -3   6    0.03    0.17
   4   3  -6   -0.02    0.06
  -4  -3   6   -0.23    0.15
   3   3  -6    7.23    0.27
  -3  -3   6    7.17    0.38
   2   3  -6    0.67    0.10
  -2  -3   6    0.50    0.14
   1   3  -6   15.96    0.49
   1   3  -6   15.82    0.40
  -1  -3   6   15.60    0.41
   0   3  -6   -0.09    0.10
   0   3  -6    0.06    0.05
   0  -3   6   -0.04    0.04
  -1   3  -6   18.10    0.50
  -1   3  -6   18.25    0.41
   1  -3   6   17.15    0.47
  -2   3  -6   13.13    0.43
  -2   3  -6   13.39    0.33
  -2   3  -6   13.45    0.41
  -3   3  -6   48.62    0.94
  -3   3  -6   48.41    1.02
   3  -3   6   47.00    0.84
  -4   3  -6   25.46    0.68
  -4   3  -6   24.66    0.58
   4  -3   6   25.22    0.51
  -5   3  -6   49.78    1.11
  -5   3  -6   51.00    0.95
   5  -3   6   51.26    0.91
  -6   3  -6    0.64    0.16
   6  -3   6    0.43    0.08
  -7   3  -6    1.16    0.20
   7  -3   6    1.62    0.15
  -8   3  -6    4.44    0.33
   8  -3   6    4.37    0.22
  -9   3  -6    2.32    0.29
   9  -3   6    2.39    0.19
 -10   3  -6    5.34    0.39
  10  -3   6    5.55    0.28
 -11   3  -6    4.90    0.44
  11  -3   6    4.72    0.27
  12  -3   6    0.68    0.19
   8   2  -6   12.09    0.46
  -8  -2   6   12.22    0.69
   7   2  -6    0.13    0.11
  -7  -2   6   -0.34    0.23
   6   2  -6    5.70    0.28
  -6  -2   6    5.28    0.43
   5   2  -6    7.06    0.29
  -5  -2   6    6.58    0.44
   4   2  -6    1.01    0.14
  -4  -2   6    0.72    0.21
   3   2  -6    0.10    0.07
  -3  -2   6   -0.03    0.12
   2   2  -6    0.08    0.06
  -2  -2   6   -0.13    0.11
   1   2  -6   21.73    0.49
  -1  -2   6   21.96    0.47
  -1  -2   6   20.73    0.58
   0   2  -6    4.77    0.19
   0   2  -6    5.03    0.25
   0  -2   6    5.03    0.20
  -1   2  -6    2.56    0.17
  -1   2  -6    2.42    0.14
  -1   2  -6    2.21    0.18
  -2   2  -6    3.10    0.19
  -2   2  -6    3.60    0.21
  -2   2  -6    3.82    0.16
  -3   2  -6   54.64    1.08
  -3   2  -6   54.45    0.99
   3  -2   6   56.11    0.95
  -4   2  -6  122.93    1.97
  -4   2  -6  125.22    2.12
   4  -2   6  123.14    1.94
  -5   2  -6    1.15    0.12
  -5   2  -6    0.96    0.16
   5  -2   6    1.11    0.11
  -6   2  -6    2.51    0.24
   6  -2   6    2.36    0.15
  -7   2  -6    8.36    0.40
   7  -2   6    8.60    0.29
  -8   2  -6    0.85    0.19
   8  -2   6    0.64    0.11
  -9   2  -6    2.63    0.29
   9  -2   6    3.05    0.20
 -10   2  -6    0.03    0.15
  10  -2   6   -0.01    0.08
 -11   2  -6    1.34    0.25
  11  -2   6    0.98    0.16
 -12   2  -6    9.39    0.53
  12  -2   6    9.88    0.41
  -9  -1   6   -0.40    0.29
   8   1  -6    5.82    0.32
  -8  -1   6    5.60    0.53
   7   1  -6    0.35    0.11
  -7  -1   6    0.49    0.27
   6   1  -6    0.59    0.12
  -6  -1   6    0.70    0.26
   5   1  -6    0.20    0.09
  -5  -1   6   -0.25    0.14
   4   1  -6    7.59    0.28
  -4  -1   6    6.79    0.38
   3   1  -6    6.17    0.25
  -3  -1   6    6.61    0.35
   2   1  -6    0.70    0.10
  -2  -1   6    1.07    0.18
   1   1  -6    0.20    0.06
  -1  -1   6    0.12    0.10
  -1  -1   6    0.20    0.05
   0   1  -6    0.05    0.04
   0   1  -6   -0.02    0.04
   0  -1   6   -0.06    0.07
  -1   1  -6   45.96    0.82
  -1   1  -6   44.84    0.86
  -1   1  -6   45.91    0.86
  -2   1  -6    4.77    0.22
  -2   1  -6    4.88    0.20
  -2   1  -6    4.73    0.18
  -3   1  -6   49.51    0.97
  -3   1  -6   49.68    0.88
   3  -1   6   49.83    0.87
  -4   1  -6    0.28    0.10
  -4   1  -6    0.32    0.07
   4  -1   6    0.22    0.06
  -5   1  -6   38.01    0.85
  -5   1  -6   37.23    0.67
   5  -1   6   38.07    0.71
  -6   1  -6    3.94    0.26
   6  -1   6    4.43    0.19
  -7   1  -6    0.32    0.13
   7  -1   6    0.39    0.08
  -8   1  -6    5.51    0.33
   8  -1   6    5.53    0.24
  -9   1  -6    2.72    0.29
   9  -1   6    2.51    0.18
 -10   1  -6   14.48    0.58
  10  -1   6   15.11    0.46
 -11   1  -6    3.03    0.34
  11  -1   6    3.15    0.25
 -12   1  -6    2.20    0.31
  12  -1   6    1.75    0.20
   9   0  -6    0.87    0.18
  -9   0   6    0.82    0.35
   8   0  -6    4.67    0.28
  -8   0   6    5.10    0.48
   7   0  -6    6.80    0.32
  -7   0   6    6.71    0.52
   6   0  -6   10.85    0.38
  -6   0   6   10.77    0.55
   5   0  -6    0.07    0.08
  -5   0   6    0.20    0.17
   4   0  -6    0.66    0.11
  -4   0   6    0.60    0.18
   3   0  -6    3.26    0.18
  -3   0   6    3.19    0.27
   2   0  -6    0.59    0.09
  -2   0   6    0.36    0.14
   1   0  -6   22.49    0.49
  -1   0   6   23.32    0.42
  -1   0   6   22.63    0.58
   0   0  -6   18.11    0.42
   0   0  -6   18.04    0.39
   0   0   6   18.50    0.48
  -1   0  -6    2.01    0.13
  -1   0  -6    2.22    0.13
  -2   0  -6    5.93    0.23
  -2   0  -6    5.98    0.21
   2   0   6    5.94    0.22
  -3   0  -6   11.07    0.34
  -3   0  -6   10.60    0.29
  -4   0  -6   52.23    0.87
  -4   0  -6   53.00    1.02
   4   0   6   53.94    0.93
  -5   0  -6   43.20    0.71
  -5   0  -6   43.39    0.91
   5   0   6   43.79    0.80
  -6   0  -6    8.85    0.36
   6   0   6    9.45    0.28
  -7   0  -6    0.28    0.12
   7   0   6    0.22    0.07
  -8   0  -6    0.96    0.18
   8   0   6    0.87    0.11
  -9   0  -6    3.28    0.27
   9   0   6    3.22    0.20
 -10   0  -6    2.11    0.26
  10   0   6    2.15    0.20
 -11   0  -6    2.97    0.33
  11   0   6    3.11    0.24
 -12   0  -6    1.26    0.24
  12   0   6    1.13    0.18
 -13   0  -6    0.97    0.24
   9  -1  -6    1.63    0.21
  -9   1   6    1.06    0.33
   8  -1  -6    3.68    0.25
  -8   1   6    4.34    0.45
   7  -1  -6    0.08    0.10
  -7   1   6    0.08    0.25
   6  -1  -6    2.46    0.21
  -6   1   6    2.24    0.31
   5  -1  -6    1.53    0.16
  -5   1   6    2.21    0.29
   4  -1  -6    1.13    0.13
  -4   1   6    0.98    0.21
   3  -1  -6    4.15    0.20
  -3   1   6    4.35    0.29
   2  -1  -6   34.38    0.69
  -2   1   6   35.80    0.81
   1  -1  -6    1.99    0.09
   1  -1  -6    1.77    0.12
  -1   1   6    1.62    0.17
   0  -1  -6    2.02    0.12
   0  -1  -6    1.95    0.11
   0   1   6    2.32    0.18
  -1  -1  -6    0.29    0.06
  -1  -1  -6    0.15    0.06
   1   1   6    0.29    0.09
  -2  -1  -6   32.46    0.65
  -2  -1  -6   32.87    0.63
   2   1   6   33.48    0.64
  -3  -1  -6   13.50    0.38
  -3  -1  -6   13.41    0.33
   3   1   6   14.12    0.32
  -4  -1  -6   59.14    1.11
   4   1   6   60.44    1.03
   4   1   6   61.19    0.96
  -5  -1  -6   28.09    0.66
   5   1   6   27.85    0.57
  -6  -1  -6   11.99    0.41
   6   1   6   11.68    0.33
  -7  -1  -6    2.06    0.21
   7   1   6    2.35    0.15
  -8  -1  -6    0.09    0.13
   8   1   6    0.12    0.07
  -9  -1  -6    5.51    0.33
   9   1   6    5.42    0.25
 -10  -1  -6    0.00    0.14
  10   1   6   -0.14    0.07
 -11  -1  -6    0.56    0.17
  11   1   6    0.72    0.13
 -12  -1  -6    0.03    0.14
  12   1   6   -0.04    0.09
 -13  -1  -6    1.73    0.29
   9  -2  -6    0.01    0.11
  -9   2   6    0.20    0.28
   8  -2  -6    1.19    0.18
  -8   2   6    0.96    0.28
   7  -2  -6    1.55    0.18
  -7   2   6    1.37    0.28
   6  -2  -6    0.64    0.13
  -6   2   6    0.56    0.25
   5  -2  -6    3.41    0.20
  -5   2   6    3.00    0.31
   4  -2  -6    6.97    0.26
  -4   2   6    6.77    0.38
   3  -2  -6   23.33    0.53
  -3   2   6   22.79    0.65
   2  -2  -6    2.06    0.14
  -2   2   6    1.62    0.19
   1  -2  -6   11.65    0.23
   1  -2  -6   12.00    0.32
  -1   2   6   11.62    0.39
   0  -2  -6    5.56    0.17
   0  -2  -6    5.56    0.20
   0   2   6    5.58    0.25
  -1  -2  -6    1.97    0.12
  -1  -2  -6    2.17    0.13
   1   2   6    2.14    0.16
  -2  -2  -6   31.79    0.61
  -2  -2  -6   32.20    0.64
   2   2   6   32.18    0.62
  -3  -2  -6    0.46    0.10
  -3  -2  -6    0.51    0.07
   3   2   6    0.70    0.09
  -4  -2  -6    3.11    0.20
   4   2   6    3.50    0.15
   4   2   6    3.13    0.11
  -5  -2  -6    1.33    0.16
   5   2   6    1.39    0.11
   6   2   6    6.17    0.22
  -7  -2  -6    0.84    0.16
   7   2   6    0.79    0.10
  -8  -2  -6   19.27    0.59
   8   2   6   19.26    0.49
  -9  -2  -6    6.46    0.37
   9   2   6    6.48    0.28
 -10  -2  -6    1.25    0.22
  10   2   6    1.01    0.14
 -11  -2  -6    0.33    0.17
  11   2   6    0.04    0.10
 -12  -2  -6    1.06    0.23
  12   2   6    0.86    0.17
 -13  -2  -6    1.06    0.24
  13   2   6    0.36    0.23
   9  -3  -6    3.78    0.27
  -9   3   6    3.33    0.41
   8  -3  -6    1.19    0.17
  -8   3   6    1.02    0.31
   7  -3  -6    2.11    0.21
  -7   3   6    2.08    0.32
   6  -3  -6   15.58    0.46
  -6   3   6   16.37    0.64
   5  -3  -6   13.74    0.40
  -5   3   6   13.25    0.54
   4  -3  -6   13.60    0.39
  -4   3   6   15.16    0.55
   3  -3  -6   25.75    0.56
  -3   3   6   26.17    0.71
   2  -3  -6   12.03    0.33
  -2   3   6   12.17    0.44
   1  -3  -6  218.34    3.25
   1  -3  -6  222.11    3.31
  -1   3   6  215.78    3.42
   0  -3  -6   24.40    0.48
   0  -3  -6   23.36    0.50
   0   3   6   25.15    0.58
  -1  -3  -6    0.42    0.09
  -1  -3  -6    0.59    0.08
   1   3   6    0.64    0.11
  -2  -3  -6    4.29    0.17
  -2  -3  -6    4.12    0.19
   2   3   6    3.84    0.18
  -3  -3  -6   17.01    0.39
  -3  -3  -6   17.37    0.45
   3   3   6   17.54    0.36
  -4  -3  -6    4.61    0.24
   4   3   6    4.43    0.11
   4   3   6    4.47    0.17
  -5  -3  -6    3.57    0.24
   5   3   6    3.43    0.16
  -6  -3  -6    0.08    0.11
   6   3   6   -0.01    0.04
  -7  -3  -6    1.70    0.21
   7   3   6    1.67    0.15
  -8  -3  -6    0.14    0.14
   8   3   6    0.43    0.09
  -9  -3  -6    0.03    0.12
   9   3   6   -0.01    0.06
 -10  -3  -6    0.00    0.16
  10   3   6    0.12    0.09
 -11  -3  -6    0.13    0.17
  11   3   6    0.41    0.13
 -12  -3  -6    0.18    0.17
  12   3   6    0.06    0.11
 -13  -3  -6    2.73    0.32
   9  -4  -6    6.56    0.35
  -9   4   6    6.45    0.50
   8  -4  -6    8.58    0.37
  -8   4   6    9.37    0.55
   7  -4  -6    5.16    0.28
  -7   4   6    5.85    0.46
   6  -4  -6   11.39    0.38
  -6   4   6   10.95    0.53
   5  -4  -6    0.32    0.09
  -5   4   6    0.25    0.20
   4  -4  -6    4.27    0.21
  -4   4   6    4.76    0.33
   3  -4  -6   51.97    0.96
  -3   4   6   52.90    1.11
   2  -4  -6   42.18    0.78
   2  -4  -6   40.87    0.71
  -2   4   6   42.03    0.91
   1  -4  -6    9.24    0.27
   1  -4  -6    9.61    0.26
  -1   4   6    8.85    0.35
   0  -4  -6    9.73    0.27
   0  -4  -6   10.17    0.29
  -1  -4  -6    6.16    0.20
  -1  -4  -6    5.52    0.23
   1   4   6    5.56    0.24
  -2  -4  -6    8.24    0.29
  -2  -4  -6    7.61    0.23
   2   4   6    8.55    0.25
  -3  -4  -6    1.93    0.19
   3   4   6    1.83    0.10
  -4  -4  -6   26.73    0.63
   4   4   6   25.29    0.52
   4   4   6   26.39    0.45
  -5  -4  -6   28.19    0.69
   5   4   6   28.89    0.58
  -6  -4  -6   36.48    0.84
   6   4   6   37.63    0.72
  -7  -4  -6   14.82    0.50
   7   4   6   14.74    0.40
  -8  -4  -6   11.52    0.46
   8   4   6   11.65    0.36
  -9  -4  -6    7.53    0.41
   9   4   6    7.84    0.31
 -10  -4  -6    5.92    0.38
  10   4   6    6.22    0.29
 -11  -4  -6    0.20    0.16
  11   4   6    0.03    0.09
 -12  -4  -6    0.47    0.20
  12   4   6    0.11    0.11
 -13  -4  -6   13.73    0.62
   9  -5  -6    2.29    0.23
  -9   5   6    2.93    0.36
   8  -5  -6    0.31    0.12
  -8   5   6    0.49    0.20
   7  -5  -6    0.57    0.13
  -7   5   6    0.73    0.23
   6  -5  -6    0.21    0.09
  -6   5   6    0.23    0.18
   5  -5  -6    4.32    0.22
  -5   5   6    4.32    0.33
   4  -5  -6   32.98    0.70
  -4   5   6   34.35    0.86
   3  -5  -6   24.31    0.54
  -3   5   6   24.38    0.68
   2  -5  -6   37.73    0.73
   2  -5  -6   38.38    0.71
  -2   5   6   39.83    0.88
   1  -5  -6   88.20    1.45
   1  -5  -6   89.17    1.45
  -1   5   6   88.39    1.56
   0  -5  -6    4.20    0.17
   0  -5  -6    4.58    0.22
   0   5   6    4.18    0.23
  -1  -5  -6    6.93    0.28
  -1  -5  -6    6.18    0.21
   1   5   6    6.91    0.26
  -2  -5  -6   42.99    0.76
  -2  -5  -6   43.81    0.86
   2   5   6   40.84    0.77
  -3  -5  -6  125.51    2.06
   3   5   6  122.01    1.93
   3   5   6  125.14    1.92
  -4  -5  -6   25.33    0.63
   4   5   6   24.44    0.46
   4   5   6   24.21    0.50
  -5  -5  -6    0.46    0.15
   5   5   6    0.45    0.05
   5   5   6    0.37    0.07
  -6  -5  -6   42.04    0.94
   6   5   6   41.47    0.79
  -7  -5  -6    0.49    0.16
   7   5   6    0.45    0.09
  -8  -5  -6    6.09    0.36
   8   5   6    6.57    0.26
  -9  -5  -6    1.52    0.23
   9   5   6    1.33    0.15
 -10  -5  -6    0.36    0.19
  10   5   6    0.58    0.13
 -11  -5  -6    5.15    0.38
  11   5   6    5.18    0.29
 -12  -5  -6    3.38    0.36
  12   5   6    2.79    0.25
 -13  -5  -6    0.38    0.20
   9  -6  -6    3.75    0.33
   8  -6  -6    9.68    0.39
  -8   6   6   10.16    0.53
   7  -6  -6    2.63    0.22
  -7   6   6    2.22    0.30
   6  -6  -6    1.04    0.14
  -6   6   6    1.38    0.25
   5  -6  -6    1.01    0.13
  -5   6   6    0.94    0.19
   4  -6  -6   53.58    1.01
  -4   6   6   56.00    1.19
   3  -6  -6   31.20    0.65
  -3   6   6   31.85    0.79
   2  -6  -6   33.26    0.68
   2  -6  -6   32.40    0.65
  -2   6   6   33.87    0.79
   1  -6  -6   23.61    0.54
   1  -6  -6   22.52    0.49
  -1   6   6   23.19    0.59
   0  -6  -6   59.19    0.99
   0  -6  -6   56.84    1.06
   0   6   6   56.15    1.07
  -1  -6  -6   53.04    0.91
  -1  -6  -6   53.10    1.01
   1   6   6   52.41    0.98
  -2  -6  -6   12.58    0.31
  -2  -6  -6   12.69    0.42
   2   6   6   12.67    0.35
  -3  -6  -6   31.76    0.74
   3   6   6   31.95    0.62
   3   6   6   31.85    0.60
  -4  -6  -6   52.39    1.10
   4   6   6   54.43    0.94
   4   6   6   56.22    0.94
  -5  -6  -6  236.74    3.78
   5   6   6  238.42    3.53
   5   6   6  238.24    3.58
  -6  -6  -6    9.09    0.43
   6   6   6    8.51    0.27
  -7  -6  -6    0.13    0.16
   7   6   6    0.23    0.08
  -8  -6  -6    3.79    0.32
   8   6   6    3.62    0.20
  -9  -6  -6    0.60    0.20
   9   6   6    0.45    0.11
 -10  -6  -6    2.52    0.31
  10   6   6    1.99    0.19
 -11  -6  -6    1.55    0.28
  11   6   6    0.59    0.14
 -12  -6  -6    1.51    0.27
  12   6   6    1.27    0.18
 -13  -6  -6   13.43    0.63
   8  -7  -6    3.00    0.25
  -8   7   6    3.35    0.36
   7  -7  -6    7.38    0.32
  -7   7   6    7.13    0.43
   6  -7  -6   10.80    0.37
  -6   7   6   11.61    0.52
   5  -7  -6    4.50    0.23
  -5   7   6    4.66    0.35
   4  -7  -6    0.39    0.09
  -4   7   6    0.29    0.14
   3  -7  -6   27.01    0.58
  -3   7   6   27.45    0.73
   2  -7  -6    7.95    0.26
   2  -7  -6    7.82    0.31
  -2   7   6    8.01    0.36
   1  -7  -6   13.37    0.34
   1  -7  -6   13.67    0.42
  -1   7   6   13.02    0.44
   0  -7  -6   -0.05    0.10
   0  -7  -6    0.03    0.05
   0   7   6   -0.09    0.07
  -1  -7  -6   16.39    0.50
  -1  -7  -6   15.85    0.37
   1   7   6   16.41    0.45
  -2  -7  -6   67.31    1.29
   2   7   6   66.89    1.10
   2   7   6   67.18    1.19
  -3  -7  -6    4.69    0.30
   3   7   6    5.04    0.21
   3   7   6    4.92    0.18
  -4  -7  -6    5.67    0.36
   4   7   6    5.56    0.19
   4   7   6    5.45    0.22
  -5  -7  -6    0.42    0.19
   5   7   6    0.36    0.07
   5   7   6    0.48    0.08
  -6  -7  -6    0.21    0.19
   6   7   6    0.23    0.08
   6   7   6    0.20    0.07
  -7  -7  -6   24.67    0.75
   7   7   6   24.94    0.55
  -8  -7  -6   19.69    0.69
   8   7   6   19.24    0.49
  -9  -7  -6    1.91    0.27
   9   7   6    2.08    0.19
 -10  -7  -6    8.75    0.48
  10   7   6    8.09    0.34
 -11  -7  -6    2.09    0.32
  11   7   6    1.74    0.20
 -12  -7  -6    9.79    0.55
  12   7   6    9.49    0.40
  -7   8   6    0.38    0.19
   6  -8  -6    1.80    0.18
  -6   8   6    1.82    0.26
   5  -8  -6    5.41    0.25
  -5   8   6    5.58    0.37
   4  -8  -6    7.96    0.28
  -4   8   6    7.34    0.40
   3  -8  -6    0.65    0.10
  -3   8   6    0.56    0.15
   2  -8  -6    0.83    0.10
   2  -8  -6    0.53    0.14
  -2   8   6    0.60    0.15
   1  -8  -6   10.85    0.40
   1  -8  -6   10.68    0.29
  -1   8   6   10.37    0.40
   0  -8  -6    6.41    0.21
   0  -8  -6    7.08    0.34
   0   8   6    6.88    0.31
  -1  -8  -6    1.25    0.10
  -1  -8  -6    1.09    0.17
   1   8   6    1.09    0.15
  -2  -8  -6    5.38    0.34
   2   8   6    4.97    0.17
   2   8   6    5.14    0.24
  -3  -8  -6   47.25    1.03
   3   8   6   44.57    0.80
   3   8   6   46.61    0.91
  -4  -8  -6    2.04    0.26
   4   8   6    1.85    0.12
   4   8   6    2.09    0.15
  -5  -8  -6    3.26    0.31
   5   8   6    3.43    0.19
   5   8   6    3.63    0.17
  -6  -8  -6   11.11    0.50
   6   8   6   11.91    0.35
   6   8   6   12.05    0.33
  -7  -8  -6    0.45    0.22
   7   8   6    0.38    0.08
  -8  -8  -6   10.02    0.53
   8   8   6   10.37    0.34
  -9  -8  -6    0.23    0.20
   9   8   6    0.14    0.09
 -10  -8  -6    7.49    0.51
  10   8   6    7.78    0.33
 -11  -8  -6    8.18    0.53
  11   8   6    8.15    0.36
 -12  -8  -6   12.78    0.64
  12   8   6   13.43    0.48
  -7   9   6    0.54    0.18
  -6   9   6   16.80    0.65
  -5   9   6   -0.11    0.13
  -4   9   6    0.41    0.17
  -3   9   6    3.32    0.27
   2  -9  -6   17.77    0.55
  -2   9   6   18.31    0.58
   1  -9  -6   -0.11    0.12
  -1   9   6   -0.04    0.09
   0  -9  -6    2.87    0.27
   0   9   6    2.58    0.21
  -1  -9  -6    0.18    0.15
   1   9   6    0.39    0.11
  -2  -9  -6    7.99    0.42
   2   9   6    8.73    0.34
  -3  -9  -6    3.84    0.33
   3   9   6    3.57    0.19
   3   9   6    3.87    0.22
  -4  -9  -6   22.58    0.72
   4   9   6   23.34    0.58
   4   9   6   23.25    0.47
  -5  -9  -6    0.06    0.17
   5   9   6    0.07    0.07
   5   9   6    0.08    0.06
  -6  -9  -6    3.40    0.35
   6   9   6    3.66    0.21
   6   9   6    3.49    0.18
  -7  -9  -6    0.37    0.21
   7   9   6    0.19    0.07
  -8  -9  -6    0.35    0.24
   8   9   6    0.39    0.10
  -9  -9  -6    1.30    0.30
   9   9   6    1.04    0.14
 -10  -9  -6   18.70    0.76
  10   9   6   18.98    0.53
 -11  -9  -6    2.80    0.36
  11   9   6    3.13    0.23
  12   9   6    0.07    0.12
  -6  10   6    3.71    0.33
  -5  10   6    0.15    0.15
  -4  10   6    1.09    0.21
  -3  10   6    0.92    0.19
   2 -10  -6    6.18    0.36
  -2  10   6    6.54    0.37
   1 -10  -6    5.49    0.35
  -1  10   6    5.60    0.33
   0 -10  -6    0.10    0.14
   0  10   6    0.13    0.10
  -1 -10  -6    0.00    0.14
   1  10   6    0.18    0.10
  -2 -10  -6   17.03    0.62
   2  10   6   16.51    0.52
  -3 -10  -6   42.47    1.05
   3  10   6   42.11    0.93
  -4 -10  -6    1.29    0.27
   4  10   6    1.21    0.16
  -5 -10  -6    3.50    0.37
   5  10   6    3.32    0.23
  -6 -10  -6    1.09    0.27
   6  10   6    1.11    0.16
  -7 -10  -6   -0.01    0.21
  -8 -10  -6    0.42    0.25
  -9 -10  -6    4.17    0.45
 -10 -10  -6   10.29    0.62
  -5  11   6    1.38    0.24
  -4  11   6    0.29    0.15
  -3  11   6    0.65    0.19
   2 -11  -6    0.09    0.17
  -2  11   6    0.57    0.18
   1 -11  -6   37.93    0.97
  -1  11   6   36.28    0.94
   0 -11  -6    4.86    0.38
   0  11   6    5.45    0.33
  -1 -11  -6    0.59    0.20
   1  11   6    0.65    0.15
  -2 -11  -6    1.65    0.26
   2  11   6    2.01    0.23
  -3 -11  -6    0.10    0.21
   3  11   6    0.36    0.12
  -4 -11  -6   -0.04    0.19
   4  11   6    0.08    0.10
  -5 -11  -6   -0.19    0.19
   5  11   6    0.11    0.10
  -6 -11  -6    3.98    0.42
   6  11   6    4.77    0.43
  -7 -11  -6    3.63    0.43
  -8 -11  -6   -0.08    0.26
  -9 -11  -6   15.14    0.75
 -10 -11  -6    4.78    0.56
  -3  12   6    0.42    0.17
   2 -12  -6   11.97    0.58
  -2  12   6   13.08    0.55
   1 -12  -6    4.80    0.41
  -1  12   6    5.34    0.36
   0 -12  -6    1.18    0.27
   0  12   6    1.30    0.21
  -1 -12  -6    0.61    0.22
   1  12   6    0.49    0.14
  -2 -12  -6    1.89    0.32
   2  12   6    1.68    0.22
  -3 -12  -6    1.87    0.31
   3  12   6    2.27    0.26
  -4 -12  -6    0.07    0.21
   4  12   6    0.14    0.12
  -5 -12  -6   23.41    0.85
   5  12   6   23.67    0.69
  -6 -12  -6   17.19    0.76
  -7 -12  -6    1.65    0.38
  -8 -12  -6    0.02    0.27
   2 -13  -6   -0.05    0.21
  -2  13   6    0.14    0.14
   1 -13  -6    6.97    0.48
  -1  13   6    9.24    0.48
   0 -13  -6   -0.41    0.20
   0  13   6   -0.05    0.12
  -1 -13  -6    0.13    0.21
   1  13   6    0.72    0.18
  -2 -13  -6    1.57    0.33
   2  13   6    1.61    0.24
  -3 -13  -6    5.96    0.48
   3  13   6    5.35    0.36
  -4 -13  -6    1.76    0.36
   4  13   6    2.39    0.28
  -5 -13  -6    4.97    0.52
   5  13   6    4.27    0.32
  -6 -13  -6    5.06    0.51
   0 -14  -6   -0.23    0.25
  -1 -14  -6   -0.09    0.22
   1  14   6    0.09    0.15
  -2 -14  -6    9.40    0.64
   2  14   6   10.13    0.51
  -3 -14  -6    0.23    0.31
   3  14   6    0.86    0.20
   4  14   6    0.02    0.14
   5  14   6   16.02    0.63
   1   8  -7    3.53    0.62
   0   8  -7    3.03    0.36
  -1   8  -7    0.03    0.18
   1  -8   7    0.22    0.14
  -2   8  -7    2.40    0.32
   2  -8   7    2.62    0.30
  -3   8  -7   -0.06    0.16
   3  -8   7    0.00    0.10
  -4   8  -7    0.37    0.19
   4  -8   7    0.43    0.16
  -3  -7   7    3.24    0.36
   2   7  -7    6.55    0.47
   1   7  -7    0.21    0.20
   0   7  -7    2.08    0.30
   0  -7   7    2.19    0.25
  -1   7  -7    3.57    0.35
   1  -7   7    3.80    0.29
  -2   7  -7    1.03    0.22
   2  -7   7    1.46    0.21
  -3   7  -7    0.57    0.19
   3  -7   7    0.66    0.16
  -4   7  -7    2.98    0.30
   4  -7   7    3.60    0.35
   5  -7   7    7.50    0.43
   6  -7   7    4.12    0.34
  -4  -6   7    2.67    0.36
  -3  -6   7    1.43    0.26
   2   6  -7    9.19    0.50
   1   6  -7   12.28    0.53
   0   6  -7    6.16    0.40
   0  -6   7    6.57    0.34
  -1   6  -7    8.45    0.42
   1  -6   7    8.23    0.38
  -2   6  -7    0.61    0.19
   2  -6   7    0.51    0.14
  -3   6  -7    3.08    0.29
   3  -6   7    3.19    0.26
  -4   6  -7    4.31    0.31
   4  -6   7    4.05    0.30
   5  -6   7    0.15    0.12
   6  -6   7    3.93    0.32
   7  -6   7    6.04    0.39
   8  -6   7    7.89    0.46
  -5  -5   7    2.27    0.37
  -4  -5   7    0.41    0.22
  -3  -5   7    9.19    0.51
   2   5  -7    0.30    0.19
   1   5  -7    0.58    0.18
   0   5  -7   -0.13    0.12
   0  -5   7    0.11    0.08
  -1   5  -7    2.88    0.28
   1  -5   7    3.26    0.23
  -2   5  -7    9.87    0.42
   2  -5   7   10.45    0.41
  -3   5  -7    0.98    0.18
   3  -5   7    0.92    0.16
  -4   5  -7   -0.02    0.11
   4  -5   7   -0.07    0.06
  -5   5  -7    4.90    0.37
  -6   5  -7    5.93    0.39
  -7   5  -7    0.19    0.17
  -8   5  -7    0.43    0.19
  -9   5  -7    2.18    0.32
   7   4  -7    7.85    0.39
   6   4  -7    0.54    0.14
  -6  -4   7    0.22    0.25
   5   4  -7    0.79    0.15
  -5  -4   7    0.86    0.28
   4   4  -7    0.14    0.10
  -4  -4   7    0.51    0.22
   3   4  -7    5.68    0.27
  -3  -4   7    6.04    0.41
   2   4  -7   20.66    0.52
  -2  -4   7   20.78    0.68
   1   4  -7    0.64    0.18
   1   4  -7    0.79    0.11
   0   4  -7    0.32    0.08
   0   4  -7    0.35    0.15
   0  -4   7    0.13    0.07
  -1   4  -7    0.46    0.09
  -1   4  -7    0.57    0.15
   1  -4   7    0.64    0.12
  -2   4  -7    0.67    0.15
   2  -4   7    1.03    0.11
   2  -4   7    1.20    0.16
  -3   4  -7    4.19    0.28
  -3   4  -7    3.57    0.25
   3  -4   7    4.30    0.26
   3  -4   7    4.25    0.18
  -4   4  -7    0.98    0.18
  -4   4  -7    0.94    0.15
   4  -4   7    1.37    0.12
  -5   4  -7    0.01    0.10
  -5   4  -7    0.24    0.13
   5  -4   7    0.01    0.05
  -6   4  -7    7.07    0.42
   6  -4   7    6.89    0.32
  -7   4  -7    0.10    0.14
  -8   4  -7    3.11    0.33
  -9   4  -7    8.88    0.50
 -10   4  -7    2.14    0.30
   7   3  -7    0.18    0.12
  -7  -3   7   -0.05    0.30
   6   3  -7    3.95    0.27
  -6  -3   7    4.48    0.47
   5   3  -7    0.00    0.09
  -5  -3   7    0.05    0.23
   4   3  -7    2.58    0.22
  -4  -3   7    2.44    0.33
   3   3  -7    9.49    0.34
  -3  -3   7    9.15    0.48
   2   3  -7    0.09    0.07
  -2  -3   7    0.19    0.14
   1   3  -7    4.52    0.22
  -1  -3   7    4.37    0.31
   0   3  -7   36.28    0.84
   0   3  -7   36.10    0.72
   0  -3   7   35.88    0.76
  -1   3  -7   -0.02    0.09
  -1   3  -7   -0.10    0.05
   1  -3   7    0.06    0.06
  -2   3  -7    2.74    0.22
  -2   3  -7    2.56    0.16
  -2   3  -7    2.84    0.22
  -3   3  -7    7.24    0.35
  -3   3  -7    7.25    0.31
   3  -3   7    7.57    0.25
  -4   3  -7   22.43    0.66
  -4   3  -7   22.63    0.56
   4  -3   7   21.87    0.49
  -5   3  -7    3.03    0.29
  -5   3  -7    2.80    0.20
   5  -3   7    2.63    0.16
  -6   3  -7    7.32    0.39
   6  -3   7    7.82    0.27
  -7   3  -7    3.10    0.31
   7  -3   7    3.31    0.20
  -8   3  -7    0.49    0.19
   8  -3   7    0.58    0.11
  -9   3  -7   12.64    0.57
   9  -3   7   12.24    0.40
 -10   3  -7    0.09    0.18
  10  -3   7    0.10    0.09
 -11   3  -7   13.44    0.66
   7   2  -7    7.39    0.37
  -7  -2   7    7.70    0.61
   6   2  -7    5.25    0.29
  -6  -2   7    5.09    0.46
   5   2  -7   -0.09    0.07
  -5  -2   7   -0.14    0.22
   4   2  -7    0.31    0.10
  -4  -2   7    0.12    0.19
   3   2  -7    0.22    0.09
  -3  -2   7    0.19    0.15
   2   2  -7    0.11    0.07
  -2  -2   7    0.26    0.16
   1   2  -7    5.61    0.24
  -1  -2   7    5.18    0.31
   0   2  -7   26.33    0.58
   0  -2   7   27.90    0.60
   0  -2   7   27.19    0.70
  -1   2  -7   30.26    0.69
  -1   2  -7   29.53    0.67
  -1   2  -7   29.33    0.62
  -2   2  -7    6.73    0.29
  -2   2  -7    6.90    0.25
  -2   2  -7    7.00    0.30
  -3   2  -7    2.14    0.18
  -3   2  -7    2.11    0.21
   3  -2   7    2.23    0.14
  -4   2  -7   47.74    0.91
  -4   2  -7   47.91    1.04
   4  -2   7   48.65    0.88
  -5   2  -7   24.01    0.69
  -5   2  -7   24.88    0.55
   5  -2   7   24.83    0.54
  -6   2  -7    1.79    0.22
   6  -2   7    2.05    0.15
  -7   2  -7    3.77    0.31
   7  -2   7    4.14    0.21
  -8   2  -7    0.36    0.16
   8  -2   7    0.25    0.09
  -9   2  -7    0.18    0.16
   9  -2   7    0.27    0.10
 -10   2  -7    0.07    0.16
  10  -2   7    0.00    0.08
 -11   2  -7    5.59    0.44
  11  -2   7    6.05    0.32
  12  -2   7    0.19    0.12
   8   1  -7    0.28    0.13
  -8  -1   7    0.01    0.35
   7   1  -7   17.04    0.54
  -7  -1   7   15.66    0.72
   6   1  -7    2.35    0.22
  -6  -1   7    2.88    0.38
   5   1  -7    0.17    0.10
  -5  -1   7    0.09    0.22
   4   1  -7    8.14    0.32
  -4  -1   7    8.03    0.45
   3   1  -7    2.36    0.17
  -3  -1   7    1.95    0.25
   2   1  -7    7.76    0.28
  -2  -1   7    7.93    0.38
   1   1  -7   46.40    0.88
  -1  -1   7   44.57    0.99
   0   1  -7   15.32    0.40
   0  -1   7   14.57    0.47
   0  -1   7   15.62    0.38
  -1   1  -7   37.25    0.76
  -1   1  -7   38.06    0.74
   1  -1   7   36.80    0.80
  -2   1  -7   13.24    0.38
  -2   1  -7   13.32    0.40
  -2   1  -7   13.08    0.35
  -3   1  -7   16.86    0.42
  -3   1  -7   17.00    0.42
  -3   1  -7   17.67    0.50
  -4   1  -7   30.34    0.61
  -4   1  -7   30.23    0.73
   4  -1   7   30.98    0.62
  -5   1  -7   27.98    0.63
  -5   1  -7   28.64    0.73
   5  -1   7   29.33    0.60
  -6   1  -7    6.94    0.35
   6  -1   7    6.73    0.25
  -7   1  -7    9.65    0.42
   7  -1   7    9.21    0.31
  -8   1  -7    2.79    0.28
   8  -1   7    3.31    0.20
  -9   1  -7    0.06    0.14
   9  -1   7    0.01    0.07
 -10   1  -7    0.78    0.20
  10  -1   7    0.93    0.14
 -11   1  -7   14.77    0.64
  11  -1   7   15.03    0.49
 -12   1  -7    8.96    0.53
  12  -1   7    8.62    0.38
   8   0  -7    5.43    0.33
  -8   0   7    5.13    0.53
   7   0  -7   16.98    0.54
  -7   0   7   16.43    0.77
   6   0  -7    0.42    0.12
  -6   0   7    0.45    0.28
   5   0  -7   12.99    0.43
  -5   0   7   14.19    0.62
   4   0  -7    9.62    0.34
  -4   0   7    9.85    0.48
   3   0  -7   22.56    0.55
  -3   0   7   23.05    0.70
   2   0  -7    8.04    0.29
  -2   0   7    7.53    0.37
   1   0  -7    2.72    0.17
  -1   0   7    2.66    0.23
   0   0  -7   46.77    0.87
   0   0  -7   44.77    0.82
   0   0   7   46.31    0.95
  -1   0  -7    7.62    0.26
  -1   0  -7    8.19    0.27
   1   0   7    8.31    0.32
  -2   0  -7    5.86    0.25
  -2   0  -7    6.13    0.23
   2   0   7    5.92    0.25
  -3   0  -7   11.83    0.33
  -3   0  -7   12.05    0.38
   3   0   7   11.43    0.33
  -4   0  -7   27.83    0.67
   4   0   7   27.64    0.57
   4   0   7   28.19    0.56
  -5   0  -7   -0.06    0.08
   5   0   7   -0.02    0.04
   5   0   7    0.13    0.05
  -6   0  -7   38.05    0.87
   6   0   7   37.28    0.74
  -7   0  -7    0.15    0.11
   7   0   7    0.25    0.08
  -8   0  -7    4.53    0.30
   8   0   7    4.38    0.23
  -9   0  -7    0.83    0.18
   9   0   7    0.63    0.12
 -10   0  -7   10.58    0.51
  10   0   7   10.37    0.38
 -11   0  -7   -0.13    0.16
  11   0   7    0.14    0.10
 -12   0  -7    2.41    0.32
  12   0   7    2.97    0.26
   8  -1  -7    1.80    0.21
  -8   1   7    1.57    0.38
   7  -1  -7   12.40    0.45
  -7   1   7   11.26    0.62
   6  -1  -7    0.50    0.13
  -6   1   7    0.76    0.28
   5  -1  -7    0.14    0.09
  -5   1   7    0.20    0.21
   4  -1  -7    0.31    0.09
  -4   1   7    0.42    0.18
   3  -1  -7    0.11    0.08
  -3   1   7    0.04    0.16
   2  -1  -7   -0.05    0.07
  -2   1   7    0.07    0.13
   1  -1  -7    7.44    0.27
  -1   1   7    8.02    0.36
   0  -1  -7    2.22    0.14
   0  -1  -7    2.21    0.12
   0   1   7    1.85    0.19
  -1  -1  -7   21.91    0.48
  -1  -1  -7   21.47    0.49
   1   1   7   21.29    0.53
  -2  -1  -7   74.50    1.28
  -2  -1  -7   73.94    1.26
   2   1   7   74.12    1.28
  -3  -1  -7   14.75    0.42
  -3  -1  -7   15.13    0.38
   3   1   7   15.19    0.37
  -4  -1  -7    0.08    0.08
   4   1   7    0.16    0.06
   4   1   7    0.10    0.07
  -5  -1  -7    9.36    0.36
   5   1   7    9.59    0.29
  -6  -1  -7    8.22    0.36
   6   1   7    8.41    0.28
  -7  -1  -7    8.73    0.40
   7   1   7    8.74    0.30
  -8  -1  -7    3.88    0.29
   8   1   7    3.53    0.21
  -9  -1  -7    6.66    0.39
   9   1   7    6.65    0.28
 -10  -1  -7   15.70    0.60
  10   1   7   15.55    0.48
 -11  -1  -7   29.29    0.88
  11   1   7   29.33    0.73
 -12  -1  -7    0.00    0.17
  12   1   7    0.20    0.13
   8  -2  -7    2.34    0.25
  -8   2   7    2.30    0.40
   7  -2  -7   20.65    0.59
  -7   2   7   20.43    0.81
   6  -2  -7    2.79    0.23
  -6   2   7    2.32    0.33
   5  -2  -7    0.17    0.09
  -5   2   7    0.25    0.20
   4  -2  -7    8.92    0.32
  -4   2   7    8.12    0.44
   3  -2  -7    3.39    0.20
  -3   2   7    3.94    0.34
   2  -2  -7   56.09    1.03
  -2   2   7   55.77    1.16
   1  -2  -7   16.67    0.42
  -1   2   7   16.77    0.52
   0  -2  -7   22.87    0.51
   0  -2  -7   22.54    0.44
   0   2   7   22.04    0.57
  -1  -2  -7    0.34    0.08
  -1  -2  -7    0.31    0.07
   1   2   7    0.13    0.10
  -2  -2  -7   12.80    0.35
  -2  -2  -7   12.70    0.36
   2   2   7   13.25    0.37
  -3  -2  -7   38.26    0.79
  -3  -2  -7   39.82    0.75
   3   2   7   40.38    0.73
  -4  -2  -7    6.22    0.28
   4   2   7    6.11    0.22
   4   2   7    6.15    0.19
  -5  -2  -7    9.78    0.37
   5   2   7    9.72    0.29
  -6  -2  -7   32.92    0.78
   6   2   7   30.79    0.65
  -7  -2  -7   96.40    1.77
   7   2   7   96.13    1.62
  -8  -2  -7    0.63    0.17
   8   2   7    0.77    0.11
  -9  -2  -7    1.02    0.19
   9   2   7    0.86    0.12
 -10  -2  -7    1.73    0.25
  10   2   7    1.64    0.18
 -11  -2  -7    0.32    0.19
  11   2   7    0.28    0.11
 -12  -2  -7   10.92    0.56
  12   2   7   11.55    0.45
 -13  -2  -7    0.74    0.23
   8  -3  -7    2.96    0.26
  -8   3   7    2.99    0.42
   7  -3  -7    0.42    0.13
  -7   3   7    0.09    0.23
   6  -3  -7    0.46    0.11
  -6   3   7    0.73    0.24
   5  -3  -7    0.29    0.09
  -5   3   7    0.26    0.22
   4  -3  -7    3.09    0.20
  -4   3   7    3.00    0.33
   3  -3  -7   13.25    0.39
  -3   3   7   14.95    0.55
   2  -3  -7   13.52    0.38
  -2   3   7   14.01    0.50
   1  -3  -7    1.22    0.12
  -1   3   7    1.94    0.22
   0  -3  -7   15.34    0.35
   0  -3  -7   15.50    0.39
   0   3   7   15.61    0.47
  -1  -3  -7    8.31    0.26
  -1  -3  -7    8.58    0.27
   1   3   7    7.96    0.31
  -2  -3  -7    6.45    0.26
  -2  -3  -7    6.54    0.23
   2   3   7    6.71    0.26
  -3  -3  -7    8.24    0.26
  -3  -3  -7    7.81    0.30
   3   3   7    8.35    0.25
  -4  -3  -7   30.96    0.71
   4   3   7   32.08    0.55
   4   3   7   32.03    0.63
  -5  -3  -7    9.86    0.37
   5   3   7    9.55    0.29
  -6  -3  -7   53.34    1.11
   6   3   7   55.28    0.99
  -7  -3  -7    0.45    0.16
   7   3   7    0.48    0.09
  -8  -3  -7    0.93    0.18
   8   3   7    1.20    0.14
  -9  -3  -7    4.57    0.34
   9   3   7    4.68    0.23
 -10  -3  -7    2.05    0.27
  10   3   7    1.90    0.19
 -11  -3  -7    0.09    0.16
  11   3   7   -0.05    0.08
 -12  -3  -7    7.53    0.48
  12   3   7    7.57    0.37
 -13  -3  -7    3.15    0.36
   8  -4  -7    3.77    0.26
  -8   4   7    3.24    0.40
   7  -4  -7    1.50    0.19
  -7   4   7    0.96    0.31
   6  -4  -7    0.21    0.10
  -6   4   7    0.05    0.22
   5  -4  -7    0.72    0.13
  -5   4   7    0.73    0.23
   4  -4  -7    0.85    0.12
  -4   4   7    0.87    0.22
   3  -4  -7    8.24    0.30
  -3   4   7    8.63    0.42
   2  -4  -7   44.06    0.85
  -2   4   7   43.67    0.98
   1  -4  -7   24.66    0.54
   1  -4  -7   24.02    0.47
  -1   4   7   24.62    0.65
   0  -4  -7    4.11    0.19
   0  -4  -7    4.82    0.20
   0   4   7    4.42    0.27
  -1  -4  -7   -0.01    0.08
  -1  -4  -7    0.02    0.05
   1   4   7   -0.02    0.10
  -2  -4  -7   45.49    0.89
  -2  -4  -7   46.30    0.85
   2   4   7   46.54    0.86
  -3  -4  -7   38.90    0.74
  -3  -4  -7   38.12    0.80
   3   4   7   39.27    0.70
  -4  -4  -7    0.14    0.12
   4   4   7    0.15    0.04
   4   4   7    0.11    0.06
  -5  -4  -7   24.54    0.63
   5   4   7   24.14    0.53
  -6  -4  -7   21.65    0.61
   6   4   7   20.91    0.50
  -7  -4  -7   19.52    0.61
   7   4   7   19.12    0.48
  -8  -4  -7    2.68    0.28
   8   4   7    2.39    0.18
  -9  -4  -7    0.18    0.17
   9   4   7    0.13    0.09
 -10  -4  -7    2.67    0.30
  10   4   7    3.10    0.21
 -11  -4  -7   11.27    0.53
  11   4   7   12.29    0.43
 -12  -4  -7    5.86    0.44
  12   4   7    5.88    0.32
 -13  -4  -7    0.22    0.18
   8  -5  -7    2.95    0.26
  -8   5   7    2.94    0.38
   7  -5  -7    0.47    0.13
  -7   5   7    0.03    0.21
   6  -5  -7    3.33    0.23
  -6   5   7    2.80    0.34
   5  -5  -7    0.03    0.08
  -5   5   7   -0.09    0.16
   4  -5  -7    1.01    0.13
  -4   5   7    0.82    0.20
   3  -5  -7   19.38    0.49
  -3   5   7   18.94    0.61
   2  -5  -7    4.54    0.21
  -2   5   7    4.43    0.32
   1  -5  -7   24.93    0.56
   1  -5  -7   25.47    0.53
  -1   5   7   25.64    0.67
   0  -5  -7   -0.10    0.09
   0  -5  -7    0.00    0.06
   0   5   7    0.04    0.11
  -1  -5  -7    1.57    0.17
  -1  -5  -7    1.65    0.12
   1   5   7    1.65    0.17
  -2  -5  -7   23.93    0.51
  -2  -5  -7   23.21    0.57
   2   5   7   23.61    0.52
  -3  -5  -7    1.81    0.21
  -3  -5  -7    1.82    0.13
   3   5   7    2.04    0.13
  -4  -5  -7  230.49    3.64
   4   5   7  228.90    3.48
   4   5   7  234.80    3.50
  -5  -5  -7   33.44    0.79
   5   5   7   34.21    0.66
   5   5   7   31.38    0.59
  -6  -5  -7   94.87    1.77
   6   5   7  100.01    1.62
  -7  -5  -7    5.89    0.36
   7   5   7    6.13    0.24
  -8  -5  -7    2.97    0.30
   8   5   7    3.22    0.20
  -9  -5  -7    4.87    0.37
   9   5   7    4.68    0.24
 -10  -5  -7    5.62    0.38
  10   5   7    5.74    0.29
 -11  -5  -7    0.17    0.19
  11   5   7    0.17    0.10
 -12  -5  -7   10.22    0.55
  12   5   7    9.43    0.41
 -13  -5  -7   21.06    0.80
   8  -6  -7   -0.08    0.11
  -8   6   7    0.03    0.22
   7  -6  -7    1.54    0.19
  -7   6   7    1.41    0.25
   6  -6  -7    0.10    0.09
  -6   6   7    0.28    0.20
   5  -6  -7   10.75    0.37
  -5   6   7   11.02    0.52
   4  -6  -7    6.47    0.27
  -4   6   7    5.32    0.38
   3  -6  -7    8.35    0.30
  -3   6   7    8.64    0.42
   2  -6  -7    1.77    0.15
  -2   6   7    1.75    0.22
   1  -6  -7    0.61    0.13
   1  -6  -7    0.56    0.10
  -1   6   7    0.42    0.13
   0  -6  -7    7.33    0.25
   0  -6  -7    6.95    0.30
   0   6   7    7.11    0.32
  -1  -6  -7   20.61    0.46
  -1  -6  -7   19.95    0.53
   1   6   7   19.56    0.50
  -2  -6  -7   33.05    0.76
  -2  -6  -7   34.22    0.66
   2   6   7   33.75    0.69
  -3  -6  -7   14.47    0.48
   3   6   7   13.50    0.35
   3   6   7   13.51    0.35
  -4  -6  -7   -0.05    0.15
   4   6   7    0.09    0.05
   4   6   7    0.04    0.05
  -5  -6  -7    6.02    0.36
   5   6   7    5.73    0.22
   5   6   7    6.38    0.19
  -6  -6  -7    2.05    0.26
   6   6   7    2.09    0.15
  -7  -6  -7    0.24    0.17
   7   6   7    0.21    0.07
  -8  -6  -7    1.74    0.27
   8   6   7    1.31    0.15
  -9  -6  -7    3.60    0.34
   9   6   7    3.54    0.22
 -10  -6  -7    4.51    0.37
  10   6   7    4.83    0.27
 -11  -6  -7    2.13    0.30
  11   6   7    1.76    0.20
 -12  -6  -7    5.19    0.44
  12   6   7    5.24    0.31
   8  -7  -7    2.78    0.26
   7  -7  -7    0.43    0.13
  -7   7   7    0.39    0.19
   6  -7  -7    1.52    0.17
  -6   7   7    1.85    0.28
   5  -7  -7    0.14    0.09
  -5   7   7    0.22    0.17
   4  -7  -7    5.61    0.26
  -4   7   7    5.19    0.35
   3  -7  -7    0.04    0.07
  -3   7   7    0.07    0.12
   2  -7  -7    9.77    0.31
  -2   7   7    8.87    0.39
   1  -7  -7    8.38    0.34
   1  -7  -7    8.94    0.29
  -1   7   7    8.30    0.36
   0  -7  -7    5.61    0.29
   0  -7  -7    5.36    0.21
   0   7   7    6.00    0.29
  -1  -7  -7   12.58    0.44
  -1  -7  -7   12.55    0.33
   1   7   7   11.99    0.39
  -2  -7  -7    6.89    0.23
  -2  -7  -7    6.52    0.35
   2   7   7    7.27    0.27
  -3  -7  -7   13.11    0.47
   3   7   7   13.39    0.34
   3   7   7   13.47    0.37
  -4  -7  -7   65.88    1.32
   4   7   7   66.04    1.13
   4   7   7   65.94    1.14
  -5  -7  -7    0.02    0.17
   5   7   7   -0.03    0.05
   5   7   7   -0.05    0.04
  -6  -7  -7    1.27    0.22
   6   7   7    1.60    0.14
  -7  -7  -7    9.73    0.47
   7   7   7    9.52    0.32
  -8  -7  -7    0.08    0.18
   8   7   7    0.09    0.07
  -9  -7  -7    2.82    0.32
   9   7   7    3.55    0.21
 -10  -7  -7    0.41    0.22
  10   7   7    0.63    0.14
 -11  -7  -7    8.54    0.50
  11   7   7    7.31    0.35
 -12  -7  -7    0.48    0.24
  12   7   7    0.45    0.13
  -7   8   7   10.01    0.54
   6  -8  -7    0.23    0.10
  -6   8   7    0.17    0.15
   5  -8  -7    1.24    0.15
  -5   8   7    1.22    0.22
   4  -8  -7    0.11    0.08
  -4   8   7   -0.15    0.13
   3  -8  -7    6.20    0.26
  -3   8   7    6.27    0.35
   2  -8  -7    0.11    0.07
  -2   8   7    0.09    0.12
   1  -8  -7    0.06    0.06
   1  -8  -7   -0.14    0.11
  -1   8   7   -0.07    0.10
   0  -8  -7    0.05    0.13
   0  -8  -7    0.09    0.06
   0   8   7    0.21    0.11
  -1  -8  -7    2.27    0.23
  -1  -8  -7    2.14    0.14
   1   8   7    2.46    0.20
  -2  -8  -7    8.10    0.38
   2   8   7    7.97    0.24
   2   8   7    7.83    0.31
  -3  -8  -7   20.21    0.62
   3   8   7   19.44    0.50
   3   8   7   20.38    0.44
  -4  -8  -7    0.86    0.20
   4   8   7    1.07    0.11
   4   8   7    0.89    0.12
  -5  -8  -7   -0.12    0.18
   5   8   7    0.10    0.06
   5   8   7    0.14    0.07
  -6  -8  -7    3.34    0.34
   6   8   7    3.10    0.17
  -7  -8  -7    4.95    0.41
   7   8   7    4.68    0.22
  -8  -8  -7    0.15    0.19
   8   8   7    0.29    0.09
  -9  -8  -7    0.59    0.22
   9   8   7    0.13    0.09
 -10  -8  -7    7.50    0.48
  10   8   7    7.41    0.32
 -11  -8  -7    5.57    0.48
  11   8   7    5.26    0.29
 -12  -8  -7    0.54    0.25
  12   8   7    0.13    0.12
  -6   9   7    0.51    0.18
  -5   9   7    4.48    0.36
  -4   9   7   13.40    0.55
  -3   9   7    0.28    0.14
   2  -9  -7    0.26    0.10
  -2   9   7    0.11    0.13
   1  -9  -7    1.99    0.24
   1  -9  -7    1.97    0.14
  -1   9   7    1.90    0.21
   0  -9  -7    1.46    0.13
   0  -9  -7    1.31    0.21
   0   9   7    1.45    0.19
  -1  -9  -7    0.70    0.19
  -1  -9  -7    0.59    0.09
   1   9   7    0.60    0.13
  -2  -9  -7    0.25    0.18
   2   9   7    0.49    0.11
   2   9   7    0.40    0.07
  -3  -9  -7    5.97    0.37
   3   9   7    5.80    0.27
   3   9   7    5.66    0.20
  -4  -9  -7    8.85    0.46
   4   9   7    8.73    0.33
   4   9   7    9.09    0.27
  -5  -9  -7    5.33    0.42
   5   9   7    5.28    0.21
   5   9   7    4.87    0.24
  -6  -9  -7    0.47    0.24
   6   9   7    0.62    0.10
  -7  -9  -7    1.05    0.27
   7   9   7    1.28    0.14
  -8  -9  -7    2.58    0.33
   8   9   7    3.06    0.19
  -9  -9  -7    2.81    0.37
   9   9   7    1.85    0.18
 -10  -9  -7    2.66    0.38
  10   9   7    3.03    0.24
 -11  -9  -7    5.70    0.50
  11   9   7    5.48    0.30
  12   9   7    5.24    0.50
  -5  10   7    0.94    0.22
  -4  10   7    4.60    0.36
  -3  10   7    0.29    0.15
  -2  10   7    9.05    0.43
   1 -10  -7   33.53    0.86
  -1  10   7   33.51    0.86
   0 -10  -7   49.79    1.14
   0  10   7   50.89    1.11
  -1 -10  -7   14.78    0.57
   1  10   7   14.74    0.50
  -2 -10  -7    0.00    0.16
   2  10   7    0.16    0.09
  -3 -10  -7    2.04    0.29
   3  10   7    2.09    0.19
  -4 -10  -7   15.69    0.62
   4  10   7   15.96    0.48
  -5 -10  -7    2.02    0.33
   5  10   7    2.34    0.19
  -6 -10  -7    0.52    0.23
  -7 -10  -7    2.51    0.35
  -8 -10  -7    2.62    0.39
  -9 -10  -7    1.36    0.31
 -10 -10  -7    1.60    0.32
  -4  11   7    0.58    0.18
  -3  11   7    1.54    0.25
  -2  11   7   11.62    0.51
   1 -11  -7   12.12    0.54
  -1  11   7   13.09    0.52
   0 -11  -7   -0.17    0.17
   0  11   7    0.24    0.13
  -1 -11  -7   -0.11    0.18
   1  11   7    0.24    0.11
  -2 -11  -7   25.00    0.80
   2  11   7   25.65    0.71
  -3 -11  -7    3.30    0.35
   3  11   7    3.62    0.26
  -4 -11  -7    1.76    0.31
   4  11   7    1.64    0.20
  -5 -11  -7    1.96    0.32
   5  11   7    1.94    0.21
  -6 -11  -7    7.26    0.54
  -7 -11  -7    7.29    0.52
  -8 -11  -7   -0.35    0.26
  -9 -11  -7   -0.47    0.22
  -3  12   7    1.39    0.24
  -2  12   7    0.60    0.18
   1 -12  -7    1.31    0.27
  -1  12   7    1.09    0.21
   0 -12  -7    0.86    0.25
   0  12   7    1.16    0.21
  -1 -12  -7    3.17    0.37
   1  12   7    4.66    0.32
  -2 -12  -7    6.22    0.46
   2  12   7    7.49    0.39
  -3 -12  -7   -0.37    0.22
   3  12   7    0.02    0.11
  -4 -12  -7    1.46    0.33
   4  12   7    1.49    0.21
  -5 -12  -7    1.02    0.32
   5  12   7    1.36    0.20
  -6 -12  -7    0.93    0.34
  -7 -12  -7    0.35    0.32
  -8 -12  -7    0.80    0.34
   1 -13  -7    1.93    0.33
  -1  13   7    2.46    0.29
   0 -13  -7   -0.08    0.23
   0  13   7    0.12    0.14
  -1 -13  -7   17.17    0.72
   1  13   7   18.20    0.65
  -2 -13  -7   -0.13    0.24
   2  13   7    0.05    0.11
  -3 -13  -7    0.93    0.29
   3  13   7    1.28    0.22
  -4 -13  -7    4.63    0.47
   4  13   7    4.75    0.33
  -5 -13  -7    9.65    0.65
  -6 -13  -7    5.32    0.53
   0 -14  -7    2.03    0.39
  -1 -14  -7   -0.27    0.22
   1  14   7   -0.07    0.12
  -2 -14  -7    0.56    0.32
   2  14   7    0.85    0.20
  -3 -14  -7   -0.31    0.30
   3  14   7    0.43    0.17
   4  14   7    4.13    0.34
   2  -8   8    0.24    0.16
   0   7  -8   -0.02    0.20
  -1   7  -8    0.01    0.19
  -2   7  -8    1.30    0.27
   2  -7   8    1.52    0.22
  -3   7  -8    0.02    0.18
   3  -7   8    0.09    0.11
   4  -7   8    0.45    0.16
   5  -7   8    0.16    0.12
  -2  -6   8    0.33    0.20
   1   6  -8    3.13    0.36
   0   6  -8   -0.11    0.18
  -1   6  -8    4.17    0.36
   1  -6   8    4.36    0.30
  -2   6  -8    0.28    0.18
   2  -6   8    0.63    0.15
  -3   6  -8    1.35    0.23
   3  -6   8    1.16    0.19
   4  -6   8    4.54    0.33
   5  -6   8   23.83    0.78
   6  -6   8    0.11    0.11
   7  -6   8    0.78    0.20
  -4  -5   8    7.37    0.57
  -3  -5   8    2.23    0.34
  -2  -5   8    8.85    0.52
  -1  -5   8    4.24    0.35
   0   5  -8    0.15    0.17
  -1   5  -8    0.21    0.18
   1  -5   8    0.36    0.11
  -2   5  -8    0.09    0.14
   2  -5   8    0.04    0.08
  -3   5  -8    0.05    0.14
   3  -5   8    0.07    0.08
  -4   5  -8    2.47    0.26
   4  -5   8    2.38    0.25
   5  -5   8   19.12    0.66
  -6   5  -8   28.39    0.90
  -7   5  -8    2.31    0.33
  -8   5  -8    0.12    0.16
   6   4  -8    0.05    0.22
   5   4  -8   -0.07    0.10
  -5  -4   8    0.14    0.25
   4   4  -8    0.18    0.12
  -4  -4   8    0.35    0.26
   3   4  -8    0.07    0.09
  -3  -4   8    0.42    0.24
   2   4  -8   -0.14    0.07
  -2  -4   8    0.14    0.18
   1   4  -8    3.47    0.22
  -1  -4   8    4.49    0.35
   0   4  -8    5.22    0.25
   0   4  -8    4.55    0.34
  -1   4  -8    0.33    0.15
  -1   4  -8    0.27    0.11
   1  -4   8    0.32    0.10
  -2   4  -8    0.69    0.17
   2  -4   8    0.46    0.09
   2  -4   8    0.63    0.13
  -3   4  -8   -0.13    0.11
   3  -4   8   -0.04    0.07
  -4   4  -8    0.15    0.14
  -4   4  -8    0.04    0.12
  -5   4  -8   30.35    0.87
  -6   4  -8    0.69    0.19
  -7   4  -8    0.05    0.16
  -8   4  -8    0.24    0.17
  -9   4  -8    3.83    0.40
   6   3  -8    1.96    0.23
   5   3  -8    1.94    0.22
  -5  -3   8    1.59    0.34
   4   3  -8    1.11    0.17
  -4  -3   8    0.67    0.25
   3   3  -8   -0.20    0.07
  -3  -3   8    0.00    0.19
   2   3  -8    4.03    0.23
  -2  -3   8    3.58    0.36
   1   3  -8    2.17    0.19
  -1  -3   8    2.50    0.28
   0   3  -8    0.10    0.08
   0  -3   8   -0.02    0.12
  -1   3  -8    4.29    0.22
  -1   3  -8    4.01    0.29
   1  -3   8    3.61    0.22
  -2   3  -8    3.85    0.27
  -2   3  -8    4.49    0.22
   2  -3   8    4.25    0.24
  -3   3  -8    7.35    0.33
  -3   3  -8    6.62    0.35
   3  -3   8    7.30    0.26
  -4   3  -8    5.68    0.34
  -4   3  -8    5.25    0.28
   4  -3   8    5.66    0.23
  -5   3  -8    0.05    0.11
   5  -3   8   -0.01    0.06
  -6   3  -8    2.57    0.29
   6  -3   8    2.36    0.17
  -7   3  -8    0.10    0.14
   7  -3   8    0.40    0.10
  -8   3  -8    1.68    0.26
   8  -3   8    1.73    0.17
  -9   3  -8    0.42    0.19
   9  -3   8    0.54    0.12
 -10   3  -8    0.20    0.17
   6   2  -8    6.40    0.34
  -6  -2   8    6.70    0.59
   5   2  -8    3.48    0.26
  -5  -2   8    3.27    0.41
   4   2  -8    1.63    0.19
  -4  -2   8    1.56    0.29
   3   2  -8    4.78    0.25
  -3  -2   8    5.51    0.42
   2   2  -8    2.52    0.21
  -2  -2   8    2.42    0.30
   1   2  -8    0.18    0.08
  -1  -2   8    0.20    0.14
   0   2  -8    0.06    0.07
   0  -2   8    0.14    0.13
  -1   2  -8   22.51    0.54
   1  -2   8   22.26    0.55
   1  -2   8   21.93    0.62
  -2   2  -8    1.61    0.18
  -2   2  -8    1.94    0.20
  -2   2  -8    1.84    0.16
  -3   2  -8    0.14    0.10
  -3   2  -8    0.19    0.11
   3  -2   8    0.27    0.08
  -4   2  -8    2.39    0.24
  -4   2  -8    2.38    0.19
   4  -2   8    2.48    0.16
  -5   2  -8    4.19    0.29
   5  -2   8    3.68    0.19
  -6   2  -8    0.61    0.17
   6  -2   8    0.77    0.12
  -7   2  -8    0.06    0.12
   7  -2   8   -0.10    0.06
  -8   2  -8    0.21    0.15
   8  -2   8    0.38    0.10
  -9   2  -8    1.27    0.26
   9  -2   8    1.72    0.18
 -10   2  -8    0.04    0.14
  10  -2   8   -0.03    0.08
 -11   2  -8    0.09    0.18
  11  -2   8    0.06    0.10
   7   1  -8    0.04    0.11
   6   1  -8    1.62    0.21
  -6  -1   8    1.18    0.34
   5   1  -8    3.83    0.26
  -5  -1   8    4.50    0.46
   4   1  -8    0.10    0.10
  -4  -1   8   -0.05    0.21
   3   1  -8    0.00    0.08
  -3  -1   8    0.08    0.17
   2   1  -8    0.01    0.08
  -2  -1   8   -0.06    0.15
   1   1  -8    0.67    0.11
  -1  -1   8    0.41    0.17
   0   1  -8   32.74    0.70
   0  -1   8   32.71    0.81
  -1   1  -8   41.66    0.84
  -1   1  -8   41.80    0.86
   1  -1   8   43.95    0.94
  -2   1  -8    1.12    0.15
  -2   1  -8    1.18    0.14
   2  -1   8    1.23    0.16
  -3   1  -8    6.73    0.26
  -3   1  -8    6.75    0.31
   3  -1   8    6.61    0.28
  -4   1  -8    0.09    0.10
   4  -1   8    0.04    0.05
   4  -1   8    0.09    0.07
  -5   1  -8   -0.13    0.08
   5  -1   8    0.04    0.06
  -6   1  -8    3.43    0.27
   6  -1   8    3.36    0.19
  -7   1  -8    1.42    0.22
   7  -1   8    0.86    0.12
  -8   1  -8    5.71    0.37
   8  -1   8    5.98    0.26
  -9   1  -8    1.28    0.22
   9  -1   8    1.20    0.15
 -10   1  -8    6.98    0.44
  10  -1   8    6.75    0.31
 -11   1  -8    0.32    0.18
  11  -1   8    0.03    0.10
  12  -1   8    0.52    0.15
   7   0  -8    3.24    0.28
  -7   0   8    3.42    0.48
   6   0  -8    3.02    0.26
  -6   0   8    2.96    0.40
   5   0  -8    1.34    0.18
  -5   0   8    1.22    0.32
   4   0  -8    5.21    0.27
  -4   0   8    5.25    0.44
   3   0  -8    0.86    0.13
  -3   0   8    1.20    0.25
   2   0  -8    0.28    0.09
  -2   0   8    0.21    0.17
   1   0  -8    0.92    0.12
  -1   0   8    0.76    0.18
   0   0  -8    1.25    0.13
   0   0   8    1.55    0.20
  -1   0  -8   39.94    0.81
  -1   0  -8   41.37    0.81
   1   0   8   41.35    0.89
  -2   0  -8    1.67    0.16
  -2   0  -8    1.74    0.16
   2   0   8    1.71    0.18
  -3   0  -8    0.08    0.08
  -3   0  -8    0.12    0.07
   3   0   8    0.03    0.09
  -4   0  -8    3.37    0.24
   4   0   8    3.09    0.18
   4   0   8    3.42    0.18
  -5   0  -8    9.61    0.39
   5   0   8    9.31    0.30
  -6   0  -8   10.22    0.42
   6   0   8    9.97    0.32
  -7   0  -8    3.97    0.31
   7   0   8    4.36    0.22
  -8   0  -8    3.04    0.31
   8   0   8    2.78    0.20
  -9   0  -8    2.68    0.29
   9   0   8    2.70    0.20
 -10   0  -8   12.86    0.57
  10   0   8   12.23    0.43
 -11   0  -8    5.48    0.41
  11   0   8    4.35    0.28
 -12   0  -8    2.99    0.36
  12   0   8    3.42    0.29
   7  -1  -8    0.61    0.16
  -7   1   8    0.36    0.31
   6  -1  -8    7.50    0.36
  -6   1   8    7.04    0.57
   5  -1  -8    0.34    0.12
  -5   1   8    0.34    0.26
   4  -1  -8    1.39    0.17
  -4   1   8    1.46    0.27
   3  -1  -8    0.01    0.07
  -3   1   8    0.08    0.17
   2  -1  -8    3.13    0.20
  -2   1   8    2.56    0.27
   1  -1  -8   18.52    0.48
  -1   1   8   18.09    0.58
   0  -1  -8   55.48    1.03
   0   1   8   54.51    1.12
  -1  -1  -8    0.98    0.13
  -1  -1  -8    1.26    0.13
   1   1   8    1.10    0.17
  -2  -1  -8   -0.05    0.05
  -2  -1  -8    0.06    0.07
   2   1   8    0.03    0.09
  -3  -1  -8    5.65    0.26
  -3  -1  -8    5.68    0.23
   3   1   8    5.42    0.25
  -4  -1  -8    0.58    0.13
   4   1   8    0.63    0.09
   4   1   8    0.65    0.11
  -5  -1  -8    1.13    0.17
   5   1   8    1.41    0.13
  -6  -1  -8    0.52    0.15
   6   1   8    0.51    0.09
  -7  -1  -8   10.43    0.44
   7   1   8   10.75    0.35
  -8  -1  -8   19.76    0.65
   8   1   8   18.57    0.50
  -9  -1  -8    3.42    0.30
   9   1   8    3.31    0.21
 -10  -1  -8    1.46    0.25
  10   1   8    1.32    0.17
 -11  -1  -8   10.66    0.54
  11   1   8   10.74    0.42
 -12  -1  -8   26.30    0.88
  12   1   8   26.52    0.72
   7  -2  -8    0.25    0.12
  -7   2   8    0.50    0.32
   6  -2  -8    2.77    0.25
  -6   2   8    1.83    0.36
   5  -2  -8    2.05    0.21
  -5   2   8    1.49    0.32
   4  -2  -8    2.54    0.22
  -4   2   8    3.22    0.35
   3  -2  -8    7.25    0.30
  -3   2   8    6.71    0.44
   2  -2  -8   22.49    0.55
  -2   2   8   21.70    0.68
   1  -2  -8    0.11    0.08
  -1   2   8    0.35    0.17
   0  -2  -8    0.12    0.07
   0   2   8    0.24    0.13
  -1  -2  -8    8.26    0.26
  -1  -2  -8    8.06    0.28
   1   2   8    7.67    0.34
  -2  -2  -8   18.74    0.47
  -2  -2  -8   19.17    0.48
   2   2   8   19.21    0.50
  -3  -2  -8    3.75    0.22
  -3  -2  -8    3.82    0.19
   3   2   8    3.62    0.21
  -4  -2  -8   29.26    0.69
   4   2   8   28.28    0.60
   4   2   8   28.48    0.57
  -5  -2  -8    8.50    0.36
   5   2   8    8.17    0.28
  -6  -2  -8   10.02    0.41
   6   2   8   10.19    0.33
  -7  -2  -8   16.64    0.55
   7   2   8   16.42    0.45
  -8  -2  -8    4.89    0.34
   8   2   8    4.25    0.23
  -9  -2  -8    3.50    0.30
   9   2   8    3.65    0.23
 -10  -2  -8    2.81    0.30
  10   2   8    2.38    0.21
 -11  -2  -8   15.15    0.64
  11   2   8   14.59    0.49
 -12  -2  -8    1.57    0.26
  12   2   8    2.06    0.22
   7  -3  -8   11.89    0.46
  -7   3   8   11.39    0.67
   6  -3  -8    0.98    0.17
  -6   3   8    0.63    0.29
   5  -3  -8    2.29    0.22
  -5   3   8    3.06    0.36
   4  -3  -8    7.64    0.32
  -4   3   8    6.83    0.44
   3  -3  -8    1.92    0.19
  -3   3   8    2.52    0.31
   2  -3  -8   25.87    0.60
  -2   3   8   25.12    0.72
   1  -3  -8    5.15    0.24
  -1   3   8    6.07    0.36
   0  -3  -8   36.79    0.76
   0   3   8   38.05    0.85
  -1  -3  -8   12.31    0.34
  -1  -3  -8   12.11    0.35
   1   3   8   11.84    0.42
  -2  -3  -8    1.40    0.15
  -2  -3  -8    1.28    0.13
   2   3   8    1.68    0.18
  -3  -3  -8   14.00    0.42
  -3  -3  -8   13.97    0.38
   3   3   8   13.91    0.38
  -4  -3  -8    4.22    0.26
   4   3   8    4.03    0.19
   4   3   8    4.13    0.18
  -5  -3  -8    0.69    0.15
   5   3   8    0.55    0.09
  -6  -3  -8    5.39    0.31
   6   3   8    4.50    0.21
  -7  -3  -8   20.28    0.62
   7   3   8   19.41    0.50
  -8  -3  -8    0.23    0.16
   8   3   8    0.28    0.09
  -9  -3  -8    3.29    0.32
   9   3   8    3.11    0.22
 -10  -3  -8    4.67    0.36
  10   3   8    4.32    0.26
 -11  -3  -8    0.11    0.16
  11   3   8    0.06    0.09
 -12  -3  -8    3.50    0.36
  12   3   8    3.16    0.28
   7  -4  -8    0.97    0.17
  -7   4   8    1.31    0.33
   6  -4  -8    7.16    0.34
  -6   4   8    6.33    0.48
   5  -4  -8    5.30    0.29
  -5   4   8    5.19    0.45
   4  -4  -8    0.83    0.14
  -4   4   8    0.71    0.22
   3  -4  -8    0.07    0.08
  -3   4   8    0.22    0.20
   2  -4  -8    0.93    0.13
  -2   4   8    0.82    0.21
   1  -4  -8    9.52    0.33
  -1   4   8    9.35    0.41
   0  -4  -8   11.59    0.35
   0  -4  -8   10.95    0.30
   0   4   8   11.28    0.43
  -1  -4  -8   16.69    0.43
  -1  -4  -8   16.91    0.44
   1   4   8   17.62    0.50
  -2  -4  -8    2.45    0.19
  -2  -4  -8    2.54    0.16
   2   4   8    2.31    0.20
  -3  -4  -8    0.28    0.12
  -3  -4  -8    0.18    0.07
   3   4   8    0.26    0.09
  -4  -4  -8    5.54    0.30
   4   4   8    5.57    0.19
   4   4   8    5.40    0.22
  -5  -4  -8   33.71    0.80
   5   4   8   33.78    0.69
  -6  -4  -8    5.54    0.33
   6   4   8    5.29    0.23
  -7  -4  -8    0.05    0.14
   7   4   8    0.08    0.07
  -8  -4  -8    1.03    0.21
   8   4   8    1.03    0.14
  -9  -4  -8    0.09    0.15
   9   4   8    0.10    0.09
 -10  -4  -8    0.72    0.21
  10   4   8    0.87    0.15
 -11  -4  -8    0.77    0.21
  11   4   8    0.36    0.13
 -12  -4  -8    6.89    0.48
  12   4   8    6.07    0.32
   7  -5  -8    0.33    0.13
  -7   5   8    0.48    0.27
   6  -5  -8    2.05    0.22
  -6   5   8    1.63    0.32
   5  -5  -8    3.27    0.23
  -5   5   8    3.17    0.37
   4  -5  -8    0.50    0.11
  -4   5   8    0.30    0.21
   3  -5  -8    2.83    0.19
  -3   5   8    2.11    0.27
   2  -5  -8   17.08    0.46
  -2   5   8   16.73    0.59
   1  -5  -8   75.18    1.33
  -1   5   8   75.44    1.46
   0  -5  -8    6.45    0.26
   0  -5  -8    6.62    0.26
   0   5   8    7.52    0.35
  -1  -5  -8    0.37    0.11
  -1  -5  -8    0.19    0.08
   1   5   8    0.20    0.12
  -2  -5  -8    4.25    0.25
  -2  -5  -8    4.08    0.19
   2   5   8    4.30    0.23
  -3  -5  -8    0.10    0.07
  -3  -5  -8   -0.03    0.11
   3   5   8    0.19    0.08
  -4  -5  -8    4.12    0.27
   4   5   8    4.29    0.20
   4   5   8    4.03    0.16
  -5  -5  -8   10.77    0.43
   5   5   8   10.94    0.32
  -6  -5  -8    7.09    0.38
   6   5   8    7.24    0.27
  -7  -5  -8   -0.08    0.13
   7   5   8    0.02    0.06
  -8  -5  -8   14.89    0.57
   8   5   8   14.72    0.43
  -9  -5  -8    2.92    0.32
   9   5   8    3.13    0.21
 -10  -5  -8    2.47    0.31
  10   5   8    1.92    0.19
 -11  -5  -8    7.02    0.47
  11   5   8    6.74    0.34
 -12  -5  -8    2.80    0.36
  12   5   8    2.15    0.24
   7  -6  -8    3.41    0.28
  -7   6   8    3.52    0.40
   6  -6  -8    1.51    0.19
  -6   6   8    1.78    0.32
   5  -6  -8    5.70    0.29
  -5   6   8    5.59    0.41
   4  -6  -8   12.13    0.40
  -4   6   8   13.12    0.57
   3  -6  -8    2.94    0.20
  -3   6   8    2.68    0.29
   2  -6  -8    6.36    0.27
  -2   6   8    6.18    0.37
   1  -6  -8    2.72    0.18
  -1   6   8    2.12    0.23
   0  -6  -8    2.06    0.17
   0  -6  -8    2.24    0.19
   0   6   8    1.73    0.20
  -1  -6  -8   11.57    0.39
  -1  -6  -8   11.23    0.34
   1   6   8   10.74    0.38
  -2  -6  -8    0.10    0.13
  -2  -6  -8    0.06    0.06
   2   6   8    0.02    0.08
  -3  -6  -8   52.70    1.07
  -3  -6  -8   52.52    0.96
   3   6   8   51.23    0.94
  -4  -6  -8   11.25    0.45
   4   6   8   11.93    0.31
   4   6   8   12.12    0.34
  -5  -6  -8    8.24    0.41
   5   6   8    8.63    0.28
  -6  -6  -8   31.62    0.82
   6   6   8   30.30    0.66
  -7  -6  -8   28.81    0.81
   7   6   8   30.59    0.66
  -8  -6  -8    4.93    0.38
   8   6   8    5.47    0.25
  -9  -6  -8    2.05    0.28
   9   6   8    2.62    0.22
 -10  -6  -8    0.28    0.19
  10   6   8    0.08    0.09
 -11  -6  -8    0.33    0.22
  11   6   8    0.32    0.12
 -12  -6  -8    2.01    0.32
  12   6   8    1.47    0.20
   7  -7  -8   -0.14    0.09
   6  -7  -8    0.15    0.11
  -6   7   8    0.70    0.23
   5  -7  -8   13.35    0.44
  -5   7   8   13.20    0.59
   4  -7  -8    0.64    0.13
  -4   7   8    0.83    0.22
   3  -7  -8    2.24    0.19
  -3   7   8    2.23    0.27
   2  -7  -8    4.13    0.22
  -2   7   8    3.88    0.31
   1  -7  -8    3.05    0.19
  -1   7   8    2.99    0.26
   0  -7  -8    0.81    0.11
   0  -7  -8    1.17    0.18
   0   7   8    0.97    0.17
  -1  -7  -8    1.03    0.18
  -1  -7  -8    1.13    0.13
   1   7   8    1.25    0.16
  -2  -7  -8    2.02    0.23
  -2  -7  -8    1.87    0.16
   2   7   8    1.78    0.16
  -3  -7  -8    0.43    0.16
   3   7   8    0.59    0.10
   3   7   8    0.55    0.08
  -4  -7  -8    1.13    0.22
   4   7   8    1.23    0.13
   4   7   8    1.07    0.12
  -5  -7  -8   14.74    0.54
   5   7   8   15.29    0.40
  -6  -7  -8    1.62    0.26
   6   7   8    1.54    0.15
  -7  -7  -8    6.10    0.39
   7   7   8    6.60    0.27
  -8  -7  -8    0.82    0.22
   8   7   8    0.57    0.12
  -9  -7  -8    4.77    0.38
   9   7   8    4.91    0.26
 -10  -7  -8   19.44    0.74
  10   7   8   20.43    0.57
 -11  -7  -8   15.40    0.67
  11   7   8   16.54    0.52
 -12  -7  -8    2.42    0.34
  12   7   8    1.98    0.22
   7  -8  -8    2.71    0.26
   6  -8  -8    3.20    0.24
  -6   8   8    2.99    0.33
   5  -8  -8   -0.04    0.08
  -5   8   8    0.12    0.15
   4  -8  -8    8.50    0.34
  -4   8   8    8.91    0.47
   3  -8  -8    0.12    0.08
  -3   8   8   -0.07    0.14
   2  -8  -8    2.72    0.18
  -2   8   8    3.26    0.29
   1  -8  -8    9.79    0.32
  -1   8   8    9.60    0.40
   0  -8  -8    8.17    0.28
   0  -8  -8    7.69    0.37
   0   8   8    8.20    0.36
  -1  -8  -8    0.39    0.08
  -1  -8  -8    0.37    0.16
   1   8   8    0.49    0.13
  -2  -8  -8    5.30    0.35
  -2  -8  -8    5.78    0.23
   2   8   8    5.00    0.25
  -3  -8  -8   -0.03    0.17
   3   8   8    0.11    0.07
   3   8   8    0.35    0.08
  -4  -8  -8   -0.03    0.17
   4   8   8    0.15    0.06
   4   8   8    0.04    0.06
  -5  -8  -8    1.73    0.27
   5   8   8    1.72    0.15
  -6  -8  -8    0.11    0.18
   6   8   8    0.03    0.06
  -7  -8  -8    5.69    0.40
   7   8   8    5.66    0.25
  -8  -8  -8    1.55    0.29
   8   8   8    1.47    0.16
  -9  -8  -8   12.47    0.58
   9   8   8   11.51    0.40
 -10  -8  -8    1.13    0.29
  10   8   8    1.46    0.19
 -11  -8  -8    9.87    0.58
  11   8   8    9.28    0.39
  12   8   8   -0.03    0.10
  -5   9   8    0.58    0.19
  -4   9   8   23.84    0.77
   3  -9  -8   -0.08    0.07
  -3   9   8    0.09    0.14
   2  -9  -8    1.31    0.15
  -2   9   8    1.14    0.19
   1  -9  -8    6.69    0.26
  -1   9   8    6.83    0.35
   0  -9  -8    2.62    0.27
   0  -9  -8    3.02    0.18
   0   9   8    2.75    0.26
  -1  -9  -8    2.80    0.17
  -1  -9  -8    2.85    0.29
   1   9   8    3.27    0.24
  -2  -9  -8   -0.05    0.17
   2   9   8    0.09    0.09
   2   9   8   -0.01    0.05
  -3  -9  -8    1.94    0.28
   3   9   8    1.67    0.17
   3   9   8    1.42    0.13
  -4  -9  -8    1.69    0.28
   4   9   8    2.17    0.14
   4   9   8    1.97    0.17
  -5  -9  -8    0.10    0.19
   5   9   8    0.16    0.07
  -6  -9  -8    7.18    0.45
   6   9   8    7.11    0.27
  -7  -9  -8   13.82    0.61
   7   9   8   13.99    0.41
  -8  -9  -8    2.22    0.35
   8   9   8    2.31    0.19
  -9  -9  -8    0.94    0.27
   9   9   8    0.79    0.14
 -10  -9  -8    2.62    0.36
  10   9   8    3.11    0.23
 -11  -9  -8    3.76    0.41
  11   9   8    4.36    0.28
  -5  10   8    3.07    0.41
  -4  10   8    0.21    0.17
  -3  10   8    6.13    0.39
  -2  10   8    2.37    0.28
  -1  10   8    2.98    0.26
   0 -10  -8    6.26    0.40
   0  10   8    7.10    0.36
  -1 -10  -8    3.44    0.33
   1  10   8    3.94    0.27
  -2 -10  -8    4.40    0.38
   2  10   8    4.93    0.28
  -3 -10  -8    4.91    0.41
   3  10   8    5.14    0.28
  -4 -10  -8    0.64    0.25
   4  10   8    1.07    0.15
  -5 -10  -8    0.03    0.20
  -6 -10  -8    7.91    0.49
  -7 -10  -8    0.43    0.24
  -8 -10  -8    1.73    0.33
  -9 -10  -8    1.20    0.32
 -10 -10  -8   20.14    0.83
  -4  11   8    6.61    0.43
  -3  11   8    5.23    0.39
  -2  11   8    0.31    0.16
  -1  11   8    1.70    0.23
   0 -11  -8    1.98    0.30
   0  11   8    2.52    0.27
  -1 -11  -8    0.37    0.23
   1  11   8    0.50    0.14
  -2 -11  -8    0.20    0.22
   2  11   8    0.62    0.15
  -3 -11  -8   15.63    0.66
   3  11   8   14.09    0.49
  -4 -11  -8   -0.02    0.24
   4  11   8    0.62    0.13
  -5 -11  -8    1.61    0.33
  -6 -11  -8    4.02    0.43
  -7 -11  -8    2.93    0.41
  -8 -11  -8    3.32    0.41
  -9 -11  -8    4.42    0.48
  -2  12   8    0.33    0.17
  -1  12   8    0.28    0.16
   0 -12  -8    4.68    0.43
   0  12   8    4.32    0.33
  -1 -12  -8    2.41    0.34
   1  12   8    3.47    0.29
  -2 -12  -8   17.57    0.72
   2  12   8   18.18    0.60
  -3 -12  -8    2.51    0.34
   3  12   8    2.11    0.24
  -4 -12  -8   10.73    0.62
   4  12   8   10.62    0.44
  -5 -12  -8    3.49    0.44
  -6 -12  -8    0.91    0.30
  -7 -12  -8   -0.16    0.24
  -8 -12  -8    0.04    0.29
  -1  13   8    6.35    0.42
   0 -13  -8    0.39    0.27
   0  13   8    0.96    0.19
  -1 -13  -8   -0.16    0.21
   1  13   8    0.14    0.13
  -2 -13  -8   -0.19    0.23
   2  13   8    0.10    0.12
  -3 -13  -8   32.30    1.04
   3  13   8   32.20    0.88
  -4 -13  -8    3.35    0.42
   4  13   8    3.39    0.29
  -5 -13  -8    0.36    0.32
  -6 -13  -8    0.22    0.28
   0 -14  -8    0.33    0.31
  -1 -14  -8   -0.54    0.25
   1  14   8    0.14    0.16
  -2 -14  -8    9.86    0.66
   2  14   8   10.45    0.50
  -3 -14  -8   -0.44    0.30
   3  14   8   -0.02    0.13
   3  -7   9    1.42    0.36
   0  -6   9    2.68    0.32
  -1   6  -9    1.14    0.26
  -2   6  -9   -0.18    0.18
   3  -6   9    2.14    0.27
   4  -6   9    0.88    0.18
   5  -6   9    1.97    0.27
  -2  -5   9    0.31    0.22
  -1  -5   9    0.88    0.24
   0  -5   9    2.65    0.33
  -1   5  -9    1.36    0.25
  -2   5  -9    5.20    0.39
   2  -5   9    5.06    0.32
  -3   5  -9    2.04    0.27
   3  -5   9    1.73    0.22
   4  -5   9    3.90    0.30
   5  -5   9    2.31    0.27
   6  -5   9    2.54    0.31
   7  -5   9    7.25    0.44
  -3  -4   9    1.59    0.32
  -2  -4   9    3.77    0.42
  -1  -4   9    0.52    0.22
   0  -4   9    6.83    0.43
   1  -4   9    0.24    0.14
  -2   4  -9    0.08    0.15
   2  -4   9    0.34    0.11
  -3   4  -9    6.76    0.38
   3  -4   9    6.14    0.34
   4  -4   9    0.31    0.11
  -5   4  -9    1.01    0.21
  -6   4  -9    1.68    0.27
  -7   4  -9    5.40    0.42
  -8   4  -9    2.22    0.32
   5   3  -9    4.66    0.31
   4   3  -9    2.10    0.23
  -4  -3   9    1.85    0.36
   3   3  -9    3.39    0.25
  -3  -3   9    3.70    0.43
   2   3  -9    4.57    0.27
  -2  -3   9    5.66    0.45
   1   3  -9    0.18    0.10
  -1  -3   9    0.07    0.18
   0   3  -9    2.14    0.20
   0  -3   9    2.10    0.28
  -1   3  -9    0.35    0.11
   1  -3   9    0.42    0.16
  -2   3  -9   -0.03    0.07
   2  -3   9    0.34    0.13
   2  -3   9    0.07    0.07
  -3   3  -9   -0.04    0.13
  -3   3  -9    0.07    0.11
   3  -3   9    0.16    0.07
  -4   3  -9    0.11    0.12
   4  -3   9    0.05    0.07
  -5   3  -9    1.19    0.22
   5  -3   9    0.95    0.13
  -6   3  -9    4.00    0.35
   6  -3   9    4.03    0.22
  -7   3  -9    0.19    0.17
   7  -3   9    0.13    0.09
  -8   3  -9    0.39    0.19
  -9   3  -9    4.19    0.43
   5   2  -9   -0.04    0.11
  -5  -2   9   -0.61    0.27
   4   2  -9    0.06    0.10
  -4  -2   9   -0.07    0.23
   3   2  -9   11.65    0.43
  -3  -2   9   12.22    0.63
   2   2  -9    0.55    0.13
  -2  -2   9    0.31    0.21
   1   2  -9    3.55    0.23
  -1  -2   9    3.73    0.36
   0   2  -9    0.89    0.14
   0  -2   9    1.07    0.21
  -1   2  -9    0.97    0.14
   1  -2   9    0.85    0.19
  -2   2  -9    1.55    0.16
  -2   2  -9    1.18    0.17
   2  -2   9    1.33    0.20
  -3   2  -9   12.88    0.48
   3  -2   9   13.67    0.39
   3  -2   9   14.31    0.47
  -4   2  -9    1.22    0.20
   4  -2   9    1.20    0.14
  -5   2  -9    0.42    0.14
   5  -2   9    0.49    0.10
  -6   2  -9    0.17    0.13
   6  -2   9    0.12    0.08
  -7   2  -9   -0.15    0.13
   7  -2   9    0.15    0.08
  -8   2  -9    3.25    0.35
   8  -2   9    3.04    0.21
  -9   2  -9    2.12    0.31
   9  -2   9    1.84    0.19
 -10   2  -9    0.36    0.20
  10  -2   9    0.29    0.11
  11  -2   9    0.55    0.15
   5   1  -9    4.97    0.32
  -5  -1   9    4.80    0.50
   4   1  -9    0.79    0.16
  -4  -1   9    0.96    0.31
   3   1  -9    1.08    0.16
  -3  -1   9    0.75    0.27
   2   1  -9   -0.02    0.08
  -2  -1   9    0.08    0.20
   1   1  -9    7.56    0.32
  -1  -1   9    7.34    0.43
   0   1  -9   15.45    0.45
   0  -1   9   14.13    0.54
  -1   1  -9    0.05    0.08
   1  -1   9    0.07    0.13
  -2   1  -9    1.12    0.16
  -2   1  -9    1.26    0.15
   2  -1   9    1.19    0.18
  -3   1  -9   -0.08    0.06
  -3   1  -9    0.06    0.10
   3  -1   9   -0.04    0.09
  -4   1  -9    5.66    0.31
   4  -1   9    5.57    0.41
   4  -1   9    5.36    0.24
  -5   1  -9    0.35    0.14
   5  -1   9    0.15    0.07
  -6   1  -9    3.00    0.30
   6  -1   9    3.30    0.20
  -7   1  -9    4.71    0.35
   7  -1   9    4.46    0.23
  -8   1  -9    4.32    0.35
   8  -1   9    4.11    0.24
  -9   1  -9    0.22    0.18
   9  -1   9    0.08    0.10
 -10   1  -9    0.54    0.20
  10  -1   9    0.76    0.15
  11  -1   9    5.01    0.30
   6   0  -9    5.25    0.32
  -6   0   9    5.78    0.57
   5   0  -9    2.97    0.26
  -5   0   9    2.46    0.37
   4   0  -9    0.37    0.13
  -4   0   9    0.11    0.24
   3   0  -9    0.54    0.12
  -3   0   9    0.48    0.25
   2   0  -9    9.22    0.36
  -2   0   9    9.47    0.51
   1   0  -9    4.19    0.23
  -1   0   9    4.30    0.35
   0   0  -9    6.80    0.29
   0   0   9    6.57    0.38
  -1   0  -9    1.15    0.14
   1   0   9    1.43    0.21
  -2   0  -9    6.69    0.29
  -2   0  -9    6.85    0.28
   2   0   9    6.54    0.33
  -3   0  -9    9.78    0.34
  -3   0  -9    9.71    0.38
   3   0   9    9.96    0.37
  -4   0  -9   21.30    0.61
   4   0   9   20.55    0.51
   4   0   9   19.68    0.63
  -5   0  -9    0.19    0.12
   5   0   9    0.16    0.08
  -6   0  -9   12.68    0.49
   6   0   9   13.04    0.39
  -7   0  -9    4.86    0.34
   7   0   9    4.62    0.23
  -8   0  -9   -0.05    0.12
   8   0   9    0.10    0.09
  -9   0  -9    8.97    0.48
   9   0   9    9.26    0.37
 -10   0  -9    0.58    0.20
  10   0   9    0.56    0.13
 -11   0  -9    0.15    0.20
  11   0   9    0.26    0.11
   6  -1  -9   -0.02    0.10
  -6   1   9    0.14    0.27
   5  -1  -9    4.70    0.30
  -5   1   9    3.82    0.46
   4  -1  -9    3.92    0.25
  -4   1   9    3.78    0.39
   3  -1  -9   12.06    0.43
  -3   1   9   12.52    0.57
   2  -1  -9    0.13    0.10
  -2   1   9    0.08    0.19
   1  -1  -9    1.14    0.16
  -1   1   9    0.68    0.20
   0  -1  -9    1.09    0.14
   0   1   9    1.08    0.20
  -1  -1  -9    0.69    0.12
   1   1   9    0.91    0.18
  -2  -1  -9    5.42    0.26
  -2  -1  -9    5.54    0.25
   2   1   9    5.69    0.30
  -3  -1  -9    5.35    0.27
  -3  -1  -9    5.35    0.25
   3   1   9    5.50    0.28
  -4  -1  -9   28.12    0.70
   4   1   9   26.03    0.81
   4   1   9   27.47    0.61
  -5  -1  -9   40.03    0.91
   5   1   9   38.54    0.80
  -6  -1  -9    7.84    0.37
   6   1   9    7.58    0.29
  -7  -1  -9    4.80    0.33
   7   1   9    4.79    0.24
  -8  -1  -9    0.33    0.16
   8   1   9    0.32    0.10
  -9  -1  -9    0.01    0.13
   9   1   9   -0.08    0.08
 -10  -1  -9    2.92    0.32
  10   1   9    2.75    0.23
 -11  -1  -9    9.32    0.52
  11   1   9   10.24    0.41
  12   1   9    0.44    0.16
   6  -2  -9    0.81    0.17
  -6   2   9    0.43    0.33
   5  -2  -9   12.72    0.47
  -5   2   9   12.40    0.67
   4  -2  -9    0.16    0.11
  -4   2   9   -0.18    0.21
   3  -2  -9    0.65    0.12
  -3   2   9    0.44    0.24
   2  -2  -9    6.63    0.30
  -2   2   9    6.41    0.43
   1  -2  -9   13.27    0.42
  -1   2   9   14.79    0.55
   0  -2  -9    2.62    0.18
   0   2   9    2.00    0.24
  -1  -2  -9    2.47    0.18
   1   2   9    2.14    0.23
  -2  -2  -9   11.19    0.36
  -2  -2  -9   11.01    0.35
   2   2   9   11.04    0.40
  -3  -2  -9   23.02    0.56
  -3  -2  -9   24.01    0.60
   3   2   9   24.68    0.58
  -4  -2  -9   39.88    0.88
   4   2   9   40.41    0.81
  -5  -2  -9    0.29    0.13
   5   2   9    0.26    0.08
  -6  -2  -9    5.28    0.33
   6   2   9    5.45    0.25
  -7  -2  -9    0.18    0.13
   7   2   9   -0.09    0.07
  -8  -2  -9   13.80    0.54
   8   2   9   14.24    0.44
  -9  -2  -9    3.39    0.34
   9   2   9    2.92    0.21
 -10  -2  -9    0.06    0.16
  10   2   9   -0.05    0.08
 -11  -2  -9    0.55    0.20
  11   2   9    0.46    0.14
 -12  -2  -9    2.42    0.33
  12   2   9    2.60    0.27
   6  -3  -9    2.20    0.25
  -6   3   9    2.19    0.39
   5  -3  -9    1.29    0.18
  -5   3   9    1.01    0.29
   4  -3  -9    0.97    0.15
  -4   3   9    1.03    0.27
   3  -3  -9    3.88    0.25
  -3   3   9    4.69    0.41
   2  -3  -9    7.41    0.32
  -2   3   9    7.58    0.45
   1  -3  -9    0.99    0.15
  -1   3   9    1.24    0.24
   0  -3  -9    0.81    0.13
   0   3   9    1.02    0.20
  -1  -3  -9   16.07    0.45
  -1  -3  -9   15.91    0.45
   1   3   9   16.77    0.52
  -2  -3  -9    1.02    0.13
  -2  -3  -9    0.64    0.12
   2   3   9    0.83    0.17
  -3  -3  -9   30.45    0.67
  -3  -3  -9   31.22    0.71
   3   3   9   30.78    0.67
  -4  -3  -9    0.89    0.16
   4   3   9    0.63    0.10
  -5  -3  -9   13.47    0.47
   5   3   9   12.24    0.37
  -6  -3  -9    4.42    0.29
   6   3   9    4.44    0.22
  -7  -3  -9   20.58    0.65
   7   3   9   21.72    0.54
  -8  -3  -9    2.79    0.29
   8   3   9    2.63    0.20
  -9  -3  -9   14.06    0.57
   9   3   9   14.01    0.45
 -10  -3  -9    2.23    0.29
  10   3   9    2.68    0.24
 -11  -3  -9    0.69    0.23
  11   3   9    0.57    0.13
 -12  -3  -9    0.02    0.18
  12   3   9    0.03    0.11
   6  -4  -9    0.17    0.11
  -6   4   9    0.20    0.26
   5  -4  -9    3.37    0.26
  -5   4   9    3.24    0.38
   4  -4  -9    0.09    0.10
  -4   4   9   -0.27    0.21
   3  -4  -9    2.42    0.22
  -3   4   9    2.19    0.29
   2  -4  -9   11.78    0.40
  -2   4   9   12.13    0.53
   1  -4  -9    1.84    0.17
  -1   4   9    2.08    0.27
   0  -4  -9    9.30    0.34
   0   4   9    9.97    0.42
  -1  -4  -9   20.50    0.49
  -1  -4  -9   21.60    0.54
   1   4   9   20.64    0.59
  -2  -4  -9   16.13    0.44
  -2  -4  -9   15.94    0.45
   2   4   9   16.63    0.48
  -3  -4  -9    0.08    0.07
  -3  -4  -9    0.06    0.09
   3   4   9   -0.07    0.09
  -4  -4  -9   17.18    0.53
   4   4   9   18.38    0.46
  -5  -4  -9   39.32    0.91
   5   4   9   39.49    0.80
  -6  -4  -9   19.09    0.60
   6   4   9   20.12    0.51
  -7  -4  -9   27.91    0.78
   7   4   9   27.92    0.65
  -8  -4  -9    0.69    0.18
   8   4   9    0.41    0.11
  -9  -4  -9    4.93    0.38
   9   4   9    3.98    0.24
 -10  -4  -9    2.18    0.29
  10   4   9    2.85    0.21
 -11  -4  -9    1.40    0.28
  11   4   9    1.24    0.18
 -12  -4  -9    4.68    0.40
  12   4   9    4.14    0.28
   6  -5  -9    0.02    0.11
  -6   5   9    0.09    0.25
   5  -5  -9    1.84    0.21
  -5   5   9    2.10    0.36
   4  -5  -9    2.80    0.24
  -4   5   9    3.00    0.34
   3  -5  -9    0.10    0.08
  -3   5   9    0.03    0.17
   2  -5  -9    1.45    0.16
  -2   5   9    1.88    0.27
   1  -5  -9    3.67    0.21
  -1   5   9    3.72    0.33
   0  -5  -9   -0.04    0.07
   0   5   9   -0.09    0.14
  -1  -5  -9   21.30    0.54
  -1  -5  -9   21.16    0.52
   1   5   9   21.85    0.60
  -2  -5  -9   22.36    0.56
  -2  -5  -9   22.07    0.54
   2   5   9   22.09    0.57
  -3  -5  -9    3.70    0.21
  -3  -5  -9    4.14    0.26
   3   5   9    3.80    0.21
   4   5   9    1.10    0.12
  -5  -5  -9    0.21    0.14
   5   5   9    0.08    0.06
  -6  -5  -9   11.11    0.47
   6   5   9   11.20    0.36
  -7  -5  -9    0.20    0.16
   7   5   9    0.04    0.07
  -8  -5  -9   11.33    0.50
   8   5   9   11.05    0.37
  -9  -5  -9    1.46    0.26
   9   5   9    1.54    0.18
 -10  -5  -9    1.11    0.24
  10   5   9    1.36    0.18
 -11  -5  -9    0.27    0.19
  11   5   9    0.36    0.13
 -12  -5  -9    0.54    0.21
  12   5   9    0.02    0.12
   6  -6  -9    1.62    0.20
  -6   6   9    1.78    0.32
   5  -6  -9    0.32    0.12
  -5   6   9    0.41    0.24
   4  -6  -9    0.94    0.15
  -4   6   9    1.35    0.28
   3  -6  -9    8.43    0.34
  -3   6   9    7.92    0.47
   2  -6  -9    7.36    0.31
  -2   6   9    7.42    0.43
   1  -6  -9    1.04    0.14
  -1   6   9    1.01    0.20
   0  -6  -9   20.75    0.53
   0   6   9   20.83    0.61
  -1  -6  -9    0.21    0.12
  -1  -6  -9    0.09    0.07
   1   6   9    0.09    0.11
  -2  -6  -9   13.46    0.45
  -2  -6  -9   14.24    0.41
   2   6   9   13.25    0.42
  -3  -6  -9    0.87    0.12
  -3  -6  -9    1.39    0.20
   3   6   9    1.06    0.13
  -4  -6  -9   -0.03    0.13
   4   6   9    0.17    0.07
   4   6   9    0.12    0.07
  -5  -6  -9    0.63    0.17
   5   6   9    0.72    0.10
  -6  -6  -9    0.18    0.15
   6   6   9    0.07    0.07
  -7  -6  -9   -0.16    0.14
   7   6   9    0.06    0.08
  -8  -6  -9    0.92    0.21
   8   6   9    1.14    0.15
  -9  -6  -9   14.66    0.62
   9   6   9   14.99    0.47
 -10  -6  -9    5.40    0.44
  10   6   9    5.49    0.29
 -11  -6  -9    0.43    0.21
  11   6   9    0.41    0.13
 -12  -6  -9    3.36    0.39
  12   6   9    3.64    0.27
   6  -7  -9    1.27    0.18
  -6   7   9    0.87    0.26
   5  -7  -9    0.91    0.16
  -5   7   9    1.08    0.24
   4  -7  -9    2.57    0.23
  -4   7   9    2.31    0.31
   3  -7  -9    0.35    0.11
  -3   7   9    0.52    0.20
   2  -7  -9    0.98    0.15
  -2   7   9    1.39    0.23
   1  -7  -9   10.30    0.36
  -1   7   9    9.78    0.44
   0  -7  -9    0.50    0.11
   0   7   9    0.37    0.15
  -1  -7  -9   13.68    0.40
  -1  -7  -9   13.78    0.46
   1   7   9   13.33    0.45
  -2  -7  -9    0.54    0.16
  -2  -7  -9    0.16    0.08
   2   7   9    0.38    0.11
  -3  -7  -9    0.96    0.19
  -3  -7  -9    0.87    0.12
   3   7   9    1.02    0.13
  -4  -7  -9    4.01    0.31
   4   7   9    4.09    0.20
   4   7   9    4.91    0.21
  -5  -7  -9    7.92    0.43
   5   7   9    7.59    0.28
  -6  -7  -9   13.65    0.55
   6   7   9   14.44    0.41
  -7  -7  -9    0.52    0.21
   7   7   9    0.41    0.10
  -8  -7  -9   24.01    0.78
   8   7   9   24.03    0.60
  -9  -7  -9    0.64    0.23
   9   7   9    0.49    0.12
 -10  -7  -9    1.77    0.29
  10   7   9    2.24    0.22
 -11  -7  -9    0.49    0.23
  11   7   9    0.28    0.12
  12   7   9    0.20    0.14
   6  -8  -9    0.81    0.16
   5  -8  -9    2.36    0.23
  -5   8   9    2.36    0.32
   4  -8  -9    2.86    0.24
  -4   8   9    2.99    0.32
   3  -8  -9   46.62    0.98
  -3   8   9   46.91    1.14
   2  -8  -9    1.43    0.17
  -2   8   9    1.10    0.21
   1  -8  -9    4.43    0.24
  -1   8   9    4.69    0.32
   0  -8  -9    5.96    0.26
   0   8   9    5.52    0.32
  -1  -8  -9    3.88    0.30
  -1  -8  -9    3.61    0.21
   1   8   9    3.86    0.26
  -2  -8  -9    2.63    0.18
  -2  -8  -9    2.40    0.26
   2   8   9    2.79    0.21
  -3  -8  -9    0.58    0.20
   3   8   9    0.12    0.08
   3   8   9    0.26    0.07
  -4  -8  -9   14.29    0.56
   4   8   9   14.76    0.40
   4   8   9   14.29    0.41
  -5  -8  -9    6.50    0.42
   5   8   9    5.99    0.25
  -6  -8  -9    7.86    0.46
   6   8   9    6.85    0.28
  -7  -8  -9    1.59    0.28
   7   8   9    1.10    0.14
  -8  -8  -9    0.14    0.19
   8   8   9   -0.03    0.08
  -9  -8  -9   21.15    0.78
   9   8   9   20.44    0.56
 -10  -8  -9   16.58    0.70
  10   8   9   17.36    0.53
 -11  -8  -9    1.39    0.31
  11   8   9    1.16    0.18
  -5   9   9    0.85    0.37
   4  -9  -9    4.64    0.28
  -4   9   9    4.66    0.37
   3  -9  -9   14.46    0.45
  -3   9   9   13.83    0.57
   2  -9  -9   24.66    0.61
  -2   9   9   24.88    0.76
   1  -9  -9   36.98    0.79
  -1   9   9   36.59    0.93
   0  -9  -9    0.49    0.11
   0   9   9    0.59    0.14
  -1  -9  -9   12.51    0.50
  -1  -9  -9   12.89    0.38
   1   9   9   12.67    0.46
  -2  -9  -9   27.01    0.77
  -2  -9  -9   27.57    0.61
   2   9   9   26.45    0.68
  -3  -9  -9   20.41    0.67
   3   9   9   19.51    0.53
   3   9   9   19.01    0.47
  -4  -9  -9    9.21    0.47
   4   9   9   10.36    0.32
   4   9   9   10.61    0.36
  -5  -9  -9    2.99    0.33
   5   9   9    2.93    0.18
  -6  -9  -9   12.48    0.57
   6   9   9   13.09    0.39
  -7  -9  -9   17.74    0.69
   7   9   9   18.33    0.49
  -8  -9  -9    0.85    0.28
   8   9   9    0.93    0.15
  -9  -9  -9    2.35    0.34
   9   9   9    2.91    0.22
 -10  -9  -9    2.01    0.34
  10   9   9    1.75    0.20
 -11  -9  -9    0.76    0.32
  11   9   9    0.99    0.17
  -4  10   9    1.38    0.24
  -3  10   9    3.94    0.34
  -2  10   9    0.23    0.16
  -1  10   9    0.65    0.16
   0  10   9    1.75    0.22
  -1 -10  -9    6.58    0.45
   1  10   9    7.18    0.36
  -2 -10  -9    1.45    0.27
   2  10   9    1.49    0.19
  -3 -10  -9   23.22    0.77
   3  10   9   23.80    0.63
  -4 -10  -9    7.13    0.45
   4  10   9    7.01    0.34
   4  10   9    7.59    0.30
  -5 -10  -9    3.22    0.37
   5  10   9    3.65    0.20
  -6 -10  -9    1.83    0.33
   6  10   9    1.56    0.15
  -7 -10  -9    3.23    0.39
   7  10   9    3.30    0.20
  -8 -10  -9    2.75    0.37
   8  10   9    2.69    0.20
  -9 -10  -9    0.95    0.29
   9  10   9    1.23    0.16
 -10 -10  -9    0.84    0.31
  10  10   9    0.73    0.15
  11  10   9    0.14    0.13
  -3  11   9   12.18    0.57
  -2  11   9    0.52    0.19
  -1  11   9    4.61    0.35
   0  11   9    0.32    0.14
  -1 -11  -9    2.08    0.31
   1  11   9    2.06    0.24
  -2 -11  -9    3.75    0.37
   2  11   9    4.13    0.28
  -3 -11  -9    1.55    0.31
   3  11   9    1.81    0.21
  -4 -11  -9    6.92    0.48
  -5 -11  -9    5.18    0.47
  -6 -11  -9    0.20    0.23
  -7 -11  -9    5.33    0.50
  -8 -11  -9    0.39    0.26
  -9 -11  -9    0.43    0.30
  -2  12   9    6.69    0.42
  -1  12   9   14.62    0.60
   0  12   9    1.85    0.24
  -1 -12  -9    0.22    0.25
   1  12   9    0.58    0.16
  -2 -12  -9   22.28    0.81
   2  12   9   21.91    0.68
  -3 -12  -9   25.86    0.90
   3  12   9   25.28    0.72
  -4 -12  -9   13.49    0.68
  -5 -12  -9    0.00    0.27
  -6 -12  -9   -0.23    0.26
  -7 -12  -9    6.53    0.57
  -8 -12  -9    3.39    0.47
   0  13   9    2.75    0.31
  -1 -13  -9    4.87    0.47
   1  13   9    5.89    0.38
  -2 -13  -9   -0.26    0.27
   2  13   9    0.11    0.12
  -3 -13  -9    2.39    0.41
   3  13   9    2.55    0.28
  -4 -13  -9   33.75    1.08
  -5 -13  -9    1.26    0.34
  -6 -13  -9    0.93    0.35
  -1 -14  -9   -0.09    0.33
  -2 -14  -9    5.83    0.65
   2  14   9    5.65    0.39
   3  14   9   21.99    0.78
   0  -5  10    0.30    0.20
   1  -5  10    1.92    0.28
   2  -5  10    5.27    0.36
   4  -5  10    0.09    0.11
   5  -5  10    1.41    0.24
  -1  -4  10    1.49    0.31
   0  -4  10    2.28    0.33
   1  -4  10   -0.08    0.16
   2  -4  10    7.53    0.43
   3  -4  10    0.47    0.19
   4  -4  10    0.08    0.08
   5  -4  10    0.90    0.18
  -6   4 -10    1.29    0.25
  -7   4 -10    0.57    0.22
   3   3 -10    0.78    0.17
   2   3 -10    5.44    0.31
  -2  -3  10    5.03    0.49
   1   3 -10    0.30    0.13
  -1  -3  10    0.01    0.21
   0   3 -10    0.20    0.11
   0  -3  10    0.10    0.18
  -1   3 -10    1.96    0.20
   1  -3  10    2.24    0.30
  -2   3 -10    2.75    0.22
   2  -3  10    2.99    0.30
   3  -3  10    0.24    0.10
   3  -3  10    0.26    0.09
  -4   3 -10    0.11    0.14
   4  -3  10   -0.06    0.08
  -5   3 -10    5.53    0.39
  -6   3 -10    2.34    0.31
  -7   3 -10    4.50    0.42
  -8   3 -10    0.29    0.19
   4   2 -10    1.18    0.19
   3   2 -10   -0.02    0.10
  -3  -2  10    0.08    0.27
   2   2 -10   14.13    0.49
  -2  -2  10   15.16    0.70
   1   2 -10    1.79    0.20
  -1  -2  10    1.91    0.29
   0   2 -10   -0.08    0.09
   0  -2  10    0.17    0.18
  -1   2 -10    2.52    0.22
   1  -2  10    2.29    0.29
  -2   2 -10    1.79    0.19
   2  -2  10    1.71    0.24
  -3   2 -10    3.68    0.29
   3  -2  10    3.21    0.28
   3  -2  10    3.48    0.21
  -4   2 -10    1.37    0.21
   4  -2  10    1.20    0.14
  -5   2 -10    2.74    0.30
   5  -2  10    2.33    0.20
  -6   2 -10    0.36    0.17
   6  -2  10    0.40    0.11
  -7   2 -10    0.98    0.23
   7  -2  10    0.91    0.14
  -8   2 -10    3.60    0.38
   8  -2  10    3.24    0.23
  -9   2 -10    0.35    0.19
   9  -2  10    0.35    0.12
   4   1 -10    3.31    0.29
  -4  -1  10    3.39    0.46
   3   1 -10    1.95    0.22
  -3  -1  10    2.75    0.39
   2   1 -10    0.60    0.14
  -2  -1  10    0.56    0.26
   1   1 -10   10.53    0.40
  -1  -1  10   11.26    0.56
   0   1 -10    4.83    0.27
   0  -1  10    4.44    0.38
  -1   1 -10    0.40    0.11
   1  -1  10    0.54    0.19
  -2   1 -10    0.00    0.08
   2  -1  10    0.13    0.15
  -3   1 -10    0.12    0.11
  -3   1 -10    0.02    0.08
   3  -1  10   -0.03    0.12
  -4   1 -10    0.43    0.14
   4  -1  10    0.40    0.10
  -5   1 -10    4.67    0.32
   5  -1  10    5.14    0.25
  -6   1 -10    0.84    0.19
   6  -1  10    0.66    0.12
  -7   1 -10    0.40    0.18
   7  -1  10    0.33    0.11
  -8   1 -10    4.61    0.39
   8  -1  10    3.59    0.24
  -9   1 -10    0.55    0.20
   9  -1  10    0.28    0.12
 -10   1 -10    5.48    0.43
  10  -1  10    5.55    0.30
   5   0 -10    3.69    0.47
   4   0 -10    2.64    0.26
  -4   0  10    3.21    0.44
   3   0 -10    5.20    0.31
  -3   0  10    4.88    0.48
   2   0 -10   16.24    0.52
  -2   0  10   16.95    0.69
   1   0 -10    0.23    0.10
  -1   0  10   -0.02    0.19
   0   0 -10    1.93    0.20
   0   0  10    2.18    0.29
  -1   0 -10   10.26    0.37
   1   0  10    9.61    0.45
  -2   0 -10    0.34    0.11
   2   0  10    0.15    0.15
  -3   0 -10    5.59    0.27
  -3   0 -10    5.47    0.30
   3   0  10    5.03    0.31
  -4   0 -10    0.22    0.12
   4   0  10    0.27    0.09
  -5   0 -10   14.19    0.53
   5   0  10   13.42    0.42
  -6   0 -10   14.75    0.56
   6   0  10   14.62    0.44
  -7   0 -10    0.28    0.16
   7   0  10    0.28    0.11
  -8   0 -10    2.01    0.29
   8   0  10    1.88    0.19
  -9   0 -10    5.02    0.39
   9   0  10    4.89    0.28
 -10   0 -10    0.08    0.17
  10   0  10   -0.01    0.09
  11   0  10    0.07    0.11
   5  -1 -10    3.55    0.31
  -5   1  10    3.90    0.49
   4  -1 -10    8.12    0.39
  -4   1  10    7.52    0.59
   3  -1 -10    0.76    0.16
  -3   1  10    0.46    0.26
   2  -1 -10    6.25    0.32
  -2   1  10    6.09    0.46
   1  -1 -10    3.24    0.23
  -1   1  10    3.90    0.37
   0  -1 -10    9.20    0.36
   0   1  10    9.30    0.46
  -1  -1 -10    1.27    0.16
   1   1  10    1.38    0.23
  -2  -1 -10    0.13    0.09
   2   1  10    0.03    0.14
  -3  -1 -10   21.61    0.59
  -3  -1 -10   20.66    0.55
   3   1  10   21.46    0.59
  -4  -1 -10   14.40    0.49
   4   1  10   14.72    0.43
  -5  -1 -10    0.39    0.15
   5   1  10    0.48    0.10
  -6  -1 -10    6.86    0.37
   6   1  10    8.28    0.32
  -7  -1 -10    0.78    0.19
   7   1  10    1.09    0.15
  -8  -1 -10   18.55    0.67
   8   1  10   18.72    0.53
  -9  -1 -10    4.06    0.35
   9   1  10    3.72    0.25
 -10  -1 -10    0.47    0.22
  10   1  10    0.21    0.12
 -11  -1 -10    2.30    0.34
  11   1  10    2.15    0.23
   5  -2 -10    0.01    0.11
  -5   2  10   -0.14    0.29
   4  -2 -10    7.27    0.36
  -4   2  10    7.57    0.53
   3  -2 -10    4.36    0.28
  -3   2  10    4.90    0.43
   2  -2 -10    2.09    0.22
  -2   2  10    1.59    0.31
   1  -2 -10    0.03    0.09
  -1   2  10   -0.12    0.19
   0  -2 -10   32.10    0.76
   0   2  10   33.02    0.87
  -1  -2 -10   41.75    0.89
   1   2  10   41.67    0.97
  -2  -2 -10   26.43    0.64
   2   2  10   26.77    0.70
  -3  -2 -10    0.87    0.15
  -3  -2 -10    0.55    0.12
   3   2  10    0.46    0.15
  -4  -2 -10   22.85    0.62
   4   2  10   22.08    0.56
  -5  -2 -10   41.20    0.95
   5   2  10   41.29    0.85
  -6  -2 -10    4.92    0.33
   6   2  10    5.27    0.26
  -7  -2 -10    5.43    0.35
   7   2  10    5.34    0.27
  -8  -2 -10    0.20    0.16
   8   2  10    0.07    0.08
  -9  -2 -10   -0.08    0.16
   9   2  10    0.21    0.10
 -10  -2 -10    0.53    0.19
  10   2  10    0.46    0.13
 -11  -2 -10    8.04    0.51
  11   2  10    7.75    0.37
   5  -3 -10   -0.01    0.11
  -5   3  10    0.16    0.30
   4  -3 -10    4.02    0.28
  -4   3  10    4.08    0.45
   3  -3 -10    0.32    0.12
  -3   3  10    0.30    0.23
   2  -3 -10    0.09    0.10
  -2   3  10   -0.03    0.18
   1  -3 -10   21.48    0.59
  -1   3  10   21.03    0.69
   0  -3 -10   37.27    0.82
   0   3  10   36.04    0.92
  -1  -3 -10    0.94    0.15
   1   3  10    1.17    0.21
  -2  -3 -10    1.59    0.16
   2   3  10    1.32    0.20
  -3  -3 -10   17.48    0.49
  -3  -3 -10   17.34    0.50
   3   3  10   17.33    0.50
  -4  -3 -10    8.84    0.37
   4   3  10    8.72    0.32
  -5  -3 -10    3.47    0.27
   5   3  10    4.25    0.22
  -6  -3 -10    3.29    0.28
   6   3  10    3.12    0.20
  -7  -3 -10   16.88    0.59
   7   3  10   16.25    0.48
  -8  -3 -10    4.60    0.36
   8   3  10    4.79    0.26
  -9  -3 -10    2.05    0.28
   9   3  10    1.88    0.20
 -10  -3 -10    3.33    0.36
  10   3  10    2.95    0.26
 -11  -3 -10   22.17    0.81
  11   3  10   24.37    0.67
   5  -4 -10    1.57    0.20
  -5   4  10    1.41    0.35
   4  -4 -10    0.86    0.17
  -4   4  10    0.78    0.30
   3  -4 -10    0.80    0.16
  -3   4  10    0.84    0.28
   2  -4 -10    0.29    0.10
  -2   4  10    0.53    0.23
   1  -4 -10    3.56    0.24
  -1   4  10    4.00    0.37
   0  -4 -10    1.24    0.15
   0   4  10    1.33    0.24
  -1  -4 -10    2.08    0.20
   1   4  10    2.17    0.25
  -2  -4 -10    0.06    0.09
  -2  -4 -10    0.09    0.09
   2   4  10    0.11    0.14
  -3  -4 -10   44.02    0.92
  -3  -4 -10   43.71    0.90
   3   4  10   42.77    0.89
  -4  -4 -10   29.23    0.73
   4   4  10   29.35    0.67
  -5  -4 -10    0.49    0.15
   5   4  10    0.72    0.12
  -6  -4 -10    3.25    0.27
   6   4  10    3.07    0.20
  -7  -4 -10    3.35    0.31
   7   4  10    2.94    0.21
  -8  -4 -10    1.58    0.24
   8   4  10    1.38    0.17
  -9  -4 -10    9.19    0.48
   9   4  10    8.50    0.35
 -10  -4 -10    0.54    0.20
  10   4  10    0.51    0.14
 -11  -4 -10    2.77    0.36
  11   4  10    2.55    0.23
   5  -5 -10    0.14    0.11
  -5   5  10    0.37    0.29
   4  -5 -10    0.29    0.12
  -4   5  10    0.10    0.24
   3  -5 -10    2.68    0.24
  -3   5  10    2.39    0.35
   2  -5 -10    2.26    0.22
  -2   5  10    2.00    0.30
   1  -5 -10    1.60    0.18
  -1   5  10    2.22    0.29
   0  -5 -10    0.72    0.13
   0   5  10    0.66    0.20
  -1  -5 -10    3.95    0.23
   1   5  10    4.17    0.30
  -2  -5 -10   35.51    0.78
  -2  -5 -10   35.19    0.78
   2   5  10   36.62    0.82
  -3  -5 -10    1.57    0.17
  -3  -5 -10    1.59    0.19
   3   5  10    1.82    0.18
  -4  -5 -10    0.32    0.13
   4   5  10    0.07    0.07
  -5  -5 -10    0.37    0.15
   5   5  10    0.32    0.08
  -6  -5 -10   -0.04    0.12
   6   5  10    0.01    0.07
  -7  -5 -10    0.22    0.16
   7   5  10    0.07    0.08
  -8  -5 -10    8.13    0.46
   8   5  10    7.90    0.33
  -9  -5 -10    3.02    0.34
   9   5  10    2.72    0.21
 -10  -5 -10    8.72    0.50
  10   5  10    9.08    0.39
 -11  -5 -10   29.72    0.94
  11   5  10   28.08    0.74
   5  -6 -10    1.49    0.20
  -5   6  10    1.86    0.35
   4  -6 -10    0.88    0.15
  -4   6  10    1.04    0.28
   3  -6 -10    0.03    0.10
  -3   6  10    0.03    0.19
   2  -6 -10   14.77    0.48
  -2   6  10   14.48    0.60
   1  -6 -10    0.11    0.09
  -1   6  10    0.12    0.17
   0  -6 -10    0.11    0.08
   0   6  10    0.09    0.15
  -1  -6 -10    1.78    0.18
   1   6  10    1.65    0.21
  -2  -6 -10    2.31    0.22
  -2  -6 -10    1.99    0.19
   2   6  10    1.95    0.20
  -3  -6 -10   14.29    0.49
  -3  -6 -10   14.56    0.44
   3   6  10   14.99    0.43
  -4  -6 -10    0.13    0.14
   4   6  10    0.03    0.07
  -5  -6 -10    0.01    0.12
   5   6  10    0.03    0.07
  -6  -6 -10    6.93    0.40
   6   6  10    6.14    0.27
  -7  -6 -10    0.23    0.16
   7   6  10    0.11    0.08
  -8  -6 -10    2.44    0.29
   8   6  10    2.11    0.20
  -9  -6 -10    1.79    0.30
   9   6  10    1.66    0.18
 -10  -6 -10    0.84    0.24
  10   6  10    0.63    0.14
 -11  -6 -10    1.10    0.26
  11   6  10    1.43    0.20
   5  -7 -10    0.34    0.13
  -5   7  10    0.64    0.27
   4  -7 -10    1.30    0.19
  -4   7  10    1.51    0.27
   3  -7 -10    1.32    0.19
  -3   7  10    1.17    0.25
   2  -7 -10    1.59    0.19
  -2   7  10    1.41    0.26
   1  -7 -10    6.09    0.29
  -1   7  10    6.50    0.37
   0  -7 -10    9.01    0.35
   0   7  10    9.44    0.42
  -1  -7 -10    3.27    0.22
   1   7  10    3.56    0.26
  -2  -7 -10    3.56    0.27
  -2  -7 -10    3.72    0.22
   2   7  10    4.07    0.25
  -3  -7 -10    6.66    0.36
  -3  -7 -10    6.16    0.28
   3   7  10    5.84    0.27
  -4  -7 -10    9.23    0.43
   4   7  10    8.71    0.32
  -5  -7 -10   10.44    0.46
   5   7  10   10.42    0.36
  -6  -7 -10    0.33    0.19
   6   7  10    0.33    0.10
  -7  -7 -10    6.49    0.43
   7   7  10    5.70    0.27
  -8  -7 -10    0.16    0.19
   8   7  10    0.11    0.08
  -9  -7 -10   26.03    0.86
   9   7  10   26.14    0.67
 -10  -7 -10    1.05    0.25
  10   7  10    0.65    0.15
 -11  -7 -10    0.54    0.22
  11   7  10    0.18    0.12
   5  -8 -10    0.13    0.12
   4  -8 -10    0.26    0.12
  -4   8  10    0.37    0.21
   3  -8 -10    0.35    0.12
  -3   8  10    0.47    0.20
   2  -8 -10   32.36    0.77
  -2   8  10   31.93    0.90
   1  -8 -10    2.15    0.20
  -1   8  10    2.98    0.30
   0  -8 -10   20.11    0.55
   0   8  10   20.22    0.63
  -1  -8 -10    5.10    0.26
   1   8  10    5.85    0.32
  -2  -8 -10    2.56    0.26
  -2  -8 -10    2.77    0.20
   2   8  10    2.71    0.22
  -3  -8 -10    3.05    0.30
   3   8  10    3.94    0.23
   3   8  10    2.99    0.19
  -4  -8 -10    1.73    0.25
   4   8  10    2.01    0.18
  -5  -8 -10   11.76    0.53
   5   8  10   11.90    0.38
  -6  -8 -10   44.04    1.10
   6   8  10   41.72    0.88
  -7  -8 -10   21.95    0.76
   7   8  10   22.12    0.57
  -8  -8 -10    0.48    0.23
   8   8  10    0.60    0.13
  -9  -8 -10    9.06    0.52
   9   8  10    8.78    0.37
 -10  -8 -10    8.14    0.52
  10   8  10    7.88    0.35
 -11  -8 -10    1.51    0.32
  11   8  10    1.21    0.18
   4  -9 -10    0.01    0.10
  -4   9  10   -0.03    0.16
   3  -9 -10    4.97    0.29
  -3   9  10    5.16    0.40
   2  -9 -10    4.42    0.26
  -2   9  10    4.70    0.34
   1  -9 -10    0.58    0.13
  -1   9  10    0.63    0.18
   0   9  10    0.73    0.17
  -1  -9 -10    2.00    0.19
   1   9  10    2.08    0.23
  -2  -9 -10    6.92    0.41
  -2  -9 -10    7.25    0.29
   2   9  10    7.01    0.34
  -3  -9 -10    0.83    0.22
   3   9  10    0.69    0.11
   3   9  10    0.74    0.13
  -4  -9 -10    7.76    0.45
   4   9  10    6.54    0.28
  -5  -9 -10    7.54    0.47
   5   9  10    7.84    0.30
  -6  -9 -10   10.37    0.55
   6   9  10    9.90    0.35
  -7  -9 -10   -0.04    0.21
   7   9  10   -0.01    0.07
  -8  -9 -10    0.40    0.23
   8   9  10    0.37    0.11
  -9  -9 -10    9.26    0.55
   9   9  10   10.69    0.40
 -10  -9 -10    6.99    0.50
  10   9  10    6.59    0.33
  11   9  10    9.03    0.40
  -3  10  10    8.43    0.48
  -2  10  10   44.90    1.14
  -1  10  10   -0.04    0.13
   0  10  10    3.77    0.30
  -1 -10 -10    2.79    0.20
   1  10  10    3.09    0.26
  -2 -10 -10    0.97    0.24
   2  10  10    1.50    0.15
   2  10  10    1.36    0.19
  -3 -10 -10   -0.09    0.19
   3  10  10    0.19    0.10
   3  10  10   -0.03    0.06
  -4 -10 -10    0.08    0.21
   4  10  10    0.15    0.07
  -5 -10 -10   12.86    0.61
   5  10  10   12.66    0.39
  -6 -10 -10    3.49    0.39
   6  10  10    3.41    0.21
  -7 -10 -10    2.03    0.34
   7  10  10    1.57    0.16
  -8 -10 -10    2.53    0.37
   8  10  10    2.79    0.21
  -9 -10 -10    0.41    0.26
   9  10  10    0.12    0.10
  10  10  10    4.35    0.27
  -2  11  10    1.56    0.25
  -1  11  10    1.49    0.25
   0  11  10    0.39    0.15
   1  11  10   11.88    0.49
  -2 -11 -10    0.11    0.22
   2  11  10    0.51    0.14
  -3 -11 -10    0.76    0.27
   3  11  10    1.14    0.18
  -4 -11 -10   34.05    1.00
  -5 -11 -10    4.44    0.44
  -6 -11 -10    5.27    0.48
  -7 -11 -10    0.11    0.26
  -8 -11 -10    2.02    0.35
  -9 -11 -10    2.97    0.66
  -1  12  10    1.00    0.21
   0  12  10    3.10    0.32
   1  12  10    0.65    0.17
  -2 -12 -10    0.10    0.25
  -3 -12 -10    0.50    0.27
  -4 -12 -10    2.69    0.37
  -5 -12 -10    8.68    0.60
  -6 -12 -10    0.01    0.28
  -7 -12 -10    1.16    0.32
   1  13  10    1.89    0.26
  -2 -13 -10    1.37    0.34
   2  13  10    2.25    0.27
  -3 -13 -10    3.78    0.44
  -4 -13 -10   10.71    0.66
  -5 -13 -10    2.54    0.42
   1  -4  11   -0.05    0.19
   5  -4  11    1.37    0.22
  -1  -3  11    1.17    0.49
   0  -3  11   -0.04    0.22
   1  -3  11    0.59    0.24
  -5   3 -11    0.53    0.19
  -6   3 -11   10.46    0.54
  -7   3 -11    4.65    0.49
   2   2 -11    1.24    0.20
  -2  -2  11    1.68    0.40
   1   2 -11   14.32    0.50
  -1  -2  11   13.00    0.68
   0   2 -11    4.64    0.29
   0  -2  11    3.60    0.39
  -1   2 -11    0.40    0.13
   1  -2  11    0.08    0.20
  -2   2 -11    0.55    0.14
   2  -2  11    0.51    0.22
   3  -2  11    0.06    0.07
   4  -2  11    1.23    0.16
  -5   2 -11    1.22    0.23
   5  -2  11    1.09    0.15
  -6   2 -11    0.94    0.21
   6  -2  11    1.07    0.15
  -7   2 -11    7.36    0.47
   7  -2  11    6.58    0.31
  -8   2 -11    4.37    0.44
   3   1 -11    4.00    0.33
   2   1 -11    4.41    0.30
  -2  -1  11    3.31    0.42
   1   1 -11    8.46    0.39
  -1  -1  11    8.37    0.56
   0   1 -11    0.34    0.14
   0  -1  11   -0.23    0.20
  -1   1 -11    1.75    0.20
   1  -1  11    1.89    0.29
  -2   1 -11    0.32    0.13
   2  -1  11    0.32    0.20
   3  -1  11    0.99    0.14
   4  -1  11    1.19    0.16
  -5   1 -11    5.67    0.38
   5  -1  11    5.71    0.28
  -6   1 -11   11.33    0.53
   6  -1  11   11.67    0.41
  -7   1 -11    5.40    0.39
   7  -1  11    5.72    0.29
  -8   1 -11    8.49    0.51
   8  -1  11    9.13    0.37
  -9   1 -11    0.20    0.19
   9  -1  11   -0.05    0.10
  10  -1  11    0.03    0.18
   3   0 -11    0.98    0.19
  -3   0  11    0.54    0.32
   2   0 -11    1.25    0.19
  -2   0  11    1.28    0.31
   1   0 -11    9.09    0.39
  -1   0  11    8.85    0.52
   0   0 -11    9.04    0.38
   0   0  11    8.03    0.50
  -1   0 -11    0.28    0.12
   1   0  11    0.17    0.20
  -2   0 -11    4.34    0.27
   2   0  11    3.79    0.34
  -3   0 -11    8.82    0.36
  -4   0 -11    3.11    0.27
   4   0  11    2.77    0.20
  -5   0 -11   10.01    0.46
   5   0  11   10.79    0.39
  -6   0 -11    0.04    0.12
   6   0  11    0.06    0.09
  -7   0 -11    5.23    0.39
   7   0  11    5.21    0.28
  -8   0 -11    1.52    0.25
   8   0  11    1.27    0.17
  -9   0 -11    3.13    0.36
   9   0  11    3.67    0.26
  10   0  11    1.05    0.18
   3  -1 -11    2.69    0.27
  -3   1  11    2.39    0.38
   2  -1 -11    5.75    0.34
  -2   1  11    5.78    0.47
   1  -1 -11   16.41    0.53
  -1   1  11   14.93    0.66
   0  -1 -11    7.12    0.34
   0   1  11    7.56    0.47
  -1  -1 -11    0.95    0.16
   1   1  11    0.82    0.23
  -2  -1 -11    0.06    0.09
   2   1  11   -0.14    0.15
  -3  -1 -11    0.64    0.15
  -4  -1 -11    3.07    0.25
   4   1  11    2.84    0.21
  -5  -1 -11   15.96    0.57
   5   1  11   15.55    0.47
  -6  -1 -11   11.75    0.51
   6   1  11   11.94    0.41
  -7  -1 -11    2.37    0.29
   7   1  11    2.22    0.22
  -8  -1 -11   10.37    0.52
   8   1  11    9.72    0.38
  -9  -1 -11    3.33    0.35
   9   1  11    4.08    0.27
 -10  -1 -11    0.43    0.21
  10   1  11    0.52    0.16
   4  -2 -11    0.16    0.16
  -4   2  11   -0.41    0.27
   3  -2 -11    4.27    0.30
  -3   2  11    3.39    0.43
   2  -2 -11    0.04    0.11
  -2   2  11   -0.16    0.23
   1  -2 -11    1.41    0.20
  -1   2  11    1.19    0.27
   0  -2 -11    0.36    0.12
   0   2  11    0.37    0.21
  -1  -2 -11    3.65    0.26
   1   2  11    3.83    0.35
  -2  -2 -11    4.58    0.27
   2   2  11    3.81    0.34
  -3  -2 -11    1.74    0.19
  -4  -2 -11    1.22    0.18
   4   2  11    1.52    0.17
  -5  -2 -11    3.66    0.28
   5   2  11    3.45    0.22
  -6  -2 -11    1.06    0.20
   6   2  11    1.07    0.15
  -7  -2 -11    2.85    0.29
   7   2  11    3.01    0.22
  -8  -2 -11    7.75    0.44
   8   2  11    7.34    0.34
  -9  -2 -11    0.94    0.21
   9   2  11    0.82    0.16
 -10  -2 -11    1.02    0.24
  10   2  11    0.97    0.17
   4  -3 -11    2.11    0.25
  -4   3  11    1.73    0.37
   3  -3 -11    0.68    0.16
  -3   3  11    0.48    0.29
   2  -3 -11    2.06    0.24
  -2   3  11    2.15    0.36
   1  -3 -11    2.79    0.25
  -1   3  11    3.27    0.37
   0  -3 -11    2.76    0.24
   0   3  11    2.13    0.30
  -1  -3 -11    1.05    0.16
   1   3  11    1.16    0.23
  -2  -3 -11    4.31    0.26
   2   3  11    3.69    0.32
  -3  -3 -11    0.65    0.13
  -4  -3 -11    2.54    0.24
   4   3  11    2.21    0.20
  -5  -3 -11    1.95    0.22
   5   3  11    1.55    0.17
  -6  -3 -11   10.34    0.45
   6   3  11   10.68    0.38
  -7  -3 -11   10.63    0.49
   7   3  11    9.68    0.37
  -8  -3 -11    0.53    0.20
   8   3  11    0.86    0.16
  -9  -3 -11    0.46    0.19
   9   3  11    0.38    0.13
 -10  -3 -11    0.73    0.24
  10   3  11    0.47    0.13
 -11  -3 -11    5.31    0.70
  11   3  11    4.91    0.35
   4  -4 -11    0.35    0.15
  -4   4  11    0.64    0.30
   3  -4 -11   -0.04    0.10
  -3   4  11   -0.03    0.22
   2  -4 -11    0.17    0.12
  -2   4  11    0.39    0.24
   1  -4 -11    0.50    0.14
  -1   4  11    0.63    0.25
   0  -4 -11    0.53    0.14
   0   4  11    0.71    0.22
  -1  -4 -11    4.21    0.26
   1   4  11    4.31    0.35
  -2  -4 -11    0.48    0.12
   2   4  11    0.57    0.18
  -3  -4 -11    9.37    0.36
  -4  -4 -11    0.62    0.15
   4   4  11    0.51    0.11
  -5  -4 -11    0.90    0.17
   5   4  11    1.35    0.16
  -6  -4 -11    1.37    0.21
   6   4  11    1.55    0.17
  -7  -4 -11    2.00    0.27
   7   4  11    1.97    0.19
  -8  -4 -11    0.50    0.18
   8   4  11    0.27    0.11
  -9  -4 -11    1.26    0.25
   9   4  11    1.15    0.16
 -10  -4 -11   34.67    1.03
  10   4  11   34.43    0.85
 -11  -4 -11    9.52    0.55
  11   4  11    8.21    0.38
   4  -5 -11   -0.02    0.11
  -4   5  11    0.21    0.27
   3  -5 -11    0.80    0.17
  -3   5  11    0.50    0.24
   2  -5 -11    1.32    0.19
  -2   5  11    1.50    0.31
   1  -5 -11    6.25    0.32
  -1   5  11    6.27    0.44
   0  -5 -11    2.90    0.25
   0   5  11    2.86    0.31
  -1  -5 -11    2.01    0.20
   1   5  11    2.40    0.27
  -2  -5 -11    0.21    0.10
   2   5  11    0.28    0.15
  -3  -5 -11   12.77    0.43
  -3  -5 -11   13.58    0.50
  -4  -5 -11    0.60    0.16
   4   5  11    0.50    0.11
  -5  -5 -11    0.22    0.13
   5   5  11   -0.11    0.06
  -6  -5 -11    6.97    0.40
  -7  -5 -11    0.90    0.21
   7   5  11    0.49    0.13
  -8  -5 -11   13.04    0.56
   8   5  11   13.43    0.45
  -9  -5 -11    6.89    0.44
   9   5  11    7.43    0.34
 -10  -5 -11    2.49    0.34
  10   5  11    2.13    0.23
 -11  -5 -11    6.26    0.48
  11   5  11    5.35    0.32
   4  -6 -11    0.40    0.14
  -4   6  11    0.47    0.24
   3  -6 -11    1.08    0.18
  -3   6  11    1.05    0.28
   2  -6 -11    0.77    0.16
  -2   6  11    0.76    0.25
   1  -6 -11   10.43    0.41
  -1   6  11   10.31    0.51
   0  -6 -11    9.47    0.39
   0   6  11    9.70    0.47
  -1  -6 -11   12.60    0.43
   1   6  11   13.09    0.50
  -2  -6 -11    0.18    0.11
   2   6  11    0.26    0.13
  -3  -6 -11    2.19    0.20
  -3  -6 -11    2.53    0.24
  -4  -6 -11   10.27    0.43
   4   6  11    9.60    0.35
  -5  -6 -11    2.24    0.25
   5   6  11    2.54    0.22
  -6  -6 -11    5.24    0.37
   6   6  11    4.96    0.26
  -7  -6 -11   -0.02    0.16
   7   6  11    0.15    0.10
  -8  -6 -11    1.10    0.24
   8   6  11    0.82    0.15
  -9  -6 -11    6.94    0.45
   9   6  11    6.79    0.33
 -10  -6 -11   10.68    0.58
  10   6  11   11.12    0.44
 -11  -6 -11    3.13    0.38
  11   6  11    2.64    0.26
   4  -7 -11    3.67    0.31
  -4   7  11    3.25    0.42
   3  -7 -11    0.34    0.13
  -3   7  11    0.72    0.22
   2  -7 -11   -0.02    0.09
  -2   7  11    0.10    0.17
   1  -7 -11    8.83    0.37
  -1   7  11    7.98    0.43
   0  -7 -11   12.73    0.45
   0   7  11   12.91    0.52
  -1  -7 -11    0.03    0.09
   1   7  11    0.56    0.16
  -2  -7 -11    0.08    0.10
   2   7  11    0.42    0.13
  -3  -7 -11    0.18    0.14
  -3  -7 -11    0.16    0.09
  -4  -7 -11    7.24    0.39
   4   7  11    7.09    0.30
  -5  -7 -11    0.80    0.20
   5   7  11    1.20    0.16
  -6  -7 -11    5.07    0.38
   6   7  11    4.89    0.26
  -7  -7 -11    0.05    0.16
   7   7  11    0.03    0.08
  -8  -7 -11    4.81    0.41
   8   7  11    4.50    0.27
  -9  -7 -11    0.19    0.19
   9   7  11    0.40    0.11
 -10  -7 -11    0.21    0.21
  10   7  11    0.01    0.11
  11   7  11    0.12    0.12
   4  -8 -11    0.54    0.17
   3  -8 -11    2.52    0.25
  -3   8  11    3.12    0.36
   2  -8 -11    0.15    0.11
  -2   8  11    0.30    0.18
   1  -8 -11    2.96    0.25
  -1   8  11    3.32    0.33
   0  -8 -11   14.08    0.47
   0   8  11   14.72    0.55
  -1  -8 -11    5.87    0.30
   1   8  11    6.15    0.34
  -2  -8 -11    0.65    0.13
   2   8  11    1.05    0.17
  -3  -8 -11   -0.07    0.08
  -3  -8 -11    0.01    0.15
  -4  -8 -11    0.18    0.17
   4   8  11    0.12    0.09
  -5  -8 -11    6.84    0.43
   5   8  11    7.43    0.31
  -6  -8 -11    4.38    0.39
   6   8  11    3.77    0.23
  -7  -8 -11    0.41    0.21
   7   8  11    0.37    0.11
  -8  -8 -11    8.17    0.49
   8   8  11    8.03    0.34
  -9  -8 -11    1.53    0.31
   9   8  11    2.02    0.22
 -10  -8 -11    2.07    0.34
  10   8  11    1.84    0.22
   3  -9 -11   10.50    0.43
  -3   9  11   10.57    0.55
   2  -9 -11    0.11    0.11
  -2   9  11    0.40    0.18
   1  -9 -11    3.15    0.26
  -1   9  11    3.18    0.32
   0  -9 -11   10.77    0.41
   0   9  11   11.67    0.49
  -1  -9 -11   -0.13    0.08
   1   9  11    0.11    0.11
  -2  -9 -11    0.54    0.13
   2   9  11    0.61    0.14
  -3  -9 -11    0.91    0.22
   3   9  11    0.69    0.12
  -4  -9 -11    9.53    0.49
   4   9  11   10.17    0.36
  -5  -9 -11   23.98    0.79
   5   9  11   26.44    0.63
  -6  -9 -11    7.73    0.49
   6   9  11    8.19    0.33
  -7  -9 -11    2.42    0.34
   7   9  11    2.20    0.21
  -8  -9 -11    3.53    0.38
   8   9  11    2.84    0.24
  -9  -9 -11    0.42    0.23
   9   9  11    0.46    0.13
 -10  -9 -11    2.41    0.41
  10   9  11    2.42    0.23
  -2  10  11    1.67    0.26
  -1  10  11    2.06    0.28
   0 -10 -11    3.63    0.25
   0  10  11    3.48    0.31
  -1 -10 -11    3.58    0.24
   1  10  11    3.67    0.29
   2  10  11    0.67    0.12
   2  10  11    1.18    0.18
  -3 -10 -11   11.72    0.55
   3  10  11   12.07    0.39
  -4 -10 -11    2.03    0.31
   4  10  11    1.63    0.17
  -5 -10 -11    5.02    0.45
   5  10  11    4.90    0.26
  -6 -10 -11    5.76    0.44
   6  10  11    5.39    0.27
  -7 -10 -11    1.10    0.30
   7  10  11    1.00    0.15
  -8 -10 -11    2.81    0.40
   8  10  11    2.74    0.23
  -9 -10 -11    0.44    0.26
   9  10  11    0.26    0.12
  10  10  11    0.22    0.12
  -1  11  11   10.94    0.53
   0  11  11    5.84    0.38
   1  11  11   18.28    0.62
   2  11  11    1.70    0.22
  -3 -11 -11    0.20    0.23
  -4 -11 -11    0.36    0.24
  -5 -11 -11    3.91    0.40
  -6 -11 -11    0.38    0.24
  -7 -11 -11    0.09    0.26
  -8 -11 -11    1.55    0.34
   0  12  11    1.71    0.25
   1  12  11    0.74    0.18
   2  12  11    5.51    0.58
  -3 -12 -11    7.43    0.53
  -4 -12 -11    2.82    0.39
  -5 -12 -11    5.02    0.47
  -6 -12 -11    3.15    0.39
  -7 -12 -11    1.54    0.40
   1  13  11    1.19    0.34
  -4 -13 -11    7.10    0.58
  -5 -13 -11    1.35    0.56
   0   2 -12    0.14    0.13
   0  -2  12   -0.07    0.25
  -1   2 -12    3.52    0.30
  -2   2 -12    0.63    0.18
   3  -2  12    0.15    0.10
   4  -2  12    0.10    0.16
  -6   2 -12   10.75    0.55
   1   1 -12    1.01    0.22
  -1  -1  12    0.81    0.32
   0   1 -12    0.12    0.13
   0  -1  12   -0.36    0.23
  -1   1 -12    1.38    0.20
   1  -1  12    1.33    0.30
  -2   1 -12    0.10    0.12
   3  -1  12    0.15    0.09
   4  -1  12    3.95    0.25
   5  -1  12   -0.06    0.09
  -6   1 -12    0.54    0.19
   6  -1  12    0.32    0.12
  -7   1 -12    6.14    0.45
   7  -1  12    6.35    0.32
   8  -1  12    1.42    0.19
   1   0 -12    3.80    0.31
  -1   0  12    2.18    0.37
   0   0 -12    4.04    0.29
   0   0  12    3.27    0.39
  -1   0 -12    0.18    0.13
   1   0  12    0.12    0.22
  -2   0 -12    0.31    0.13
  -3   0 -12    0.48    0.14
   4   0  12    7.73    0.34
  -5   0 -12    2.35    0.35
   5   0  12    2.27    0.22
  -6   0 -12    4.72    0.37
   6   0  12    4.42    0.27
  -7   0 -12    0.48    0.19
   7   0  12    0.75    0.15
  -8   0 -12    0.10    0.15
   8   0  12    0.02    0.10
   9   0  12    0.62    0.15
   2  -1 -12    6.29    0.40
  -2   1  12    5.70    0.51
   1  -1 -12    0.26    0.14
  -1   1  12   -0.25    0.23
   0  -1 -12    1.15    0.19
   0   1  12    0.89    0.28
  -1  -1 -12    3.61    0.28
   1   1  12    3.84    0.39
  -2  -1 -12    7.28    0.36
  -3  -1 -12    1.06    0.17
   4   1  12    0.38    0.11
  -5  -1 -12    2.42    0.28
   5   1  12    2.70    0.24
  -6  -1 -12    0.05    0.13
   6   1  12    0.06    0.10
  -7  -1 -12    0.13    0.16
   7   1  12    0.05    0.09
  -8  -1 -12    0.45    0.20
   8   1  12    0.71    0.16
  -9  -1 -12    2.32    0.33
   9   1  12    1.80    0.22
   2  -2 -12    1.52    0.22
  -2   2  12    1.20    0.32
   1  -2 -12    0.98    0.17
  -1   2  12    1.74    0.34
   0  -2 -12   12.63    0.48
   0   2  12   12.20    0.60
  -1  -2 -12   12.85    0.47
   1   2  12   13.18    0.59
  -2  -2 -12    0.02    0.11
  -3  -2 -12    1.52    0.20
   4   2  12    6.94    0.32
  -5  -2 -12    2.88    0.28
   5   2  12    2.38    0.22
  -6  -2 -12    0.17    0.15
   6   2  12   -0.01    0.09
  -7  -2 -12    5.77    0.41
   7   2  12    5.77    0.31
  -8  -2 -12    7.14    0.46
   8   2  12    7.14    0.35
  -9  -2 -12    3.29    0.37
   9   2  12    3.11    0.27
  -3   3  12   -0.26    0.30
   2  -3 -12    0.29    0.14
  -2   3  12    0.14    0.26
   1  -3 -12    3.02    0.28
  -1   3  12    3.04    0.39
   0  -3 -12    4.12    0.28
   0   3  12    3.36    0.38
  -1  -3 -12    0.69    0.16
   1   3  12    0.72    0.24
  -2  -3 -12    1.00    0.16
  -3  -3 -12    1.19    0.17
   4   3  12    0.07    0.09
  -5  -3 -12    1.66    0.22
   5   3  12    2.13    0.21
  -6  -3 -12    0.23    0.14
   6   3  12   -0.23    0.07
  -7  -3 -12   10.23    0.50
   7   3  12   10.33    0.40
  -8  -3 -12    7.72    0.46
   8   3  12    8.19    0.37
  -9  -3 -12    3.14    0.35
   9   3  12    3.40    0.28
 -10  -3 -12    3.55    0.37
  10   3  12    4.50    0.34
  -3   4  12   -0.01    0.26
   2  -4 -12    0.42    0.13
  -2   4  12    0.18    0.23
   1  -4 -12    0.34    0.14
  -1   4  12    0.55    0.25
   0  -4 -12    6.20    0.34
   0   4  12    5.99    0.45
  -1  -4 -12   -0.11    0.08
   1   4  12    0.09    0.20
  -2  -4 -12    0.57    0.15
  -3  -4 -12    6.56    0.33
   4   4  12    0.82    0.14
  -5  -4 -12    3.19    0.28
   5   4  12    3.57    0.23
  -6  -4 -12    5.41    0.36
   6   4  12    5.12    0.28
  -7  -4 -12    2.87    0.32
   7   4  12    3.32    0.25
  -8  -4 -12    2.65    0.32
   8   4  12    2.88    0.25
  -9  -4 -12    2.32    0.31
   9   4  12    2.45    0.25
 -10  -4 -12    0.29    0.18
  10   4  12   -0.14    0.09
  -3   5  12    2.38    0.39
   2  -5 -12    0.07    0.12
  -2   5  12    0.19    0.24
   1  -5 -12    4.48    0.30
  -1   5  12    4.84    0.44
   0  -5 -12    3.99    0.28
   0   5  12    3.68    0.37
  -1  -5 -12    0.21    0.12
   1   5  12    0.55    0.21
  -2  -5 -12    8.98    0.38
  -3  -5 -12    0.14    0.11
   4   5  12    0.35    0.11
  -5  -5 -12    0.21    0.14
   5   5  12    0.08    0.09
  -6  -5 -12    0.19    0.15
   6   5  12    0.13    0.09
  -7  -5 -12    0.79    0.20
   7   5  12    0.78    0.15
  -8  -5 -12    9.66    0.51
   8   5  12   10.55    0.42
  -9  -5 -12    0.53    0.22
   9   5  12    0.36    0.12
 -10  -5 -12    0.78    0.24
  10   5  12    0.76    0.15
  -3   6  12    0.31    0.24
   2  -6 -12    5.09    0.31
  -2   6  12    5.00    0.45
   1  -6 -12   11.14    0.45
  -1   6  12   10.37    0.54
   0  -6 -12    0.02    0.11
   0   6  12    0.23    0.19
  -1  -6 -12    2.19    0.22
   1   6  12    2.55    0.29
  -2  -6 -12    7.17    0.35
  -3  -6 -12   13.93    0.48
   4   6  12    3.66    0.24
  -5  -6 -12    3.03    0.30
   5   6  12    2.05    0.20
  -6  -6 -12    1.88    0.27
   6   6  12    1.37    0.18
  -7  -6 -12    3.91    0.37
   7   6  12    3.28    0.24
  -8  -6 -12    7.21    0.47
   8   6  12    6.91    0.35
  -9  -6 -12    1.22    0.25
   9   6  12    0.82    0.16
 -10  -6 -12    1.95    0.32
  10   6  12    2.09    0.23
   2  -7 -12    1.31    0.20
  -2   7  12    1.57    0.30
   1  -7 -12    0.77    0.17
  -1   7  12    1.20    0.25
   0  -7 -12    1.65    0.20
   0   7  12    2.04    0.27
  -1  -7 -12    0.04    0.10
   1   7  12    0.15    0.14
  -2  -7 -12    0.50    0.12
  -3  -7 -12    0.32    0.12
   4   7  12    0.74    0.13
  -5  -7 -12    0.50    0.18
   5   7  12    0.22    0.10
  -6  -7 -12    4.08    0.36
   6   7  12    3.98    0.25
  -7  -7 -12   26.06    0.83
   7   7  12   27.14    0.70
  -8  -7 -12    5.10    0.42
   8   7  12    3.72    0.26
  -9  -7 -12    1.46    0.28
   9   7  12    1.91    0.21
 -10  -7 -12    0.98    0.26
  10   7  12    0.34    0.13
   2  -8 -12    0.49    0.15
  -2   8  12    0.59    0.21
   1  -8 -12    6.97    0.36
  -1   8  12    7.45    0.45
   0  -8 -12    0.73    0.15
   0   8  12    0.88    0.20
  -1  -8 -12    0.61    0.14
   1   8  12    0.91    0.19
  -2  -8 -12   15.50    0.51
  -3  -8 -12   -0.14    0.07
  -4  -8 -12    1.31    0.32
   4   8  12    1.80    0.19
  -5  -8 -12    1.80    0.27
   5   8  12    1.44    0.18
  -6  -8 -12    0.34    0.20
   6   8  12    0.41    0.13
  -7  -8 -12    5.37    0.43
   7   8  12    4.45    0.27
  -8  -8 -12    0.78    0.24
   8   8  12    0.59    0.14
  -9  -8 -12    1.07    0.28
   9   8  12    0.79    0.15
  10   8  12    0.35    0.14
   2  -9 -12    0.93    0.17
  -2   9  12    1.51    0.29
   1  -9 -12    8.24    0.38
  -1   9  12    9.14    0.48
   0  -9 -12   -0.04    0.09
   0   9  12    0.43    0.16
  -1  -9 -12    5.62    0.31
   1   9  12    5.61    0.36
  -2  -9 -12    1.86    0.21
   3   9  12    5.16    0.27
  -4  -9 -12   11.86    0.77
   4   9  12   10.39    0.39
  -5  -9 -12    0.17    0.19
   5   9  12    0.04    0.09
  -6  -9 -12    0.38    0.21
   6   9  12    0.08    0.09
  -7  -9 -12    0.26    0.22
   7   9  12    0.09    0.09
  -8  -9 -12    1.70    0.31
   8   9  12    1.17    0.17
  -9  -9 -12    0.24    0.21
   9   9  12    0.14    0.11
   1 -10 -12   -0.05    0.10
  -1  10  12    0.30    0.15
   0 -10 -12    0.75    0.15
   0  10  12    1.45    0.23
  -1 -10 -12    1.47    0.19
   1  10  12    1.87    0.25
  -2 -10 -12   23.13    0.63
   3  10  12    1.73    0.19
   4  10  12   -0.09    0.07
  -5 -10 -12    4.35    0.41
   5  10  12    3.64    0.24
  -6 -10 -12    1.78    0.32
   6  10  12    1.56    0.18
  -7 -10 -12    7.88    0.53
   7  10  12    6.72    0.32
  -8 -10 -12    2.64    0.37
   8  10  12    2.84    0.25
   9  10  12   19.95    0.60
   0  11  12    0.35    0.16
   1  11  12    2.49    0.28
  -5 -11 -12    0.25    0.22
  -6 -11 -12    0.39    0.25
  -7 -11 -12    0.94    0.29
  -5 -12 -12    8.11    0.56
  -6 -12 -12    3.58    0.44
   3  -1  13    1.21    0.20
   4  -1  13    1.22    0.18
   5  -1  13    0.36    0.15
   0   0  13    1.84    0.44
  -2   0 -13    0.23    0.14
   3   0  13    1.11    0.16
   4   0  13    0.24    0.11
   5   0  13    0.09    0.10
   6   0  13    5.07    0.31
  -7   0 -13    0.28    0.17
   0   1  13   -0.05    0.27
  -2  -1 -13    0.04    0.11
  -3  -1 -13    1.88    0.23
   4   1  13    0.87    0.16
   5   1  13   -0.13    0.08
   6   1  13    5.26    0.31
  -7  -1 -13    6.91    0.45
   7   1  13    6.65    0.35
  -8  -1 -13    8.20    0.59
  -1   2  13    0.56    0.31
   0  -2 -13    2.90    0.32
   0   2  13    3.06    0.40
  -1  -2 -13    0.18    0.13
  -2  -2 -13    2.52    0.27
  -3  -2 -13    0.56    0.15
   4   2  13    0.16    0.10
   5   2  13    1.73    0.20
  -6  -2 -13    0.78    0.30
   6   2  13    0.70    0.14
  -7  -2 -13    8.99    0.50
   7   2  13    8.61    0.38
  -8  -2 -13    0.77    0.23
   8   2  13    0.93    0.17
  -1   3  13    0.79    0.32
   0  -3 -13    0.82    0.19
   0   3  13    0.56    0.28
  -1  -3 -13    3.41    0.30
  -2  -3 -13    0.23    0.14
  -3  -3 -13   -0.08    0.09
   4   3  13    4.29    0.27
   5   3  13    4.78    0.29
  -6  -3 -13    0.26    0.16
   6   3  13    0.21    0.12
  -7  -3 -13    5.09    0.39
   7   3  13    4.47    0.29
  -8  -3 -13   14.21    0.63
   8   3  13   14.86    0.52
  -9  -3 -13    1.90    0.33
  -1   4  13    0.31    0.26
   0  -4 -13    0.68    0.15
   0   4  13    0.54    0.27
  -1  -4 -13    4.60    0.32
  -2  -4 -13    0.85    0.17
  -3  -4 -13    0.44    0.14
   4   4  13    0.02    0.09
   5   4  13    8.51    0.38
  -6  -4 -13    2.76    0.30
   6   4  13    2.66    0.26
  -7  -4 -13   21.06    0.73
   7   4  13   21.28    0.63
  -8  -4 -13    0.19    0.17
   8   4  13    0.26    0.13
  -9  -4 -13    9.02    0.53
  -1   5  13    0.29    0.24
   0  -5 -13    0.06    0.10
   0   5  13    0.28    0.23
  -1  -5 -13    4.43    0.31
  -2  -5 -13    6.03    0.33
  -3  -5 -13    3.32    0.29
   4   5  13    3.77    0.26
   5   5  13    0.94    0.17
  -6  -5 -13   21.16    0.71
   6   5  13   23.00    0.65
  -7  -5 -13    2.28    0.30
   7   5  13    2.73    0.26
  -8  -5 -13    9.76    0.53
   8   5  13   10.15    0.43
  -9  -5 -13    0.65    0.21
   9   5  13    0.32    0.15
   1  -6 -13    1.99    0.37
  -1   6  13    2.02    0.32
   0  -6 -13    8.85    0.41
   0   6  13    8.85    0.50
  -1  -6 -13   10.28    0.44
  -2  -6 -13    1.84    0.21
  -3  -6 -13    1.47    0.21
   4   6  13    0.66    0.14
   5   6  13    4.14    0.28
  -6  -6 -13    3.35    0.33
   6   6  13    3.04    0.26
  -7  -6 -13    1.11    0.23
   7   6  13    0.57    0.14
  -8  -6 -13    3.00    0.35
   8   6  13    2.39    0.24
  -9  -6 -13    3.35    0.37
   9   6  13    2.77    0.29
  -1   7  13    2.24    0.32
   0  -7 -13    2.80    0.27
   0   7  13    3.39    0.34
  -1  -7 -13    4.92    0.32
  -2  -7 -13    5.17    0.32
  -3  -7 -13    7.08    0.36
   4   7  13    4.32    0.27
   5   7  13    2.57    0.24
  -6  -7 -13    0.15    0.16
   6   7  13    0.20    0.12
  -7  -7 -13    2.77    0.33
   7   7  13    1.75    0.20
  -8  -7 -13    3.18    0.35
   8   7  13    3.63    0.27
  -9  -7 -13    0.09    0.20
   9   7  13    0.28    0.20
   0  -8 -13    0.02    0.10
   0   8  13    0.36    0.17
  -1  -8 -13    3.07    0.28
  -2  -8 -13    1.55    0.20
  -3  -8 -13   58.07    1.22
   4   8  13   18.09    0.56
   5   8  13    5.85    0.32
  -6  -8 -13    2.00    0.29
   6   8  13    1.60    0.20
  -7  -8 -13    0.33    0.20
   7   8  13    0.42    0.13
  -8  -8 -13    0.91    0.23
   8   8  13    0.69    0.16
   0  -9 -13   -0.07    0.11
   0   9  13    0.42    0.16
  -1  -9 -13    9.18    0.41
  -2  -9 -13   13.62    0.49
   3   9  13    0.46    0.13
   4   9  13    0.24    0.11
   5   9  13    0.26    0.12
  -6  -9 -13    0.56    0.22
   6   9  13    0.10    0.11
  -7  -9 -13    0.28    0.21
  -8  -9 -13    1.10    0.25
   8   9  13    0.76    0.16
   0 -10 -13    3.65    0.34
   0  10  13    5.24    0.36
  -1 -10 -13    0.50    0.15
  -2 -10 -13    0.02    0.11
   3  10  13   17.66    0.54
   4  10  13    0.32    0.12
   5  10  13    3.48    0.25
  -6 -10 -13    6.69    0.48
   6  10  13    6.50    0.33
  -7 -10 -13    6.96    0.50
   7  10  13    6.17    0.33
   8  10  13    1.34    0.21
  -6 -11 -13    0.55    0.25
   4   3  14    5.75    0.55
  -3  -4 -14    1.40    0.24
   4   4  14    5.15    0.32
   5   4  14    1.12    0.18
   6   4  14    2.24    0.37
  -8  -4 -14    0.05    0.18
  -3  -5 -14    5.75    0.34
   4   5  14    1.03    0.18
   5   5  14    3.84    0.28
   6   5  14    1.24    0.20
  -8  -5 -14    9.00    0.51
  -3  -6 -14    0.25    0.14
   4   6  14    0.12    0.10
   5   6  14    0.55    0.15
   6   6  14    3.05    0.27
  -7  -6 -14    2.90    0.36
  -8  -6 -14    9.87    0.54
  -2  -7 -14    2.85    0.43
  -3  -7 -14    1.29    0.20
   4   7  14   19.25    0.61
   5   7  14    6.19    0.34
   6   7  14    0.65    0.16
  -7  -7 -14    0.22    0.17
  -8  -7 -14    1.18    0.25
   3   8  14    2.81    0.26
   4   8  14    4.51    0.30
   5   8  14    1.89    0.22
   6   8  14    0.05    0.12
  -7  -8 -14    4.23    0.41
   4   9  14    4.44    0.32
   5   9  14   -0.07    0.11
  -7  -9 -14    0.77    0.24
   0   0   0    0.00    0.00
;
_shelx_hkl_checksum              10995
_olex2_submission_special_instructions 'No special instructions were received'
loop_
_space_group_symop_operation_xyz
'x, y, z'
'-x, -y, -z'
loop_
_atom_site_label
_atom_site_type_symbol
_atom_site_fract_x
_atom_site_fract_y
_atom_site_fract_z
_atom_site_U_iso_or_equiv
_atom_site_adp_type
_atom_site_occupancy
_atom_site_site_symmetry_order
_atom_site_calc_flag
_atom_site_refinement_flags_posn
O7 O 0.41677(8) 0.28206(8) 0.06948(8) 0.02135(13) Uani 1 1 d .
O3 O 0.23614(7) 0.36232(7) 0.36996(7) 0.01678(12) Uani 1 1 d .
O1 O -0.01294(7) 0.26531(7) 0.48764(7) 0.01809(12) Uani 1 1 d .
C12 C 0.35179(12) 0.22782(12) 0.58578(12) 0.02482(19) Uani 1 1 d .
H12A H 0.4622 0.2559 0.5164 0.037 Uiso 1 1 calc GR
H12B H 0.3554 0.1278 0.6745 0.037 Uiso 1 1 calc GR
H12C H 0.3015 0.3085 0.6285 0.037 Uiso 1 1 calc GR
C4 C 0.25375(10) 0.21426(10) 0.49016(10) 0.01776(15) Uani 1 1 d .
C3 C 0.31834(10) 0.09333(10) 0.41567(11) 0.01880(16) Uani 1 1 d .
H3A H 0.3264 -0.0101 0.5007 0.023 Uiso 1 1 calc R
H3B H 0.4283 0.1200 0.3404 0.023 Uiso 1 1 calc R
C2 C 0.20738(10) 0.08571(9) 0.32579(10) 0.01669(15) Uani 1 1 d .
H2A H 0.1148 0.0209 0.4041 0.020 Uiso 1 1 calc R
H2B H 0.2683 0.0336 0.2511 0.020 Uiso 1 1 calc R
C1 C 0.14114(9) 0.24692(9) 0.22981(9) 0.01436(14) Uani 1 1 d .
C8 C 0.26471(10) 0.33171(9) 0.06864(10) 0.01644(15) Uani 1 1 d .
C9 C 0.54746(11) 0.35209(12) -0.07619(12) 0.02445(18) Uani 1 1 d .
H9A H 0.6415 0.3643 -0.0482 0.029 Uiso 1 1 calc R
H9B H 0.5110 0.4566 -0.1412 0.029 Uiso 1 1 calc R
C10 C 0.59631(14) 0.24993(15) -0.17127(14) 0.0344(2) Uani 1 1 d .
H10A H 0.6877 0.2946 -0.2665 0.052 Uiso 1 1 calc GR
H10B H 0.5047 0.2432 -0.2042 0.052 Uiso 1 1 calc GR
H10C H 0.6284 0.1455 -0.1050 0.052 Uiso 1 1 calc GR
O6 O 0.22886(8) 0.43320(8) -0.04401(8) 0.02507(15) Uani 1 1 d .
C6 C -0.01525(10) 0.23310(10) 0.19941(10) 0.01651(15) Uani 1 1 d .
H6A H -0.0990 0.1911 0.3041 0.020 Uiso 1 1 calc R
H6B H -0.0537 0.3390 0.1396 0.020 Uiso 1 1 calc R
C7 C -0.00129(10) 0.13222(9) 0.10833(10) 0.01648(15) Uani 1 1 d .
O4 O 0.12656(8) 0.08182(8) 0.03931(8) 0.02131(14) Uani 1 1 d .
O5 O -0.14503(8) 0.10787(8) 0.10782(8) 0.02124(14) Uani 1 1 d .
H5 H -0.1336 0.0488 0.0590 0.032 Uiso 1 1 calc GR
C5 C 0.09852(9) 0.34946(9) 0.33297(10) 0.01481(14) Uani 1 1 d .
O2 O 0.08939(8) 0.18154(8) 0.59417(7) 0.02046(13) Uani 1 1 d .
C11 C 0.02096(11) 0.50921(10) 0.26601(11) 0.01994(16) Uani 1 1 d .
H11A H 0.0141 0.5674 0.3322 0.030 Uiso 1 1 calc GR
H11B H -0.0881 0.4985 0.2665 0.030 Uiso 1 1 calc GR
H11C H 0.0866 0.5653 0.1560 0.030 Uiso 1 1 calc GR
loop_
_atom_site_aniso_label
_atom_site_aniso_U_11
_atom_site_aniso_U_22
_atom_site_aniso_U_33
_atom_site_aniso_U_23
_atom_site_aniso_U_13
_atom_site_aniso_U_12
O7 0.0162(3) 0.0239(3) 0.0228(3) -0.0102(2) -0.0039(2) 0.0015(2)
O3 0.0176(3) 0.0163(3) 0.0215(3) -0.0098(2) -0.0095(2) 0.0010(2)
O1 0.0164(3) 0.0223(3) 0.0175(3) -0.0089(2) -0.0070(2) 0.0017(2)
C12 0.0260(4) 0.0300(5) 0.0292(4) -0.0171(4) -0.0168(4) 0.0047(3)
C4 0.0186(3) 0.0186(4) 0.0202(4) -0.0099(3) -0.0094(3) 0.0027(3)
C3 0.0204(4) 0.0174(4) 0.0227(4) -0.0106(3) -0.0106(3) 0.0049(3)
C2 0.0197(3) 0.0140(3) 0.0201(4) -0.0093(3) -0.0085(3) 0.0026(3)
C1 0.0158(3) 0.0138(3) 0.0173(3) -0.0090(3) -0.0068(3) 0.0016(2)
C8 0.0178(3) 0.0161(3) 0.0191(3) -0.0105(3) -0.0057(3) 0.0001(3)
C9 0.0191(4) 0.0291(5) 0.0255(4) -0.0149(4) -0.0005(3) -0.0031(3)
C10 0.0322(5) 0.0463(6) 0.0336(5) -0.0282(5) -0.0033(4) -0.0031(4)
O6 0.0255(3) 0.0252(3) 0.0216(3) -0.0050(3) -0.0091(3) 0.0000(3)
C6 0.0170(3) 0.0174(3) 0.0207(4) -0.0116(3) -0.0080(3) 0.0015(3)
C7 0.0188(3) 0.0165(3) 0.0177(3) -0.0077(3) -0.0086(3) -0.0001(3)
O4 0.0190(3) 0.0268(3) 0.0259(3) -0.0178(3) -0.0067(2) -0.0002(2)
O5 0.0184(3) 0.0263(3) 0.0295(3) -0.0187(3) -0.0113(2) 0.0022(2)
C5 0.0151(3) 0.0152(3) 0.0178(3) -0.0092(3) -0.0065(3) 0.0012(3)
O2 0.0211(3) 0.0242(3) 0.0173(3) -0.0079(2) -0.0090(2) 0.0027(2)
C11 0.0232(4) 0.0166(4) 0.0251(4) -0.0117(3) -0.0117(3) 0.0057(3)
loop_
_atom_type_symbol
_atom_type_description
_atom_type_scat_dispersion_real
_atom_type_scat_dispersion_imag
_atom_type_scat_source
C C 0.0033 0.0016 'International Tables Vol C Tables 4.2.6.8 and 6.1.1.4'
H H 0.0000 0.0000 'International Tables Vol C Tables 4.2.6.8 and 6.1.1.4'
O O 0.0106 0.0060 'International Tables Vol C Tables 4.2.6.8 and 6.1.1.4'
loop_
_geom_angle_atom_site_label_1
_geom_angle_atom_site_label_2
_geom_angle_atom_site_label_3
_geom_angle
C8 O7 C9 118.02(7)
C5 O3 C4 103.84(6)
C5 O1 O2 105.39(5)
H12A C12 H12B 109.5
H12A C12 H12C 109.5
H12B C12 H12C 109.5
C4 C12 H12A 109.5
C4 C12 H12B 109.5
C4 C12 H12C 109.5
O3 C4 C12 109.70(7)
O3 C4 C3 110.00(7)
O3 C4 O2 103.20(6)
C12 C4 C3 115.30(7)
O2 C4 C12 107.81(7)
O2 C4 C3 110.13(7)
C4 C3 H3A 109.4
C4 C3 H3B 109.4
C4 C3 C2 111.04(7)
H3A C3 H3B 108.0
C2 C3 H3A 109.4
C2 C3 H3B 109.4
C3 C2 H2A 108.8
C3 C2 H2B 108.8
C3 C2 C1 113.87(7)
H2A C2 H2B 107.7
C1 C2 H2A 108.8
C1 C2 H2B 108.8
C2 C1 C5 108.00(6)
C8 C1 C2 112.50(6)
C8 C1 C6 108.84(6)
C8 C1 C5 108.42(6)
C6 C1 C2 111.46(7)
C6 C1 C5 107.46(6)
O7 C8 C1 111.88(7)
O6 C8 O7 124.17(8)
O6 C8 C1 123.93(7)
O7 C9 H9A 109.8
O7 C9 H9B 109.8
O7 C9 C10 109.60(8)
H9A C9 H9B 108.2
C10 C9 H9A 109.8
C10 C9 H9B 109.8
C9 C10 H10A 109.5
C9 C10 H10B 109.5
C9 C10 H10C 109.5
H10A C10 H10B 109.5
H10A C10 H10C 109.5
H10B C10 H10C 109.5
C1 C6 H6A 108.4
C1 C6 H6B 108.4
H6A C6 H6B 107.4
C7 C6 C1 115.63(7)
C7 C6 H6A 108.4
C7 C6 H6B 108.4
O4 C7 C6 124.55(7)
O4 C7 O5 123.72(7)
O5 C7 C6 111.71(7)
C7 O5 H5 109.5
O3 C5 O1 103.96(6)
O3 C5 C1 110.36(6)
O3 C5 C11 109.77(7)
O1 C5 C1 108.01(6)
O1 C5 C11 107.04(6)
C11 C5 C1 116.84(7)
C4 O2 O1 104.44(6)
C5 C11 H11A 109.5
C5 C11 H11B 109.5
C5 C11 H11C 109.5
H11A C11 H11B 109.5
H11A C11 H11C 109.5
H11B C11 H11C 109.5
loop_
_geom_bond_atom_site_label_1
_geom_bond_atom_site_label_2
_geom_bond_distance
O7 C8 1.3373(10)
O7 C9 1.4573(11)
O3 C4 1.4210(10)
O3 C5 1.4086(9)
O1 C5 1.4513(10)
O1 O2 1.4786(8)
C12 H12A 0.9800
C12 H12B 0.9800
C12 H12C 0.9800
C12 C4 1.5093(12)
C4 C3 1.5188(12)
C4 O2 1.4493(11)
C3 H3A 0.9900
C3 H3B 0.9900
C3 C2 1.5334(12)
C2 H2A 0.9900
C2 H2B 0.9900
C2 C1 1.5473(11)
C1 C8 1.5346(11)
C1 C6 1.5361(11)
C1 C5 1.5722(11)
C8 O6 1.2063(10)
C9 H9A 0.9900
C9 H9B 0.9900
C9 C10 1.5045(14)
C10 H10A 0.9800
C10 H10B 0.9800
C10 H10C 0.9800
C6 H6A 0.9900
C6 H6B 0.9900
C6 C7 1.5041(11)
C7 O4 1.2220(10)
C7 O5 1.3254(10)
O5 H5 0.8400
C5 C11 1.5110(11)
C11 H11A 0.9800
C11 H11B 0.9800
C11 H11C 0.9800
loop_
_geom_torsion_atom_site_label_1
_geom_torsion_atom_site_label_2
_geom_torsion_atom_site_label_3
_geom_torsion_atom_site_label_4
_geom_torsion
O3 C4 C3 C2 -57.04(9)
O3 C4 O2 O1 28.63(7)
C12 C4 C3 C2 178.30(8)
C12 C4 O2 O1 144.67(7)
C4 O3 C5 O1 40.94(7)
C4 O3 C5 C1 -74.66(7)
C4 O3 C5 C11 155.16(7)
C4 C3 C2 C1 40.33(10)
C3 C4 O2 O1 -88.76(7)
C3 C2 C1 C8 80.12(8)
C3 C2 C1 C6 -157.30(7)
C3 C2 C1 C5 -39.49(9)
C2 C1 C8 O7 -23.87(9)
C2 C1 C8 O6 157.57(8)
C2 C1 C6 C7 -59.11(9)
C2 C1 C5 O3 57.62(8)
C2 C1 C5 O1 -55.41(8)
C2 C1 C5 C11 -176.07(7)
C1 C6 C7 O4 -11.13(12)
C1 C6 C7 O5 170.69(7)
C8 O7 C9 C10 -96.76(10)
C8 C1 C6 C7 65.54(9)
C8 C1 C5 O3 -64.54(8)
C8 C1 C5 O1 -177.57(6)
C8 C1 C5 C11 61.77(9)
C9 O7 C8 C1 179.81(7)
C9 O7 C8 O6 -1.63(12)
C6 C1 C8 O7 -147.90(7)
C6 C1 C8 O6 33.54(10)
C6 C1 C5 O3 177.97(6)
C6 C1 C5 O1 64.94(8)
C6 C1 C5 C11 -55.72(9)
C5 O3 C4 C12 -158.32(7)
C5 O3 C4 C3 73.85(8)
C5 O3 C4 O2 -43.63(7)
C5 O1 O2 C4 -4.09(7)
C5 C1 C8 O7 95.50(8)
C5 C1 C8 O6 -83.06(9)
C5 C1 C6 C7 -177.25(7)
O2 O1 C5 O3 -22.22(7)
O2 O1 C5 C1 95.02(6)
O2 O1 C5 C11 -138.37(6)
O2 C4 C3 C2 56.05(9)
