#------------------------------------------------------------------------------
#$Date: 2019-11-04 11:27:16 +0200 (Mon, 04 Nov 2019) $
#$Revision: 222601 $
#$URL: file:///home/coder/svn-repositories/cod/cif/4/03/40/4034041.cif $
#------------------------------------------------------------------------------
#
# This file is available in the Crystallography Open Database (COD),
# http://www.crystallography.net/
#
# All data on this site have been placed in the public domain by the
# contributors.
#
data_4034041
loop_
_publ_author_name
'Geiger, Thomas'
'Haupt, Anne'
'Maichle-M\"ossmer, C\"acilia'
'Schrenk, Claudio'
'Schnepf, Andreas'
'Bettinger, Holger F.'
_publ_section_title
;
 Synthesis and Photodimerization of 2- and 2,3-Disubstituted Anthracenes:
 Influence of Steric Interactions and London Dispersion on
 Diastereoselectivity.
;
_journal_issue                   16
_journal_name_full               'The Journal of organic chemistry'
_journal_page_first              10120
_journal_page_last               10135
_journal_paper_doi               10.1021/acs.joc.9b01317
_journal_volume                  84
_journal_year                    2019
_chemical_formula_sum            'C34 H30 Cl6'
_chemical_formula_weight         651.28
_space_group_crystal_system      triclinic
_space_group_IT_number           2
_space_group_name_Hall           '-P 1'
_space_group_name_H-M_alt        'P -1'
_atom_sites_solution_hydrogens   mixed
_audit_creation_method           SHELXL-2014/7
_cell_angle_alpha                83.627(7)
_cell_angle_beta                 87.534(7)
_cell_angle_gamma                87.470(6)
_cell_formula_units_Z            1
_cell_length_a                   8.3036(12)
_cell_length_b                   8.4034(12)
_cell_length_c                   11.0420(17)
_cell_measurement_reflns_used    2136
_cell_measurement_temperature    100(2)
_cell_measurement_theta_max      24.71
_cell_measurement_theta_min      2.560
_cell_volume                     764.4(2)
_computing_cell_refinement       'APEX2 v2014.11-0 (Bruker AXS)'
_computing_data_collection       'Apex 2'
_computing_data_reduction        'SAINT V8.34A (Bruker AXS Inc., 2013)'
_computing_structure_refinement  'SHELXL-2014/7 (Sheldrick, 2014)'
_computing_structure_solution
'XT, VERSION 2014/5,SHELXS-13 (Sheldrick 2008)'
_diffrn_ambient_temperature      100(2)
_diffrn_measured_fraction_theta_full 0.985
_diffrn_measured_fraction_theta_max 0.982
_diffrn_measurement_device_type  'Smart APEX II '
_diffrn_measurement_method       omega/phi-scans
_diffrn_radiation_monochromator  triumph
_diffrn_radiation_source         'fine-focus sealed tube'
_diffrn_radiation_type           MoK\a
_diffrn_radiation_wavelength     0.71073
_diffrn_reflns_av_unetI/netI     0.0494
_diffrn_reflns_Laue_measured_fraction_full 0.985
_diffrn_reflns_Laue_measured_fraction_max 0.982
_diffrn_reflns_limit_h_max       10
_diffrn_reflns_limit_h_min       -10
_diffrn_reflns_limit_k_max       10
_diffrn_reflns_limit_k_min       -10
_diffrn_reflns_limit_l_max       13
_diffrn_reflns_limit_l_min       -3
_diffrn_reflns_number            3071
_diffrn_reflns_point_group_measured_fraction_full 0.985
_diffrn_reflns_point_group_measured_fraction_max 0.982
_diffrn_reflns_theta_full        25.242
_diffrn_reflns_theta_max         26.369
_diffrn_reflns_theta_min         2.441
_exptl_absorpt_coefficient_mu    0.586
_exptl_absorpt_correction_T_max  1.000
_exptl_absorpt_correction_T_min  0.8354
_exptl_absorpt_correction_type   numerical
_exptl_absorpt_process_details   sadabs
_exptl_crystal_colour            colourless
_exptl_crystal_density_diffrn    1.415
_exptl_crystal_description       block
_exptl_crystal_F_000             336
_exptl_crystal_size_max          0.193
_exptl_crystal_size_mid          0.142
_exptl_crystal_size_min          0.131
_refine_diff_density_max         1.209
_refine_diff_density_min         -0.966
_refine_diff_density_rms         0.181
_refine_ls_extinction_coef       0.027(8)
_refine_ls_extinction_expression Fc^*^=kFc[1+0.001xFc^2^\l^3^/sin(2\q)]^-1/4^
_refine_ls_extinction_method     'SHELXL-2014/7 (Sheldrick 2014'
_refine_ls_goodness_of_fit_ref   1.139
_refine_ls_hydrogen_treatment    mixed
_refine_ls_matrix_type           full
_refine_ls_number_parameters     187
_refine_ls_number_reflns         3071
_refine_ls_number_restraints     0
_refine_ls_restrained_S_all      1.139
_refine_ls_R_factor_all          0.0972
_refine_ls_R_factor_gt           0.0880
_refine_ls_shift/su_max          0.000
_refine_ls_shift/su_mean         0.000
_refine_ls_structure_factor_coef Fsqd
_refine_ls_weighting_details
'w=1/[\s^2^(Fo^2^)+(0.1144P)^2^+6.0320P] where P=(Fo^2^+2Fc^2^)/3'
_refine_ls_weighting_scheme      calc
_refine_ls_wR_factor_gt          0.2958
_refine_ls_wR_factor_ref         0.3012
_reflns_Friedel_coverage         0.000
_reflns_number_gt                2622
_reflns_number_total             3071
_reflns_threshold_expression     'I > 2\s(I)'
_cod_data_source_file            jo9b01317_si_008.cif
_cod_data_source_block           39a_mo_tg1a_0m_tw
_cod_database_code               4034041
_shelx_shelxl_version_number     2014/7
_shelx_space_group_comment
;
The symmetry employed for this shelxl refinement is uniquely defined
by the following loop, which should always be used as a source of
symmetry information in preference to the above space-group names.
They are only intended as comments.
;
_shelx_estimated_absorpt_t_min   0.895
_shelx_estimated_absorpt_t_max   0.927
_shelx_res_file
;

    mo_tg1a_0m_tw.res created by SHELXL-2014/7


TITL mo_tg1a_0m in P-1
CELL 0.71073 8.3036 8.4034 11.0420 83.627 87.534 87.470
ZERR 1.00 0.0012 0.0012 0.0017 0.007 0.007 0.006
LATT 1
SFAC C  H Cl
UNIT 34 30 6
LIST 4 ! automatically inserted. Change 6 to 4 for CHECKCIF!!
TEMP -173.120
SIZE 0.131 0.142 0.193
ACTA
MERG 0
L.S. 10
FMAP 2
PLAN -40
SHEL 0.8 99
HTAB
EADP Cl1 Cl2 Cl3 Cl1A Cl2A Cl3A
WGHT    0.114400    6.032000
EXTI    0.027260
BASF   0.40103
FVAR      12.40144   0.51452
C01   1   -0.277726    0.992091    0.979294    11.00000    0.01374    0.02759 =
         0.01979   -0.00445    0.00228   -0.00216
AFIX 133
H01A  2   -0.340114    0.901383    1.015773    11.00000   -1.50000
H01B  2   -0.351149    1.084212    0.957030    11.00000   -1.50000
H01C  2   -0.201754    1.020310    1.038225    11.00000   -1.50000
AFIX   0
C1    1   -0.185472    0.946409    0.866528    11.00000    0.01107    0.01326 =
         0.01906   -0.00304    0.00048   -0.00493
C2    1   -0.223141    1.024247    0.751618    11.00000    0.00607    0.01083 =
         0.02236   -0.00271    0.00195   -0.00023
AFIX  43
H2    2   -0.303644    1.108357    0.745689    11.00000   -1.20000
AFIX   0
C3    1   -0.143578    0.979481    0.645682    11.00000    0.01025    0.01235 =
         0.01437   -0.00059    0.00013   -0.00187
C4    1   -0.024918    0.857520    0.654420    11.00000    0.00842    0.00876 =
         0.01726    0.00102    0.00184   -0.00197
C5    1    0.013073    0.780905    0.768194    11.00000    0.00860    0.00973 =
         0.02094    0.00085   -0.00084    0.00163
AFIX  43
H5    2    0.095788    0.698933    0.773825    11.00000   -1.20000
AFIX   0
C6    1   -0.068208    0.822133    0.874877    11.00000    0.01894    0.01400 =
         0.01505   -0.00131   -0.00247   -0.00515
C06   1   -0.031291    0.728430    0.995692    11.00000    0.02555    0.01792 =
         0.01802    0.00198   -0.00479    0.00222
AFIX 133
H06A  2   -0.002230    0.802174    1.053274    11.00000   -1.50000
H06B  2    0.058917    0.651637    0.984350    11.00000   -1.50000
H06C  2   -0.126571    0.670589    1.027962    11.00000   -1.50000
AFIX   0
C7    1   -0.185360    1.057661    0.518580    11.00000    0.00872    0.01033 =
         0.01709    0.00100    0.00049   -0.00031
H7    2   -0.288636    1.116069    0.524146    11.00000   -1.20000
C8    1   -0.199059    0.922796    0.439428    11.00000    0.01087    0.00710 =
         0.01438    0.00174    0.00095    0.00034
C9    1   -0.077832    0.800788    0.447969    11.00000    0.00424    0.01072 =
         0.01647    0.00207    0.00230    0.00113
C10   1   -0.326988    0.913959    0.362810    11.00000    0.01111    0.01573 =
         0.01754    0.00190    0.00124   -0.00080
AFIX  43
H10   2   -0.409699    0.995936    0.357234    11.00000   -1.20000
AFIX   0
C11   1   -0.333177    0.784909    0.294623    11.00000    0.00777    0.01745 =
         0.01752    0.00182   -0.00108   -0.00229
AFIX  43
H11   2   -0.419448    0.779701    0.241595    11.00000   -1.20000
AFIX   0
C12   1   -0.214868    0.664809    0.303678    11.00000    0.01386    0.00985 =
         0.02005   -0.00225    0.00129   -0.00104
AFIX  43
H12   2   -0.220827    0.576145    0.257871    11.00000   -1.20000
AFIX   0
C13   1   -0.085852    0.672449    0.379923    11.00000    0.01054    0.01218 =
         0.01809    0.00212    0.00382    0.00011
AFIX  43
H13   2   -0.003809    0.589801    0.385084    11.00000   -1.20000
AFIX   0
C14   1    0.056753    0.814186    0.535575    11.00000    0.00431    0.00842 =
         0.01849    0.00072    0.00016    0.00107
H14   2    0.105518    0.724113    0.551034    11.00000   -1.20000
C20   1    0.615069    0.631226    0.754268    11.00000    0.01902    0.00970 =
         0.02167   -0.00109   -0.00188    0.00255
PART 1
AFIX  13
H20A  2    0.691531    0.720311    0.751678    21.00000   -1.20000
AFIX  13
PART 2
H20B  2    0.696796    0.715956    0.748018   -21.00000   -1.20000
AFIX   0
PART 0
PART 1
CL1   3    0.528175    0.636890    0.610201    21.00000    0.02351    0.02087 =
         0.02196    0.00051    0.00025    0.00665
CL2   3    0.720372    0.448637    0.793123    21.00000    0.02351    0.02087 =
         0.02196    0.00051    0.00025    0.00665
CL3   3    0.459035    0.659129    0.867502    21.00000    0.02351    0.02087 =
         0.02196    0.00051    0.00025    0.00665
PART 0
PART 2
CL1A  3    0.560816    0.606934    0.604728   -21.00000    0.02351    0.02087 =
         0.02196    0.00051    0.00025    0.00665
CL2A  3    0.708762    0.450181    0.821955   -21.00000    0.02351    0.02087 =
         0.02196    0.00051    0.00025    0.00665
CL3A  3    0.452144    0.695133    0.842700   -21.00000    0.02351    0.02087 =
         0.02196    0.00051    0.00025    0.00665
PART 0
HKLF 5

REM  mo_tg1a_0m in P-1
REM R1 =  0.0880 for    2622 Fo > 4sig(Fo)  and  0.0972 for all    3071 data
REM    187 parameters refined using      0 restraints

END

WGHT      0.1123      6.2442

REM No hydrogen bonds found for HTAB generation

REM Highest difference peak  1.209,  deepest hole -0.966,  1-sigma level  0.181
Q1    1  -0.7093  0.5412  0.1007  11.00000  0.05    1.21
Q2    1  -0.6117  0.4510  0.3982  11.00000  0.05    1.11
Q3    1  -0.7101  0.5578  0.2732  11.00000  0.05    0.93
Q4    1  -0.4400  0.3114  0.2205  11.00000  0.05    0.90
Q5    1  -0.4873  0.2793  0.1187  11.00000  0.05    0.76
Q6    1  -0.2256  0.9199  0.3678  11.00000  0.05    0.72
Q7    1  -0.4872  0.4118  0.0964  11.00000  0.05    0.65
Q8    1  -0.5251  0.4071  0.4899  11.00000  0.05    0.60
Q9    1  -0.2039  1.0398  0.8298  11.00000  0.05    0.58
Q10   1  -0.4760  0.6062  0.4243  11.00000  0.05    0.57
Q11   1  -0.3475  0.7736  0.2028  11.00000  0.05    0.56
Q12   1  -0.3484  0.3034  0.4801  11.00000  0.05    0.55
Q13   1  -0.6479  0.5562  0.1775  11.00000  0.05    0.54
Q14   1  -0.0802  0.7934  0.3687  11.00000  0.05    0.53
Q15   1  -0.0528  0.8207  0.5277  11.00000  0.05    0.53
Q16   1  -0.2257  0.6566  0.2106  11.00000  0.05    0.53
Q17   1  -0.1638  0.8387  0.4608  11.00000  0.05    0.52
Q18   1  -0.3213  0.5384  0.2052  11.00000  0.05    0.52
Q19   1  -0.3443  0.6034  0.1404  11.00000  0.05    0.52
Q20   1  -0.2031  1.0201  0.4244  11.00000  0.05    0.51
Q21   1  -0.5854  0.6800  0.1626  11.00000  0.05    0.50
Q22   1  -0.2924  1.0353  0.2817  11.00000  0.05    0.50
Q23   1  -0.2342  0.7595  0.6165  11.00000  0.05    0.49
Q24   1  -0.3226  0.8030  0.3633  11.00000  0.05    0.49
Q25   1  -0.5553  0.7943  0.1468  11.00000  0.05    0.49
Q26   1  -0.6154  0.3667  0.3192  11.00000  0.05    0.49
Q27   1  -0.0839  1.0794  0.5034  11.00000  0.05    0.49
Q28   1  -0.1772  0.9615  0.9597  11.00000  0.05    0.49
Q29   1  -0.1820  0.9554  0.5059  11.00000  0.05    0.48
Q30   1  -0.5406  0.3599 -0.0561  11.00000  0.05    0.47
Q31   1  -0.3616  0.3031  0.3875  11.00000  0.05    0.47
Q32   1  -0.5849  0.6806  0.2231  11.00000  0.05    0.47
Q33   1  -0.0817  0.8152  0.7862  11.00000  0.05    0.47
Q34   1  -0.2871  0.9239  0.8938  11.00000  0.05    0.47
Q35   1  -0.0315  0.7997  0.2465  11.00000  0.05    0.47
Q36   1  -0.2094  0.7823  0.7313  11.00000  0.05    0.46
Q37   1  -0.3495  0.8727  0.2889  11.00000  0.05    0.46
Q38   1  -0.0699  0.9139  0.8795  11.00000  0.05    0.45
Q39   1  -0.0621  0.7091  0.9200  11.00000  0.05    0.45
Q40   1  -0.2072  0.6848  0.3795  11.00000  0.05    0.45
;
_shelx_res_checksum              57284
_shelx_hkl_file
;
   0  -1   0   25165    1092  -2
   1   0   0   25165    1092   1
   0  -2   0   16143     508  -2
   2   0   0   16143     508   1
   0  -4   0  113265    2342  -2
   4   0   0  113265    2342   1
   0  -5   0   24815     669  -2
   5   0   0   24815     669   1
   6   0   0   17717    1042   1
   7   0   0   10838    2299   1
   8   0   0   65085    2141   1
   9   0   0    6473    1574   1
  10   0   0    1441     536   1
 -10   1   0     949     603   1
  -9   1   0    5427    1318   1
  -8   1   0   16493     823   1
  -7   1   0   25306     688   1
  -1   6   0  150173    2972  -2
  -6   1   0  150173    2972   1
  -1   5   0   34689     804  -2
  -5   1   0   34689     804   1
  -1   2   0   46795    1112  -2
  -2   1   0   46795    1112   1
  -1   1   0 1550733   42638  -2
  -1   1   0 1550733   42638   1
  -1   0   0   24856     643  -2
   0   1   0   24856     643   1
  -1  -1   0  172271    6272  -2
   1   1   0  172271    6272   1
  -1  -2   0  305180    5860  -2
   2   1   0  305180    5860   1
  -1  -3   0  150693    3477  -2
   3   1   0  150693    3477   1
  -1  -4   0   60727    1448  -2
   4   1   0   60727    1448   1
  -1  -5   0  106133    2430  -2
   5   1   0  106133    2430   1
  -1  -6   0   32137    1273  -2
   6   1   0   32137    1273   1
   7   1   0   37797    1514   1
   8   1   0    3878     387   1
   9   1   0    2483     534   1
  10   1   0    -263     444   1
 -10   2   0   30526    1544   1
  -9   2   0   24446    1268   1
  -8   2   0    7025     580   1
  -7   2   0   50003    1277   1
  -2   6   0    6298     360  -2
  -6   2   0    6298     360   1
  -2   5   0    8264     429  -2
  -5   2   0    8264     429   1
  -2   4   0   72840    1867  -2
  -4   2   0   72840    1867   1
  -2   3   0   63939    1543  -2
  -3   2   0   63939    1543   1
  -2   2   0 1332340   32872  -2
  -2   2   0 1332340   32872   1
  -2   1   0   43940    1302  -2
  -1   2   0   43940    1302   1
  -2   0   0   14164     383  -2
   0   2   0   14164     383   1
  -2  -1   0  278950    8848  -2
   1   2   0  278950    8848   1
  -2  -2   0 1233683   27113  -2
   2   2   0 1233683   27113   1
  -2  -3   0    5665     370  -2
   3   2   0    5665     370   1
  -2  -4   0  113595    4060  -2
   4   2   0  113595    4060   1
  -2  -5   0    2917     312  -2
   5   2   0    2917     312   1
  -2  -6   0   97792    4554  -2
   6   2   0   97792    4554   1
   7   2   0   63560    3274   1
   8   2   0   10151    1448   1
   9   2   0    7453    1168   1
  10   2   0    7371    1366   1
  -9   3   0   53902    1792   1
  -8   3   0    8766     510   1
  -3   7   0   14384     600  -2
  -7   3   0   14384     600   1
  -3   6   0    6502     400  -2
  -6   3   0    6502     400   1
  -3   5   0   30989     911  -2
  -5   3   0   30989     911   1
  -3   4   0   88008    2084  -2
  -4   3   0   88008    2084   1
  -3   3   0  200179    4686  -2
  -3   3   0  200179    4686   1
  -3   2   0   60165    1762  -2
  -2   3   0   60165    1762   1
  -3   1   0  202119    5485  -2
  -1   3   0  202119    5485   1
  -3   0   0  171700    3702  -2
   0   3   0  171700    3702   1
  -3  -1   0  162089    3654  -2
   1   3   0  162089    3654   1
  -3  -2   0    6239     379  -2
   2   3   0    6239     379   1
  -3  -3   0 1013457   24819  -2
   3   3   0 1013457   24819   1
  -3  -4   0  196370    5528  -2
   4   3   0  196370    5528   1
  -3  -5   0    8228     518  -2
   5   3   0    8228     518   1
  -3  -7   0   12674    2386  -2
   7   3   0   12674    2386   1
   8   3   0    4623     921   1
   9   3   0    4393    1004   1
  10   3   0    4365     669   1
  -9   4   0   13543    1107   1
  -4   8   0   33897    1363  -2
  -8   4   0   33897    1363   1
  -4   7   0   12326    1006  -2
  -7   4   0   12326    1006   1
  -4   6   0     840     196  -2
  -6   4   0     840     196   1
  -4   5   0   13354     588  -2
  -5   4   0   13354     588   1
  -4   4   0   74468    2430  -2
  -4   4   0   74468    2430   1
  -4   3   0   90604    2618  -2
  -3   4   0   90604    2618   1
  -4   2   0   73542    2172  -2
  -2   4   0   73542    2172   1
  -4   1   0  211476    4942  -2
  -1   4   0  211476    4942   1
  -4   0   0  100309    2460  -2
   0   4   0  100309    2460   1
  -4  -1   0   50378    4253  -2
   1   4   0   50378    4253   1
  -4  -2   0  124111    3689  -2
   2   4   0  124111    3689   1
  -4  -3   0  193865    7719  -2
   3   4   0  193865    7719   1
  -4  -4   0   49070    3496  -2
   4   4   0   49070    3496   1
  -4  -5   0    5169     651  -2
   5   4   0    5169     651   1
  -4  -6   0     247     280  -2
   6   4   0     247     280   1
  -4  -7   0    8012    1168  -2
   7   4   0    8012    1168   1
  -4  -8   0    7009    1168  -2
   8   4   0    7009    1168   1
  -5   8   0   18009    1181  -2
  -8   5   0   18009    1181   1
  -5   7   0   40763    1766  -2
  -7   5   0   40763    1766   1
  -5   6   0     953     262  -2
  -6   5   0     953     262   1
  -5   5   0   17842     936  -2
  -5   5   0   17842     936   1
  -5   4   0   13916     645  -2
  -4   5   0   13916     645   1
  -5   3   0   29109     997  -2
  -3   5   0   29109     997   1
  -5   2   0    8928     512  -2
  -2   5   0    8928     512   1
  -5   1   0   31621     818  -2
  -1   5   0   31621     818   1
  -5   0   0   27384     728  -2
   0   5   0   27384     728   1
  -5  -1   0  100255    2469  -2
   1   5   0  100255    2469   1
  -5  -2   0    3663     278  -2
   2   5   0    3663     278   1
  -5  -4   0    8835     938  -2
   4   5   0    8835     938   1
  -5  -5   0   17571    1481  -2
   5   5   0   17571    1481   1
  -5  -6   0    7947    1102  -2
   6   5   0    7947    1102   1
  -5  -7   0    3307     757  -2
   7   5   0    3307     757   1
  -5  -8   0    2191     480  -2
   8   5   0    2191     480   1
   9   5   0    5265     905   1
  -6   8   0    2443     910  -2
  -8   6   0    2443     910   1
  -6   7   0    4296     650  -2
  -7   6   0    4296     650   1
  -6   6   0  185607    4947  -2
  -6   6   0  185607    4947   1
  -6   5   0     426     227  -2
  -5   6   0     426     227   1
  -6   4   0     874     243  -2
  -4   6   0     874     243   1
  -6   3   0    6526     487  -2
  -3   6   0    6526     487   1
  -6   2   0    4400     463  -2
  -2   6   0    4400     463   1
  -6   1   0  144168    4113  -2
  -1   6   0  144168    4113   1
   0   6   0   19224     584   1
  -6  -1   0   38017    1331  -2
   1   6   0   38017    1331   1
  -6  -2   0  111801    3408  -2
   2   6   0  111801    3408   1
  -6  -3   0   21917    1259  -2
   3   6   0   21917    1259   1
  -6  -4   0    3502     458  -2
   4   6   0    3502     458   1
  -6  -5   0   15554     970  -2
   5   6   0   15554     970   1
  -6  -6   0   11805    1119  -2
   6   6   0   11805    1119   1
  -6  -8   0    3932     921  -2
   8   6   0    3932     921   1
  -7   7   0    3046    1672  -2
  -7   7   0    3046    1672   1
  -7   6   0    2726     472  -2
  -6   7   0    2726     472   1
  -7   5   0   41503    1576  -2
  -5   7   0   41503    1576   1
  -7   4   0   14479     888  -2
  -4   7   0   14479     888   1
  -7   3   0   14130     705  -2
  -3   7   0   14130     705   1
  -2   7   0   47178    1490   1
  -1   7   0   20174    1026   1
   0   7   0   14413    1398   1
   1   7   0   38372    1399   1
   2   7   0   71788    2344   1
  -7  -3   0   12421     672  -2
   3   7   0   12421     672   1
  -7  -4   0    1217     526  -2
   4   7   0    1217     526   1
  -7  -5   0    5815     668  -2
   5   7   0    5815     668   1
  -7  -6   0   25246    1424  -2
   6   7   0   25246    1424   1
  -7  -7   0   71753    3164  -2
   7   7   0   71753    3164   1
  -8   6   0    1900     727  -2
  -6   8   0    1900     727   1
  -8   5   0   17452    1365  -2
  -5   8   0   17452    1365   1
  -8   4   0   26913    1104  -2
  -4   8   0   26913    1104   1
  -3   8   0    6473     591   1
  -2   8   0    4756    2410   1
  -1   8   0   11188    1349   1
   0   8   0   47548    3241   1
   1   8   0    6565    1135   1
   2   8   0   12705     946   1
   3   8   0    2332     343   1
  -8  -4   0    1353     395  -2
   4   8   0    1353     395   1
  -8  -5   0     306     228  -2
   5   8   0     306     228   1
  -8  -6   0   15367    2657  -2
   6   8   0   15367    2657   1
  -4   9   0    3789    2493   1
  -3   9   0   50000    3472   1
  -2   9   0   23099    2024   1
  -1   9   0    5232    1020   1
   0   9   0    8819    1349   1
   1   9   0     938     642   1
   2   9   0    6614    1201   1
   3   9   0     346     526   1
   4   9   0   13688     892   1
   5   9   0   22883    1141   1
  -2  10   0   31276    2632   1
  -1  10   0    1876     757   1
   0  10   0    1579     790   1
   1  10   0    1300     839   1
   2  10   0     609     740   1
   3  10   0    2945    1037   1
  10   2  -1   41263    3291  -2
  -2 -10   1   41263    3291   1
  10   1  -1    3899    1102  -2
  -1 -10   1    3899    1102   1
  10   0  -1   13327    1810  -2
   0 -10   1   13327    1810   1
  10  -1  -1   18822    1892  -2
   1 -10   1   18822    1892   1
  10  -2  -1   19908    2007  -2
   2 -10   1   19908    2007   1
   9   5  -1     481     289  -2
  -5  -9   1     481     289   1
   9   4  -1    8107     917  -2
  -4  -9   1    8107     917   1
   9   3  -1   11566    1596  -2
  -3  -9   1   11566    1596   1
   9   2  -1   18526    1876  -2
  -2  -9   1   18526    1876   1
   9   1  -1   17226    2007  -2
  -1  -9   1   17226    2007   1
   9   0  -1   12389    1662  -2
   0  -9   1   12389    1662   1
   9  -1  -1    5298    1069  -2
   1  -9   1    5298    1069   1
   9  -2  -1    3208     856  -2
   2  -9   1    3208     856   1
   9  -3  -1    7058    1201  -2
   3  -9   1    7058    1201   1
   9  -4  -1    4027    3389  -2
   4  -9   1    4027    3389   1
   8   6  -1    2386     823  -2
  -6  -8   1    2386     823   1
   8   5  -1    2336     474  -2
  -5  -8   1    2336     474   1
   8   4  -1   62078    2866  -2
  -4  -8   1   62078    2866   1
   8   3  -1   46106    1707  -2
  -3  -8   1   46106    1707   1
   8   2  -1   43172    3027  -2
  -2  -8   1   43172    3027   1
   8   1  -1   26505    2155  -2
  -1  -8   1   26505    2155   1
   8   0  -1   72013    4508  -2
   0  -8   1   72013    4508   1
   8  -1  -1   59756    3866  -2
   1  -8   1   59756    3866   1
   8  -2  -1   17477    1291  -2
   2  -8   1   17477    1291   1
   8  -3  -1    5530     519  -2
   3  -8   1    5530     519   1
   8  -4  -1   14564    1026  -2
   4  -8   1   14564    1026   1
   5  -8   1   12354    1985   1
   6  -8   1     687     688   1
   7   7  -1    6526    1209  -2
  -7  -7   1    6526    1209   1
   7   6  -1    9296    1333  -2
  -6  -7   1    9296    1333   1
   7   5  -1   18863    1133  -2
  -5  -7   1   18863    1133   1
   7   4  -1   42744    2106  -2
  -4  -7   1   42744    2106   1
   7   3  -1   17704    1021  -2
  -3  -7   1   17704    1021   1
   7   2  -1    7661    1282  -2
  -2  -7   1    7661    1282   1
   7   1  -1   36947    2254  -2
  -1  -7   1   36947    2254   1
   7   0  -1   11846    1382  -2
   0  -7   1   11846    1382   1
   7  -1  -1   33666    1265  -2
   1  -7   1   33666    1265   1
   7  -2  -1   11796     686  -2
   2  -7   1   11796     686   1
   7  -3  -1     515     247  -2
   3  -7   1     515     247   1
   4  -7   1   49589    1833   1
   5  -7   1   24470    1145   1
   6  -7   1   20055    1548   1
   7  -7   1    3200     963   1
   6   8  -1    6022    1267  -2
  -8  -6   1    6022    1267   1
   6   7  -1   17078    2007  -2
  -7  -6   1   17078    2007   1
   6   6  -1     740     444  -2
  -6  -6   1     740     444   1
   6   5  -1   10595    1349  -2
  -5  -6   1   10595    1349   1
   6   4  -1    7963    1086  -2
  -4  -6   1    7963    1086   1
   6   3  -1    4393     806  -2
  -3  -6   1    4393     806   1
   6   2  -1   10709     872  -2
  -2  -6   1   10709     872   1
   6   1  -1   69426    2006  -2
  -1  -6   1   69426    2006   1
   6   0  -1   50413    1448  -2
   0  -6   1   50413    1448   1
   6  -1  -1   47962    1600  -2
   1  -6   1   47962    1600   1
   6  -2  -1  104446    3400  -2
   2  -6   1  104446    3400   1
   3  -6   1   21185     900   1
   4  -6   1    3631     441   1
   5  -6   1    5146     457   1
   6  -6   1   15905    1201   1
   7  -6   1   18326    2106   1
   8  -6   1    -207     595   1
   5   9  -1     987     658  -2
  -9  -5   1     987     658   1
   5   8  -1    2139     740  -2
  -8  -5   1    2139     740   1
   5   7  -1   21907    1302  -2
  -7  -5   1   21907    1302   1
   5   6  -1    8141    1736  -2
  -6  -5   1    8141    1736   1
   5   5  -1   24911    2254  -2
  -5  -5   1   24911    2254   1
   5   4  -1   23822    1234  -2
  -4  -5   1   23822    1234   1
   5   3  -1    2789     452  -2
  -3  -5   1    2789     452   1
   5   2  -1  119935   12397  -2
  -2  -5   1  119935   12397   1
   5   1  -1  181000    4428  -2
  -1  -5   1  181000    4428   1
   5   0  -1  168195    3710  -2
   0  -5   1  168195    3710   1
   5  -1  -1   61342    1609  -2
   1  -5   1   61342    1609   1
   2  -5   1   53095    1682   1
   4  -5   1   18461     807   1
   5  -5   1   15507     615   1
   6  -5   1   14626     660   1
   7  -5   1    2243     427   1
   8  -5   1   32188    2610   1
   4   9  -1    8276    1349  -2
  -9  -4   1    8276    1349   1
   4   8  -1   61843    6030  -2
  -8  -4   1   61843    6030   1
   4   7  -1   41893    2443  -2
  -7  -4   1   41893    2443   1
   4   6  -1    6895     674  -2
  -6  -4   1    6895     674   1
   4   5  -1   23637    1018  -2
  -5  -4   1   23637    1018   1
   4   4  -1   45644    2405  -2
  -4  -4   1   45644    2405   1
   4   3  -1   19337    1059  -2
  -3  -4   1   19337    1059   1
   4   2  -1   57440    2107  -2
  -2  -4   1   57440    2107   1
   4   1  -1   93760    2362  -2
  -1  -4   1   93760    2362   1
   4   0  -1  186943    4563  -2
   0  -4   1  186943    4563   1
   4  -1  -1  147736    4698  -2
   1  -4   1  147736    4698   1
   2  -4   1   77295    1965   1
   3  -4   1   18336     618   1
   4  -4   1   58024    1578   1
   5  -4   1   55780    1507   1
   6  -4   1    5066     597   1
   7  -4   1   53607    1819   1
   8  -4   1    5033     606   1
   9  -4   1   28401    2326   1
   3   9  -1   14599    1407  -2
  -9  -3   1   14599    1407   1
   3   8  -1   43065    2706  -2
  -8  -3   1   43065    2706   1
   3   7  -1   18091    1716  -2
  -7  -3   1   18091    1716   1
   3   6  -1    4269     420  -2
  -6  -3   1    4269     420   1
   3   5  -1    3000     315  -2
  -5  -3   1    3000     315   1
   3   4  -1   20101     722  -2
  -4  -3   1   20101     722   1
   3   3  -1     279      75  -2
  -3  -3   1     279      75   1
   3   2  -1   38054     944  -2
  -2  -3   1   38054     944   1
   3   1  -1     925     202  -2
  -1  -3   1     925     202   1
   3   0  -1    5546     219  -2
   0  -3   1    5546     219   1
   1  -3   1   13732     455   1
   2  -3   1  132688    3132   1
   3  -3   1   34946    1090   1
   4  -3   1   49917    2471   1
   5  -3   1  110148    4310   1
   6  -3   1   44331    1924   1
   7  -3   1    8365     491   1
   8  -3   1   13987    1676   1
   9  -3   1   29424    2311   1
   2  10  -1   46841    3455  -2
 -10  -2   1   46841    3455   1
   2   9  -1   21095    2047  -2
  -9  -2   1   21095    2047   1
   2   8  -1   41860    1669  -2
  -8  -2   1   41860    1669   1
   2   7  -1    8268     620  -2
  -7  -2   1    8268     620   1
   2   6  -1   10937     590  -2
  -6  -2   1   10937     590   1
   2   5  -1  111311    2915  -2
  -5  -2   1  111311    2915   1
   2   4  -1   62643    1703  -2
  -4  -2   1   62643    1703   1
   2   3  -1   32276    1508  -2
  -3  -2   1   32276    1508   1
   2   2  -1  187103    5341  -2
  -2  -2   1  187103    5341   1
   2   1  -1  918160   44378  -2
  -1  -2   1  918160   44378   1
   2   0  -1   13238     518  -2
   0  -2   1   13238     518   1
   1  -2   1   96146    2592   1
   2  -2   1  192126    5929   1
   3  -2   1  254209    6047   1
   4  -2   1   64426    2434   1
   5  -2   1   40340    1688   1
   6  -2   1   18764     638   1
   7  -2   1   15208    2836   1
   8  -2   1     611     257   1
   9  -2   1   26175    1104   1
  10  -2   1    1446     627   1
   1  10  -1    4058     615  -2
 -10  -1   1    4058     615   1
   1   9  -1   15769    1640  -2
  -9  -1   1   15769    1640   1
   1   8  -1   26900    1060  -2
  -8  -1   1   26900    1060   1
   1   7  -1   34758    1348  -2
  -7  -1   1   34758    1348   1
   1   6  -1   63541    2160  -2
  -6  -1   1   63541    2160   1
   1   5  -1  164130    3793  -2
  -5  -1   1  164130    3793   1
   1   4  -1   92627    3359  -2
  -4  -1   1   92627    3359   1
   1   3  -1    2217     195  -2
  -3  -1   1    2217     195   1
   1   2  -1 1533634   44738  -2
  -2  -1   1 1533634   44738   1
   1   1  -1   31725    1141  -2
  -1  -1   1   31725    1141   1
   1   0  -1    6377     278  -2
   0  -1   1    6377     278   1
   1  -1   1  126761    4205   1
   2  -1   1  208031    4958   1
   3  -1   1   87828    1883   1
   4  -1   1  292124    9963   1
   5  -1   1     468     194   1
   6  -1   1    1685    1034   1
   7  -1   1    8577    1705   1
   8  -1   1   82479    2386   1
   9  -1   1    1171     542   1
  10  -1   1   22169    2425   1
   0  10  -1   15701    1189  -2
 -10   0   1   15701    1189   1
   0   9  -1   11255     885  -2
  -9   0   1   11255     885   1
   0   8  -1   69724    3014  -2
  -8   0   1   69724    3014   1
   0   7  -1   10399     842  -2
  -7   0   1   10399     842   1
   0   6  -1   48996    1176  -2
  -6   0   1   48996    1176   1
   0   4  -1  176969    4162  -2
  -4   0   1  176969    4162   1
   0   3  -1    4964     356  -2
  -3   0   1    4964     356   1
   0   2  -1   19014     864  -2
  -2   0   1   19014     864   1
   0   1  -1   12735     582  -2
  -1   0   1   12735     582   1
   1   0   1  166625    5246   1
   2   0   1    6289     342   1
   3   0   1  146346    5665   1
   4   0   1   10937     549   1
   5   0   1   42637    2248   1
   6   0   1   14954    1611   1
   7   0   1   75045    5236   1
   8   0   1   24946    2787   1
   9   0   1    2689     431   1
  10   0   1    4974     758   1
  -1  10  -1   25238    2000  -2
 -10   1   1   25238    2000   1
  -1   9  -1    5190     661  -2
  -9   1   1    5190     661   1
  -1   8  -1   57597    2164  -2
  -8   1   1   57597    2164   1
  -1   7  -1   35008     935  -2
  -7   1   1   35008     935   1
  -1   6  -1   53744    1185  -2
  -6   1   1   53744    1185   1
  -1   5  -1   67653    1415  -2
  -5   1   1   67653    1415   1
  -3   1   1   13520     492   1
  -2   1   1   91086    3376   1
  -1   1   1   85524    4400   1
   0   1   1  171906    5652   1
  -1  -1  -1   37532    1152  -2
   1   1   1   37532    1152   1
  -1  -2  -1 1320772   40455  -2
   2   1   1 1320772   40455   1
   3   1   1   28104    1843   1
   5   1   1   63689    3038   1
   6   1   1  154411    4751   1
   7   1   1   22401    1526   1
   8   1   1     493     290   1
   9   1   1    1153     438   1
  10   1   1     707     543   1
  -2  10  -1   22954    1399  -2
 -10   2   1   22954    1399   1
  -2   9  -1    3080     535  -2
  -9   2   1    3080     535   1
  -2   8  -1   18224     743  -2
  -8   2   1   18224     743   1
  -2   7  -1   14294     800  -2
  -7   2   1   14294     800   1
  -2   6  -1  105234    2159  -2
  -6   2   1  105234    2159   1
  -5   2   1   54451    1396   1
  -4   2   1   81873    1693   1
   0   2   1    9990     349   1
  -2  -1  -1 1552124   38909  -2
   1   2   1 1552124   38909   1
  -2  -2  -1   13756     364  -2
   2   2   1   13756     364   1
  -2  -3  -1   20341     609  -2
   3   2   1   20341     609   1
   4   2   1   10860     335   1
   5   2   1  221690    4665   1
   6   2   1   31321     809   1
   7   2   1   47232    3429   1
   8   2   1    1300     526   1
   9   2   1     313     285   1
  10   2   1    1669     446   1
  -3   9  -1    6957     803  -2
  -9   3   1    6957     803   1
  -3   8  -1    4810     618  -2
  -8   3   1    4810     618   1
  -3   7  -1     349     202  -2
  -7   3   1     349     202   1
  -6   3   1   19611     745   1
  -5   3   1  113204    3338   1
  -4   3   1   19159     636   1
  -3   3   1   40164    1029   1
   0   3   1   75403    4187   1
   1   3   1   78978    2716   1
  -3  -2  -1   52785    3450  -2
   2   3   1   52785    3450   1
  -3  -3  -1  126673    5687  -2
   3   3   1  126673    5687   1
  -3  -4  -1  115431    3291  -2
   4   3   1  115431    3291   1
   5   3   1   37291    1190   1
   6   3   1   21319    1744   1
   7   3   1   25452    1974   1
   8   3   1    -116     217   1
   9   3   1      54     283   1
  10   3   1     441     340   1
  -4   9  -1    5476     694  -2
  -9   4   1    5476     694   1
  -4   8  -1   12632     926  -2
  -8   4   1   12632     926   1
  -7   4   1   48759    1498   1
  -6   4   1    2560     302   1
  -5   4   1   16764     812   1
  -4   4   1   52586    1586   1
  -3   4   1   58199    1450   1
  -2   4   1   66402    1601   1
  -1   4   1  182266   12980   1
   0   4   1    7939     404   1
   1   4   1    9069     410   1
   2   4   1      16     165   1
  -4  -3  -1  170014    9561  -2
   3   4   1  170014    9561   1
   4   4   1   11402     552   1
   5   4   1   69676    3578   1
   6   4   1     365     220   1
   7   4   1    1092     304   1
   8   4   1    5431     663   1
   9   4   1   17709    1171   1
  -8   5   1   14429    1107   1
  -7   5   1   27441    1162   1
  -6   5   1    8357     612   1
  -5   5   1   15720     897   1
  -4   5   1   51210    1594   1
  -3   5   1  118256    3169   1
  -2   5   1   46388    1433   1
  -1   5   1     525     104   1
   0   5   1   42306    1082   1
   1   5   1   72297    1737   1
   2   5   1   60287    1923   1
   3   5   1     987     378   1
   4   5   1  169247    6311   1
   5   5   1   71707    2931   1
   6   5   1    5664    1045   1
   7   5   1    5624     672   1
   8   5   1   14021    1012   1
   9   5   1    6165     774   1
  -8   6   1    1466     452   1
  -7   6   1   15846    1050   1
  -6   6   1   18088     897   1
  -5   6   1    8426    1389   1
  -4   6   1    6286     584   1
  -3   6   1   45354    1448   1
  -2   6   1   17000     995   1
  -1   6   1    4665     434   1
   0   6   1   18105     590   1
   1   6   1   16310     861   1
   2   6   1    7069    1473   1
   3   6   1    2775     592   1
   4   6   1   15774    1744   1
   5   6   1   26913    1391   1
   6   6   1   11888     989   1
   7   6   1    5433     675   1
   8   6   1   22117    1347   1
  -7   7   1    3636     556   1
  -6   7   1    8136    1124   1
  -5   7   1    2615     390   1
  -4   7   1   53482    1727   1
  -3   7   1    2762     344   1
  -2   7   1   16146     836   1
  -1   7   1   11518     822   1
   0   7   1   66140    4080   1
   1   7   1   28046    1099   1
   2   7   1   25351    1504   1
   3   7   1   13103     688   1
   4   7   1    1059     255   1
   5   7   1    6182     549   1
   6   7   1   14602    1082   1
   7   7   1   16146    1703   1
   8   7   1    3569     660   1
  -6   8   1      32     317   1
  -5   8   1   28773    1576   1
  -4   8   1    5653     622   1
  -3   8   1   18257    1282   1
  -2   8   1    1415     609   1
  -1   8   1   43780    3044   1
   0   8   1   16584    1629   1
   1   8   1    -296     428   1
   2   8   1    1061     316   1
   3   8   1   16089     829   1
   4   8   1    3550     438   1
   5   8   1     265     245   1
   6   8   1    3259     475   1
   7   8   1   20431    1451   1
  -4   9   1   13952    3883   1
  -3   9   1   27805    2320   1
  -2   9   1    5972    1152   1
  -1   9   1    3932     938   1
   0   9   1      16     543   1
   1   9   1   10892    1530   1
   2   9   1    -214     526   1
   3   9   1    8147     865   1
   4   9   1    1463     422   1
   5   9   1    1709     496   1
  -2  10   1    1777     757   1
  -1  10   1   18575    1925   1
   0  10   1    -526     526   1
   1  10   1    4327    1086   1
   2  10   1     132     642   1
   3  10   1    -395     592   1
  10   2  -2    4212    1168  -2
  -2 -10   2    4212    1168   1
  10   1  -2   17308    2106  -2
  -1 -10   2   17308    2106   1
   0 -10   2   15021    1909   1
   1 -10   2     378     592   1
   9   5  -2     644     318  -2
  -5  -9   2     644     318   1
   9   4  -2    5117    1135  -2
  -4  -9   2    5117    1135   1
   9   3  -2    4311    1037  -2
  -3  -9   2    4311    1037   1
   9   2  -2    6466    1185  -2
  -2  -9   2    6466    1185   1
   9   1  -2    5545    1069  -2
  -1  -9   2    5545    1069   1
   0  -9   2  188481   10595   1
   1  -9   2   32839    2583   1
   2  -9   2    8407    1234   1
   4  -9   2   12850    2336   1
   8   6  -2    5553    1094  -2
  -6  -8   2    5553    1094   1
   8   5  -2   33972    2764  -2
  -5  -8   2   33972    2764   1
   8   4  -2    7027     767  -2
  -4  -8   2    7027     767   1
   8   3  -2    5241     814  -2
  -3  -8   2    5241     814   1
   8   2  -2   13672    1596  -2
  -2  -8   2   13672    1596   1
  -1  -8   2  134599    7733   1
   0  -8   2   10826    1366   1
   1  -8   2    8753    1201   1
   2  -8   2    5676     782   1
   3  -8   2    7261     610   1
   4  -8   2   18279    1232   1
   5  -8   2    8275    1031   1
   6  -8   2    1090     663   1
   7   7  -2      66     494  -2
  -7  -7   2      66     494   1
   7   6  -2    7140    1201  -2
  -6  -7   2    7140    1201   1
   7   5  -2   11879    1563  -2
  -5  -7   2   11879    1563   1
   7   4  -2   15679    1547  -2
  -4  -7   2   15679    1547   1
   7   3  -2    3258     675  -2
  -3  -7   2    3258     675   1
   7   2  -2   69263    2284  -2
  -2  -7   2   69263    2284   1
  -1  -7   2   35110    2468   1
   1  -7   2   43205    2863   1
   2  -7   2   50843    1770   1
   3  -7   2    9994     881   1
   4  -7   2    2582     494   1
   5  -7   2     741     389   1
   6  -7   2    2855     740   1
   7  -7   2    5153    1947   1
   6   8  -2    7404    1382  -2
  -8  -6   2    7404    1382   1
   6   7  -2    8195     924  -2
  -7  -6   2    8195     924   1
   6   6  -2    5828     691  -2
  -6  -6   2    5828     691   1
   6   5  -2   12310     934  -2
  -5  -6   2   12310     934   1
   6   4  -2   45601    2046  -2
  -4  -6   2   45601    2046   1
   6   2  -2   29057    1366  -2
  -2  -6   2   29057    1366   1
  -1  -6   2   43149    1623   1
   0  -6   2   23165    1991   1
   1  -6   2   13323    1053   1
   2  -6   2   34937    1286   1
   3  -6   2   67080    3059   1
   4  -6   2   13811     775   1
   5  -6   2   21610    1586   1
   6  -6   2    6605     812   1
   7  -6   2   18648    1930   1
   8  -6   2    4669    1550   1
   5   9  -2    1593     525  -2
  -9  -5   2    1593     525   1
   5   8  -2   33795    4253  -2
  -8  -5   2   33795    4253   1
   5   7  -2   11781    1018  -2
  -7  -5   2   11781    1018   1
   5   6  -2   10702    1859  -2
  -6  -5   2   10702    1859   1
   5   5  -2     665     278  -2
  -5  -5   2     665     278   1
   5   2  -2   38503    2287  -2
  -2  -5   2   38503    2287   1
  -1  -5   2   48654    1341   1
   0  -5   2   12948    1398   1
   1  -5   2   56749    3261   1
   2  -5   2   18846    1571   1
   3  -5   2   68045    2307   1
   4  -5   2   42043    4352   1
   5  -5   2    3492     332   1
   6  -5   2    2689     519   1
   7  -5   2    8681    1036   1
   8  -5   2    7952    1560   1
   4   9  -2    6603     872  -2
  -9  -4   2    6603     872   1
   4   8  -2    7300     847  -2
  -8  -4   2    7300     847   1
   4   7  -2   13789     977  -2
  -7  -4   2   13789     977   1
   4   6  -2   49731    2101  -2
  -6  -4   2   49731    2101   1
   4   5  -2   36994    1452  -2
  -5  -4   2   36994    1452   1
   4   4  -2    4657     412  -2
  -4  -4   2    4657     412   1
   4   3  -2    1078     188  -2
  -3  -4   2    1078     188   1
   4   2  -2   39687    1024  -2
  -2  -4   2   39687    1024   1
  -1  -4   2     751     159   1
   0  -4   2  132897    3655   1
   1  -4   2   66333    1732   1
   2  -4   2   15933    1028   1
   3  -4   2   87182   10793   1
   4  -4   2   24865    3891   1
   5  -4   2   26688    2631   1
   6  -4   2   18724     728   1
   7  -4   2     -70     215   1
   8  -4   2   19389    1123   1
   9  -4   2    1201    1260   1
   3   9  -2    4497     735  -2
  -9  -3   2    4497     735   1
   3   8  -2    7430     740  -2
  -8  -3   2    7430     740   1
   3   7  -2    7826     813  -2
  -7  -3   2    7826     813   1
   3   6  -2  310679    8779  -2
  -6  -3   2  310679    8779   1
   3   5  -2   21941    1026  -2
  -5  -3   2   21941    1026   1
   3   4  -2    3787     332  -2
  -4  -3   2    3787     332   1
   3   3  -2    3899     374  -2
  -3  -3   2    3899     374   1
  -1  -3   2   16444     682   1
   0  -3   2   42570    1830   1
   1  -3   2  157739    4178   1
   2  -3   2  247493    5789   1
   3  -3   2   17037    1043   1
   4  -3   2    2221     395   1
   5  -3   2   48006    1367   1
   6  -3   2   34187    1052   1
   7  -3   2   25303    2413   1
   8  -3   2    3044     432   1
   9  -3   2   14012    6030   1
   2  10  -2    4686     747  -2
 -10  -2   2    4686     747   1
   2   9  -2    6736    1111  -2
  -9  -2   2    6736    1111   1
   2   8  -2   11701     764  -2
  -8  -2   2   11701     764   1
   2   7  -2   73575    2410  -2
  -7  -2   2   73575    2410   1
   2   6  -2   27352    1090  -2
  -6  -2   2   27352    1090   1
   2   5  -2   42100    2607  -2
  -5  -2   2   42100    2607   1
   2   4  -2   28045    4738  -2
  -4  -2   2   28045    4738   1
   2   3  -2   31817    1146  -2
  -3  -2   2   31817    1146   1
   2   2  -2  258430   20737  -2
  -2  -2   2  258430   20737   1
   2   1  -2   31174    1124  -2
  -1  -2   2   31174    1124   1
   0  -2   2   23967     879   1
   1  -2   2  205522    4986   1
   2  -2   2   11477     394   1
   3  -2   2    6584     431   1
   4  -2   2     400     307   1
   5  -2   2   16150     493   1
   6  -2   2  153936    6908   1
   7  -2   2   56672    3034   1
   8  -2   2   17031     853   1
   9  -2   2     -14     261   1
  10  -2   2   11102    2137   1
   1  10  -2   17508    1166  -2
 -10  -1   2   17508    1166   1
   1   9  -2    7625     699  -2
  -9  -1   2    7625     699   1
  -8  -1   2  138934    4782   1
  -7  -1   2   29815    2000   1
  -6  -1   2   42283    3620   1
  -5  -1   2   52380    2565   1
  -4  -1   2   50161    1605   1
  -3  -1   2   26479    1838   1
   1   2  -2  308010    9046  -2
  -2  -1   2  308010    9046   1
   1   1  -2   11024     472  -2
  -1  -1   2   11024     472   1
   0  -1   2  467508   13158   1
   1  -1   2    8007     391   1
   2  -1   2    1759     133   1
   3  -1   2   26261     651   1
   4  -1   2   53139    1229   1
   5  -1   2    6608     378   1
   6  -1   2   55220    2636   1
   7  -1   2   23542     867   1
   9  -1   2    1264     311   1
  10  -1   2    3691    1005   1
 -10   0   2   15258    1762   1
  -9   0   2  182718    6199   1
  -8   0   2    9411    1438   1
  -7   0   2   50943    1602   1
  -6   0   2   33809    1180   1
  -5   0   2   34315     868   1
  -4   0   2  236102    5733   1
  -3   0   2  254814    5813   1
  -2   0   2  232189    5618   1
  -1   0   2  522490   12494   1
   0   0   2   37002    2632   1
   1   0   2    7653     463   1
   2   0   2      10      59   1
   3   0   2   33162    1333   1
   4   0   2  318775    8350   1
   5   0   2   24927     825   1
   6   0   2   57839    2077   1
   8   0   2   16555     950   1
   9   0   2   23908    1062   1
  10   0   2      -2     930   1
 -10   1   2     877     564   1
  -9   1   2   32202    1507   1
  -8   1   2   11359     736   1
  -7   1   2   88685    2523   1
  -6   1   2   18833     757   1
  -5   1   2   71242    2049   1
  -4   1   2   62580    2515   1
  -3   1   2  196936    6293   1
  -2   1   2  177314    6170   1
  -1   1   2   19141     601   1
   0   1   2    4106     276   1
   1   1   2    9756     403   1
   2   1   2   40648    1166   1
   3   1   2   20425     581   1
   4   1   2  116826    2787   1
   5   1   2   74633    1718   1
   6   1   2   10720     410   1
   7   1   2     364     252   1
   8   1   2   30958    1090   1
   9   1   2   32301    2279   1
  10   1   2    8539    1300   1
  -9   2   2   10408     919   1
  -8   2   2    3312     700   1
  -7   2   2   45409    2600   1
  -6   2   2   33204    1557   1
  -5   2   2   44187    1242   1
  -4   2   2   44343    1206   1
  -3   2   2  218926    9771   1
  -1   2   2    3735     298   1
   0   2   2   53453    1216   1
   1   2   2    3947     182   1
   2   2   2  154203    3119   1
   3   2   2   22070     644   1
   4   2   2   23875     642   1
   5   2   2   24654     639   1
   6   2   2    2366     206   1
   7   2   2    1024     205   1
   8   2   2   11741     820   1
   9   2   2   12018    1006   1
  10   2   2    -188     267   1
  -9   3   2   18429    1224   1
  -8   3   2    8033    1062   1
  -7   3   2   10619     888   1
  -6   3   2   65485    3528   1
  -5   3   2  125199    3443   1
  -4   3   2   90963    2236   1
  -3   3   2   45483    1195   1
  -2   3   2   16725     539   1
  -1   3   2   32587    1204   1
   0   3   2   58647    1292   1
   1   3   2   21189     516   1
   2   3   2    9113     318   1
   3   3   2  299475    7787   1
   4   3   2     993     117   1
   5   3   2    3656     244   1
   6   3   2   12082     732   1
   7   3   2  145258    5540   1
   8   3   2     532     285   1
   9   3   2    5284     684   1
  10   3   2    5703     720   1
  -9   4   2    7210    2376   1
  -8   4   2   12425    2657   1
  -7   4   2    3082     395   1
  -6   4   2    6982    1589   1
  -5   4   2   50138    1632   1
  -4   4   2   81404    2368   1
  -3   4   2   92412    2691   1
  -2   4   2    3945     299   1
  -1   4   2   28017    1519   1
   0   4   2  203455    6376   1
   1   4   2   74724    1765   1
   2   4   2   81389    1832   1
   3   4   2    8031     374   1
   4   4   2    1223     255   1
   5   4   2   32860    1509   1
   6   4   2     123     186   1
   7   4   2   39308    1852   1
   8   4   2   42832    2262   1
   9   4   2   38361    1931   1
  -8   5   2    1726     869   1
  -7   5   2    1029     450   1
  -6   5   2   27046    1098   1
  -5   5   2    2980     368   1
  -4   5   2   39551    1922   1
  -3   5   2   44835    3237   1
  -2   5   2    3076     332   1
  -1   5   2    2915     361   1
   1   5   2   21749     686   1
   2   5   2     278     139   1
   3   5   2    1868     243   1
   4   5   2   39370    1744   1
   5   5   2  163003    6149   1
   6   5   2   76821    3155   1
   7   5   2    9660    1456   1
   8   5   2   13813     991   1
   9   5   2    6315     798   1
  -8   6   2    1469     452   1
  -7   6   2    6502     736   1
  -6   6   2   10580     760   1
  -5   6   2    8606     731   1
  -4   6   2   15124    1783   1
  -3   6   2   30642    2539   1
  -2   6   2  133272    4781   1
  -1   6   2  114486    3052   1
   0   6   2    5673     363   1
   1   6   2    1429     227   1
   2   6   2     -42     204   1
   3   6   2    9375     549   1
   4   6   2    3498     380   1
   5   6   2   38616    1433   1
   6   6   2   18578    2945   1
   7   6   2   42091    2674   1
   8   6   2    7293    1366   1
  -7   7   2    1156     506   1
  -6   7   2    9201     902   1
  -5   7   2   12651    1180   1
  -4   7   2     230     239   1
  -3   7   2   26270    1598   1
  -2   7   2   80505    4154   1
  -1   7   2    4705     856   1
   0   7   2   28150    2139   1
   1   7   2    1126     244   1
   2   7   2    2316     315   1
   3   7   2   88945    2851   1
   4   7   2    4240     442   1
   5   7   2    5528     512   1
   6   7   2   74575    2522   1
   7   7   2   24483    1307   1
   8   7   2   15117    1290   1
  -6   8   2    2791     539   1
  -5   8   2   15518    1107   1
  -4   8   2    3897     440   1
  -3   8   2     322     444   1
  -2   8   2    5035     954   1
  -1   8   2   40342    2863   1
   0   8   2   10727    1382   1
   1   8   2    5758    1086   1
   2   8   2    7308     584   1
   3   8   2    4452     468   1
   4   8   2   15908     984   1
   5   8   2      85     252   1
   6   8   2    1103     321   1
   7   8   2   22521    1120   1
  -4   9   2    3093     921   1
  -3   9   2   18262    1810   1
  -2   9   2    1250     642   1
  -1   9   2    1398     675   1
   0   9   2     987     658   1
   1   9   2   12866    1695   1
   2   9   2   19973    2007   1
   3   9   2    1545     341   1
   4   9   2   17434    1116   1
   5   9   2   14408    1296   1
  -2  10   2   13261    1876   1
  -1  10   2    5215    1185   1
   0  10   2    1234     806   1
   1  10   2   15811    2073   1
   2  10   2   12965    1876   1
   3  10   2     675     806   1
   9   4  -3    -444     444  -2
  -4  -9   3    -444     444   1
  -3  -9   3   24893    2221   1
  -2  -9   3   20187    1941   1
  -1  -9   3     329     576   1
   8   6  -3   25534    2336  -2
  -6  -8   3   25534    2336   1
   8   5  -3   18197    1892  -2
  -5  -8   3   18197    1892   1
   8   4  -3   71322    4590  -2
  -4  -8   3   71322    4590   1
  -3  -8   3    1728     625   1
  -2  -8   3     790     510   1
  -1  -8   3   48947    3323   1
   0  -8   3  123641    7157   1
   1  -8   3    2188     658   1
   2  -8   3   14659    2238   1
   3  -8   3     878     442   1
   4  -8   3    1365     522   1
   5  -8   3    4088    3348   1
   7   7  -3    5082    1604  -2
  -7  -7   3    5082    1604   1
   7   6  -3   18215    1777  -2
  -6  -7   3   18215    1777   1
   7   4  -3   11328     877  -2
  -4  -7   3   11328     877   1
  -3  -7   3    9230    1250   1
  -2  -7   3      16     313   1
  -1  -7   3    3011     691   1
   0  -7   3   12092    1440   1
   1  -7   3   95624   15210   1
   2  -7   3    4943     486   1
   3  -7   3    7877    1378   1
   4  -7   3     384     297   1
   5  -7   3   49444    2826   1
   6  -7   3   10808    5232   1
   6   6  -3      36     273  -2
  -6  -6   3      36     273   1
   6   5  -3    1530     526  -2
  -5  -6   3    1530     526   1
   6   4  -3   24619    2377  -2
  -4  -6   3   24619    2377   1
  -3  -6   3   85886    3434   1
  -2  -6   3   19044    2279   1
  -1  -6   3    8014     538   1
   0  -6   3    3456     357   1
   1  -6   3   10649     592   1
   2  -6   3   10838     632   1
   3  -6   3    1026     295   1
   4  -6   3   11859    1072   1
   5  -6   3     772     581   1
   6  -6   3    5154    1083   1
   7  -6   3     487     378   1
   5   8  -3   22738    2122  -2
  -8  -5   3   22738    2122   1
   5   7  -3   61209    2752  -2
  -7  -5   3   61209    2752   1
   5   6  -3    7315    1966  -2
  -6  -5   3    7315    1966   1
   5   5  -3    6619     650  -2
  -5  -5   3    6619     650   1
   5   4  -3   79759    3223  -2
  -4  -5   3   79759    3223   1
  -3  -5   3   13510     937   1
  -2  -5   3   59453    1782   1
  -1  -5   3   47058    2412   1
   0  -5   3     444     116   1
   1  -5   3   14731     555   1
   2  -5   3   27917     978   1
   3  -5   3   57914    1630   1
   4  -5   3   28325    1346   1
   5  -5   3   16833     840   1
   6  -5   3    1156     844   1
   7  -5   3    1280    1715   1
   8  -5   3   16074    2698   1
   4   9  -3    -205     436  -2
  -9  -4   3    -205     436   1
   4   8  -3   80039   10242  -2
  -8  -4   3   80039   10242   1
   4   6  -3   16786    2369  -2
  -6  -4   3   16786    2369   1
   4   5  -3   18946    1030  -2
  -5  -4   3   18946    1030   1
  -4  -4   3   45797    1737   1
  -3  -4   3   85614    2460   1
  -2  -4   3     442     210   1
  -1  -4   3    1069     329   1
   0  -4   3   24126     648   1
   1  -4   3      38      65   1
   2  -4   3   19162     707   1
   3  -4   3    5642     355   1
   4  -4   3   51508    1464   1
   5  -4   3   51487    1718   1
   6  -4   3    1376     348   1
   7  -4   3    6102    1022   1
   8  -4   3   11563     983   1
   9  -4   3    4547    1731   1
  -9  -3   3   21487    2122   1
  -8  -3   3     736     328   1
  -7  -3   3   18348    1240   1
  -6  -3   3   25683    2336   1
  -5  -3   3   24125    1339   1
  -4  -3   3    4555     482   1
  -3  -3   3    2901     250   1
  -2  -3   3    5272     290   1
  -1  -3   3    2577     163   1
   0  -3   3  135625    2983   1
   1  -3   3  106386    2628   1
   2  -3   3   22649     729   1
   3  -3   3     251     107   1
   4  -3   3   47706    1341   1
   5  -3   3   33382    1029   1
   6  -3   3   32244    1897   1
   7  -3   3    2904     361   1
   8  -3   3     785     314   1
   9  -3   3   15207    1638   1
  -9  -2   3   20310    1918   1
  -8  -2   3     245     259   1
  -7  -2   3     953     309   1
  -6  -2   3   88498    2778   1
  -5  -2   3   32237    2258   1
  -4  -2   3  185060    5312   1
  -3  -2   3  104429    2838   1
  -2  -2   3   59905    1777   1
  -1  -2   3   64541    1539   1
   0  -2   3   71644    1643   1
   1  -2   3   12962     429   1
   2  -2   3   18262     563   1
   3  -2   3   24633     831   1
   4  -2   3    3021     170   1
   5  -2   3   31951    1047   1
   6  -2   3   10632     896   1
   7  -2   3    7979     533   1
   8  -2   3   21985    1080   1
   9  -2   3     -11     258   1
  -9  -1   3    4333     616   1
  -8  -1   3   39575    5577   1
  -7  -1   3     446     563   1
  -6  -1   3    3797     753   1
  -5  -1   3  246028    7645   1
  -4  -1   3  118416    3103   1
  -3  -1   3    2597     200   1
  -2  -1   3    3603     218   1
  -1  -1   3  534842   14857   1
   0  -1   3  141446    3478   1
   1  -1   3   47239    1385   1
   2  -1   3   48830    1250   1
   3  -1   3   60312    1256   1
   4  -1   3      36     144   1
   5  -1   3      66     329   1
   6  -1   3    2472     264   1
   7  -1   3  164617    4729   1
   8  -1   3   29886    1245   1
   9  -1   3    5047     536   1
  10  -1   3     555     631   1
 -10   0   3    2989    1247   1
  -9   0   3   22990    1341   1
  -8   0   3  112885    7302   1
  -7   0   3    8077     779   1
  -6   0   3    3942     407   1
  -5   0   3    1228     224   1
  -4   0   3   56405    1589   1
  -3   0   3   54627    1470   1
  -2   0   3     697     134   1
  -1   0   3    3508     240   1
   0   0   3    6939     360   1
   1   0   3   71554    1921   1
   2   0   3    6076     359   1
   3   0   3    9333     334   1
   4   0   3    5035     285   1
   5   0   3    3763     262   1
   6   0   3   16834     599   1
   7   0   3   17547     615   1
   8   0   3   13843     684   1
   9   0   3    7719    5923   1
  -9   1   3   18312    6532   1
  -8   1   3   38529    1464   1
  -7   1   3  124035    6880   1
  -6   1   3   25278    1778   1
  -5   1   3     759     220   1
  -4   1   3    3098     280   1
  -3   1   3  282077    7028   1
  -2   1   3  121691    3350   1
  -1   1   3  190158    5806   1
   0   1   3     433     123   1
   1   1   3   67583    2038   1
   2   1   3    7658     267   1
   3   1   3   79600    1925   1
   4   1   3   36068     981   1
   5   1   3   59683    1537   1
   6   1   3   24874     783   1
   7   1   3    1603     233   1
   8   1   3    1333     233   1
   9   1   3   15827    1349   1
  -9   2   3   14319    1113   1
  -8   2   3    5720    2231   1
  -7   2   3    3266     375   1
  -6   2   3   11199    1080   1
  -5   2   3   89591    2989   1
  -4   2   3   60975    1938   1
  -3   2   3   26692     936   1
  -2   2   3  193780    4959   1
  -1   2   3  431170   12964   1
   0   2   3   55777    1383   1
   1   2   3    8295     327   1
   2   2   3   31709     832   1
   3   2   3  140043    3301   1
   4   2   3     119      79   1
   5   2   3   18241     555   1
   6   2   3   18700     600   1
   7   2   3   14953     705   1
   8   2   3   16189     986   1
   9   2   3    9841     884   1
  10   2   3   14067    1547   1
  -9   3   3   27873    1693   1
  -8   3   3   10612    1097   1
  -7   3   3    7407    1344   1
  -6   3   3   55049    1776   1
  -5   3   3   14844    3554   1
  -4   3   3    3023     322   1
  -3   3   3     207     100   1
  -2   3   3   78180    1959   1
  -1   3   3  178118    4179   1
   0   3   3    4189     245   1
   1   3   3    4341     212   1
   2   3   3   32747     803   1
   3   3   3   78560    1779   1
   4   3   3   32032     790   1
   5   3   3   18458     653   1
   6   3   3   22408     904   1
   7   3   3   17367     817   1
   8   3   3    4838     592   1
   9   3   3    6067     732   1
  -9   4   3    3964     652   1
  -8   4   3   15927    1094   1
  -7   4   3    2011     376   1
  -6   4   3    1389     595   1
  -5   4   3   22800    1211   1
  -4   4   3   32673    1135   1
  -3   4   3   93840    3588   1
  -2   4   3    7878     564   1
  -1   4   3     148      98   1
   0   4   3    2416     191   1
   1   4   3     435      93   1
   2   4   3   45293    1170   1
   3   4   3   11622     440   1
   4   4   3    4398     464   1
   5   4   3     -25     157   1
   6   4   3    5287     445   1
   7   4   3     -15     206   1
   8   4   3     736     320   1
   9   4   3    7231     768   1
  -8   5   3    3366     544   1
  -7   5   3   17119    2534   1
  -6   5   3    4197     467   1
  -5   5   3    1253     375   1
  -4   5   3   47525    1947   1
  -3   5   3  107746    2693   1
  -2   5   3    4969     354   1
  -1   5   3    8066     332   1
   0   5   3    9797     357   1
   1   5   3  180206    4747   1
   2   5   3   76558    2399   1
   3   5   3   29030    1070   1
   4   5   3     944     196   1
   5   5   3    4130     380   1
   6   5   3   55913    2426   1
   7   5   3     773     302   1
   8   5   3   13836    1579   1
   9   5   3   12428    1209   1
  -8   6   3    7663     835   1
  -7   6   3    5008     618   1
  -6   6   3    2643     421   1
  -5   6   3    9050     665   1
  -4   6   3    2596     370   1
  -2   6   3   37722    1292   1
  -1   6   3   14773     550   1
   0   6   3     -75     120   1
   1   6   3   63204    2064   1
   2   6   3   57159    1902   1
   3   6   3   21487     900   1
   4   6   3    4680     429   1
   5   6   3   33178    1277   1
   6   6   3       5     185   1
   7   6   3    3359     413   1
   8   6   3   19094    1251   1
  -7   7   3     271     338   1
  -6   7   3    1427     416   1
  -5   7   3   14587    1114   1
  -4   7   3    2080     478   1
  -3   7   3    1880     392   1
  -2   7   3   27246    1076   1
  -1   7   3   43896    2961   1
   0   7   3    4843     530   1
   1   7   3      17     314   1
   2   7   3   21380     933   1
   3   7   3    8071     590   1
   4   7   3    1829     308   1
   5   7   3    3936     441   1
   6   7   3    1330     312   1
   7   7   3    7995     677   1
  -6   8   3     710     370   1
  -4   8   3   11813    1086   1
  -3   8   3    2879     806   1
  -2   8   3    3389     856   1
  -1   8   3   13360    1612   1
   0   8   3   40572    2929   1
   1   8   3    4749     581   1
   2   8   3    4400     464   1
   3   8   3   13470     786   1
   4   8   3   10233     752   1
   5   8   3   27693    1218   1
   6   8   3    6450     624   1
  -4   9   3   11829    1728   1
  -3   9   3    3472     938   1
  -2   9   3     740     675   1
  -1   9   3    3044     872   1
   0   9   3   10842    1563   1
   1   9   3    7289    1300   1
   2   9   3    6252    1168   1
   3   9   3    1412     317   1
   4   9   3   24118    1365   1
   5   9   3   10320     811   1
  -2  10   3    4459    1152   1
  -1  10   3    3307     987   1
   0  10   3    2188     905   1
   1  10   3    4771    1185   1
   2  10   3     691     773   1
   3  10   3     181     707   1
  -3  -9   4   20500    2007   1
  -2  -9   4    1678     773   1
  -1  -9   4    6532    1366   1
  -5  -8   4     138     576   1
  -4  -8   4    5348     676   1
  -3  -8   4    2106     740   1
  -2  -8   4    -378     378   1
  -1  -8   4   14133    1464   1
   2  -8   4    1267     987   1
   3  -8   4   26439    2978   1
   4  -8   4     961     642   1
   5  -8   4    8572    2057   1
  -6  -7   4    7494     826   1
  -5  -7   4   49873    2346   1
  -4  -7   4    7806     777   1
  -3  -7   4     159     237   1
  -2  -7   4    2057     625   1
  -1  -7   4    3323     740   1
   0  -7   4   10293    1003   1
   1  -7   4   18723    2188   1
   2  -7   4   43775    1953   1
   3  -7   4     622     316   1
   4  -7   4    2357     526   1
   5  -7   4    9009     850   1
   6  -7   4   25182    1684   1
  -7  -6   4    4657     847   1
  -6  -6   4   18213    1201   1
  -5  -6   4   33126    1683   1
  -4  -6   4   26008    1382   1
  -3  -6   4     937     292   1
  -2  -6   4    6630     553   1
  -1  -6   4   11370     656   1
   0  -6   4   54583    2074   1
   1  -6   4   10581     646   1
   2  -6   4   11568     675   1
   3  -6   4   28663    1141   1
   4  -6   4    4096     511   1
   5  -6   4    2259     369   1
   6  -6   4    4864     648   1
   7  -6   4   58350    2996   1
  -8  -5   4    -289     289   1
  -7  -5   4    4205    1102   1
  -6  -5   4     526     302   1
  -5  -5   4   22172    1231   1
  -4  -5   4    5777     598   1
  -3  -5   4    6314     575   1
  -2  -5   4    8271     532   1
  -1  -5   4    1014     168   1
   0  -5   4   85007    1962   1
   1  -5   4   21652     740   1
   2  -5   4   56964    1611   1
   3  -5   4   20628     879   1
   4  -5   4   21662     931   1
   5  -5   4    1309    2849   1
   6  -5   4    8312     859   1
   7  -5   4    4611    1535   1
   8  -5   4   10541    1136   1
  -8  -4   4   13082    2978   1
  -7  -4   4    7625     921   1
  -6  -4   4    8228     715   1
  -5  -4   4    5383     533   1
  -4  -4   4    1783     304   1
  -3  -4   4    7963     440   1
  -2  -4   4   98099    3130   1
  -1  -4   4   14061     491   1
   0  -4   4   22912     635   1
   1  -4   4     909     122   1
   2  -4   4   12784     579   1
   3  -4   4     542     176   1
   4  -4   4   28435    1085   1
   5  -4   4   61603    1933   1
   7  -4   4    2100    2926   1
  -9  -3   4    7505    2312   1
  -8  -3   4    2993     554   1
  -7  -3   4   14936     993   1
  -6  -3   4   35137    1344   1
  -5  -3   4   10628     950   1
  -4  -3   4     538     178   1
  -3  -3   4   30493    1221   1
  -2  -3   4  288860    7010   1
  -1  -3   4  238678    5165   1
   0  -3   4    1779     144   1
   1  -3   4     893     110   1
   2  -3   4   47428    1141   1
   3  -3   4   99230    2533   1
   4  -3   4   13217     617   1
   6  -3   4   48388    1598   1
   7  -3   4   14171     834   1
   8  -3   4    2789    4276   1
   9  -3   4    8600    1026   1
  -9  -2   4   11324    1127   1
  -8  -2   4    4902     568   1
  -7  -2   4     971     314   1
  -6  -2   4    2957     425   1
  -5  -2   4   11332     644   1
  -4  -2   4    1725     250   1
  -3  -2   4  158241    3739   1
  -2  -2   4    8329     428   1
  -1  -2   4   14164     489   1
   0  -2   4   20218     574   1
   1  -2   4   63319    1449   1
   2  -2   4     142      85   1
   3  -2   4   95488    2556   1
   4  -2   4   31894     936   1
   5  -2   4   45858    1502   1
   6  -2   4  102432    3772   1
   7  -2   4   16406     892   1
   8  -2   4    1207     779   1
   9  -2   4    1285     417   1
  -9  -1   4    5823    1040   1
  -8  -1   4    5936     786   1
  -7  -1   4     792     312   1
  -6  -1   4   17753    1035   1
  -5  -1   4    6311     483   1
  -4  -1   4  103195    2755   1
  -3  -1   4   24064     723   1
  -2  -1   4   33903     918   1
  -1  -1   4   99289    3375   1
   0  -1   4     -19      65   1
   1  -1   4  144082    3474   1
   2  -1   4   32019    1181   1
   3  -1   4    1306     148   1
   5  -1   4   37515    1749   1
   6  -1   4    2121     673   1
   8  -1   4   11184     868   1
   9  -1   4    1235     598   1
  -9   0   4    3523     589   1
  -8   0   4    8940     711   1
  -7   0   4    1236     651   1
  -6   0   4    6851     577   1
  -5   0   4   44875    1532   1
  -4   0   4     134     115   1
  -3   0   4  333279    7582   1
  -2   0   4   21883     749   1
  -1   0   4   12993     460   1
   0   0   4   29002     911   1
   1   0   4  266443   11736   1
   2   0   4  437207   11220   1
   3   0   4    2500     173   1
   4   0   4    3293     170   1
   5   0   4    9026     386   1
   6   0   4   15234     563   1
   7   0   4    2299     427   1
   8   0   4   18494    1168   1
   9   0   4   17468     915   1
  -9   1   4   29034    1309   1
  -8   1   4     825     613   1
  -7   1   4    1032     270   1
  -6   1   4   19203    1544   1
  -5   1   4    6914     547   1
  -4   1   4   22599     816   1
  -3   1   4   96623    2565   1
  -2   1   4     474     127   1
  -1   1   4   32115    1132   1
   0   1   4  121702    3437   1
   1   1   4  353349    9360   1
   2   1   4  183595    4303   1
   3   1   4    1661     193   1
   4   1   4   42364     995   1
   5   1   4    4386     288   1
   6   1   4    6520     380   1
   7   1   4      75     128   1
   8   1   4   21747    1058   1
   9   1   4   17423    1464   1
  -9   2   4    4469     709   1
  -8   2   4    3589     620   1
  -7   2   4   10510    1091   1
  -6   2   4   17266    1582   1
  -5   2   4  100973    3084   1
  -4   2   4     629     265   1
  -3   2   4    1267     200   1
  -2   2   4   55163    1869   1
  -1   2   4  165514    4626   1
   0   2   4   27322     979   1
   1   2   4   26782     827   1
   2   2   4   42708    1106   1
   3   2   4   32814     887   1
   4   2   4   30506     936   1
   5   2   4    5515     332   1
   6   2   4    2492     256   1
   7   2   4   10318     566   1
   8   2   4    8853    1324   1
   9   2   4    9608    1168   1
  -9   3   4      -7     367   1
  -8   3   4   25913    1969   1
  -7   3   4   63218    2325   1
  -6   3   4   32095    1241   1
  -5   3   4    3670     406   1
  -4   3   4     -70     116   1
  -2   3   4   44404    1428   1
  -1   3   4     225     140   1
   0   3   4  177645    4272   1
   1   3   4   93595    2334   1
   2   3   4    2148     169   1
   3   3   4   55693    1417   1
   4   3   4   59910    1644   1
   5   3   4   48170    1219   1
   6   3   4     639     216   1
   7   3   4    1405     265   1
   8   3   4     268     238   1
   9   3   4    2846     691   1
  -8   4   4    2146     491   1
  -7   4   4   17648    1963   1
  -6   4   4   22151    1218   1
  -5   4   4    4124     431   1
  -4   4   4   49480    1590   1
  -3   4   4   46162    1310   1
  -2   4   4     248     168   1
  -1   4   4   53650    1685   1
   0   4   4  226781    5450   1
   1   4   4    4868     300   1
   2   4   4   43694    1159   1
   3   4   4   23790     768   1
   4   4   4  113777    3429   1
   5   4   4  149075    4438   1
   6   4   4     510     156   1
   7   4   4    4552     443   1
   8   4   4    5229     616   1
   9   4   4     678     313   1
  -8   5   4    8544     836   1
  -7   5   4   14958    1948   1
  -6   5   4    6806     635   1
  -5   5   4    9538     854   1
  -4   5   4   43018    1567   1
  -3   5   4   33545    1014   1
  -2   5   4   51138    1510   1
  -1   5   4    3051     271   1
   0   5   4   19239     595   1
   1   5   4   32689    1170   1
   2   5   4    2067     268   1
   3   5   4    6361     457   1
   4   5   4  100143    3098   1
   5   5   4     853     215   1
   6   5   4     212     155   1
   7   5   4     360     188   1
   8   5   4     457     334   1
   9   5   4    3267     406   1
  -7   6   4    1019     397   1
  -6   6   4    2784     497   1
  -5   6   4    2641     383   1
  -4   6   4   69458    2157   1
  -3   6   4   40338    1850   1
  -2   6   4  103337    2644   1
  -1   6   4    7356     502   1
   0   6   4    1129     229   1
   1   6   4    2309     293   1
   2   6   4    8564     549   1
   3   6   4   27511    1090   1
   4   6   4   18991     849   1
   5   6   4    1015     246   1
   6   6   4    6058     513   1
   7   6   4   21415     984   1
   8   6   4    8211     658   1
  -6   7   4   19698    1408   1
  -5   7   4     311     260   1
  -4   7   4    6743     590   1
  -3   7   4    2400     498   1
  -2   7   4   15865    1177   1
  -1   7   4   20697    1760   1
   0   7   4     623     285   1
   1   7   4     211     191   1
   2   7   4   51185    1801   1
   3   7   4   29698    1194   1
   4   7   4   41565    1676   1
   5   7   4     820     238   1
   6   7   4   13602     788   1
   7   7   4   30945    1314   1
  -5   8   4   12563    1126   1
  -4   8   4   22141    1585   1
  -3   8   4   13475    1662   1
  -2   8   4    9032    1333   1
  -1   8   4     197     461   1
   0   8   4     -49     411   1
   1   8   4     331     254   1
   2   8   4     588     237   1
   3   8   4   31381    1298   1
   4   8   4   33832    1386   1
   5   8   4     391     259   1
   6   8   4    3554     477   1
  -4   9   4    1382     740   1
  -3   9   4    5627    1135   1
  -2   9   4    1826     757   1
  -1   9   4    5265    1069   1
   0   9   4     395     543   1
   1   9   4    6285    1250   1
   2   9   4    1632     444   1
   3   9   4   16672     953   1
   4   9   4     419     285   1
   5   9   4    3599     521   1
  -2  10   4     806     691   1
  -1  10   4   18262    2254   1
   0  10   4     477     691   1
   1  10   4    4722    1152   1
   2  10   4      16     658   1
   3  10   4    -115     658   1
  -5  -8   5    -308     308   1
  -4  -8   5    1398     642   1
  -3  -8   5    8555    1300   1
  -2  -8   5   26143    2139   1
   1  -8   5    2978    1168   1
   2  -8   5    2616    1201   1
   3  -8   5   19644    2583   1
   4  -8   5    2402    1250   1
  -6  -7   5    2530     512   1
  -5  -7   5    7236     796   1
  -4  -7   5     146     264   1
  -3  -7   5    3109     494   1
  -2  -7   5   21388    1793   1
  -1  -7   5   19463    1645   1
   0  -7   5     115     559   1
   1  -7   5    4031    1234   1
   2  -7   5   13393    1296   1
   3  -7   5   25519    1115   1
   4  -7   5    1959     518   1
   5  -7   5   28958    1796   1
   6  -7   5    -246     376   1
  -7  -6   5     173     378   1
  -6  -6   5   10934    1514   1
  -5  -6   5     769     331   1
  -4  -6   5    7641     738   1
  -3  -6   5    1949     375   1
  -2  -6   5   10798     669   1
  -1  -6   5    8115     836   1
   0  -6   5   19803    1305   1
   1  -6   5    1586     269   1
   2  -6   5    3724     654   1
   3  -6   5    2881     376   1
   4  -6   5    1956     352   1
   5  -6   5    3555     554   1
   6  -6   5    9208    1101   1
   7  -6   5    3943     924   1
  -8  -5   5    3331     664   1
  -7  -5   5    7369    1448   1
  -6  -5   5    7213     987   1
  -5  -5   5    1955     407   1
  -4  -5   5   18866     959   1
  -3  -5   5   24447    1096   1
  -2  -5   5    1287     354   1
  -1  -5   5   16569     681   1
   0  -5   5    3429     289   1
   1  -5   5   45164    1517   1
   2  -5   5   80254    2477   1
   3  -5   5   25235    1032   1
   4  -5   5   24855    1040   1
   5  -5   5    5004     503   1
   6  -5   5   11785     938   1
   7  -5   5   48156    5446   1
  -8  -4   5    2787     526   1
  -7  -4   5    1683     384   1
  -6  -4   5    1046     304   1
  -5  -4   5     250     248   1
  -4  -4   5   35457    1470   1
  -3  -4   5   42218    1833   1
  -2  -4   5     391     147   1
  -1  -4   5    1323     147   1
   0  -4   5   29981     802   1
   1  -4   5  177785    4331   1
   2  -4   5   21875     873   1
   3  -4   5   68517    2144   1
   4  -4   5   11907     872   1
   5  -4   5   12351     937   1
   6  -4   5   32910    1307   1
   7  -4   5     693     294   1
   8  -4   5   17550    1913   1
  -9  -3   5    -287     287   1
  -8  -3   5    1122     397   1
  -7  -3   5    1923     363   1
  -6  -3   5    2990     503   1
  -5  -3   5    1139     271   1
  -4  -3   5    7366    1137   1
  -3  -3   5   19893     910   1
  -2  -3   5   50940    1430   1
  -1  -3   5     195      81   1
   0  -3   5      44      74   1
   1  -3   5   74657    1739   1
   2  -3   5   33541     975   1
   3  -3   5   10112     563   1
   4  -3   5   96601    2866   1
   5  -3   5  149039    4255   1
   6  -3   5   10780     636   1
   7  -3   5     272     256   1
   8  -3   5    6338     817   1
   9  -3   5    1481    1382   1
  -9  -2   5    5993     741   1
  -8  -2   5   13525    1244   1
  -7  -2   5   15494     976   1
  -6  -2   5     548     230   1
  -5  -2   5    5451     479   1
  -4  -2   5   34647    1261   1
  -3  -2   5   87923    3443   1
  -2  -2   5    4606     401   1
  -1  -2   5  200912    4336   1
   0  -2   5    3758     207   1
   1  -2   5   96758    2183   1
   2  -2   5    1533     173   1
   3  -2   5   45691    1263   1
   4  -2   5    4563     384   1
   5  -2   5  120544    3525   1
   7  -2   5    6788     887   1
   8  -2   5    2425     470   1
   9  -2   5     662    1783   1
  -9  -1   5    3812     589   1
  -8  -1   5   23367    1347   1
  -7  -1   5   21167    1205   1
  -6  -1   5    2087     404   1
  -5  -1   5     767     216   1
  -4  -1   5    2528     300   1
  -3  -1   5   25640    1246   1
  -2  -1   5   77090    2092   1
  -1  -1   5   46221    1373   1
   0  -1   5  241969    5211   1
   1  -1   5   17649     573   1
   2  -1   5      -6      92   1
   3  -1   5  295238    7027   1
   4  -1   5   93046    2374   1
   5  -1   5   41947    1209   1
   7  -1   5     874    1093   1
   8  -1   5   17613     861   1
   9  -1   5    3973    1406   1
  -9   0   5    -330     330   1
  -8   0   5    7377     669   1
  -7   0   5   20119     979   1
  -6   0   5   32711    1286   1
  -5   0   5   13180     895   1
  -4   0   5     -23     122   1
  -3   0   5    3389     371   1
  -2   0   5   65730    1942   1
  -1   0   5   19747     656   1
   0   0   5  112941    3204   1
   1   0   5   16684     774   1
   2   0   5  204322    5370   1
   3   0   5   26906    1206   1
   4   0   5   79153    1988   1
   5   0   5   24918     896   1
   6   0   5    1558     181   1
   7   0   5   46966    1512   1
   8   0   5   15518     736   1
   9   0   5    1876     807   1
  -9   1   5    8699     792   1
  -8   1   5    3574     482   1
  -7   1   5    2789     406   1
  -6   1   5    8539    1081   1
  -5   1   5   16939     782   1
  -4   1   5     380     159   1
  -3   1   5   45236    1338   1
  -2   1   5    3328     361   1
  -1   1   5   15747     667   1
   0   1   5   11487     539   1
   1   1   5     134     102   1
   2   1   5   58341    1705   1
   3   1   5   33853     962   1
   4   1   5    1249     126   1
   5   1   5    1039     135   1
   6   1   5   11865     443   1
   7   1   5    8128     545   1
   8   1   5    2276     398   1
   9   1   5    7206    1037   1
  -9   2   5   33575    1833   1
  -8   2   5    7893     760   1
  -7   2   5   16457     896   1
  -6   2   5   13130     749   1
  -5   2   5    9901     771   1
  -4   2   5   55200    1981   1
  -3   2   5   12669     526   1
  -2   2   5   70144    2905   1
  -1   2   5   46730    1620   1
   0   2   5   80891    2381   1
   1   2   5     658     170   1
   2   2   5  202903    4783   1
   3   2   5  206026    6649   1
   4   2   5   99356    2178   1
   5   2   5      70      89   1
   6   2   5   54623    1375   1
   7   2   5    9845     470   1
   8   2   5    9302    1596   1
   9   2   5     752     302   1
  -9   3   5     530     416   1
  -8   3   5   28071    2870   1
  -7   3   5    7253     815   1
  -6   3   5     819     538   1
  -5   3   5   72591    2350   1
  -4   3   5    5354     433   1
  -3   3   5   33027    1180   1
  -2   3   5    3735     336   1
  -1   3   5  101157    2964   1
   0   3   5   47305    1633   1
   1   3   5     407     120   1
   2   3   5   94753    2330   1
   3   3   5  157830    3770   1
   4   3   5   15341     564   1
   5   3   5   24103     711   1
   6   3   5     -41     110   1
   7   3   5   24097     815   1
   8   3   5   15164     720   1
   9   3   5    -147     173   1
  -8   4   5     406     432   1
  -7   4   5   16140    2152   1
  -6   4   5      42     287   1
  -5   4   5   42685    1546   1
  -4   4   5   83717    2629   1
  -3   4   5   38663    1365   1
  -2   4   5    9363     528   1
  -1   4   5   35801    1266   1
   0   4   5   25720     994   1
   1   4   5    8037     410   1
   2   4   5   12941     518   1
   3   4   5    2015     215   1
   4   4   5     210     138   1
   5   4   5     -22     132   1
   6   4   5    8534     522   1
   7   4   5     307     161   1
   8   4   5     582     245   1
   9   4   5     991     271   1
  -8   5   5    2635     621   1
  -7   5   5   13822    1427   1
  -6   5   5   44983    1832   1
  -5   5   5     691     303   1
  -4   5   5   14718     750   1
  -3   5   5  113753    3430   1
  -2   5   5    2547     568   1
  -1   5   5   27979    1036   1
   0   5   5     354     156   1
   1   5   5   11757     589   1
   2   5   5   57753    1904   1
   3   5   5      14     149   1
   4   5   5    3711     475   1
   5   5   5   75162    2428   1
   6   5   5   76708    2488   1
   7   5   5   12283     609   1
   8   5   5     760     246   1
  -7   6   5     740     395   1
  -6   6   5   27125    1510   1
  -5   6   5   10862     952   1
  -4   6   5   64414    2059   1
  -3   6   5   30150    1245   1
  -2   6   5   66508    1940   1
  -1   6   5   34203    1430   1
   0   6   5    1526     270   1
   1   6   5   13390     829   1
   2   6   5     -26     160   1
   3   6   5    9087     614   1
   4   6   5   14173     718   1
   5   6   5   64787    2192   1
   6   6   5   33019    1307   1
   7   6   5    3726     475   1
   8   6   5    -193     193   1
  -6   7   5    5451    1162   1
  -5   7   5     407     291   1
  -4   7   5     -76     232   1
  -3   7   5     -80     359   1
  -2   7   5      82     329   1
  -1   7   5   12502     889   1
   0   7   5   43311    1963   1
   1   7   5    7359     577   1
   2   7   5   41219    1525   1
   3   7   5     578     247   1
   4   7   5     525     240   1
   5   7   5    1585     319   1
   6   7   5    1774     356   1
   7   7   5    1884     365   1
  -5   8   5    8381    1072   1
  -4   8   5   15745    1909   1
  -3   8   5   15860    1859   1
  -2   8   5    4459     987   1
  -1   8   5   27163    2270   1
   0   8   5   17249    1085   1
   1   8   5    3730     557   1
   2   8   5    2826     391   1
   3   8   5     669     278   1
   4   8   5    5358     560   1
   5   8   5    5024     546   1
   6   8   5     958     447   1
  -4   9   5      33     592   1
  -3   9   5   17588    1892   1
  -2   9   5   10595    1612   1
  -1   9   5   17407    1859   1
   0   9   5    4047    1004   1
   1   9   5   13014    1678   1
   2   9   5    6789     802   1
   3   9   5    -212     212   1
   4   9   5    7077     665   1
   5   9   5   17950    1005   1
  -1  10   5    5857    1283   1
   0  10   5    1514     823   1
   1  10   5    -214     510   1
   2  10   5     938     790   1
  -4  -8   6    7190    1234   1
   1  -8   6   19760    2978   1
   2  -8   6     592     823   1
   3  -8   6    -691     691   1
  -5  -7   6    1258     401   1
  -4  -7   6   11858    1769   1
  -3  -7   6     115     444   1
  -1  -7   6    6729    1547   1
   0  -7   6     543     740   1
   1  -7   6     -16     642   1
   2  -7   6     120     213   1
   3  -7   6   10319    1054   1
   4  -7   6   19697    1190   1
   5  -7   6    3643     773   1
  -6  -6   6    1494     921   1
  -5  -6   6     329     403   1
  -4  -6   6     119     229   1
  -3  -6   6    2192     391   1
  -2  -6   6    -123     181   1
  -1  -6   6   12520    1991   1
   0  -6   6   58111    2938   1
   1  -6   6   10037     698   1
   2  -6   6     682     249   1
   3  -6   6   20651     973   1
   4  -6   6   21924    1034   1
   5  -6   6    7437     781   1
   6  -6   6    3259     722   1
  -7  -5   6     630     355   1
  -6  -5   6     741     354   1
  -5  -5   6    4324     740   1
  -4  -5   6    -127     175   1
  -3  -5   6    5112     862   1
  -2  -5   6      22     165   1
  -1  -5   6   58306    2159   1
   0  -5   6   34747    1383   1
   1  -5   6     951     230   1
   2  -5   6     420     213   1
   3  -5   6     543     233   1
   4  -5   6   67290    2365   1
   5  -5   6     503     261   1
   6  -5   6     873     424   1
   7  -5   6    4946     795   1
  -8  -4   6      94     312   1
  -7  -4   6    1916     469   1
  -6  -4   6    2189     423   1
  -5  -4   6   11440    1145   1
  -4  -4   6   11828     775   1
  -3  -4   6    1133     223   1
  -2  -4   6    7608     478   1
  -1  -4   6    2257     259   1
   0  -4   6   12324     509   1
   1  -4   6    -117     117   1
   2  -4   6   23790     954   1
   3  -4   6     211     177   1
   4  -4   6     186     193   1
   5  -4   6    1851     325   1
   6  -4   6    2531     441   1
   7  -4   6    5863    2705   1
   8  -4   6     348     666   1
  -8  -3   6    2262     493   1
  -7  -3   6    9047     749   1
  -6  -3   6   11589    1080   1
  -5  -3   6   36067    1376   1
  -4  -3   6   52536    2019   1
  -3  -3   6   33931    1196   1
  -2  -3   6    1693     242   1
  -1  -3   6    2651     201   1
   0  -3   6    1354     175   1
   1  -3   6    4612     311   1
   2  -3   6   72269    1913   1
   3  -3   6   92357    2904   1
   4  -3   6   37073    1338   1
   5  -3   6     990     264   1
   6  -3   6    5155     487   1
   7  -3   6    9515     860   1
   8  -3   6     251     937   1
  -8  -2   6   17720    1325   1
  -7  -2   6     454     282   1
  -6  -2   6    3080     425   1
  -5  -2   6   37679    1628   1
  -4  -2   6    6787     540   1
  -3  -2   6   12899     703   1
  -2  -2   6     704     164   1
  -1  -2   6     640     107   1
   0  -2   6    3493     215   1
   1  -2   6   33158    1088   1
   2  -2   6  122894    3073   1
   3  -2   6   86920    2244   1
   4  -2   6   17881     780   1
   5  -2   6    1741     285   1
   6  -2   6     148     248   1
   7  -2   6   78965    2529   1
   8  -2   6    4674    1376   1
   9  -2   6    1052     447   1
  -9  -1   6    -273     273   1
  -8  -1   6    -161     364   1
  -7  -1   6    3488     551   1
  -6  -1   6    7989     832   1
  -5  -1   6    9514     620   1
  -4  -1   6   10220     620   1
  -3  -1   6    9537     524   1
  -2  -1   6    7599     329   1
  -1  -1   6   16846     627   1
   0  -1   6    5337     264   1
   1  -1   6    2226     208   1
   2  -1   6     861     149   1
   3  -1   6   27432     860   1
   4  -1   6       0     111   1
   5  -1   6   21908     762   1
   6  -1   6   16505     775   1
   7  -1   6   10296     653   1
   8  -1   6   11494     922   1
   9  -1   6    1791     502   1
  -9   0   6    1276     479   1
  -8   0   6    4887     573   1
  -7   0   6   37213    1837   1
  -6   0   6   13248     769   1
  -5   0   6   18880     876   1
  -4   0   6     475     181   1
  -3   0   6    7830     496   1
  -2   0   6   52950    1526   1
  -1   0   6   91291    2930   1
   0   0   6   19479     647   1
   1   0   6   27777     736   1
   2   0   6   11612     458   1
   3   0   6     999     179   1
   4   0   6   15101     637   1
   5   0   6   88508    2568   1
   6   0   6   68791    2095   1
   7   0   6     369     374   1
   8   0   6    1490     374   1
   9   0   6   15158    1233   1
  -9   1   6    1607     421   1
  -8   1   6    3493     493   1
  -7   1   6    5074     548   1
  -6   1   6   38714    1483   1
  -5   1   6   53039    1831   1
  -4   1   6   13782     678   1
  -3   1   6    7349     579   1
  -2   1   6  155994    4363   1
  -1   1   6   53333    1509   1
   0   1   6    5789     709   1
   1   1   6   57811    2706   1
   2   1   6   23434     801   1
   3   1   6    3949     251   1
   4   1   6  112261    3117   1
   5   1   6   11093     443   1
   6   1   6   59314    1879   1
   7   1   6   17380     622   1
   8   1   6   16468     897   1
   9   1   6   19807    1752   1
  -8   2   6   11528     853   1
  -7   2   6     976     296   1
  -6   2   6   16672     880   1
  -5   2   6    6916     541   1
  -4   2   6     428     174   1
  -3   2   6    4878     475   1
  -2   2   6   47987    2466   1
  -1   2   6   15143     692   1
   0   2   6      98     134   1
   1   2   6   24253     976   1
   2   2   6   16754     651   1
   3   2   6     307     104   1
   4   2   6   12889     429   1
   5   2   6   27820     971   1
   6   2   6   47852    1427   1
   7   2   6     986     194   1
   8   2   6   14027     647   1
   9   2   6   15948     720   1
  -8   3   6   14933    1355   1
  -7   3   6   11285     756   1
  -6   3   6    3825     443   1
  -5   3   6     488     194   1
  -4   3   6   32546    1234   1
  -3   3   6   22445     916   1
  -2   3   6   27088    1750   1
  -1   3   6    1084     211   1
   0   3   6    2900     293   1
   1   3   6   24261    1001   1
   2   3   6    3728     278   1
   3   3   6    4529     309   1
   4   3   6   29580     943   1
   5   3   6   14380     512   1
   6   3   6   23509     917   1
   7   3   6    1794     257   1
   8   3   6    7525     500   1
   9   3   6    7210     762   1
  -8   4   6    4498     864   1
  -7   4   6    9711    1248   1
  -6   4   6     261     309   1
  -5   4   6   27461    1153   1
  -4   4   6   36351    1361   1
  -3   4   6   46914    1619   1
  -2   4   6   47815    1606   1
  -1   4   6    7147     483   1
   0   4   6   10695     580   1
   1   4   6  105737    2959   1
   2   4   6   11916     511   1
   3   4   6   10124     474   1
   4   4   6  167198    5353   1
   5   4   6    6486     467   1
   6   4   6    1472     221   1
   7   4   6   24293     989   1
   8   4   6   11106     662   1
  -7   5   6    2443     588   1
  -6   5   6     684     415   1
  -5   5   6    1788     441   1
  -4   5   6    1458     384   1
  -3   5   6   44509    1567   1
  -2   5   6   83755    2606   1
  -1   5   6    7336     517   1
   0   5   6   17531    1662   1
   1   5   6    6886     501   1
   2   5   6   35120    1281   1
   3   5   6   21633     909   1
   4   5   6       0     152   1
   5   5   6   10055     600   1
   6   5   6    9354     598   1
   7   5   6     558     226   1
   8   5   6   10469     805   1
  -7   6   6    2456     784   1
  -6   6   6    9731    1081   1
  -5   6   6   12203    4408   1
  -4   6   6    3437     618   1
  -3   6   6   18404     863   1
  -2   6   6    2925     415   1
  -1   6   6   25001    1297   1
   0   6   6   17269    1045   1
   1   6   6     -17     233   1
   2   6   6    6174     664   1
   3   6   6    5289     473   1
   4   6   6     464     213   1
   5   6   6   12504     703   1
   6   6   6    3078     382   1
   7   6   6    3006     344   1
  -6   7   6     732     447   1
  -5   7   6   12035    3290   1
  -4   7   6   12158    3578   1
  -3   7   6    1481     625   1
  -2   7   6   39931    2846   1
  -1   7   6     166     264   1
   0   7   6   96827    3882   1
   1   7   6    6842     572   1
   2   7   6   16599     861   1
   3   7   6   19424     920   1
   4   7   6   18358     909   1
   5   7   6    -181     181   1
   6   7   6    3512     545   1
   7   7   6   15186     893   1
  -5   8   6    2089     773   1
  -4   8   6    4014    1053   1
  -3   8   6    5693    1152   1
  -2   8   6    3142     888   1
  -1   8   6   48601    3422   1
   0   8   6   17966    1818   1
   1   8   6   11566     992   1
   2   8   6    4844     665   1
   3   8   6    -193     193   1
   4   8   6    2070     365   1
   5   8   6    2461     422   1
   6   8   6      44     261   1
  -3   9   6    9658    1612   1
  -2   9   6    1497     691   1
  -1   9   6    5051    1119   1
   0   9   6      49     494   1
   1   9   6   55718    2593   1
   2   9   6   26704    1567   1
   3   9   6    4943     551   1
   4   9   6     304     286   1
   1  -8   7     543     938   1
   2  -8   7   36081    3883   1
  -4  -7   7     625     428   1
  -1  -7   7    -263     675   1
   0  -7   7    -263     724   1
   1  -7   7    6384    1695   1
   2  -7   7   31097    1464   1
   3  -7   7    8569     804   1
   4  -7   7     -14     592   1
  -6  -6   7   22248    1966   1
  -5  -6   7   16290    1114   1
  -4  -6   7    3268     510   1
  -3  -6   7    2378     515   1
  -2  -6   7   38762    3735   1
  -1  -6   7    7223    1678   1
   0  -6   7    3659     710   1
   1  -6   7     408     429   1
   2  -6   7   14258    1353   1
   3  -6   7   14425     940   1
   4  -6   7    3712     552   1
   5  -6   7    5125     793   1
   6  -6   7    1246    1135   1
  -6  -5   7    5798     729   1
  -5  -5   7   38792    2674   1
  -4  -5   7    2613     413   1
  -3  -5   7   11712     747   1
  -2  -5   7    1710     411   1
  -1  -5   7   56555    2158   1
   0  -5   7    1553     502   1
   1  -5   7    3852     582   1
   2  -5   7     575     240   1
   3  -5   7   12986     784   1
   4  -5   7    2182     394   1
   5  -5   7   11306    1207   1
   6  -5   7     681     448   1
   7  -5   7     -39     376   1
  -7  -4   7    4305     667   1
  -6  -4   7   70917    2763   1
  -5  -4   7      11     228   1
  -4  -4   7    3950     489   1
  -3  -4   7  122781    3600   1
  -2  -4   7   26999    1045   1
  -1  -4   7   16027     849   1
   0  -4   7   10611     689   1
   1  -4   7   14042     793   1
   2  -4   7   36914    1385   1
   3  -4   7    2119     334   1
   4  -4   7     373     216   1
   5  -4   7   65527    2346   1
   6  -4   7   28787    1461   1
   7  -4   7     359     378   1
  -8  -3   7    3047     538   1
  -7  -3   7     481     298   1
  -6  -3   7    6478     614   1
  -5  -3   7     -46     193   1
  -4  -3   7  157594    5299   1
  -3  -3   7   53450    1751   1
  -2  -3   7   16814     733   1
  -1  -3   7    3756     368   1
   0  -3   7    4787     334   1
   1  -3   7   30012     947   1
   2  -3   7    4357     848   1
   3  -3   7    7151     555   1
   4  -3   7   18466     862   1
   5  -3   7   14835    1070   1
   6  -3   7    2310     457   1
   7  -3   7     572     502   1
   8  -3   7    4070     839   1
  -8  -2   7   30506    1413   1
  -7  -2   7    -232     232   1
  -6  -2   7    5149     558   1
  -5  -2   7    2374     425   1
  -4  -2   7   91392    2887   1
  -3  -2   7   19413     941   1
  -2  -2   7     214     147   1
  -1  -2   7    5548     302   1
   0  -2   7      94     108   1
   1  -2   7   55524    1536   1
   2  -2   7   10001     470   1
   3  -2   7    9898     481   1
   4  -2   7   14497     735   1
   5  -2   7    5320     485   1
   6  -2   7    3145     432   1
   7  -2   7    3643     542   1
   8  -2   7    4821     823   1
  -8  -1   7    1216     466   1
  -7  -1   7     867     451   1
  -6  -1   7   51394    2247   1
  -5  -1   7     221     281   1
  -4  -1   7   45875    1613   1
  -3  -1   7   71935    5524   1
  -2  -1   7   91251    3130   1
  -1  -1   7     -76      97   1
   0  -1   7   42694    1221   1
   1  -1   7   71406    1887   1
   2  -1   7    2561     248   1
   3  -1   7   13957     562   1
   4  -1   7   53157    1515   1
   5  -1   7    7401     564   1
   6  -1   7    2776     418   1
   7  -1   7    5470     632   1
   8  -1   7    1875     458   1
  -8   0   7    1001     344   1
  -7   0   7   15584    1472   1
  -6   0   7   14570    1147   1
  -5   0   7    3542     420   1
  -4   0   7   41714    1503   1
  -3   0   7   94573    2896   1
  -2   0   7    8932     803   1
  -1   0   7   18918     742   1
   0   0   7   10086     540   1
   1   0   7    2275     237   1
   2   0   7    5211     356   1
   3   0   7    5155     351   1
   4   0   7   24983     838   1
   5   0   7   17331     673   1
   6   0   7     -63     139   1
   7   0   7    3607     435   1
   8   0   7   64953    2826   1
   9   0   7    3850     839   1
  -8   1   7     327     302   1
  -7   1   7     -15     191   1
  -6   1   7    3768     475   1
  -5   1   7    7968     620   1
  -4   1   7    1786     302   1
  -3   1   7     324     167   1
  -2   1   7   12207     557   1
  -1   1   7    4006     310   1
   0   1   7   34871    1323   1
   1   1   7   15224     613   1
   2   1   7   14197     758   1
   3   1   7    1600     246   1
   4   1   7   11002     574   1
   5   1   7      27     161   1
   6   1   7   15611     729   1
   7   1   7    1318     313   1
   8   1   7    2484     675   1
   9   1   7    3455     773   1
  -8   2   7     778     324   1
  -7   2   7      42     264   1
  -6   2   7    8260     684   1
  -5   2   7   29939    1225   1
  -4   2   7   10271     913   1
  -3   2   7   12390     651   1
  -2   2   7    7305     582   1
  -1   2   7  168949    4842   1
   0   2   7  146296    4730   1
   1   2   7   15014     631   1
   2   2   7    5041     345   1
   3   2   7    6955     610   1
   4   2   7    7112     479   1
   5   2   7     799     170   1
   6   2   7   11528     710   1
   7   2   7   20203     847   1
   8   2   7    6063     472   1
   9   2   7    3172     413   1
  -8   3   7    3386     671   1
  -7   3   7    6586     656   1
  -6   3   7     216     201   1
  -5   3   7     457     221   1
  -4   3   7   46862    1676   1
  -3   3   7   14584     736   1
  -2   3   7   37733    1462   1
  -1   3   7   66989    2311   1
   0   3   7   99965    2981   1
   1   3   7   59563    2132   1
   2   3   7   13717     621   1
   3   3   7    2501     237   1
   4   3   7   28846    1833   1
   5   3   7    2929     289   1
   6   3   7     755     310   1
   7   3   7   29965    1172   1
   8   3   7    9358     625   1
  -7   4   7    6304    1698   1
  -6   4   7   35582    1444   1
  -5   4   7    3495     430   1
  -4   4   7   21373     963   1
  -3   4   7    3330     379   1
  -2   4   7    1503     272   1
  -1   4   7    1677     325   1
   0   4   7   10575     877   1
   1   4   7     313     210   1
   2   4   7     160     128   1
   3   4   7    3705     322   1
   4   4   7   28002    1081   1
   5   4   7    9699     692   1
   6   4   7      -8     179   1
   7   4   7   13008     722   1
   8   4   7    4565     448   1
  -7   5   7    5472     816   1
  -6   5   7    3506     933   1
  -5   5   7    4857     611   1
  -4   5   7   10704     694   1
  -3   5   7    7718     597   1
  -2   5   7   30671    1359   1
  -1   5   7   37844    3489   1
   0   5   7    1816     341   1
   1   5   7    6803     506   1
   2   5   7   16088     895   1
   3   5   7  106412    3318   1
   4   5   7     219     199   1
   5   5   7   15520     763   1
   6   5   7     468     263   1
   7   5   7    3919     419   1
   8   5   7   23966    1062   1
  -6   6   7     253     360   1
  -5   6   7      18     328   1
  -4   6   7     459     323   1
  -3   6   7     317     219   1
  -2   6   7   34115    1488   1
  -1   6   7   31893    1571   1
   0   6   7   34197    1666   1
   1   6   7   17869     834   1
   2   6   7   35278    1356   1
   3   6   7   15442     787   1
   4   6   7    6952     570   1
   5   6   7     346     229   1
   6   6   7    -129     247   1
   7   6   7    3996     455   1
  -5   7   7     372     411   1
  -4   7   7   12450    1305   1
  -3   7   7     428     444   1
  -2   7   7    3252     510   1
  -1   7   7   24533    1346   1
   0   7   7   10686    2024   1
   1   7   7    7945     609   1
   2   7   7     827     300   1
   3   7   7   24251    1083   1
   4   7   7    5695     655   1
   5   7   7    3464     491   1
   6   7   7     244     235   1
  -4   8   7    1481     724   1
  -3   8   7   14133    1793   1
  -2   8   7    -181     461   1
  -1   8   7    4854     971   1
   0   8   7   26341    1485   1
   1   8   7    3248     545   1
   2   8   7    8136     659   1
   3   8   7    -184     228   1
   4   8   7   12905     872   1
   5   8   7    9583     775   1
  -2   9   7     971     658   1
  -1   9   7   12899    1695   1
   0   9   7    -181     510   1
   1   9   7   36716    1911   1
   2   9   7   19449    1364   1
   3   9   7    3171     538   1
  -1  -7   8     707     938   1
   0  -7   8    4294    1579   1
   1  -7   8    7815    1925   1
   2  -7   8     230    1020   1
   3  -7   8     171     576   1
  -5  -6   8     263     428   1
  -4  -6   8   28068    2073   1
  -3  -6   8   47741    2479   1
  -2  -6   8    4738    1547   1
  -1  -6   8     -16     856   1
   0  -6   8    6598    1695   1
   1  -6   8    7783    1076   1
   2  -6   8     147     236   1
   3  -6   8     798     323   1
   4  -6   8   17689    3776   1
   5  -6   8    2857    1078   1
  -6  -5   8     491     337   1
  -5  -5   8   62412    2789   1
  -4  -5   8     -45     325   1
  -3  -5   8   19839    1329   1
  -2  -5   8    4780     659   1
  -1  -5   8    2218     605   1
   0  -5   8    2989     979   1
   1  -5   8    7694     684   1
   2  -5   8   14209    1341   1
   3  -5   8   35026    1641   1
   4  -5   8   17236    1072   1
   5  -5   8    1435     938   1
   6  -5   8    5438     837   1
  -6  -4   8   19934    1189   1
  -5  -4   8   45633    1946   1
  -4  -4   8    7526     689   1
  -3  -4   8   15668    1165   1
  -2  -4   8     -32     225   1
  -1  -4   8   31354    1396   1
   0  -4   8     340     206   1
   1  -4   8    3376     400   1
   2  -4   8     923     264   1
   3  -4   8   17265     876   1
   4  -4   8    2849     417   1
   5  -4   8     281     276   1
   6  -4   8    2483     905   1
   7  -4   8     454     399   1
  -7  -3   8    -154     287   1
  -6  -3   8    8631     809   1
  -5  -3   8    4606     580   1
  -4  -3   8    1692     438   1
  -3  -3   8   16145     777   1
  -2  -3   8    2597     419   1
  -1  -3   8   57487    2196   1
   0  -3   8  141277    3563   1
   1  -3   8    1079     202   1
   2  -3   8    1524     289   1
   3  -3   8    2483     370   1
   4  -3   8    7240     607   1
   5  -3   8    4638     511   1
   6  -3   8    6133     705   1
   7  -3   8    2893     856   1
  -7  -2   8   17669    1069   1
  -6  -2   8    1382     439   1
  -5  -2   8   12446     846   1
  -4  -2   8   32674    1710   1
  -3  -2   8    1968     336   1
  -2  -2   8  159594   11974   1
  -1  -2   8   37775    2148   1
   0  -2   8   35742    1106   1
   1  -2   8     -29     118   1
   2  -2   8   11227     538   1
   3  -2   8    4329     429   1
   4  -2   8   16953     857   1
   5  -2   8      -4     188   1
   6  -2   8   11033     937   1
   7  -2   8   21669    1510   1
   8  -2   8    2360     597   1
  -8  -1   8   11798    1186   1
  -7  -1   8    2554     534   1
  -6  -1   8      -2     262   1
  -5  -1   8    3661     560   1
  -4  -1   8    6241    1192   1
  -3  -1   8   39111    2048   1
  -2  -1   8   33540    1784   1
  -1  -1   8   10318     496   1
   0  -1   8   17872     667   1
   1  -1   8   13931     619   1
   2  -1   8   27599     912   1
   3  -1   8    4063     343   1
   4  -1   8    4223     359   1
   5  -1   8    4577     558   1
   6  -1   8    1447     337   1
   7  -1   8   14057    1211   1
   8  -1   8     364     428   1
  -8   0   8    -185     298   1
  -7   0   8     850     438   1
  -6   0   8    2131     403   1
  -5   0   8    6762     575   1
  -4   0   8    4485     458   1
  -3   0   8    2701     427   1
  -2   0   8   41746    1809   1
  -1   0   8    9298     639   1
   0   0   8   60874    1998   1
   1   0   8     198     138   1
   2   0   8   64872    2503   1
   3   0   8   17933     986   1
   4   0   8    1177     220   1
   5   0   8    -110     142   1
   6   0   8      68     190   1
   7   0   8     637     324   1
   8   0   8    -197     428   1
  -8   1   8    8726     905   1
  -7   1   8    1117     354   1
  -6   1   8    1639     358   1
  -5   1   8    3054     636   1
  -4   1   8   30360    1309   1
  -3   1   8   46912    1628   1
  -2   1   8  108316    4457   1
  -1   1   8  106266    3168   1
   0   1   8     262     142   1
   1   1   8   52200    1999   1
   2   1   8   58111    2193   1
   3   1   8   45617    1492   1
   4   1   8   20372     850   1
   5   1   8    2520     327   1
   6   1   8    4393     432   1
   7   1   8    3556     566   1
   8   1   8     214     461   1
  -8   2   8    9331     817   1
  -7   2   8    5916     628   1
  -6   2   8    1788     364   1
  -5   2   8    1552     322   1
  -4   2   8     690     283   1
  -3   2   8    9890     635   1
  -2   2   8     275     176   1
  -1   2   8   30086    1120   1
   0   2   8   18061     849   1
   1   2   8    1575     228   1
   2   2   8   37143    1543   1
   3   2   8    7313     622   1
   4   2   8    3715     379   1
   5   2   8    3429     413   1
   6   2   8    1049     284   1
   7   2   8     864     340   1
   8   2   8    1022     390   1
  -7   3   8     109     256   1
  -6   3   8   22997    1190   1
  -5   3   8    9400     707   1
  -4   3   8   14120     989   1
  -3   3   8   12395     777   1
  -2   3   8   13359     893   1
  -1   3   8     790     214   1
   0   3   8   21201     988   1
   1   3   8   17776     854   1
   2   3   8   61135    1929   1
   3   3   8     105     207   1
   4   3   8    8604     805   1
   5   3   8    5350     407   1
   6   3   8    8305     575   1
   7   3   8     -33     194   1
   8   3   8     -89     200   1
  -7   4   8    1354     534   1
  -6   4   8    2546     415   1
  -5   4   8     180     209   1
  -4   4   8   14250     959   1
  -3   4   8    3702     437   1
  -2   4   8   10382     656   1
  -1   4   8    5324     539   1
   0   4   8   43112    1700   1
   1   4   8   82909    2918   1
   2   4   8   57412    2019   1
   3   4   8    3941     541   1
   4   4   8   23478    1171   1
   5   4   8   17807     979   1
   6   4   8   26679    1941   1
   7   4   8    2895     377   1
   8   4   8    1861     335   1
  -6   5   8   17214    1950   1
  -5   5   8   45707    1755   1
  -4   5   8     -66     209   1
  -3   5   8    9699    1014   1
  -2   5   8    -138     180   1
  -1   5   8    1601     600   1
   0   5   8     775     276   1
   1   5   8   50205    2210   1
   2   5   8   15707     814   1
   3   5   8   14758     748   1
   4   5   8    2824     864   1
   5   5   8   19706    1096   1
   6   5   8   10572     817   1
   7   5   8     513     254   1
  -6   6   8    -219     413   1
  -5   6   8   12643    4080   1
  -4   6   8     121     221   1
  -3   6   8    1290     342   1
  -2   6   8     394     345   1
  -1   6   8    9919     854   1
   0   6   8    6803     749   1
   1   6   8    4958     614   1
   2   6   8     -82     194   1
   3   6   8     150     199   1
   4   6   8    1163     283   1
   5   6   8    2084     417   1
   6   6   8    1517     401   1
   7   6   8    1272     344   1
  -5   7   8    1358     612   1
  -4   7   8    3339     782   1
  -3   7   8    5248    1086   1
  -2   7   8      22     243   1
  -1   7   8   16518    1374   1
   0   7   8    3021     880   1
   1   7   8    8915     855   1
   2   7   8    2632     450   1
   3   7   8    8166     670   1
   4   7   8   18588    1151   1
   5   7   8   11424     975   1
   6   7   8     373     312   1
  -3   8   8    3718     987   1
  -2   8   8    2748     856   1
  -1   8   8      -1     295   1
   0   8   8    6939     802   1
   1   8   8    6143     765   1
   2   8   8     381     348   1
   3   8   8     771     315   1
   4   8   8   23771    1157   1
  -1   9   8     543     543   1
   0   9   8    3784     987   1
   1   9   8     173    1168   1
   2   9   8    1582     716   1
  -1  -7   9   16124    2797   1
   0  -7   9   21635    3356   1
   1  -7   9     444    1069   1
  -4  -6   9    5972    1020   1
  -3  -6   9      33     971   1
  -2  -6   9    3175    1382   1
  -1  -6   9    8983    2139   1
   0  -6   9    1201    1152   1
   1  -6   9    1019     614   1
   2  -6   9   18572    1804   1
   3  -6   9    2312     578   1
   4  -6   9   19025    1493   1
  -5  -5   9   28653    1941   1
  -4  -5   9    2338     658   1
  -3  -5   9    2311     532   1
  -2  -5   9   16891    1245   1
  -1  -5   9   13557    1411   1
   0  -5   9     -56     413   1
   1  -5   9    9014    1192   1
   2  -5   9     148     263   1
   3  -5   9    6959     959   1
   4  -5   9    7493    1037   1
   5  -5   9    2937     641   1
  -6  -4   9    8507     842   1
  -5  -4   9    2875     651   1
  -4  -4   9    7810    2649   1
  -3  -4   9   23500    1519   1
  -2  -4   9   33679    1539   1
  -1  -4   9   11434     833   1
   0  -4   9    1901     608   1
   1  -4   9   12333    1007   1
   2  -4   9   16884    1440   1
   3  -4   9   48879    1794   1
   4  -4   9    1959     436   1
   5  -4   9    2451     586   1
   6  -4   9    5116     841   1
  -6  -3   9     -29     258   1
  -5  -3   9    4673     586   1
  -4  -3   9    1857     418   1
  -3  -3   9     428     279   1
  -2  -3   9   36585    1625   1
  -1  -3   9    8110     712   1
   0  -3   9   18824    1012   1
   1  -3   9    5727     427   1
   2  -3   9   39858    1489   1
   3  -3   9    4291     473   1
   4  -3   9     590     271   1
   5  -3   9    3027     505   1
   6  -3   9     991     650   1
   7  -3   9   15456    3727   1
  -7  -2   9     327     318   1
  -6  -2   9     751     338   1
  -5  -2   9    3085     499   1
  -4  -2   9   11175    1163   1
  -3  -2   9   11039     824   1
  -2  -2   9    2751     440   1
  -1  -2   9     460     245   1
   0  -2   9   13033     849   1
   1  -2   9   11587     559   1
   2  -2   9    3371     331   1
   3  -2   9    1104     282   1
   4  -2   9      48     207   1
   5  -2   9    3469     514   1
   6  -2   9    2790     622   1
   7  -2   9    -298     361   1
  -7  -1   9    3221     632   1
  -6  -1   9   22771    1679   1
  -5  -1   9    7520     829   1
  -4  -1   9     425     387   1
  -3  -1   9    6084    2616   1
  -2  -1   9   11460    2089   1
  -1  -1   9   16764     975   1
   0  -1   9  134733    3450   1
   1  -1   9   39631    1229   1
   2  -1   9   22391     827   1
   3  -1   9     520     180   1
   4  -1   9   32358    1280   1
   5  -1   9    5626     548   1
   6  -1   9   21519    1675   1
   7  -1   9    3186     847   1
  -7   0   9    5228     604   1
  -6   0   9   32500    1402   1
  -5   0   9    3657     671   1
  -4   0   9    2438     575   1
  -3   0   9     115     179   1
  -2   0   9    8478     625   1
  -1   0   9   92984    4139   1
   0   0   9     117     148   1
   1   0   9   43465    1716   1
   2   0   9   23727    1108   1
   3   0   9   37550    1637   1
   4   0   9    5157     404   1
   5   0   9   37671    1232   1
   6   0   9   30394    1470   1
   7   0   9    -265     265   1
   8   0   9     625     526   1
  -7   1   9    3457     506   1
  -6   1   9    2858     459   1
  -5   1   9    2360     406   1
  -4   1   9    2075     565   1
  -3   1   9   17212    1732   1
  -2   1   9   10160     648   1
  -1   1   9   29202    1648   1
   0   1   9     437     211   1
   1   1   9   40617    1487   1
   2   1   9    8189     516   1
   3   1   9     157     190   1
   4   1   9     -76     175   1
   5   1   9   10856     697   1
   6   1   9    -192     192   1
   7   1   9     894     403   1
   8   1   9   13425    1563   1
  -7   2   9    8997     845   1
  -6   2   9     113     246   1
  -5   2   9    6124     746   1
  -4   2   9   25954    1150   1
  -3   2   9    2808     375   1
  -2   2   9      18     171   1
  -1   2   9   17946     909   1
   0   2   9    6117     735   1
   1   2   9  123722    4291   1
   2   2   9   88984    3216   1
   3   2   9   50451    2394   1
   4   2   9   43026    1475   1
   5   2   9   26758    1173   1
   6   2   9     509     353   1
   7   2   9    4449     634   1
   8   2   9    5939    1069   1
  -7   3   9    5614     678   1
  -6   3   9   50369    1939   1
  -5   3   9    9380     955   1
  -4   3   9      54     210   1
  -3   3   9   34877    2821   1
  -2   3   9     116     192   1
  -1   3   9   19305     866   1
   0   3   9   15734     829   1
   1   3   9   32159    1445   1
   2   3   9   43426    1784   1
   3   3   9   89479    4039   1
   4   3   9   10762     945   1
   5   3   9   37500    1505   1
   6   3   9    3826     585   1
   7   3   9    1552     425   1
  -6   4   9    5561     597   1
  -5   4   9    7444     957   1
  -4   4   9    8377     682   1
  -3   4   9    8836     671   1
  -2   4   9     901     273   1
  -1   4   9   16324     812   1
   0   4   9   25710    1289   1
   1   4   9    2149     353   1
   2   4   9    3426     536   1
   3   4   9   22634    1309   1
   4   4   9   35603    2451   1
   5   4   9    8917    1234   1
   6   4   9    1279     295   1
   7   4   9    6439     571   1
  -6   5   9   22446    1548   1
  -5   5   9    2212     418   1
  -4   5   9    4160     503   1
  -3   5   9     328     221   1
  -2   5   9    4103     521   1
  -1   5   9   24561    1199   1
   0   5   9    2367     425   1
   1   5   9    4513     557   1
   2   5   9   15653     862   1
   3   5   9    1053     444   1
   4   5   9    1079     494   1
   5   5   9    1162     790   1
   6   5   9     852     274   1
   7   5   9   24586    1115   1
  -5   6   9   22313    1462   1
  -4   6   9   23906    1280   1
  -3   6   9   15644     987   1
  -2   6   9    2246     457   1
  -1   6   9     279     288   1
   0   6   9     424     283   1
   1   6   9    6193     686   1
   2   6   9   12358     958   1
   3   6   9   24465    1958   1
   4   6   9     585     319   1
   5   6   9    3201     513   1
   6   6   9   12840    1039   1
  -4   7   9    1678     757   1
  -3   7   9   10544     981   1
  -2   7   9      89     444   1
  -1   7   9     123     285   1
   0   7   9   13823    1063   1
   1   7   9     548     348   1
   2   7   9    1811     448   1
   3   7   9    5633     554   1
   4   7   9    -156     428   1
   5   7   9    3375    1135   1
  -2   8   9   10151    1530   1
  -1   8   9     112     348   1
   0   8   9    1078     407   1
   1   8   9   12189    1110   1
   2   8   9     123     361   1
   3   8   9      71     305   1
  -2  -6  10      66     971   1
  -1  -6  10    -477     987   1
   0  -6  10    7568    2106   1
   1  -6  10     559    1217   1
   2  -6  10   34699    4047   1
  -4  -5  10     711     439   1
  -3  -5  10    5040     799   1
  -2  -5  10    -856    1004   1
  -1  -5  10    2303    1448   1
   0  -5  10    8321    1229   1
   1  -5  10   77027    4095   1
   2  -5  10    4014    1678   1
   3  -5  10     923     559   1
   4  -5  10   10927    3529   1
  -5  -4  10    3594     761   1
  -4  -4  10   14248    5462   1
  -3  -4  10    4187    1374   1
  -2  -4  10    2013     423   1
  -1  -4  10     570     507   1
   0  -4  10    -249     518   1
   1  -4  10    2717     749   1
   2  -4  10      74     256   1
   3  -4  10    7250     756   1
   4  -4  10    1537     553   1
   5  -4  10    9320    1505   1
  -5  -3  10    5415     861   1
  -4  -3  10   19103    1244   1
  -3  -3  10    8168     799   1
  -2  -3  10     385     296   1
  -1  -3  10   34667    1683   1
   0  -3  10     326     321   1
   1  -3  10     381     244   1
   2  -3  10     248     238   1
   3  -3  10   19954    1263   1
   4  -3  10   11557    2608   1
   5  -3  10    5784    1004   1
   6  -3  10     932     503   1
  -6  -2  10    5381     691   1
  -5  -2  10    3518     971   1
  -4  -2  10   10375    1124   1
  -3  -2  10    6390    1216   1
  -2  -2  10    1857     729   1
  -1  -2  10    1346     447   1
   0  -2  10    2537     415   1
   1  -2  10    8499     608   1
   2  -2  10    7879     529   1
   3  -2  10    4641     517   1
   4  -2  10   48292    1795   1
   5  -2  10   18408    2213   1
   6  -2  10    1045     503   1
  -6  -1  10     227     532   1
  -5  -1  10    1414     519   1
  -4  -1  10    2676     606   1
  -3  -1  10     440     327   1
  -2  -1  10    2491     455   1
  -1  -1  10    4003     623   1
   0  -1  10   16494     974   1
   1  -1  10     -93     144   1
   2  -1  10    3720     487   1
   3  -1  10   24914     936   1
   4  -1  10   36456    1441   1
   5  -1  10    1887     423   1
   6  -1  10     166     401   1
   7  -1  10     644     444   1
  -6   0  10    1841     386   1
  -5   0  10    6728     635   1
  -4   0  10   36734    1565   1
  -3   0  10    3480     995   1
  -2   0  10     178     403   1
  -1   0  10    7474     549   1
   0   0  10     447     237   1
   1   0  10    9190     578   1
   2   0  10    8153     540   1
   3   0  10     -63     146   1
   4   0  10    4480     412   1
   5   0  10    4654     612   1
   6   0  10    6389     725   1
   7   0  10    8755    1073   1
  -6   1  10   19277    1433   1
  -5   1  10   29620    1320   1
  -4   1  10   14141     833   1
  -3   1  10    1940     354   1
  -2   1  10    9331     999   1
  -1   1  10    -256     256   1
   0   1  10   90416    2927   1
   1   1  10   26883    1155   1
   2   1  10   20513     812   1
   3   1  10   12328     624   1
   4   1  10     677     229   1
   5   1  10   23530    1023   1
   6   1  10   10570     795   1
   7   1  10   26094    2089   1
  -6   2  10    5946     800   1
  -5   2  10   36418    1902   1
  -4   2  10   17067     938   1
  -3   2  10   10876    1014   1
  -2   2  10     310     245   1
  -1   2  10   12158    1046   1
   0   2  10     208     272   1
   1   2  10    1469     380   1
   2   2  10   13703     951   1
   3   2  10   36070    1320   1
   4   2  10    7616     599   1
   5   2  10     361     272   1
   6   2  10   18625    1019   1
   7   2  10   34501    1768   1
  -6   3  10    3879     536   1
  -5   3  10     634     312   1
  -4   3  10    1437     356   1
  -3   3  10     287     230   1
  -2   3  10   19662     951   1
  -1   3  10     289     346   1
   0   3  10     594     369   1
   1   3  10   35718    1606   1
   2   3  10   35464    1600   1
   3   3  10    1258     403   1
   4   3  10   11198     794   1
   5   3  10    -176     238   1
   6   3  10     713     360   1
   7   3  10    4102     644   1
  -5   4  10   33429    1469   1
  -4   4  10    1345     378   1
  -3   4  10   29504    1374   1
  -2   4  10    9585     694   1
  -1   4  10   10176    1064   1
   0   4  10    3388     630   1
   1   4  10    -247     247   1
   2   4  10     879     364   1
   3   4  10   44133    4911   1
   4   4  10    3439     757   1
   5   4  10   35174    1751   1
   6   4  10   20201    2608   1
  -5   5  10    4654     570   1
  -4   5  10    8499     716   1
  -3   5  10    2685     482   1
  -2   5  10   11392     898   1
  -1   5  10   46504    1926   1
   0   5  10    -108     263   1
   1   5  10    6581     987   1
   2   5  10    4173     658   1
   3   5  10     757     526   1
   4   5  10   12372    1431   1
   5   5  10     576     510   1
   6   5  10   24136    2122   1
  -4   6  10    6557     863   1
  -3   6  10    1604     414   1
  -2   6  10    5282     692   1
  -1   6  10    4613     644   1
   0   6  10    6388    1086   1
   1   6  10    6457     737   1
   2   6  10    2386     740   1
   3   6  10     428     543   1
   4   6  10    3768     921   1
   5   6  10   26867    2221   1
  -3   7  10    9068     934   1
  -2   7  10     773     370   1
  -1   7  10    1620     452   1
   0   7  10    3705     587   1
   1   7  10     684     347   1
   2   7  10     888     625   1
   3   7  10    7947    1234   1
   4   7  10    2155     773   1
   0   8  10    6057     770   1
   1   8  10    7057     836   1
  -2  -5  11    3570    1760   1
  -1  -5  11    2649    1481   1
   0  -5  11    3472    1662   1
   1  -5  11    5479    1941   1
   2  -5  11    -675    1250   1
  -3  -4  11     499     421   1
  -2  -4  11      30     372   1
  -1  -4  11   18588    1911   1
   0  -4  11    1887    1226   1
   1  -4  11    -395    1102   1
   2  -4  11   12109    2682   1
   3  -4  11    4259     872   1
   4  -4  11    -187     494   1
  -4  -3  11    3968     806   1
  -3  -3  11     915     451   1
  -2  -3  11    2934     580   1
  -1  -3  11      -5     256   1
   0  -3  11    2745     485   1
   1  -3  11     328     501   1
   2  -3  11   11060    1335   1
   3  -3  11    6779     879   1
   4  -3  11    -137     658   1
   5  -3  11    7011     988   1
  -5  -2  11     274     464   1
  -4  -2  11     581     445   1
  -3  -2  11     146     306   1
  -2  -2  11   11500    1489   1
  -1  -2  11    1386     367   1
   0  -2  11    4652     610   1
   1  -2  11     151     185   1
   2  -2  11   18867    2080   1
   3  -2  11    3220     473   1
   4  -2  11    2544     599   1
   5  -2  11    1309     501   1
  -5  -1  11   11318    1274   1
  -4  -1  11     307     364   1
  -3  -1  11   24048    1378   1
  -2  -1  11   28888    2072   1
  -1  -1  11    4121     619   1
   0  -1  11    1137     365   1
   1  -1  11    2690     546   1
   2  -1  11    6004     485   1
   3  -1  11     454     217   1
   4  -1  11      80     317   1
   5  -1  11    3124     664   1
   6  -1  11   12897    1328   1
  -5   0  11     313     633   1
  -4   0  11   15054    2122   1
  -3   0  11   15455    1289   1
  -2   0  11   16424    1275   1
  -1   0  11   21736    1228   1
   0   0  11    -145     145   1
   1   0  11    4337     472   1
   2   0  11    1037     245   1
   3   0  11   10017     834   1
   4   0  11    2689     385   1
   5   0  11   38603    2170   1
   6   0  11   14902    1392   1
  -5   1  11     149     268   1
  -4   1  11     389     388   1
  -3   1  11     675     426   1
  -2   1  11    3710     669   1
  -1   1  11    1598     426   1
   0   1  11    6017     734   1
   1   1  11    1598     292   1
   2   1  11    2522     339   1
   3   1  11     107     285   1
   4   1  11    6596     805   1
   5   1  11    7394     625   1
   6   1  11    1925     757   1
  -5   2  11    5572     765   1
  -4   2  11   15648    1073   1
  -3   2  11   14427    1069   1
  -2   2  11     -52     340   1
  -1   2  11      66     609   1
   0   2  11    1282     574   1
   1   2  11   66316    2301   1
   2   2  11   17581     921   1
   3   2  11    5586     620   1
   4   2  11     230     249   1
   5   2  11    -239     239   1
   6   2  11   12627    1058   1
  -5   3  11     -19     243   1
  -4   3  11    9329    1116   1
  -3   3  11   10918    1007   1
  -2   3  11   13819    1316   1
  -1   3  11   16432    1315   1
   0   3  11   21113    1452   1
   1   3  11   49986    2124   1
   2   3  11      81     274   1
   3   3  11    7275     865   1
   4   3  11     788     365   1
   5   3  11     313     289   1
   6   3  11    3025     839   1
  -4   4  11    2632     515   1
  -3   4  11    6544     840   1
  -2   4  11    6999     813   1
  -1   4  11    1844     529   1
   0   4  11   11508    1695   1
   1   4  11    6117     913   1
   2   4  11   18809    1336   1
   3   4  11   14737    1505   1
   4   4  11   29730    2303   1
   5   4  11    3249     579   1
  -4   5  11    1626     450   1
  -3   5  11     881     345   1
  -2   5  11    2161     506   1
  -1   5  11    3850     839   1
   0   5  11    -362     362   1
   1   5  11     372     353   1
   2   5  11     564     418   1
   3   5  11   13047    1547   1
   4   5  11    2797     823   1
   5   5  11   25765    2172   1
  -3   6  11     -11     304   1
  -2   6  11   11058    1456   1
  -1   6  11    2145     510   1
   0   6  11   21619    1876   1
   1   6  11   18559    1777   1
   2   6  11    -197     411   1
   3   6  11    5347    1053   1
   4   6  11   43089    3077   1
  -1   7  11    2971     609   1
   0   7  11   14626    1678   1
   1   7  11    1333     691   1
   2   7  11   12619    1612   1
  -1  -4  12   29121    3817   1
   0  -4  12    8572    2270   1
   1  -4  12     773    1431   1
  -2  -3  12    6187     900   1
  -1  -3  12   17381    1396   1
   0  -3  12    1793    1497   1
   1  -3  12   12010    2501   1
   2  -3  12     675    1333   1
   3  -3  12    6890     930   1
  -3  -2  12    8268    1074   1
  -2  -2  12    3173     732   1
  -1  -2  12    4015    1242   1
   0  -2  12   16829    1338   1
   1  -2  12   22606    1572   1
   2  -2  12   13689    1201   1
   3  -2  12     -13     765   1
   4  -2  12    3868     753   1
  -4  -1  12    1752     552   1
  -3  -1  12    6329    1333   1
  -2  -1  12    6642     946   1
  -1  -1  12    2860     539   1
   0  -1  12   10810    1416   1
   1  -1  12    7474     678   1
   2  -1  12    7229     994   1
   3  -1  12    6846    1201   1
   4  -1  12    1330     559   1
   5  -1  12      62     420   1
  -4   0  12   11635    1251   1
  -3   0  12    -149     389   1
  -2   0  12      73     348   1
  -1   0  12      90     274   1
   0   0  12   13722    1106   1
   1   0  12     463     254   1
   2   0  12     212     242   1
   3   0  12    4396     655   1
   4   0  12    7935    1023   1
   5   0  12    3895     798   1
  -4   1  12    6543     957   1
  -3   1  12    1051     494   1
  -2   1  12    1743     581   1
  -1   1  12   42124    1950   1
   0   1  12   20415     981   1
   1   1  12    -226     226   1
   2   1  12   14620     787   1
   3   1  12   21640    1152   1
   4   1  12   13247    1771   1
   5   1  12    5034     669   1
  -4   2  12    -274     364   1
  -3   2  12     294     995   1
  -2   2  12    2943     634   1
  -1   2  12   10217    1024   1
   0   2  12    5501    1201   1
   1   2  12   37795    1807   1
   2   2  12   14607     908   1
   3   2  12    4986     522   1
   4   2  12   17174    1152   1
   5   2  12     646     378   1
  -4   3  12     -69     345   1
  -3   3  12    5796    2032   1
  -2   3  12    2987     684   1
  -1   3  12    2583     594   1
   0   3  12   10100    1365   1
   1   3  12    4795    1251   1
   2   3  12    1175     474   1
   3   3  12    1006     938   1
   4   3  12     695     418   1
   5   3  12      36     295   1
  -3   4  12     449     658   1
  -2   4  12    -378     477   1
  -1   4  12    2937    1382   1
   0   4  12    -313     428   1
   1   4  12    8042     952   1
   2   4  12   16231    1299   1
   3   4  12   25535    2846   1
   4   4  12    1267     691   1
  -2   5  12    4113     741   1
  -1   5  12    2320     724   1
   0   5  12    1366     642   1
   1   5  12    1339     561   1
   2   5  12   43517    3060   1
   3   5  12   16173    1826   1
   0   6  12     148     526   1
   1   6  12    5002    1004   1
  -1  -2  13    3988    1415   1
   0  -2  13   28454    1886   1
   1  -2  13   14330    2978   1
  -2  -1  13     208     856   1
  -1  -1  13    -203     318   1
   0  -1  13     823     437   1
   1  -1  13     151     526   1
   2  -1  13   11431     935   1
   3  -1  13   36796    2184   1
  -2   0  13    2518     640   1
  -1   0  13    8027    2682   1
   0   0  13   11608    1547   1
   1   0  13   27035    1331   1
   2   0  13   45087    1879   1
   3   0  13    3029     498   1
  -3   1  13    8686    2575   1
  -2   1  13    4031    1127   1
  -1   1  13    6672    1316   1
   0   1  13   21254    4014   1
   1   1  13    1288     364   1
   2   1  13    4283     566   1
   3   1  13   17562    1082   1
  -2   2  13    1916     623   1
  -1   2  13    6237    1950   1
   0   2  13   14122    1417   1
   1   2  13     674     352   1
   2   2  13     437     315   1
   3   2  13     705     410   1
  -2   3  13    3008     730   1
  -1   3  13    7419    1069   1
   0   3  13    9464    2682   1
   1   3  13    2900    1267   1
   2   3  13    9477    1349   1
   3   3  13    2995     565   1
  -1   4  13     259     757   1
   0   4  13     477     477   1
   1   4  13   10595    1415   1
   2   4  13    4705    1020   1
;
_shelx_hkl_checksum              2283
loop_
_space_group_symop_operation_xyz
'x, y, z'
'-x, -y, -z'
loop_
_atom_site_label
_atom_site_type_symbol
_atom_site_fract_x
_atom_site_fract_y
_atom_site_fract_z
_atom_site_U_iso_or_equiv
_atom_site_adp_type
_atom_site_occupancy
_atom_site_site_symmetry_order
_atom_site_calc_flag
_atom_site_refinement_flags_posn
_atom_site_refinement_flags_adp
_atom_site_refinement_flags_occupancy
_atom_site_disorder_assembly
_atom_site_disorder_group
C01 C -0.2777(8) 0.9921(9) 0.9793(6) 0.0203(14) Uani 1 1 d . . . . .
H01A H -0.3401 0.9014 1.0158 0.030 Uiso 1 1 calc R U . . .
H01B H -0.3511 1.0842 0.9570 0.030 Uiso 1 1 calc R U . . .
H01C H -0.2018 1.0203 1.0382 0.030 Uiso 1 1 calc R U . . .
C1 C -0.1855(7) 0.9464(7) 0.8665(6) 0.0143(12) Uani 1 1 d . . . . .
C2 C -0.2231(7) 1.0242(7) 0.7516(6) 0.0131(12) Uani 1 1 d . . . . .
H2 H -0.3036 1.1084 0.7457 0.016 Uiso 1 1 calc R U . . .
C3 C -0.1436(7) 0.9795(7) 0.6457(5) 0.0124(12) Uani 1 1 d . . . . .
C4 C -0.0249(7) 0.8575(7) 0.6544(5) 0.0117(12) Uani 1 1 d . . . . .
C5 C 0.0131(7) 0.7809(7) 0.7682(6) 0.0133(12) Uani 1 1 d . . . . .
H5 H 0.0958 0.6989 0.7738 0.016 Uiso 1 1 calc R U . . .
C6 C -0.0682(8) 0.8221(8) 0.8749(6) 0.0158(13) Uani 1 1 d . . . . .
C06 C -0.0313(9) 0.7284(8) 0.9957(6) 0.0208(14) Uani 1 1 d . . . . .
H06A H -0.0022 0.8022 1.0533 0.031 Uiso 1 1 calc R U . . .
H06B H 0.0589 0.6516 0.9844 0.031 Uiso 1 1 calc R U . . .
H06C H -0.1266 0.6706 1.0280 0.031 Uiso 1 1 calc R U . . .
C7 C -0.1854(7) 1.0577(7) 0.5186(5) 0.0123(12) Uani 1 1 d . . . . .
H7 H -0.289(10) 1.116(9) 0.524(6) 0.015 Uiso 1 1 d . U . . .
C8 C -0.1991(7) 0.9228(7) 0.4394(5) 0.0111(12) Uani 1 1 d . . . . .
C9 C -0.0778(7) 0.8008(7) 0.4480(5) 0.0109(12) Uani 1 1 d . . . . .
C10 C -0.3270(7) 0.9140(8) 0.3628(6) 0.0151(12) Uani 1 1 d . . . . .
H10 H -0.4097 0.9959 0.3572 0.018 Uiso 1 1 calc R U . . .
C11 C -0.3332(7) 0.7849(8) 0.2946(6) 0.0145(12) Uani 1 1 d . . . . .
H11 H -0.4194 0.7797 0.2416 0.017 Uiso 1 1 calc R U . . .
C12 C -0.2149(8) 0.6648(7) 0.3037(6) 0.0146(12) Uani 1 1 d . . . . .
H12 H -0.2208 0.5761 0.2579 0.017 Uiso 1 1 calc R U . . .
C13 C -0.0859(7) 0.6724(7) 0.3799(6) 0.0140(12) Uani 1 1 d . . . . .
H13 H -0.0038 0.5898 0.3851 0.017 Uiso 1 1 calc R U . . .
C14 C 0.0568(7) 0.8142(7) 0.5356(5) 0.0106(12) Uani 1 1 d . . . . .
H14 H 0.106(10) 0.724(10) 0.551(6) 0.013 Uiso 1 1 d . U . . .
C20 C 0.6151(8) 0.6312(8) 0.7543(6) 0.0169(13) Uani 1 1 d . . . . .
H20A H 0.6915 0.7203 0.7517 0.020 Uiso 0.515(14) 1 calc R U P A 1
H20B H 0.6968 0.7160 0.7480 0.020 Uiso 0.485(14) 1 calc R U P A 2
Cl1 Cl 0.5282(7) 0.6369(7) 0.6102(4) 0.0226(5) Uani 0.515(14) 1 d . . P A 1
Cl2 Cl 0.7204(7) 0.4486(6) 0.7931(6) 0.0226(5) Uani 0.515(14) 1 d . . P A 1
Cl3 Cl 0.4590(6) 0.6591(8) 0.8675(6) 0.0226(5) Uani 0.515(14) 1 d . . P A 1
Cl1A Cl 0.5608(8) 0.6069(8) 0.6047(5) 0.0226(5) Uani 0.485(14) 1 d . . P A 2
Cl2A Cl 0.7088(7) 0.4502(7) 0.8220(6) 0.0226(5) Uani 0.485(14) 1 d . . P A 2
Cl3A Cl 0.4521(6) 0.6951(8) 0.8427(6) 0.0226(5) Uani 0.485(14) 1 d . . P A 2
loop_
_atom_site_aniso_label
_atom_site_aniso_U_11
_atom_site_aniso_U_22
_atom_site_aniso_U_33
_atom_site_aniso_U_23
_atom_site_aniso_U_13
_atom_site_aniso_U_12
C01 0.014(3) 0.028(4) 0.020(3) -0.004(3) 0.002(2) -0.002(3)
C1 0.011(3) 0.013(3) 0.019(3) -0.003(2) 0.000(2) -0.005(2)
C2 0.006(3) 0.011(3) 0.022(3) -0.003(2) 0.002(2) 0.000(2)
C3 0.010(3) 0.012(3) 0.014(3) -0.001(2) 0.000(2) -0.002(2)
C4 0.008(3) 0.009(3) 0.017(3) 0.001(2) 0.002(2) -0.002(2)
C5 0.009(3) 0.010(3) 0.021(3) 0.001(2) -0.001(2) 0.002(2)
C6 0.019(3) 0.014(3) 0.015(3) -0.001(2) -0.002(2) -0.005(2)
C06 0.026(4) 0.018(3) 0.018(3) 0.002(3) -0.005(3) 0.002(3)
C7 0.009(3) 0.010(3) 0.017(3) 0.001(2) 0.000(2) 0.000(2)
C8 0.011(3) 0.007(3) 0.014(3) 0.002(2) 0.001(2) 0.000(2)
C9 0.004(3) 0.011(3) 0.016(3) 0.002(2) 0.002(2) 0.001(2)
C10 0.011(3) 0.016(3) 0.018(3) 0.002(2) 0.001(2) -0.001(2)
C11 0.008(3) 0.017(3) 0.018(3) 0.002(2) -0.001(2) -0.002(2)
C12 0.014(3) 0.010(3) 0.020(3) -0.002(2) 0.001(2) -0.001(2)
C13 0.011(3) 0.012(3) 0.018(3) 0.002(2) 0.004(2) 0.000(2)
C14 0.004(3) 0.008(3) 0.018(3) 0.001(2) 0.000(2) 0.001(2)
C20 0.019(3) 0.010(3) 0.022(3) -0.001(2) -0.002(2) 0.003(2)
Cl1 0.0235(7) 0.0209(8) 0.0220(9) 0.0005(6) 0.0002(7) 0.0067(5)
Cl2 0.0235(7) 0.0209(8) 0.0220(9) 0.0005(6) 0.0002(7) 0.0067(5)
Cl3 0.0235(7) 0.0209(8) 0.0220(9) 0.0005(6) 0.0002(7) 0.0067(5)
Cl1A 0.0235(7) 0.0209(8) 0.0220(9) 0.0005(6) 0.0002(7) 0.0067(5)
Cl2A 0.0235(7) 0.0209(8) 0.0220(9) 0.0005(6) 0.0002(7) 0.0067(5)
Cl3A 0.0235(7) 0.0209(8) 0.0220(9) 0.0005(6) 0.0002(7) 0.0067(5)
loop_
_atom_type_symbol
_atom_type_description
_atom_type_scat_dispersion_real
_atom_type_scat_dispersion_imag
_atom_type_scat_source
C C 0.0033 0.0016 'International Tables Vol C Tables 4.2.6.8 and 6.1.1.4'
H H 0.0000 0.0000 'International Tables Vol C Tables 4.2.6.8 and 6.1.1.4'
Cl Cl 0.1484 0.1585 'International Tables Vol C Tables 4.2.6.8 and 6.1.1.4'
loop_
_geom_angle_atom_site_label_1
_geom_angle_atom_site_label_2
_geom_angle_atom_site_label_3
_geom_angle
_geom_angle_site_symmetry_3
C6 C1 C2 119.5(6) .
C6 C1 C01 120.6(6) .
C2 C1 C01 119.9(6) .
C3 C2 C1 120.8(6) .
C4 C3 C2 119.6(6) .
C4 C3 C7 118.1(5) .
C2 C3 C7 122.2(5) .
C3 C4 C5 119.7(6) .
C3 C4 C14 117.0(5) .
C5 C4 C14 123.3(5) .
C4 C5 C6 121.3(6) .
C1 C6 C5 119.1(6) .
C1 C6 C06 121.2(6) .
C5 C6 C06 119.6(6) .
C8 C7 C3 106.7(5) .
C8 C7 C14 112.9(5) 2_576
C3 C7 C14 112.2(5) 2_576
C10 C8 C9 119.8(6) .
C10 C8 C7 123.1(6) .
C9 C8 C7 117.1(5) .
C13 C9 C8 119.7(5) .
C13 C9 C14 122.6(5) .
C8 C9 C14 117.6(5) .
C11 C10 C8 119.9(6) .
C12 C11 C10 120.3(6) .
C11 C12 C13 120.4(6) .
C9 C13 C12 119.9(6) .
C4 C14 C9 106.4(5) .
C4 C14 C7 112.2(5) 2_576
C9 C14 C7 112.1(5) 2_576
Cl3A C20 Cl1A 112.1(4) .
Cl2 C20 Cl1 111.5(4) .
Cl3A C20 Cl2A 112.1(4) .
Cl1A C20 Cl2A 109.7(4) .
Cl2 C20 Cl3 109.4(4) .
Cl1 C20 Cl3 109.2(4) .
loop_
_geom_bond_atom_site_label_1
_geom_bond_atom_site_label_2
_geom_bond_distance
_geom_bond_site_symmetry_2
C01 C1 1.511(9) .
C1 C6 1.394(9) .
C1 C2 1.403(9) .
C2 C3 1.398(8) .
C3 C4 1.388(9) .
C3 C7 1.529(8) .
C4 C5 1.389(9) .
C4 C14 1.524(8) .
C5 C6 1.402(9) .
C6 C06 1.508(9) .
C7 C8 1.517(8) .
C7 C14 1.600(8) 2_576
C8 C10 1.396(8) .
C8 C9 1.403(8) .
C9 C13 1.387(9) .
C9 C14 1.525(8) .
C10 C11 1.391(9) .
C11 C12 1.376(9) .
C12 C13 1.399(9) .
C14 C7 1.600(8) 2_576
C20 Cl3A 1.735(8) .
C20 Cl2 1.752(8) .
C20 Cl1A 1.766(8) .
C20 Cl1 1.770(8) .
C20 Cl2A 1.781(8) .
C20 Cl3 1.788(8) .
