#------------------------------------------------------------------------------
#$Date: 2019-11-04 11:26:29 +0200 (Mon, 04 Nov 2019) $
#$Revision: 222599 $
#$URL: file:///home/coder/svn-repositories/cod/cif/4/03/40/4034039.cif $
#------------------------------------------------------------------------------
#
# This file is available in the Crystallography Open Database (COD),
# http://www.crystallography.net/
#
# All data on this site have been placed in the public domain by the
# contributors.
#
data_4034039
loop_
_publ_author_name
'Das, Siuli'
'Sinha, Suman'
'Samanta, Deepannita'
'Mondal, Rakesh'
'Chakraborty, Gargi'
'Branda\~o, Paula'
'Paul, Nanda D.'
_publ_section_title
;
 Metal-Ligand Cooperative Approach To Achieve Dehydrogenative
 Functionalization of Alcohols to Quinolines and
 Quinazolin-4(3<i>H</i>)-ones under Mild Aerobic Conditions.
;
_journal_issue                   16
_journal_name_full               'The Journal of organic chemistry'
_journal_page_first              10160
_journal_page_last               10171
_journal_paper_doi               10.1021/acs.joc.9b01343
_journal_volume                  84
_journal_year                    2019
_chemical_formula_sum            'C18 H11 Br2 Cl Cu N4'
_chemical_formula_weight         542.12
_space_group_crystal_system      triclinic
_space_group_IT_number           2
_space_group_name_Hall           '-P 1'
_space_group_name_H-M_alt        'P -1'
_atom_sites_solution_hydrogens   geom
_audit_creation_method           SHELXL-2013
_cell_angle_alpha                88.917(5)
_cell_angle_beta                 87.835(5)
_cell_angle_gamma                71.809(5)
_cell_formula_units_Z            2
_cell_length_a                   8.9488(15)
_cell_length_b                   10.0892(16)
_cell_length_c                   10.5117(17)
_cell_measurement_reflns_used    442
_cell_measurement_temperature    293(2)
_cell_measurement_theta_max      26.08
_cell_measurement_theta_min      2.88
_cell_volume                     901.0(3)
_computing_structure_refinement  'SHELXL-2013 (Sheldrick, 2013)'
_diffrn_ambient_temperature      293(2)
_diffrn_measured_fraction_theta_full 0.993
_diffrn_measured_fraction_theta_max 0.987
_diffrn_measurement_device_type  CCD
_diffrn_measurement_method       'omega and phi scans'
_diffrn_radiation_type           MoK\a
_diffrn_radiation_wavelength     0.71073
_diffrn_reflns_av_R_equivalents  0.0447
_diffrn_reflns_av_unetI/netI     0.0356
_diffrn_reflns_Laue_measured_fraction_full 0.993
_diffrn_reflns_Laue_measured_fraction_max 0.987
_diffrn_reflns_limit_h_max       11
_diffrn_reflns_limit_h_min       -11
_diffrn_reflns_limit_k_max       13
_diffrn_reflns_limit_k_min       -13
_diffrn_reflns_limit_l_max       13
_diffrn_reflns_limit_l_min       -13
_diffrn_reflns_number            25664
_diffrn_reflns_point_group_measured_fraction_full 0.993
_diffrn_reflns_point_group_measured_fraction_max 0.987
_diffrn_reflns_theta_full        25.242
_diffrn_reflns_theta_max         27.942
_diffrn_reflns_theta_min         2.662
_diffrn_source                   'fine-focus sealed tube'
_exptl_absorpt_coefficient_mu    5.805
_exptl_absorpt_correction_type   multi-scan
_exptl_crystal_colour            brown
_exptl_crystal_density_diffrn    1.998
_exptl_crystal_description       block
_exptl_crystal_F_000             526
_exptl_crystal_size_max          0.220
_exptl_crystal_size_mid          0.160
_exptl_crystal_size_min          0.040
_exptl_transmission_factor_max   0.7456
_exptl_transmission_factor_min   0.4764
_refine_diff_density_max         1.220
_refine_diff_density_min         -1.051
_refine_diff_density_rms         0.142
_refine_ls_extinction_method     none
_refine_ls_goodness_of_fit_ref   1.165
_refine_ls_hydrogen_treatment    constr
_refine_ls_matrix_type           full
_refine_ls_number_parameters     235
_refine_ls_number_reflns         4268
_refine_ls_number_restraints     0
_refine_ls_restrained_S_all      1.165
_refine_ls_R_factor_all          0.0774
_refine_ls_R_factor_gt           0.0553
_refine_ls_shift/su_max          0.000
_refine_ls_shift/su_mean         0.000
_refine_ls_structure_factor_coef Fsqd
_refine_ls_weighting_details
'w=1/[\s^2^(Fo^2^)+5.5049P] where P=(Fo^2^+2Fc^2^)/3'
_refine_ls_weighting_scheme      calc
_refine_ls_wR_factor_gt          0.1001
_refine_ls_wR_factor_ref         0.1124
_reflns_Friedel_coverage         0.000
_reflns_number_gt                3374
_reflns_number_total             4268
_reflns_threshold_expression     'I > 2\s(I)'
_cod_data_source_file            jo9b01343_si_002.cif
_cod_data_source_block           f
_cod_database_code               4034039
_shelx_space_group_comment
;
The symmetry employed for this shelxl refinement is uniquely defined
by the following loop, which should always be used as a source of
symmetry information in preference to the above space-group names.
They are only intended as comments.
;
_shelx_estimated_absorpt_t_min   0.362
_shelx_estimated_absorpt_t_max   0.801
_shelxl_version_number           2013-4
_shelx_res_file
;
TITL f1_a.res in P-1    d=40mm    t=20s

CELL  0.71073   8.9488  10.0892  10.5117   88.917   87.835   71.809
ZERR    2.000   0.0015   0.0016   0.0017    0.005    0.005    0.005
LATT  1
SFAC C H N CL CU BR
UNIT 36 22 8 2 2 4
TEMP 20.110
SIZE 0.040 0.160 0.220
acta
L.S. 100
BOND
BOND $H
HTAB
FMAP 2
PLAN 20
WGHT    0.000000    5.504900
FVAR       0.67021
CU    5    0.594485    0.705286    0.779541    11.00000    0.03448    0.02188 =
         0.02983    0.00227   -0.00318   -0.00854
BR1   6    0.806068    0.667894    0.611010    11.00000    0.03893    0.04226 =
         0.04743   -0.00166    0.00823   -0.01524
BR2   6    0.468094    0.945581    0.810417    11.00000    0.05588    0.02548 =
         0.04270   -0.00349   -0.00484   -0.00754
CL1   4    0.014878    0.998784    0.270170    11.00000    0.06970    0.04732 =
         0.05725    0.01583   -0.03287   -0.00708
N1    3    0.433836    0.644605    0.646707    11.00000    0.02823    0.02713 =
         0.02503    0.00153   -0.00199   -0.00819
N2    3    0.434061    0.519315    0.654304    11.00000    0.03020    0.02942 =
         0.02867   -0.00150   -0.00335   -0.01212
N3    3    0.602210    0.514803    0.820565    11.00000    0.02737    0.02675 =
         0.02309    0.00156   -0.00305   -0.00771
N4    3    0.721807    0.672374    0.948092    11.00000    0.02998    0.02423 =
         0.03212   -0.00096   -0.00214   -0.00770
C1    1    0.136515    0.894303    0.381582    11.00000    0.03828    0.03255 =
         0.02958    0.00224   -0.00466   -0.00242
C2    1    0.112466    0.770901    0.418047    11.00000    0.03668    0.04771 =
         0.03851    0.00462   -0.01100   -0.02101
AFIX  43
H2    2    0.029959    0.745813    0.385553    11.00000   -1.20000
AFIX   0
C3    1    0.212265    0.684323    0.503619    11.00000    0.03798    0.03861 =
         0.03414    0.00240   -0.00758   -0.01712
AFIX  43
H3    2    0.199404    0.599245    0.527602    11.00000   -1.20000
AFIX   0
C4    1    0.332505    0.726320    0.553490    11.00000    0.02711    0.02711 =
         0.02279    0.00121   -0.00094   -0.00774
C5    1    0.353940    0.851205    0.518216    11.00000    0.03861    0.03004 =
         0.03394    0.00286   -0.00984   -0.01485
AFIX  43
H5    2    0.433785    0.878145    0.553244    11.00000   -1.20000
AFIX   0
C6    1    0.256116    0.937212    0.430109    11.00000    0.04861    0.03078 =
         0.03606    0.00244   -0.00540   -0.01345
AFIX  43
H6    2    0.270345    1.021262    0.404321    11.00000   -1.20000
AFIX   0
C7    1    0.528674    0.445650    0.754387    11.00000    0.02843    0.02660 =
         0.02328   -0.00250    0.00121   -0.00978
C8    1    0.538750    0.307896    0.782439    11.00000    0.03329    0.02420 =
         0.03520   -0.00305    0.00064   -0.01138
AFIX  43
H8    2    0.486932    0.260968    0.733786    11.00000   -1.20000
AFIX   0
C9    1    0.626608    0.242175    0.883320    11.00000    0.03352    0.02186 =
         0.04093    0.00120    0.00104   -0.00757
AFIX  43
H9    2    0.634069    0.150229    0.903484    11.00000   -1.20000
AFIX   0
C10   1    0.705788    0.314359    0.956591    11.00000    0.02504    0.02491 =
         0.03450    0.00137    0.00287   -0.00410
C11   1    0.687628    0.453009    0.920020    11.00000    0.02425    0.02403 =
         0.02220    0.00311   -0.00010   -0.00536
C12   1    0.797528    0.260875    1.066462    11.00000    0.03660    0.03017 =
         0.04091    0.01199   -0.00247   -0.00221
AFIX  43
H12   2    0.813477    0.168833    1.091886    11.00000   -1.20000
AFIX   0
C13   1    0.860757    0.341606    1.133202    11.00000    0.03232    0.03925 =
         0.03432    0.00663   -0.00329   -0.00080
AFIX  43
H13   2    0.920451    0.303484    1.203168    11.00000   -1.20000
AFIX   0
C14   1    0.838493    0.485296    1.099230    11.00000    0.02556    0.03486 =
         0.02728    0.00016   -0.00212   -0.00397
C15   1    0.753051    0.539192    0.990828    11.00000    0.02308    0.02728 =
         0.02644   -0.00094    0.00022   -0.00421
C16   1    0.890934    0.578925    1.169232    11.00000    0.03410    0.04922 =
         0.03646   -0.00385   -0.01090   -0.00908
AFIX  43
H16   2    0.946666    0.549930    1.242985    11.00000   -1.20000
AFIX   0
C17   1    0.857988    0.713645    1.126224    11.00000    0.04001    0.04337 =
         0.04904   -0.01177   -0.01270   -0.01346
AFIX  43
H17   2    0.892226    0.776585    1.171249    11.00000   -1.20000
AFIX   0
C18   1    0.773345    0.758269    1.015239    11.00000    0.03579    0.03249 =
         0.04290   -0.00432   -0.00576   -0.01358
AFIX  43
H18   2    0.752918    0.850314    0.988143    11.00000   -1.20000
AFIX   0
HKLF 4

REM  f1_a.res in P-1    d=40mm    t=20s
REM R1 =  0.0553 for    3374 Fo > 4sig(Fo)  and  0.0774 for all    4268 data
REM    235 parameters refined using      0 restraints

END

WGHT      0.0000      5.4957

REM Instructions for potential hydrogen bonds
EQIV $1 -x+1, -y+1, -z+1
HTAB C3 Br1_$1
HTAB C5 Br2
EQIV $2 -x+1, -y+2, -z+1
HTAB C6 Br1_$2
HTAB C18 Br2

REM Highest difference peak  1.220,  deepest hole -1.051,  1-sigma level  0.142
Q1    1   0.0647  0.5738  0.4205  11.00000  0.05    1.22
Q2    1   0.3143  1.0950  0.3576  11.00000  0.05    1.10
Q3    1   0.7639  0.7133  0.5511  11.00000  0.05    1.04
Q4    1   0.7526  1.0184  1.0217  11.00000  0.05    0.88
Q5    1   0.6605  0.7361  0.7974  11.00000  0.05    0.83
Q6    1   0.5676  0.7577  0.7173  11.00000  0.05    0.80
Q7    1   0.6555  0.6769  0.6775  11.00000  0.05    0.77
Q8    1   0.8636  0.7015  0.6289  11.00000  0.05    0.73
Q9    1   0.8684  0.3179  1.2008  11.00000  0.05    0.72
Q10   1   0.8384  0.6317  0.5962  11.00000  0.05    0.64
Q11   1   0.6273  0.6406  0.8340  11.00000  0.05    0.61
Q12   1   0.4567  0.7516  0.8570  11.00000  0.05    0.59
Q13   1   0.7377  0.6433  0.5987  11.00000  0.05    0.56
Q14   1   0.6926  0.3867  0.9405  11.00000  0.05    0.56
Q15   1   0.5720  0.7278  0.8828  11.00000  0.05    0.54
Q16   1   0.4080  0.9041  0.7718  11.00000  0.05    0.50
Q17   1   0.6428  0.4702  0.8612  11.00000  0.05    0.49
Q18   1   0.5471  0.4808  0.8053  11.00000  0.05    0.48
Q19   1   0.0493  0.9758  0.1957  11.00000  0.05    0.48
Q20   1   0.7820  0.8229  0.6809  11.00000  0.05    0.48
;
_shelx_res_checksum              55075
_shelx_hkl_file
;
  -2   0   0   28.10    3.10
  -2   0   0   23.10    3.40
  -2   0   0   33.10    4.10
  -2   0   0   29.20    4.30
  -2   0   0   26.20    3.20
   2   0   0   22.40    3.70
   2   0   0   18.40    4.60
   2   0   0   26.80    3.00
   2   0   0   24.40    4.10
   2   0   0   19.50    4.20
  -3   0   0 3093.49  140.59
  -3   0   0 2981.70  139.89
  -3   0   0 2945.91  139.59
  -3   0   0 3000.40  139.59
  -3   0   0 3217.98  140.29
  -3   0   0 2929.91  140.09
  -3   0   0 2946.61  139.89
   3   0   0 2920.11  139.79
   3   0   0 2939.71  139.59
   3   0   0 3140.89  140.19
   3   0   0 2876.01  139.99
   3   0   0 2580.44  140.09
   3   0   0 2906.51  140.39
   3   0   0 2840.72  139.59
  -4   0   0   60.19    6.00
  -4   0   0   67.09    8.20
  -4   0   0   40.60    7.40
  -4   0   0   61.09    8.50
  -4   0   0   60.59    6.10
  -4   0   0   51.99    7.60
   4   0   0   51.69    5.70
   4   0   0   49.50    8.10
   4   0   0   70.09    8.30
   4   0   0   61.89    8.00
   4   0   0   54.09    6.10
   4   0   0   45.60    7.10
  -5   0   0 1509.15   72.19
  -5   0   0 1528.75   74.19
  -5   0   0 1519.15   71.49
  -5   0   0 1504.85   71.49
  -5   0   0 1491.55   72.59
  -5   0   0 1464.45   72.19
   5   0   0 1416.76   72.29
   5   0   0 1497.85   71.49
   5   0   0 1484.15   71.49
   5   0   0 1657.73   72.89
   5   0   0 1490.25   72.19
   5   0   0 1452.85   72.09
   5   0   0 1439.66   71.79
  -6   0   0   10.20   10.80
  -6   0   0    2.10    5.10
  -6   0   0   -5.40    4.20
  -6   0   0    2.50    6.50
  -6   0   0   -6.20   13.10
   6   0   0   -7.00    5.90
   6   0   0   -2.60    8.80
   6   0   0   10.20    6.00
   6   0   0   -2.40   11.70
   6   0   0   -5.60    5.20
  -7   0   0   26.00    9.20
  -7   0   0   17.00    6.80
  -7   0   0   16.60    5.80
  -7   0   0    7.90    8.20
  -7   0   0   19.20    7.70
  -7   0   0   32.40   17.60
   7   0   0   35.40   10.70
   7   0   0   23.20    7.40
   7   0   0   18.80    4.80
   7   0   0   31.90    8.00
   7   0   0   12.90    5.50
   7   0   0   13.40    8.20
   7   0   0   25.00   11.40
  -8   0   0   89.69   18.40
  -8   0   0   87.09   12.10
  -8   0   0   68.29   10.80
  -8   0   0   88.49   16.60
  -8   0   0   81.69   13.80
   8   0   0   84.69   11.50
   8   0   0   63.69   10.40
   8   0   0   47.80   10.40
   8   0   0   58.99    7.30
   8   0   0   98.29   17.30
   8   0   0   67.19   14.20
  -9   0   0    6.00    7.40
  -9   0   0    6.60   11.70
  -9   0   0   12.70    6.50
  -9   0   0  -10.30    9.30
   9   0   0    4.50   10.90
   9   0   0    7.60    7.00
   9   0   0   17.80   22.50
 -10   0   0   85.79   14.60
 -10   0   0   76.99   10.20
  10   0   0   72.59    9.60
  10   0   0  121.19   25.50
  10   0   0   74.19   13.40
  10   0   0   79.99   14.00
 -11   0   0   -8.50    9.80
 -11   0   0  -23.90   15.20
 -11   0   0   31.70   23.80
  11   0   0  -10.00   13.80
  11   0   0   -6.80    8.60
  11   0   0  -17.20   16.90
  10  -1   0   27.30   13.40
  10  -1   0   22.40   14.60
  10  -1   0   26.30    8.60
  10  -1   0   37.40   12.70
 -10   1   0   43.30   16.40
 -10   1   0   34.90   14.40
 -10   1   0   26.80    9.40
   9  -1   0  155.68   24.80
   9  -1   0  140.29   23.60
  -9   1   0  145.09   26.90
  -9   1   0  179.98   23.30
  -9   1   0  150.18   18.00
   8  -1   0  555.24   39.00
   8  -1   0  563.44   34.10
   8  -1   0  611.24   31.80
   8  -1   0  543.15   30.90
   8  -1   0  535.05   36.00
   8  -1   0  613.64   35.00
  -8   1   0  569.44   31.30
  -8   1   0  638.24   35.80
  -8   1   0  601.64   32.80
  -8   1   0  621.44   39.60
  -8   1   0  669.73   43.80
   7  -1   0  123.29   22.10
   7  -1   0  126.29   18.30
   7  -1   0  137.79   12.30
   7  -1   0  141.09   13.60
   7  -1   0  130.49   17.90
   7  -1   0  146.69   16.60
  -7   1   0  141.09   17.50
  -7   1   0  146.59   13.90
  -7   1   0  145.19   18.80
  -7   1   0  145.79   12.60
   6  -1   0 1520.05   74.89
   6  -1   0 1614.94   75.99
   6  -1   0 1532.65   73.99
   6  -1   0 1515.55   73.79
   6  -1   0 1555.94   75.09
   6  -1   0 1552.84   76.99
   6  -1   0 1484.25   74.99
  -6   1   0 1596.64   75.29
  -6   1   0 1558.34   74.09
  -6   1   0 1588.84   75.19
  -6   1   0 1516.45   73.89
  -6   1   0 1391.76   75.49
  -6   1   0 1595.74   76.09
   5  -1   0  417.06   21.80
   5  -1   0  488.35   24.60
   5  -1   0  416.36   25.10
   5  -1   0  409.86   23.80
   5  -1   0  447.06   26.70
   5  -1   0  429.06   22.10
   5  -1   0  412.76   23.40
  -5   1   0  418.46   23.70
  -5   1   0  418.16   23.80
  -5   1   0  421.56   24.00
  -5   1   0  424.06   22.20
  -5   1   0  403.26   23.10
   4  -1   0   -1.50    4.00
   4  -1   0    5.60    4.00
   4  -1   0   -1.30    7.60
   4  -1   0    3.00    3.00
   4  -1   0   -1.20    4.50
   4  -1   0    3.50    2.70
  -4   1   0    5.30    4.30
  -4   1   0   -8.40    7.70
  -4   1   0    2.90    2.90
  -4   1   0    4.00    2.90
  -4   1   0    2.30    4.50
   3  -1   0    6.10    3.10
   3  -1   0    2.60    3.30
   3  -1   0    5.90    3.20
   3  -1   0   -3.80    5.90
   3  -1   0    4.60    2.20
   3  -1   0    2.50    2.30
  -3   1   0    3.40    2.20
  -3   1   0    3.90    3.50
  -3   1   0    3.30    2.80
  -3   1   0    5.10    3.30
  -3   1   0    3.50    2.20
   2  -1   0 4066.19  198.48
   2  -1   0 4284.77  199.18
   2  -1   0 4275.47  198.68
   2  -1   0 4246.98  198.78
   2  -1   0 4041.00  198.58
  -2   1   0 4229.08  198.48
  -2   1   0 4186.38  198.48
  -2   1   0 4226.98  198.68
   1  -1   0  347.27   17.40
   1  -1   0  352.66   17.40
   1  -1   0  353.56   17.60
   1  -1   0  392.96   17.90
   1  -1   0  343.27   17.60
  -1   1   0  397.66   17.80
  -1   1   0  350.46   17.40
  -1   1   0  362.06   17.60
  -1   1   0  341.57   17.60
  -1   1   0  347.17   17.40
  -1  -1   0  314.07   16.10
  -1  -1   0  319.97   15.90
   1   1   0  325.87   15.90
   1   1   0  347.87   15.80
   1   1   0  304.27   16.00
  -2  -1   0 2067.79   98.69
  -2  -1   0 2085.59   99.39
  -2  -1   0 2111.99   98.89
  -2  -1   0 2062.29   98.69
  -2  -1   0 2286.77   98.89
  -2  -1   0 2072.69   98.99
  -2  -1   0 2057.79   99.09
  -2  -1   0 2108.39   98.89
   2   1   0 1997.90   98.69
   2   1   0 2073.29   98.79
   2   1   0 2041.50   99.19
  -3  -1   0  537.35   26.10
  -3  -1   0  532.65   26.60
  -3  -1   0  548.85   26.20
  -3  -1   0  588.24   26.70
  -3  -1   0  527.95   26.60
  -3  -1   0  522.85   27.10
  -3  -1   0  530.25   26.60
  -3  -1   0  516.25   27.80
   3   1   0  540.35   26.60
   3   1   0  533.85   26.60
   3   1   0  536.65   26.70
   3   1   0  544.35   26.10
   3   1   0  534.35   27.50
   3   1   0  607.64   26.80
   3   1   0  521.45   26.10
  -4  -1   0 4333.77  194.08
  -4  -1   0 4098.49  193.18
  -4  -1   0 4066.09  193.08
  -4  -1   0 4255.57  193.38
  -4  -1   0 4015.80  193.08
  -4  -1   0 4014.90  193.38
  -4  -1   0 4101.19  192.78
  -4  -1   0 4077.89  192.78
   4   1   0 3949.00  192.78
   4   1   0 3926.51  192.78
   4   1   0 4041.60  193.78
   4   1   0 3951.60  193.18
   4   1   0 3851.71  193.08
   4   1   0 4448.46  193.58
   4   1   0 4029.60  193.08
  -5  -1   0  437.66   25.80
  -5  -1   0  468.45   23.40
  -5  -1   0  462.75   24.20
  -5  -1   0  475.95   24.70
  -5  -1   0  482.85   23.50
  -5  -1   0  412.46   28.60
  -5  -1   0  475.15   24.80
  -5  -1   0  475.95   24.60
   5   1   0  421.26   26.30
   5   1   0  462.95   23.40
   5   1   0  462.15   24.60
   5   1   0  528.45   25.00
   5   1   0  466.05   24.60
   5   1   0  487.45   24.60
  -6  -1   0  267.57   15.30
  -6  -1   0  254.77   14.90
  -6  -1   0  255.87   17.90
  -6  -1   0  264.67   20.00
  -6  -1   0  273.47   16.30
  -6  -1   0  206.98   24.80
  -6  -1   0  253.97   17.60
   6   1   0  223.68   20.50
   6   1   0  279.37   17.30
   6   1   0  251.37   17.40
   6   1   0  263.07   17.50
   6   1   0  248.98   15.10
   6   1   0  270.77   15.30
  -7  -1   0   65.29   10.00
  -7  -1   0   63.99    8.30
  -7  -1   0   80.99   11.90
  -7  -1   0   71.29   13.70
  -7  -1   0   71.49   17.10
  -7  -1   0   53.99    9.00
  -7  -1   0   64.19    6.60
  -7  -1   0   82.19   19.20
   7   1   0   69.99    9.40
   7   1   0   65.49   14.30
   7   1   0   68.29   12.30
   7   1   0   53.59    6.20
   7   1   0   56.59    8.60
  -8  -1   0   -3.60    7.00
  -8  -1   0    4.20    6.20
  -8  -1   0   -1.90   20.30
  -8  -1   0   22.50   19.80
  -8  -1   0   11.70    8.30
  -8  -1   0   15.00    5.50
  -8  -1   0    6.90   15.10
  -8  -1   0    0.50    9.10
   8   1   0   -6.80   12.30
   8   1   0   15.60    8.00
   8   1   0    5.60    8.60
   8   1   0    8.50    4.90
   8   1   0    2.90    5.70
   8   1   0   -4.60    8.60
  -9  -1   0  565.34   35.50
  -9  -1   0  583.84   30.40
  -9  -1   0  533.55   29.50
  -9  -1   0  506.05   31.10
  -9  -1   0  516.85   33.90
   9   1   0  521.35   33.00
   9   1   0  528.35   35.40
   9   1   0  530.95   31.90
   9   1   0  541.95   29.60
   9   1   0  576.44   39.50
 -10  -1   0   40.50    8.80
 -10  -1   0   46.20    8.40
 -10  -1   0   43.70   13.20
  10   1   0   36.30    9.20
  10   1   0   40.60   12.30
  10   1   0   29.30   12.30
 -11  -1   0   41.20   22.60
 -11  -1   0  -21.00   14.30
 -11  -1   0  -16.20    9.20
  11   1   0   -9.60    8.20
  11   1   0  -21.70   12.80
  10  -2   0   24.80   13.60
  10  -2   0   -2.80    9.10
  10  -2   0   -0.20   13.40
  10  -2   0   -7.60   14.10
 -10   2   0   45.70   26.40
 -10   2   0  -17.60   14.30
 -10   2   0    6.10    9.70
   9  -2   0   38.00   12.30
   9  -2   0   37.20    8.40
   9  -2   0   36.40   12.60
  -9   2   0   52.89   20.20
  -9   2   0   39.30   15.90
  -9   2   0   46.40    9.30
  -9   2   0   29.80   12.00
   8  -2   0   47.20   11.20
   8  -2   0   51.39    7.80
   8  -2   0   51.79    9.60
   8  -2   0   53.29   11.70
  -8   2   0   52.29   10.60
  -8   2   0   45.70    7.20
  -8   2   0   56.99   11.80
  -8   2   0   45.10    9.30
   7  -2   0    0.50    9.40
   7  -2   0    9.90    5.10
   7  -2   0    8.90    8.40
   7  -2   0    6.00    6.00
   7  -2   0    8.20   13.80
   7  -2   0   12.10    7.90
  -7   2   0    9.20    6.30
  -7   2   0   11.30    5.50
  -7   2   0    8.80    9.50
  -7   2   0    0.60    7.50
   6  -2   0    7.50    6.70
   6  -2   0    6.60    7.20
   6  -2   0   -7.10   12.20
   6  -2   0    3.30    5.20
   6  -2   0    2.00    4.30
   6  -2   0   -7.80    7.90
  -6   2   0    0.50    6.30
  -6   2   0    9.20    7.40
  -6   2   0    4.10    4.80
  -6   2   0    1.60    5.30
  -6   2   0    1.60    7.90
   5  -2   0  925.21   46.40
   5  -2   0  893.01   45.90
   5  -2   0  896.21   44.80
   5  -2   0  961.80   49.10
   5  -2   0 1009.70   47.20
   5  -2   0  922.61   45.00
  -5   2   0  934.51   46.30
  -5   2   0  922.91   45.00
  -5   2   0  828.62   46.40
  -5   2   0  927.91   46.20
  -5   2   0  926.61   44.90
   4  -2   0 4498.45  208.68
   4  -2   0 4207.58  207.88
   4  -2   0 4376.56  207.48
   4  -2   0 4309.37  207.48
   4  -2   0 4394.06  207.98
   4  -2   0 4444.16  211.18
  -4   2   0 4366.76  207.48
  -4   2   0 4318.97  207.98
  -4   2   0 4476.95  207.98
  -4   2   0 4447.06  207.48
   3  -2   0   46.90    8.40
   3  -2   0   53.69    5.60
   3  -2   0   53.79    8.30
   3  -2   0   40.80   10.60
   3  -2   0   56.79    7.60
   3  -2   0   55.69    6.00
  -3   2   0   44.70    7.70
  -3   2   0   54.29    5.90
  -3   2   0   54.09    8.10
  -3   2   0   58.49    6.00
  -3   2   0   56.89    8.10
   2  -2   0 2596.94  124.59
   2  -2   0 2857.91  125.39
   2  -2   0 2623.04  124.89
   2  -2   0 2600.24  124.59
   2  -2   0 2532.95  124.79
  -2   2   0 2750.12  125.29
  -2   2   0 2659.03  124.59
  -2   2   0 2326.07  125.09
  -2   2   0 2720.33  124.89
  -2   2   0 2663.93  124.59
   1  -2   0 2877.51  135.29
   1  -2   0 2849.31  135.09
   1  -2   0 2861.41  135.09
   1  -2   0 2874.71  135.29
  -1   2   0 2767.72  135.19
  -1   2   0 2808.42  135.29
  -1   2   0 2923.61  135.09
  -1   2   0 2946.01  135.29
  -1   2   0 2816.92  135.19
   0  -2   0  352.36   15.30
   0  -2   0  313.97   15.40
   0  -2   0  303.27   15.00
   0  -2   0  263.07   15.90
   0   2   0  274.17   17.80
   0   2   0  325.87   15.20
  -1  -2   0 2283.27  102.19
   1   2   0 2026.70  102.29
  -2  -2   0 4442.26  207.78
   2   2   0 4336.87  207.68
  -3  -2   0  150.48    8.30
  -3  -2   0  151.68    9.50
  -3  -2   0  147.69    9.40
   3   2   0  144.69    8.20
   3   2   0  157.28   10.60
   3   2   0  149.09    9.60
   3   2   0  148.39    8.20
   3   2   0  147.29    9.10
  -4  -2   0   33.90    5.70
  -4  -2   0   40.10    5.20
  -4  -2   0   40.30    7.40
  -4  -2   0   37.70    5.30
  -4  -2   0   42.60   11.10
  -4  -2   0   44.70    6.90
  -4  -2   0   27.40    4.40
   4   2   0   45.90    7.50
   4   2   0   29.80    6.70
   4   2   0   35.80    7.10
   4   2   0   45.10    9.70
   4   2   0   33.90    5.30
   4   2   0   41.10    4.90
   4   2   0   34.40    5.60
  -5  -2   0  914.61   44.10
  -5  -2   0  873.31   44.90
  -5  -2   0  901.51   44.00
  -5  -2   0  907.41   43.30
  -5  -2   0  901.21   44.10
  -5  -2   0  918.41   44.10
  -5  -2   0  879.91   46.10
  -5  -2   0  915.91   43.30
   5   2   0  816.72   43.70
   5   2   0  858.71   45.40
   5   2   0  982.00   44.40
   5   2   0  900.11   44.10
   5   2   0  880.51   43.20
   5   2   0  864.91   43.90
   5   2   0  941.11   44.50
  -6  -2   0  646.74   38.90
  -6  -2   0  677.73   36.40
  -6  -2   0  670.03   34.60
  -6  -2   0  692.13   35.00
  -6  -2   0  700.03   35.20
  -6  -2   0  704.13   33.80
  -6  -2   0  684.73   33.60
   6   2   0  660.63   33.60
   6   2   0  684.43   33.50
   6   2   0  705.33   35.40
   6   2   0  617.34   36.50
   6   2   0  684.53   34.80
   6   2   0  766.82   35.50
   6   2   0  624.54   36.90
  -7  -2   0   98.29   13.00
  -7  -2   0   96.19   15.50
  -7  -2   0  103.69   11.40
  -7  -2   0  126.09   15.10
  -7  -2   0   96.79   18.00
  -7  -2   0   88.69   12.90
  -7  -2   0  109.49   18.90
  -7  -2   0  117.89   12.50
   7   2   0   77.59   13.90
   7   2   0  125.59   14.40
   7   2   0  115.99   16.10
   7   2   0   91.29   10.70
   7   2   0  111.09   10.20
   7   2   0   83.59   12.10
  -8  -2   0   13.80    6.70
  -8  -2   0   29.90    8.40
  -8  -2   0   10.70    9.20
  -8  -2   0   23.70    5.50
  -8  -2   0   44.60   19.70
  -8  -2   0   34.10   14.40
  -8  -2   0   35.50    9.90
  -8  -2   0   17.30    6.30
   8   2   0   24.70    5.00
   8   2   0    6.90   11.70
   8   2   0   26.60    8.90
   8   2   0   23.00    7.70
   8   2   0   13.70    8.50
   8   2   0   16.60    5.80
   8   2   0   25.50   10.30
   8   2   0   39.80   11.70
  -9  -2   0    5.40    6.20
  -9  -2   0   -9.80    6.90
  -9  -2   0   -6.40   10.90
  -9  -2   0    9.40    9.50
  -9  -2   0   -7.40   13.40
  -9  -2   0    3.10   25.90
   9   2   0   -3.90    6.30
   9   2   0   -6.60    9.50
   9   2   0   -2.00   10.00
   9   2   0   14.10   13.60
 -10  -2   0  287.27   27.10
 -10  -2   0  311.77   21.60
 -10  -2   0  297.87   24.90
 -10  -2   0  303.67   28.40
 -10  -2   0  310.47   22.70
  10   2   0  297.27   26.40
  10   2   0  314.97   23.80
  10   2   0  305.17   21.40
 -11  -2   0   54.79    9.90
 -11  -2   0   52.69   15.20
  11   2   0   40.90    9.40
  11   2   0   79.29   13.30
  10  -3   0   66.89   15.70
  10  -3   0   60.49   15.70
  10  -3   0   47.90   10.50
 -10   3   0   43.30   17.10
 -10   3   0   46.10   10.90
   9  -3   0    6.80   12.40
   9  -3   0   -6.20   13.10
   9  -3   0   -2.60    8.60
  -9   3   0    0.00    8.90
   8  -3   0   87.59   13.10
   8  -3   0   91.89   24.20
   8  -3   0  110.69   16.30
   8  -3   0  114.79   20.50
  -8   3   0   93.69   13.70
  -8   3   0  112.19   17.10
  -8   3   0  130.39   22.60
   7  -3   0    7.60    6.70
   7  -3   0   15.30   15.00
   7  -3   0    8.60    8.40
   7  -3   0   10.40    5.80
   7  -3   0   13.40   10.20
   7  -3   0   -1.00    9.90
  -7   3   0    3.90    6.80
  -7   3   0    5.60    6.00
  -7   3   0   -0.80   10.10
  -7   3   0   10.40    9.50
  -7   3   0    7.80    8.20
   6  -3   0  298.27   18.20
   6  -3   0  272.47   22.50
   6  -3   0  273.27   26.80
   6  -3   0  300.47   20.50
   6  -3   0  280.97   21.90
   6  -3   0  265.47   17.20
  -6   3   0  282.47   22.50
  -6   3   0  325.17   30.40
  -6   3   0  288.67   18.70
  -6   3   0  277.17   17.60
   5  -3   0   58.09   12.60
   5  -3   0   89.79   14.70
   5  -3   0   64.69   10.30
   5  -3   0   70.89   12.90
   5  -3   0   80.49    9.40
   5  -3   0   60.39    8.60
  -5   3   0   73.59   14.90
  -5   3   0   72.89    9.50
  -5   3   0   61.09   13.30
  -5   3   0   69.99   10.70
  -5   3   0   81.39   13.90
   4  -3   0 2006.80  100.09
   4  -3   0 2031.20   99.99
   4  -3   0 2112.69   99.59
   4  -3   0 2111.39  100.29
   4  -3   0 2227.28  101.09
   4  -3   0 2043.40  101.69
  -4   3   0 2148.19   99.59
  -4   3   0 2141.29  100.39
  -4   3   0 1841.02  100.69
  -4   3   0 2181.28  100.39
  -4   3   0 2154.68   99.59
   3  -3   0 2284.07  110.89
   3  -3   0 2315.97  111.39
   3  -3   0 2234.08  111.29
   3  -3   0 2504.45  112.19
   3  -3   0 2329.97  110.99
  -3   3   0 2420.56  111.49
  -3   3   0 2344.77  110.99
  -3   3   0 2200.28  111.89
  -3   3   0 2379.06  110.89
  -3   3   0 2362.76  111.49
   2  -3   0  899.31   45.20
   2  -3   0 1041.80   45.90
   2  -3   0  918.71   45.30
   2  -3   0  910.41   44.70
   2  -3   0  925.41   44.70
  -2   3   0  924.31   44.80
  -2   3   0  959.00   45.30
  -2   3   0  944.21   44.70
  -2   3   0  941.41   45.70
  -2   3   0  869.61   45.90
   1  -3   0  516.35   26.30
   1  -3   0  526.55   25.70
   1  -3   0  594.54   26.70
   1  -3   0  525.15   25.80
   1  -3   0  510.55   25.80
   1  -3   0  529.75   26.20
  -1   3   0  524.55   25.80
  -1   3   0  532.45   26.30
  -1   3   0  508.75   25.80
  -1   3   0  543.25   26.30
  -1   3   0  538.95   25.80
  -1   3   0  554.54   26.50
  -1  -3   0  206.38   12.00
   1   3   0  267.97   13.90
   1   3   0  262.17   12.90
  -2  -3   0  704.53   36.40
  -2  -3   0  747.73   36.00
   2   3   0  756.22   36.10
   2   3   0  731.53   36.50
   2   3   0  770.42   36.50
  -3  -3   0    1.70    2.80
  -3  -3   0   -2.40    4.10
  -3  -3   0    9.00    5.30
   3   3   0    1.00    3.00
   3   3   0    2.40    4.40
   3   3   0    4.60    4.30
  -4  -3   0  206.38   12.50
   4   3   0  206.58   13.00
   4   3   0  208.58   11.30
   4   3   0  196.48   13.70
   4   3   0  176.08   11.60
  -5  -3   0 3138.69  152.88
  -5  -3   0 3188.98  151.28
  -5  -3   0 3336.67  151.88
  -5  -3   0 3234.98  151.78
  -5  -3   0 3241.28  151.38
  -5  -3   0 3183.88  152.18
  -5  -3   0 3213.98  152.38
   5   3   0 2898.11  151.58
   5   3   0 3140.69  152.78
   5   3   0 3259.97  152.18
   5   3   0 3314.67  151.78
   5   3   0 3196.08  151.28
  -6  -3   0   54.79    9.00
  -6  -3   0   76.89   19.10
  -6  -3   0   56.79   12.30
  -6  -3   0   74.19    8.60
  -6  -3   0   82.09   12.00
  -6  -3   0   85.29   16.00
  -6  -3   0   69.29   11.30
   6   3   0   90.59   11.90
   6   3   0   71.59    8.10
   6   3   0   53.19    8.40
   6   3   0   72.89   15.50
   6   3   0   81.99   10.90
  -7  -3   0   54.89    8.50
  -7  -3   0   86.39   18.70
  -7  -3   0   53.69   11.20
  -7  -3   0   93.49   14.10
  -7  -3   0   85.09    9.90
  -7  -3   0   73.09   12.00
  -7  -3   0   68.89   10.80
  -7  -3   0   59.49   15.40
   7   3   0   89.89   16.50
   7   3   0   65.99   12.70
   7   3   0   49.40    5.90
   7   3   0   65.69   11.50
   7   3   0   75.69    9.20
  -8  -3   0  167.78   30.90
  -8  -3   0  119.69   18.30
  -8  -3   0  147.59   17.30
  -8  -3   0  135.49   22.20
  -8  -3   0  128.49   13.50
  -8  -3   0  120.39   16.20
  -8  -3   0  127.69   12.60
   8   3   0  101.79   20.30
   8   3   0  107.89   12.40
   8   3   0  139.89   11.90
   8   3   0  104.69   16.00
   8   3   0  126.39   14.70
   8   3   0  141.19   20.30
  -9  -3   0   -2.00    7.00
  -9  -3   0   10.20    6.40
  -9  -3   0   11.30    9.20
  -9  -3   0   49.70   41.70
  -9  -3   0    4.40   11.50
   9   3   0   -6.60    6.20
   9   3   0    2.40   10.20
   9   3   0   13.00   13.90
 -10  -3   0  155.78   21.70
 -10  -3   0  116.69   17.80
 -10  -3   0  153.78   16.20
 -10  -3   0  151.48   22.90
 -10  -3   0  118.19   24.40
  10   3   0  119.59   16.20
  10   3   0  127.59   18.50
 -11  -3   0   57.89   22.80
   9  -4   0  172.68   28.70
   9  -4   0  204.08   30.80
   9  -4   0  208.88   20.80
  -9   4   0  170.88   22.20
  -9   4   0  159.08   25.80
   8  -4   0  262.87   30.10
   8  -4   0  290.87   27.40
   8  -4   0  309.17   29.10
   8  -4   0  331.37   22.80
  -8   4   0  298.97   22.90
  -8   4   0  347.17   31.00
   7  -4   0   -3.20    9.80
   7  -4   0   -0.80    6.20
   7  -4   0  -12.80   11.10
   7  -4   0   -6.10    7.20
   7  -4   0   -4.80    9.30
  -7   4   0   -3.40    7.40
  -7   4   0  -11.70   11.20
  -7   4   0   -2.50   10.30
   6  -4   0  466.55   32.20
   6  -4   0  405.46   23.50
   6  -4   0  414.06   28.20
   6  -4   0  391.56   28.40
   6  -4   0  430.16   26.60
   6  -4   0  430.76   24.40
  -6   4   0  404.76   27.50
  -6   4   0  416.16   24.60
  -6   4   0  409.46   23.90
  -6   4   0  435.46   28.90
   5  -4   0  117.09   16.90
   5  -4   0   98.09   16.70
   5  -4   0  104.99   15.70
   5  -4   0  115.59   11.20
   5  -4   0   81.59   20.00
   5  -4   0  103.29   12.20
  -5   4   0  105.39   15.70
  -5   4   0   99.79   12.20
  -5   4   0   94.99   17.00
  -5   4   0  103.69   11.10
  -5   4   0   76.19   15.00
   4  -4   0   78.19   10.20
   4  -4   0   73.59   13.80
   4  -4   0   94.69   12.40
   4  -4   0   75.59   12.60
   4  -4   0   86.89    9.40
   4  -4   0  102.09   14.40
  -4   4   0   62.09   12.80
  -4   4   0   83.99   10.10
  -4   4   0   92.49   14.00
  -4   4   0   96.59   13.40
  -4   4   0   94.29    9.60
   3  -4   0  156.18   10.50
   3  -4   0  147.29   10.70
   3  -4   0  136.09   13.30
   3  -4   0  184.98   13.80
   3  -4   0  146.49   12.80
  -3   4   0  168.08   10.50
  -3   4   0  146.29   13.00
  -3   4   0  117.79   18.80
  -3   4   0  157.58   10.90
  -3   4   0  157.38   13.90
   2  -4   0  555.94   27.30
   2  -4   0  541.65   28.10
   2  -4   0  559.94   28.30
   2  -4   0  543.05   27.50
   2  -4   0  547.65   27.30
   2  -4   0  601.14   29.10
  -2   4   0  511.75   29.90
  -2   4   0  543.25   28.80
  -2   4   0  569.54   27.30
  -2   4   0  578.64   28.30
  -2   4   0  561.94   27.40
   1  -4   0   76.69    6.70
   1  -4   0   73.59    6.10
   1  -4   0   68.09    8.00
   1  -4   0   71.39    8.00
  -1   4   0   80.49    8.80
  -1   4   0   71.09    6.20
  -1   4   0   91.79    8.20
  -1   4   0   80.89    6.60
  -1   4   0   61.69    8.30
   0  -4   0 1691.33   84.39
   0  -4   0 1880.51   84.19
   0  -4   0 1727.83   83.59
   0  -4   0 1774.52   83.79
   0   4   0 1817.42   84.09
   0   4   0 1673.83   84.79
  -1  -4   0 1517.65   67.89
   1   4   0 1425.46   68.79
   1   4   0 1329.17   67.99
  -2  -4   0  863.91   44.00
  -2  -4   0  909.41   43.90
  -2  -4   0  854.41   42.50
   2   4   0  952.00   44.10
   2   4   0  878.01   43.20
  -3  -4   0  429.46   24.50
  -3  -4   0  471.35   24.30
  -3  -4   0  450.05   23.40
   3   4   0  456.25   23.50
   3   4   0  448.66   24.30
   3   4   0  472.15   22.50
  -4  -4   0  352.56   19.50
  -4  -4   0  357.06   21.60
   4   4   0  341.17   20.20
   4   4   0  357.56   19.70
   4   4   0  362.36   18.30
  -5  -4   0 1253.37   61.29
  -5  -4   0 1256.97   61.79
   5   4   0 1257.17   61.49
   5   4   0 1319.47   60.59
   5   4   0 1193.38   61.89
  -6  -4   0 1800.32   89.59
  -6  -4   0 1905.51   89.69
  -6  -4   0 1889.71   92.49
  -6  -4   0 1839.62   90.29
  -6  -4   0 1917.91   91.09
  -6  -4   0 1885.51   91.69
   6   4   0 1790.82   89.49
   6   4   0 1967.20   90.29
   6   4   0 1818.72   91.39
   6   4   0 1990.70   91.19
  -7  -4   0  253.67   15.20
  -7  -4   0  220.68   15.80
  -7  -4   0  246.68   27.30
  -7  -4   0  217.38   18.80
  -7  -4   0  261.37   23.10
  -7  -4   0  232.08   18.30
  -7  -4   0  267.47   18.30
   7   4   0  259.87   18.00
   7   4   0  218.18   21.60
   7   4   0  239.58   14.80
   7   4   0  216.68   14.90
   7   4   0  274.17   21.00
   7   4   0  255.37   16.70
  -8  -4   0  131.89   22.70
  -8  -4   0  110.09   16.60
  -8  -4   0   75.99   13.00
  -8  -4   0  127.09   27.60
  -8  -4   0   83.39   16.10
  -8  -4   0  111.29   12.00
   8   4   0   82.29   11.70
   8   4   0  108.49   20.80
   8   4   0  117.99   15.50
   8   4   0  106.79   11.00
   8   4   0   77.29   13.40
   8   4   0   94.79   14.10
  -9  -4   0  599.54   32.20
  -9  -4   0  609.14   35.20
  -9  -4   0  563.74   35.30
  -9  -4   0  637.44   42.10
  -9  -4   0  620.54   36.30
  -9  -4   0  622.34   32.70
   9   4   0  690.53   38.60
   9   4   0  547.25   40.10
   9   4   0  586.54   31.90
 -10  -4   0   13.30   19.60
 -10  -4   0    9.70    7.30
 -10  -4   0   22.20   10.90
  10   4   0   29.40   16.60
  10   4   0   -8.10    6.90
  10   4   0   -9.00   11.40
 -11  -4   0   95.69   23.10
  11   4   0   58.09   14.00
   9  -5   0   17.50   14.60
   8  -5   0  207.48   29.90
   8  -5   0  233.48   21.20
   8  -5   0  256.47   29.50
   8  -5   0  210.38   27.70
  -8   5   0  228.68   21.80
  -8   5   0  290.17   37.10
  -8   5   0  229.48   31.20
   7  -5   0  560.84   36.90
   7  -5   0  491.65   33.20
   7  -5   0  513.25   29.90
  -7   5   0  482.05   30.70
  -7   5   0  526.55   35.70
   6  -5   0  119.79   21.10
   6  -5   0   96.89   17.20
   6  -5   0  105.69   12.80
   6  -5   0  102.69   16.50
   6  -5   0  113.19   13.70
  -6   5   0   89.39   15.30
  -6   5   0   99.29   12.80
  -6   5   0   93.39   20.60
   5  -5   0  598.24   31.60
   5  -5   0  617.74   37.70
   5  -5   0  610.14   34.70
   5  -5   0  567.64   42.20
   5  -5   0  615.24   31.30
   5  -5   0  583.64   35.30
  -5   5   0  599.74   34.10
  -5   5   0  594.34   31.30
  -5   5   0  610.64   35.00
  -5   5   0  603.64   31.70
   4  -5   0 1167.48   55.99
   4  -5   0 1115.69   56.99
   4  -5   0 1189.48   57.69
   4  -5   0 1045.90   59.39
   4  -5   0 1133.69   58.59
   4  -5   0 1158.68   55.89
  -4   5   0 1162.08   55.89
  -4   5   0 1217.58   57.49
  -4   5   0 1189.98   57.79
  -4   5   0 1133.99   56.09
   3  -5   0  430.06   24.50
   3  -5   0  405.56   21.60
   3  -5   0  403.66   23.20
   3  -5   0  408.06   23.80
   3  -5   0  407.16   21.40
  -3   5   0  335.17   27.80
  -3   5   0  436.76   24.20
  -3   5   0  390.16   21.70
  -3   5   0  415.36   21.40
  -3   5   0  439.86   24.60
   2  -5   0  165.88   12.80
   2  -5   0  182.08   14.00
   2  -5   0  157.48   13.20
   2  -5   0  161.08   10.60
   2  -5   0  164.88   11.10
  -2   5   0  172.88   18.60
  -2   5   0  169.98   10.60
  -2   5   0  171.18   13.20
  -2   5   0  168.98   11.40
  -2   5   0  144.89   13.70
   1  -5   0  160.78    9.90
   1  -5   0  173.68   10.40
   1  -5   0  175.78   12.60
   1  -5   0  145.49   10.50
   1  -5   0  171.58   11.80
  -1   5   0  165.68   10.90
  -1   5   0  144.19   10.10
  -1   5   0  148.19   12.00
  -1   5   0  178.78   10.50
  -1   5   0  181.58   12.70
  -1   5   0  146.19   15.70
   0  -5   0 3963.30  190.28
   0  -5   0 4214.28  190.78
   0  -5   0 3878.61  190.08
   0   5   0 4033.20  189.98
   0   5   0 4002.50  190.68
  -1  -5   0 4338.27  209.88
  -1  -5   0 4622.84  208.98
  -1  -5   0 4492.35  208.98
   1   5   0 4199.08  208.98
  -2  -5   0  437.76   24.60
  -2  -5   0  441.66   25.50
   2   5   0  460.75   24.70
   2   5   0  418.06   22.90
  -3  -5   0  317.27   20.60
  -3  -5   0  352.36   20.10
   3   5   0  325.07   17.30
   3   5   0  332.27   19.00
   3   5   0  361.86   20.50
  -4  -5   0   85.89   17.50
  -4  -5   0  100.69   15.00
  -4  -5   0   94.89   12.60
   4   5   0   92.89    8.10
   4   5   0   76.09   11.20
  -5  -5   0  205.18   15.40
  -5  -5   0  200.78   19.70
  -5  -5   0  206.68   17.40
   5   5   0  216.58   16.10
   5   5   0  217.18   13.40
   5   5   0  203.68   16.80
  -6  -5   0   58.19   12.60
  -6  -5   0   56.99   13.20
   6   5   0   50.99   10.30
   6   5   0   73.49   14.60
   6   5   0   45.10   10.00
  -7  -5   0  636.44   34.70
  -7  -5   0  674.03   41.20
  -7  -5   0  638.24   35.50
  -7  -5   0  677.13   38.60
  -7  -5   0  627.54   32.90
   7   5   0  737.63   37.20
   7   5   0  613.34   32.70
   7   5   0  601.24   36.60
   7   5   0  713.13   34.30
  -8  -5   0   18.00    5.50
  -8  -5   0   23.20   15.30
  -8  -5   0   27.50   11.50
  -8  -5   0   34.30   17.50
   8   5   0   31.60   13.10
   8   5   0   20.50    5.00
   8   5   0   11.50    5.30
   8   5   0   26.60    9.20
   8   5   0   13.30   11.50
  -9  -5   0   32.70    6.60
  -9  -5   0   40.70    9.50
  -9  -5   0   64.89   18.30
  -9  -5   0   63.29   22.80
  -9  -5   0   27.00    7.30
  -9  -5   0   37.20   13.60
   9   5   0   24.20   14.20
   9   5   0   18.20    6.20
 -10  -5   0  464.95   36.70
 -10  -5   0  426.76   29.60
 -10  -5   0  362.26   25.70
 -10  -5   0  404.66   27.60
  10   5   0  386.16   27.90
 -11  -5   0  132.59   19.50
  11   5   0  129.59   17.00
  11   5   0   96.69   17.60
   8  -6   0   47.40   10.00
   8  -6   0   57.09   14.90
   8  -6   0   55.79   15.50
  -8   6   0   59.89   16.50
  -8   6   0   50.89   10.50
   7  -6   0   80.49   14.20
   7  -6   0  118.19   23.50
   7  -6   0   74.49    9.70
   7  -6   0   69.09   13.80
  -7   6   0   76.29   14.40
  -7   6   0   69.79    9.80
   6  -6   0   26.70    7.50
   6  -6   0   24.30   10.90
   6  -6   0   16.10    6.90
   6  -6   0   25.80   11.50
  -6   6   0   23.60   11.80
  -6   6   0   20.70    7.60
   5  -6   0   27.50   10.70
   5  -6   0   35.00    6.50
   5  -6   0   29.70    8.70
   5  -6   0   25.50   10.60
  -5   6   0   30.00   10.00
  -5   6   0   27.20    8.70
  -5   6   0   33.00    7.10
  -5   6   0   29.30    7.00
  -5   6   0   31.60   10.80
   4  -6   0  493.15   30.30
   4  -6   0  464.55   28.60
   4  -6   0  494.35   26.60
   4  -6   0  474.75   30.60
   4  -6   0  501.65   30.00
  -4   6   0  482.65   26.20
  -4   6   0  525.45   30.70
  -4   6   0  482.65   29.30
  -4   6   0  473.15   26.90
   3  -6   0  586.84   32.80
   3  -6   0  603.14   33.50
   3  -6   0  610.34   31.40
   3  -6   0  601.14   34.50
   3  -6   0  606.84   32.70
  -3   6   0  620.14   33.10
  -3   6   0  652.43   34.10
  -3   6   0  622.04   31.60
  -3   6   0  606.64   31.00
   2  -6   0   24.50    6.80
   2  -6   0   30.70    6.20
   2  -6   0   21.00    4.30
   2  -6   0   23.00    4.30
   2  -6   0   25.50    4.80
   2  -6   0   25.90    6.60
  -2   6   0   28.50    6.50
  -2   6   0   20.40    5.70
  -2   6   0   24.00    3.90
  -2   6   0   30.70    8.30
  -2   6   0   10.30    7.00
  -2   6   0   19.80    4.10
  -2   6   0   25.00    4.80
   1  -6   0    7.00    3.60
   1  -6   0   12.10    4.00
   1  -6   0    8.30    3.50
   1  -6   0    6.00    5.10
   1  -6   0   12.20    5.30
   1  -6   0   14.30    5.80
  -1   6   0   11.70    3.90
  -1   6   0    7.70    3.40
  -1   6   0    3.40    5.70
  -1   6   0    0.70    4.80
   0  -6   0  743.43   37.20
   0  -6   0  723.23   36.50
   0  -6   0  813.22   37.60
   0  -6   0  714.93   36.80
   0   6   0  731.13   37.10
   0   6   0  729.33   39.30
  -1  -6   0 1087.49   49.20
  -1  -6   0  944.61   51.29
   1   6   0 1005.70   49.40
  -2  -6   0 1811.12   82.69
  -2  -6   0 1682.13   84.09
   2   6   0 1673.93   82.99
   2   6   0 1745.93   84.29
  -3  -6   0 1023.50   52.99
   3   6   0 1073.49   52.59
   3   6   0 1036.40   51.39
  -4  -6   0  750.82   38.70
  -4  -6   0  746.83   39.60
   4   6   0  744.93   37.90
   4   6   0  710.23   36.10
  -5  -6   0 2806.22  140.59
  -5  -6   0 3030.70  142.09
  -5  -6   0 2971.70  139.79
   5   6   0 2873.31  139.79
   5   6   0 2912.71  138.69
  -6  -6   0    9.50    9.70
  -6  -6   0   19.30   13.50
   6   6   0   15.90    9.90
   6   6   0   16.80    6.80
   6   6   0   25.80   10.50
  -7  -6   0   89.89   17.40
  -7  -6   0   70.59   16.70
  -7  -6   0   81.69   15.50
   7   6   0   87.69   13.00
   7   6   0   68.99   12.30
   7   6   0   98.09   19.00
  -8  -6   0   50.49   18.40
  -8  -6   0   45.60   13.00
  -8  -6   0   59.99   17.80
   8   6   0   65.69   14.60
   8   6   0   56.19   10.00
   8   6   0   33.20   12.70
  -9  -6   0   38.90   21.50
  -9  -6   0    5.60    7.00
  -9  -6   0   23.40   18.30
   9   6   0   15.10   10.90
   9   6   0   36.40   15.90
 -10  -6   0   97.49   21.80
 -10  -6   0  101.59   15.80
  10   6   0  124.69   28.40
  10   6   0   65.29   14.00
 -11  -6   0   81.39   24.00
  11   6   0  143.49   31.20
   7  -7   0   -1.20   15.00
   7  -7   0   13.20   13.20
   7  -7   0    2.50    9.50
  -7   7   0  -13.90   14.90
  -7   7   0   -5.00    9.60
   6  -7   0  126.49   26.50
   6  -7   0  111.99   23.30
   6  -7   0  106.09   25.30
   6  -7   0  131.59   18.50
  -6   7   0  108.19   15.10
   5  -7   0    3.30    6.50
   5  -7   0   -9.10   11.60
   5  -7   0   -3.70   10.00
   5  -7   0    2.80    7.60
   5  -7   0   -4.40    9.90
  -5   7   0   -3.40   11.50
  -5   7   0   -2.70    7.20
   4  -7   0  218.68   22.50
   4  -7   0  208.08   20.30
   4  -7   0  221.18   23.40
   4  -7   0  201.58   18.70
   4  -7   0  205.98   16.00
  -4   7   0  203.28   21.50
  -4   7   0  231.78   24.10
  -4   7   0  203.78   17.50
  -4   7   0  175.28   20.70
  -4   7   0  212.68   18.80
   3  -7   0  295.47   24.00
   3  -7   0  295.57   19.00
   3  -7   0  343.57   24.70
   3  -7   0  311.67   19.80
   3  -7   0  295.17   22.10
  -3   7   0  311.57   22.40
  -3   7   0  296.17   18.80
  -3   7   0  335.77   29.30
  -3   7   0  342.47   24.80
  -3   7   0  300.17   20.10
   2  -7   0  125.69   11.00
   2  -7   0  128.39   17.10
   2  -7   0  131.29   14.60
   2  -7   0   89.09   16.80
   2  -7   0  126.49   12.40
   2  -7   0   95.99   12.30
  -2   7   0  129.09   12.60
  -2   7   0   94.69   22.40
  -2   7   0  115.89   11.00
   1  -7   0  515.45   27.30
   1  -7   0  443.96   24.70
   1  -7   0  467.85   26.00
   1  -7   0  456.15   24.60
   1  -7   0  440.76   24.10
  -1   7   0  477.75   30.50
  -1   7   0  451.55   26.30
  -1   7   0  460.65   24.10
  -1   7   0  487.45   27.30
  -1   7   0  457.65   24.60
   0  -7   0   -1.90    5.60
   0   7   0   -3.20    4.50
   0   7   0   -0.50    6.10
  -1  -7   0  137.49   12.70
  -1  -7   0  154.28   16.30
   1   7   0  143.49   17.50
   1   7   0  138.79   12.50
   2   7   0   65.69   11.80
   2   7   0   80.39   16.50
  -3  -7   0 1989.60   99.79
  -3  -7   0 1993.70  100.89
  -3  -7   0 2125.29   97.99
   3   7   0 2079.09   99.39
   3   7   0 1997.70   98.09
  -4  -7   0   85.39   16.10
   4   7   0   77.69   14.00
   4   7   0   56.39    6.40
  -5  -7   0  815.42   44.20
  -5  -7   0  779.02   41.80
   5   7   0  775.92   41.30
   5   7   0  749.82   38.70
  -6  -7   0 1386.86   72.19
   6   7   0 1405.66   69.99
   6   7   0 1402.86   67.89
  -7  -7   0  329.97   31.00
   7   7   0  317.87   25.60
   7   7   0  310.17   20.30
   7   7   0  302.77   25.10
  -8  -7   0  -10.10    9.70
  -8  -7   0    3.20   30.20
  -8  -7   0   -1.80   19.30
   8   7   0   13.60    9.50
   8   7   0   14.00   16.30
   8   7   0    7.40   13.10
  -9  -7   0  165.48   30.50
  -9  -7   0  187.78   35.80
   9   7   0  157.48   19.40
   9   7   0  184.68   27.00
 -10  -7   0   33.70   21.70
 -10  -7   0   43.50   23.70
  10   7   0   49.30   19.90
  10   7   0   35.20   12.70
 -11  -7   0  186.98   37.20
  11   7   0  148.89   23.90
  11   7   0  183.58   32.90
   6  -8   0    1.20   12.70
   6  -8   0   -6.10    9.00
   6  -8   0  -10.70   14.60
  -6   8   0  -13.50    9.10
  -6   8   0   -1.40   12.80
  -6   8   0  -15.60   14.70
   5  -8   0   -0.70   11.30
   5  -8   0    3.50    7.70
   5  -8   0    4.90   13.10
   5  -8   0    4.10   13.40
   5  -8   0    5.20    8.20
  -5   8   0   -4.20   12.70
  -5   8   0    0.80    8.40
  -5   8   0    2.30   11.40
   4  -8   0   23.80   10.50
   4  -8   0   24.90   10.10
   4  -8   0   30.20    6.90
   4  -8   0   34.90    7.90
   4  -8   0   38.40   12.20
  -4   8   0   22.50   11.20
  -4   8   0   23.50    7.80
  -4   8   0   23.70   11.70
   3  -8   0 1195.98   60.99
   3  -8   0 1270.07   60.39
   3  -8   0 1193.58   61.89
   3  -8   0 1224.48   61.29
   3  -8   0 1101.99   63.09
  -3   8   0 1294.17   66.89
  -3   8   0 1325.47   63.39
  -3   8   0 1208.88   60.59
   2  -8   0  197.28   17.80
   2  -8   0  155.38   15.30
   2  -8   0  201.98   15.30
   2  -8   0  151.38   19.80
  -2   8   0  178.18   13.90
  -2   8   0  157.48   26.50
  -2   8   0  187.58   15.40
   1  -8   0  538.95   29.40
   1  -8   0  433.76   26.30
   1  -8   0  465.05   25.40
   1  -8   0  521.85   26.30
   1  -8   0  494.15   29.30
   1  -8   0  501.55   27.70
  -1   8   0  439.16   28.20
  -1   8   0  505.05   26.30
  -1   8   0  468.35   25.30
   0  -8   0  965.60   49.10
   0  -8   0 1035.20   50.49
   0   8   0  998.50   52.99
   0   8   0  966.90   49.70
  -1  -8   0 1241.98   60.19
   1   8   0 1296.97   60.79
   1   8   0 1142.89   60.29
   1   8   0 1254.97   63.39
  -2  -8   0   31.00    5.80
  -2  -8   0   41.80    8.00
  -3  -8   0    1.70    6.50
  -3  -8   0   -6.50   13.70
   3   8   0    4.70    9.40
   3   8   0    5.70    6.90
  -4  -8   0  269.47   25.80
  -4  -8   0  260.47   23.30
   4   8   0  260.37   20.70
   4   8   0  295.67   23.90
  -5  -8   0   24.70    7.30
   5   8   0   39.70    6.90
   5   8   0   46.20   11.90
  -6  -8   0  124.59   20.60
   6   8   0  133.19   13.30
   6   8   0  136.79   20.90
  -7  -8   0  516.35   38.10
   7   8   0  490.05   28.30
  -8  -8   0   62.89   20.40
  -8  -8   0   86.79   20.30
   8   8   0   83.79   16.70
   8   8   0   82.29   17.00
  -9  -8   0   33.60   23.10
  -9  -8   0   10.90   20.40
   9   8   0   19.30   16.90
   9   8   0   18.10   11.00
 -10  -8   0  303.27   44.60
 -10  -8   0  239.28   37.00
  10   8   0  251.47   24.20
  10   8   0  287.87   33.20
 -11  -8   0   69.39   27.30
 -11  -8   0    6.00   24.80
  11   8   0   20.70   13.70
  11   8   0   38.30   21.30
   5  -9   0   24.20   14.80
   5  -9   0   17.60    9.80
   5  -9   0   17.90   13.20
  -5   9   0   15.60   14.80
  -5   9   0   23.30   13.40
   4  -9   0   61.19    9.20
   4  -9   0   37.10   12.30
   4  -9   0   45.50    8.50
  -4   9   0   52.99    9.50
  -4   9   0   44.70   12.60
  -4   9   0   60.59   14.00
   3  -9   0   47.40   11.20
   3  -9   0   61.39    7.90
  -3   9   0   96.09   16.30
  -3   9   0   54.09   12.00
   2  -9   0  118.29   15.50
   2  -9   0  106.59   15.90
   2  -9   0  105.39   14.20
   2  -9   0  147.79   22.50
   2  -9   0  109.69   19.90
  -2   9   0  111.59   15.60
  -2   9   0  105.69   27.00
   1  -9   0  433.06   24.40
   1  -9   0  439.06   28.60
   1  -9   0  508.15   25.70
   1  -9   0  440.66   25.60
  -1   9   0  428.56   24.20
  -1   9   0  408.36   27.40
   0  -9   0   10.70    5.90
   0  -9   0    7.40    7.30
   0   9   0    7.00    8.20
   0   9   0    9.30    8.50
  -1  -9   0 1817.22   89.29
   1   9   0 1875.91   92.19
  -2  -9   0 1398.06   70.89
   2   9   0 1513.05   71.49
   2   9   0 1434.56   74.29
  -3  -9   0  455.55   35.80
  -3  -9   0  465.15   32.50
  -3  -9   0  420.76   26.90
   3   9   0  540.95   28.90
   3   9   0  466.95   33.20
  -4  -9   0    4.80    6.10
  -4  -9   0   22.10   15.90
  -4  -9   0    9.80    7.80
   4   9   0   18.40    8.00
  -5  -9   0   52.89   16.40
   5   9   0   52.29   13.10
  -6  -9   0  100.69   24.70
   6   9   0  120.39   12.70
   6   9   0  139.69   32.10
   7   9   0  110.09   24.00
   7   9   0   79.49   13.80
  -8  -9   0   28.10   20.40
   8   9   0   11.50   16.90
   8   9   0   15.20   10.00
  -9  -9   0   21.90   23.00
  -9  -9   0   39.00   23.40
   9   9   0   20.70   18.40
   9   9   0   23.90   11.80
 -10  -9   0  111.29   25.00
  10   9   0  108.49   22.40
  10   9   0  157.38   21.60
   4 -10   0  221.58   22.30
   4 -10   0  176.48   28.90
  -4  10   0  187.78   23.10
  -4  10   0  226.98   37.40
   3 -10   0   55.49    9.40
   3 -10   0   27.00   12.20
  -3  10   0   35.80   12.10
  -3  10   0   46.80    9.40
   2 -10   0   42.80   11.90
   2 -10   0   36.90    8.40
   2 -10   0   28.50    9.30
   2 -10   0   16.40   10.60
  -2  10   0   29.70    8.20
  -2  10   0   21.70   11.30
   1 -10   0  206.68   22.40
  -1  10   0  175.88   20.70
  -1  10   0  259.57   30.70
   0 -10   0   47.10    9.30
   0  10   0   33.80    9.70
   0  10   0   41.80    8.30
   1  10   0   -2.20    8.20
  -2 -10   0   22.20   19.90
  -2 -10   0   26.00   10.80
   2  10   0   28.50    9.40
   2  10   0   32.10   12.00
  -3 -10   0  803.02   55.19
   3  10   0  784.72   49.10
   3  10   0  851.61   44.50
  -4 -10   0   49.00   19.60
   4  10   0   34.50    9.50
  -5 -10   0  162.48   31.10
   5  10   0  151.38   26.60
   5  10   0  127.89   24.10
  -6 -10   0  242.28   36.20
   6  10   0  230.98   26.70
  -7 -10   0   -1.80   20.60
   7  10   0   21.10   16.40
   7  10   0   12.90    8.40
  -8 -10   0  113.49   24.50
   8  10   0  147.39   28.60
   8  10   0  123.39   16.20
  -9 -10   0   16.10   24.30
  -9 -10   0  -27.20   23.60
   9  10   0    8.90   19.20
   9  10   0    9.50   10.80
 -10 -10   0   80.29   26.30
  10  10   0  105.19   22.80
   3 -11   0  370.06   35.30
   3 -11   0  505.95   29.90
  -3  11   0  474.35   44.50
  -3  11   0  432.26   30.50
   2 -11   0  282.07   22.70
  -2  11   0  238.28   36.80
   1 -11   0   46.90   18.90
  -1  11   0   78.19   12.80
  -1  11   0   73.39   12.00
   0 -11   0  127.39   21.00
   0  11   0  159.98   30.00
   0  11   0   96.49   17.50
   1  11   0   34.80   10.40
  -2 -11   0  355.76   37.20
   2  11   0  342.07   26.20
   2  11   0  321.37   32.90
  -3 -11   0    7.00   20.50
   3  11   0   -2.20    9.80
   3  11   0   18.80   13.40
  -4 -11   0   -5.30   19.90
   4  11   0   -5.90    9.40
  -5 -11   0   11.00    7.70
  -5 -11   0   28.90   20.90
   5  11   0   10.70   15.60
   5  11   0   16.70   10.00
  -6 -11   0   27.40   21.70
   6  11   0   -8.10   16.30
  -7 -11   0  300.77   42.20
   7  11   0  278.27   31.70
  -8 -11   0   11.60   23.40
   8  11   0   28.00    9.40
   8  11   0   32.80   19.70
  -9 -11   0   24.60   27.20
   9  11   0   23.10   20.60
   9  11   0   38.10   11.30
   1 -12   0  148.79   25.80
  -1  12   0  211.48   36.30
   0 -12   0    7.90   10.60
   0  12   0   -5.30   12.40
   0  12   0   -2.40   11.50
   1  12   0  268.67   34.40
  -2 -12   0  190.38   39.10
  -3 -12   0    0.20   22.20
   3  12   0    2.20   10.80
   3  12   0   21.90   15.40
  -4 -12   0   31.10   23.00
   4  12   0   52.79   16.20
  -5 -12   0  -11.20   22.00
   5  12   0  -13.10   10.60
   5  12   0   -0.80   16.40
  -6 -12   0  288.87   43.90
   6  12   0  257.97   31.30
  -7 -12   0  246.18   45.00
   7  12   0  165.48   31.70
  -8 -12   0    2.60   26.70
   8  12   0   25.10   21.00
  -2 -13   0   20.60   25.40
   2  13   0  -13.00   12.10
  -3 -13   0  153.48   27.80
   3  13   0  167.88   26.10
  -4 -13   0  -17.30   24.70
   4  13   0  -14.60   11.80
   4  13   0   21.30   16.90
  -5 -13   0  -15.80   24.90
   5  13   0   21.70   18.60
   5  13   0  -11.90   12.00
   5  13  -1   14.20   18.60
  -5 -13   1  -33.30   24.20
   4  13  -1  -15.30   12.40
   4  13  -1   30.50   17.40
  -4 -13   1  -18.60   23.30
   3  13  -1   68.49   17.70
  -3 -13   1   45.30   24.80
   2  13  -1  233.48   38.80
   2  13  -1  288.07   28.70
  -2 -13   1  259.57   41.40
   7  12  -1   64.09   20.40
  -7 -12   1   58.19   25.70
   6  12  -1   -4.30   18.00
  -6 -12   1   -7.70   23.30
   5  12  -1  -11.10   11.00
   5  12  -1    2.00   17.20
  -5 -12   1   -6.90   21.70
   4  12  -1   -0.70   11.20
   4  12  -1   28.80   16.60
  -4 -12   1    9.30   21.50
   3  12  -1  -13.10   11.20
   3  12  -1    4.30   15.00
  -3 -12   1  -15.90   21.50
   2  12  -1  -15.40   11.30
  -2 -12   1   -4.60   22.20
   1  12  -1   64.69   13.00
   0  12  -1  254.67   36.20
  -1  12  -1   29.60   13.60
   9  11  -1   64.99   21.90
  -9 -11   1   63.49   27.50
   8  11  -1   18.90    9.00
   8  11  -1   11.80   18.80
  -8 -11   1   -7.10   23.50
   7  11  -1   17.80   18.10
  -7 -11   1   20.60   23.50
   6  11  -1  690.03   43.90
  -6 -11   1  703.23   51.89
   5  11  -1  586.34   42.30
   5  11  -1  571.54   38.80
  -5 -11   1  609.94   45.10
   4  11  -1    6.70    9.90
   4  11  -1   23.70   15.40
  -4 -11   1   13.60   19.40
   3  11  -1  210.58   23.90
   3  11  -1  168.28   30.80
  -3 -11   1  169.18   33.30
   2  11  -1  118.49   30.00
   2  11  -1  116.89   21.10
  -2 -11   1  128.99   23.60
   1  11  -1   23.40   10.50
   0  11  -1   -9.40   10.30
  -1  11  -1   29.90   12.20
  -1  11  -1   16.90    9.90
  -2  11  -1    7.30    9.20
  -2  11  -1   -1.80   13.00
   2 -11   1    4.30    9.50
  -3  11  -1   20.90    9.80
  -3  11  -1    1.70   14.20
   3 -11   1   29.00   10.10
  10  10  -1   37.10   21.50
 -10 -10   1   46.50   28.50
 -10 -10   1    1.30   26.60
   9  10  -1   58.29   20.30
   9  10  -1   93.99   17.80
  -9 -10   1   68.99   26.10
   8  10  -1   27.00   17.80
   8  10  -1   14.20    9.20
  -8 -10   1   -6.80   21.90
   7  10  -1    7.50    7.70
   7  10  -1   20.80   16.30
  -7 -10   1   11.10   20.90
   6  10  -1   42.50   15.70
  -6 -10   1   41.90   19.20
   5  10  -1  378.86   32.60
   5  10  -1  342.47   37.20
  -5 -10   1  389.66   35.60
   4  10  -1  577.84   34.20
   4  10  -1  540.75   38.10
  -4 -10   1  517.25   39.90
   3  10  -1  417.96   27.40
   3  10  -1  339.87   37.00
  -3 -10   1  363.26   35.00
   2  10  -1 1134.49   62.79
   2  10  -1 1210.78   58.29
  -2 -10   1 1163.08   63.69
  -2 -10   1 1098.99   60.39
  -2 -10   1 1062.79   58.19
   1  10  -1  773.22   41.90
   1  10  -1  774.22   47.00
  -1 -10   1  735.63   41.20
  -1 -10   1  817.62   46.00
   0  10  -1   48.60   10.40
   0  10  -1   44.30    8.20
   0 -10   1   51.29   12.00
   0 -10   1   48.60    9.00
  -1  10  -1    1.00    7.50
  -1  10  -1   -2.70   10.30
   1 -10   1    0.50    6.70
   1 -10   1   11.30    7.80
   1 -10   1   -2.20    9.10
  -2  10  -1    9.20    7.90
  -2  10  -1   -9.00   12.60
  -2  10  -1   -0.70   11.10
   2 -10   1   -4.10   10.50
   2 -10   1    6.20   11.90
   2 -10   1    8.70    8.10
   2 -10   1    7.90    7.40
   2 -10   1   -2.70   12.40
  -3  10  -1  144.59   20.30
  -3  10  -1  178.08   35.40
  -3  10  -1  190.18   28.50
   3 -10   1  125.69   25.60
   3 -10   1  201.28   19.80
   3 -10   1  153.48   14.00
   3 -10   1  147.99   24.10
  -4  10  -1   84.29   13.20
  -4  10  -1   50.89   14.60
   4 -10   1   86.99   14.40
   4 -10   1  115.79   20.10
   4 -10   1   86.99   15.30
   4 -10   1   59.49   14.00
  10   9  -1  463.85   39.00
  10   9  -1  435.36   29.80
 -10  -9   1  478.45   48.40
 -10  -9   1  386.86   42.00
   9   9  -1  117.69   18.70
   9   9  -1  101.79   20.40
  -9  -9   1  108.39   25.40
   8   9  -1   56.79   17.60
   8   9  -1   64.29   10.90
  -8  -9   1   76.49   21.70
   7   9  -1  755.42   39.80
   7   9  -1  800.42   45.40
  -7  -9   1  786.22   50.39
   6   9  -1   31.20    7.30
  -6  -9   1   46.50   21.50
   5   9  -1  389.06   26.90
  -5  -9   1  380.16   32.00
  -5  -9   1  308.67   28.60
   4   9  -1   29.60    8.30
  -4  -9   1   40.10   15.10
  -4  -9   1   22.30    8.10
   3   9  -1  169.08   18.70
   3   9  -1  138.09   24.60
  -3  -9   1  148.49   23.10
  -3  -9   1  124.79   26.00
   2   9  -1   22.40    8.40
  -2  -9   1   33.50   17.30
  -2  -9   1    7.80    6.50
   1   9  -1  188.38   25.50
   1   9  -1  211.58   18.30
  -1  -9   1  182.78   16.60
   0   9  -1  288.67   21.30
   0   9  -1  323.77   28.80
   0   9  -1  277.17   18.50
   0  -9   1  310.37   22.20
   0  -9   1  348.47   20.10
   0  -9   1  304.57   20.00
   0  -9   1  299.77   22.70
   0  -9   1  277.47   18.90
  -1   9  -1   -0.70    5.50
  -1   9  -1   16.10    6.50
  -1   9  -1    3.30   11.30
  -1   9  -1   -4.10    7.00
   1  -9   1    5.70    8.60
   1  -9   1    8.90    6.10
   1  -9   1    8.10    5.90
   1  -9   1    9.20    8.70
  -2   9  -1  144.89   16.90
  -2   9  -1  149.69   29.90
   2  -9   1  148.59   20.30
   2  -9   1  192.38   16.80
   2  -9   1  192.18   23.10
   2  -9   1  166.78   20.30
   2  -9   1  137.79   21.60
  -3   9  -1   42.10   12.30
  -3   9  -1   54.89    8.50
  -3   9  -1   65.99   12.70
   3  -9   1   36.90   11.40
   3  -9   1   51.99   10.90
   3  -9   1   58.59    8.50
   3  -9   1   63.39   12.30
   3  -9   1   43.10    7.90
  -4   9  -1   73.49   14.20
  -4   9  -1  117.59   18.90
   4  -9   1  152.78   26.90
   4  -9   1  112.49   17.40
   4  -9   1   97.09   25.30
   4  -9   1  134.69   18.10
  -5   9  -1  196.18   22.70
  -5   9  -1  214.48   33.80
  -5   9  -1  227.18   38.60
   5  -9   1  253.27   31.20
   5  -9   1  182.18   29.50
   5  -9   1  209.18   18.10
   5  -9   1  234.88   22.20
  11   8  -1   50.59   14.40
  11   8  -1   76.49   22.40
 -11  -8   1   67.99   28.20
 -11  -8   1   51.39   25.70
  10   8  -1   21.70   12.30
  10   8  -1   48.80   19.00
 -10  -8   1   51.69   25.50
 -10  -8   1    5.30   22.80
   9   8  -1  310.27   31.70
   9   8  -1  300.27   22.70
  -9  -8   1  264.97   34.80
  -9  -8   1  328.67   41.30
   8   8  -1   14.60    9.30
   8   8  -1   19.90   15.70
  -8  -8   1   30.20   20.40
   7   8  -1   82.49   13.40
   7   8  -1   82.59   24.30
   6   8  -1  875.01   45.60
   6   8  -1  827.92   41.60
  -6  -8   1  876.61   49.30
  -6  -8   1  769.62   46.00
   5   8  -1 1058.99   51.09
   5   8  -1  857.71   47.70
  -5  -8   1 1036.70   53.79
   4   8  -1  108.49   19.90
   4   8  -1   84.89   16.70
  -4  -8   1   85.89   18.90
  -4  -8   1  111.09   21.80
   3   8  -1  100.39   20.80
   3   8  -1   84.59   14.80
  -3  -8   1   78.69   14.70
  -3  -8   1   85.09   18.50
   2   8  -1   12.60    8.90
   2   8  -1   -1.40    6.80
  -2  -8   1  -14.00   14.60
  -2  -8   1    5.30    7.10
   1   8  -1  717.73   37.60
  -1  -8   1  723.13   37.00
  -1  -8   1  732.13   40.00
   0   8  -1    9.40    6.90
   0   8  -1    6.50    7.60
   0   8  -1    8.60    4.40
   0   8  -1   -1.00    5.50
   0  -8   1   13.20    4.80
   0  -8   1    5.50    6.90
   0  -8   1    6.00    5.10
  -1   8  -1   49.40    9.40
  -1   8  -1   62.39   10.40
  -1   8  -1   54.19    8.00
   1  -8   1   67.59   16.40
   1  -8   1   83.79   10.90
   1  -8   1   72.29   11.80
  -2   8  -1    1.10    9.30
  -2   8  -1    2.70    6.20
  -2   8  -1    1.30    5.20
  -2   8  -1   -6.30    6.90
  -2   8  -1    0.40    8.10
   2  -8   1    1.80    6.30
   2  -8   1    4.50    8.00
   2  -8   1    0.80    9.40
   2  -8   1   -1.40    8.50
   2  -8   1    1.40    5.40
  -3   8  -1   21.00   10.50
  -3   8  -1    9.50    8.50
  -3   8  -1   21.00    7.10
  -3   8  -1   23.30   15.00
   3  -8   1   37.70    7.10
   3  -8   1   29.70    9.20
   3  -8   1   49.40   17.90
   3  -8   1   25.50    6.40
   3  -8   1   23.70    9.90
  -4   8  -1   61.19    8.70
  -4   8  -1   79.19   13.00
  -4   8  -1   42.40   12.10
   4  -8   1   56.29    7.80
   4  -8   1   61.89   12.70
   4  -8   1   48.30   17.40
   4  -8   1   57.59    8.40
   4  -8   1   53.09   11.70
  -5   8  -1   -1.50    8.40
  -5   8  -1    2.50   13.10
  -5   8  -1   12.40   11.90
   5  -8   1    4.20   13.00
   5  -8   1    6.10    8.30
   5  -8   1   11.40    7.70
   5  -8   1    1.80   11.70
  -6   8  -1   23.60    9.80
  -6   8  -1   16.50   15.20
   6  -8   1   34.40   13.90
   6  -8   1   25.30   14.80
   6  -8   1   28.80    9.60
   6  -8   1   38.40   12.70
  11   7  -1   48.80   13.80
 -11  -7   1   69.09   24.90
  10   7  -1  191.78   29.50
  10   7  -1  118.59   20.40
 -10  -7   1  153.48   34.20
 -10  -7   1  157.08   40.90
   9   7  -1   55.89   16.80
   9   7  -1   32.90   11.50
  -9  -7   1   25.60   20.50
  -9  -7   1   50.49   22.20
   8   7  -1  111.59   22.60
   8   7  -1   88.79   15.50
  -8  -7   1  113.09   24.90
   7   7  -1  376.86   22.00
   7   7  -1  392.06   27.10
   7   7  -1  330.67   27.50
  -7  -7   1  363.56   32.70
   6   7  -1  294.77   24.10
   6   7  -1  298.57   17.90
   6   7  -1  299.47   22.90
  -6  -7   1  322.07   28.60
  -6  -7   1  263.57   23.80
   5   7  -1 1336.37   66.89
   5   7  -1 1348.27   64.69
  -5  -7   1 1374.36   68.79
  -5  -7   1 1325.77   67.29
   4   7  -1 1243.78   60.49
  -4  -7   1 1219.58   61.19
  -4  -7   1 1185.88   61.89
   3   7  -1   28.70    8.30
  -3  -7   1   19.90   11.10
   2   7  -1  353.86   20.40
  -2  -7   1  324.27   26.10
  -2  -7   1  321.57   24.60
   1   7  -1  103.29   12.60
   1   7  -1  100.09   17.80
  -1  -7   1  130.79   15.70
  -1  -7   1  112.79   11.40
  -1  -7   1  135.09   14.90
   0   7  -1 1606.14   77.49
   0   7  -1 1565.94   78.29
   0   7  -1 1637.64   77.19
   0  -7   1 1667.93   78.69
   0  -7   1 1631.94   77.29
   0  -7   1 1586.34   77.49
   0  -7   1 1617.04   77.79
   0  -7   1 1639.94   78.49
   0  -7   1 1632.34   79.69
   0  -7   1 1572.74   78.09
  -1   7  -1  701.23   35.30
  -1   7  -1  662.83   34.00
  -1   7  -1  686.93   39.30
  -1   7  -1  659.03   33.40
  -1   7  -1  635.94   35.50
  -1   7  -1  663.23   36.60
   1  -7   1  687.33   35.90
   1  -7   1  658.23   33.90
   1  -7   1  696.63   36.10
   1  -7   1  660.53   34.90
   1  -7   1  653.73   35.20
   1  -7   1  685.43   33.60
  -2   7  -1  112.79   15.50
  -2   7  -1  122.19   12.90
  -2   7  -1  106.69   23.70
  -2   7  -1  122.69   11.30
  -2   7  -1  149.09   19.00
   2  -7   1  121.79   12.90
   2  -7   1  104.59   17.30
   2  -7   1  125.09   15.40
   2  -7   1  137.19   16.30
   2  -7   1  128.59   18.10
  -3   7  -1 1651.33   77.99
  -3   7  -1 1584.84   76.39
  -3   7  -1 1706.53   78.79
  -3   7  -1 1343.37   78.59
  -3   7  -1 1602.64   76.79
   3  -7   1 1707.93   78.59
   3  -7   1 1592.64   76.69
   3  -7   1 1544.75   77.59
   3  -7   1 1489.45   79.09
   3  -7   1 1630.14   76.69
  -4   7  -1  283.47   25.00
  -4   7  -1  264.47   19.30
  -4   7  -1  235.78   23.10
   4  -7   1  248.98   17.90
   4  -7   1  231.08   23.90
   4  -7   1  226.88   24.10
   4  -7   1  259.27   20.10
   4  -7   1  277.57   25.10
  -5   7  -1   -8.00   11.70
  -5   7  -1   -4.80    7.50
   5  -7   1    3.10   10.40
   5  -7   1   -2.30    6.50
   5  -7   1    0.80    7.50
   5  -7   1   -3.80   17.00
   5  -7   1   -0.80   10.60
  -6   7  -1    4.60   13.50
  -6   7  -1    1.20    8.30
   6  -7   1   -3.10   11.30
   6  -7   1    3.40   11.90
   6  -7   1    8.80   13.20
   6  -7   1    0.40    8.20
  -7   7  -1   38.00   16.00
  -7   7  -1   45.10   10.10
   7  -7   1   60.39   15.50
   7  -7   1   60.99   13.00
   7  -7   1   40.70    9.70
   7  -7   1   51.39   14.50
  11   6  -1   96.59   16.30
 -11  -6   1  155.18   35.80
  10   6  -1  400.36   27.00
  10   6  -1  327.07   23.90
 -10  -6   1  369.36   25.70
 -10  -6   1  378.56   24.50
 -10  -6   1  484.25   37.50
 -10  -6   1  375.76   31.20
   9   6  -1    1.30   11.10
   9   6  -1   21.20   15.80
  -9  -6   1   11.40    6.60
  -9  -6   1   32.90   21.40
  -9  -6   1    1.10   19.10
  -9  -6   1   -7.00    7.20
  -9  -6   1    9.60    9.30
   8   6  -1    0.70    5.60
   8   6  -1   16.20    9.10
   8   6  -1   16.20   13.20
   8   6  -1   -1.50   12.00
  -8  -6   1    0.90   18.40
  -8  -6   1   -1.10   18.40
  -8  -6   1   10.20    5.50
  -8  -6   1    4.60    6.30
   7   6  -1  467.35   28.40
   7   6  -1  400.76   22.60
   7   6  -1  386.06   28.50
   7   6  -1  460.75   24.30
  -7  -6   1  396.96   29.10
  -7  -6   1  438.36   23.70
  -7  -6   1  443.66   34.10
   6   6  -1  565.34   27.70
   6   6  -1  487.65   31.20
   6   6  -1  541.95   30.50
  -6  -6   1  507.75   35.10
   5   6  -1 2098.69   96.19
   5   6  -1 1985.50   97.99
   5   6  -1 1989.70   97.49
  -5  -6   1 1988.00   98.79
   4   6  -1    1.70    4.30
   4   6  -1   -0.10    7.80
  -4  -6   1   14.50    9.70
  -4  -6   1    7.40    5.00
   3   6  -1   15.90    5.10
   3   6  -1   13.60    7.00
  -3  -6   1   12.70    5.00
  -3  -6   1   24.60    8.80
   2   6  -1  259.67   16.50
   2   6  -1  281.47   19.60
  -2  -6   1  255.27   20.70
  -2  -6   1  257.47   18.80
   1   6  -1  357.16   18.00
   1   6  -1  326.77   22.40
   1   6  -1  332.37   19.70
  -1  -6   1  351.06   18.80
  -1  -6   1  354.36   18.70
  -1  -6   1  350.06   18.00
   0   6  -1  327.57   18.60
   0   6  -1  324.87   17.60
   0   6  -1  333.47   22.50
   0   6  -1  317.27   17.20
   0  -6   1  326.47   18.70
   0  -6   1  358.46   19.30
   0  -6   1  304.37   18.80
   0  -6   1  316.97   17.80
   0  -6   1  314.57   17.20
  -1   6  -1  628.54   30.90
  -1   6  -1  560.14   32.20
  -1   6  -1  595.14   32.90
  -1   6  -1  637.54   30.60
  -1   6  -1  612.04   35.50
   1  -6   1  618.44   31.80
   1  -6   1  671.13   32.70
   1  -6   1  585.94   30.80
   1  -6   1  632.14   32.40
   1  -6   1  618.64   30.80
   1  -6   1  627.74   30.60
   1  -6   1  608.94   34.60
  -2   6  -1  452.85   23.10
  -2   6  -1  398.96   25.30
  -2   6  -1  447.16   23.70
  -2   6  -1  481.15   26.50
  -2   6  -1  473.25   25.40
   2  -6   1  449.16   25.00
   2  -6   1  392.66   28.40
   2  -6   1  442.56   23.60
   2  -6   1  438.76   23.10
   2  -6   1  471.15   26.30
   2  -6   1  442.56   26.00
  -3   6  -1  254.47   20.10
  -3   6  -1  225.18   15.80
  -3   6  -1  216.18   14.40
  -3   6  -1  236.38   18.30
   3  -6   1  211.68   14.50
   3  -6   1  214.08   15.40
   3  -6   1  215.08   17.60
   3  -6   1  196.18   19.40
   3  -6   1  241.08   19.80
  -4   6  -1 1015.70   50.79
  -4   6  -1  993.90   49.90
  -4   6  -1  964.00   47.80
  -4   6  -1  949.31   48.20
   4  -6   1  967.20   49.50
   4  -6   1  869.71   51.09
   4  -6   1  974.40   48.10
   4  -6   1  972.90   47.80
   4  -6   1 1009.10   50.49
  -5   6  -1 1884.81   89.99
  -5   6  -1 1961.00   90.59
  -5   6  -1 1890.31   88.39
  -5   6  -1 1836.62   88.69
  -5   6  -1 1523.55   90.59
   5  -6   1 1790.62   89.39
   5  -6   1 1765.52   92.89
   5  -6   1 1948.61   90.29
  -6   6  -1   24.00    8.00
  -6   6  -1   20.70   12.20
   6  -6   1   30.00   12.50
   6  -6   1   26.50   11.20
   6  -6   1   22.10    7.80
   6  -6   1   17.10    7.20
   6  -6   1   20.10   10.40
  -7   6  -1   -4.60    8.80
  -7   6  -1  -15.20   13.40
   7  -6   1   -0.30    8.50
   7  -6   1  -13.50   13.10
   7  -6   1    3.50   11.40
   7  -6   1   -0.90   12.20
  -8   6  -1   20.50   16.00
  -8   6  -1   45.10   23.70
  -8   6  -1   29.40   10.20
   8  -6   1   31.90   13.80
   8  -6   1   37.50   10.20
   8  -6   1   36.40   12.50
   8  -6   1   36.90   15.20
  11   5  -1   77.59   20.70
 -11  -5   1   57.29   22.90
  10   5  -1   13.40    7.30
  10   5  -1   39.70   13.00
 -10  -5   1   30.00   11.60
 -10  -5   1   57.09   20.20
 -10  -5   1   13.50    8.40
 -10  -5   1   35.50    7.70
 -10  -5   1   76.99   25.00
   9   5  -1  659.43   39.20
   9   5  -1  622.14   35.80
  -9  -5   1  654.43   35.90
  -9  -5   1  690.93   36.70
  -9  -5   1  688.23   40.10
  -9  -5   1  765.42   43.70
  -9  -5   1  668.33   38.90
  -9  -5   1  803.72   48.40
   8   5  -1  111.19   20.80
   8   5  -1  149.88   21.20
   8   5  -1   90.49   14.10
   8   5  -1  121.29   11.70
   8   5  -1   94.99   12.40
  -8  -5   1  131.79   24.00
  -8  -5   1  107.79   19.40
  -8  -5   1  133.49   17.30
  -8  -5   1  143.59   29.30
  -8  -5   1   99.89   13.80
  -8  -5   1  127.79   17.40
   7   5  -1   69.09   13.10
   7   5  -1   60.29   11.70
   7   5  -1   53.49    9.10
   7   5  -1   45.80   11.00
   7   5  -1   34.60    5.60
  -7  -5   1   61.49   16.00
  -7  -5   1   43.40    8.80
  -7  -5   1   68.29   14.60
  -7  -5   1   44.20    6.20
  -7  -5   1   58.29   16.10
  -7  -5   1   41.40    5.40
   6   5  -1  486.05   24.00
   6   5  -1  417.86   27.20
   6   5  -1  501.05   26.60
   6   5  -1  435.96   22.90
   6   5  -1  437.76   23.20
  -6  -5   1  425.96   23.00
  -6  -5   1  452.55   25.90
  -6  -5   1  443.86   30.50
  -6  -5   1  417.86   24.80
   5   5  -1    1.40    8.00
   5   5  -1    0.60    4.90
   5   5  -1   11.80    7.90
  -5  -5   1    6.60   10.30
   4   5  -1 2091.69  100.09
   4   5  -1 2132.39  101.09
   4   5  -1 2115.19  101.49
  -4  -5   1 2082.99  101.79
   3   5  -1  211.88   14.10
   3   5  -1  203.08   11.40
  -3  -5   1  220.98   16.30
   2   5  -1  451.95   23.00
  -2  -5   1  435.76   25.00
  -2  -5   1  419.66   22.60
  -2  -5   1  437.76   24.40
   1   5  -1 4634.14  211.58
   1   5  -1 4679.83  211.98
   1   5  -1 4562.94  211.28
   1   5  -1 4426.56  211.38
   1   5  -1 4356.76  212.58
  -1  -5   1 4285.97  211.68
  -1  -5   1 4394.86  211.38
  -1  -5   1 4413.76  212.58
   0   5  -1    2.40    3.30
   0   5  -1    2.70    4.10
   0   5  -1    9.70    4.50
   0   5  -1    9.50    3.20
   0   5  -1   12.60    4.70
   0  -5   1    5.80    4.40
   0  -5   1    4.70    2.80
   0  -5   1    7.60    3.30
   0  -5   1   11.40    4.70
   0  -5   1    6.10    4.00
   0  -5   1    8.10    2.80
  -1   5  -1   88.49    8.20
  -1   5  -1   90.39   11.70
  -1   5  -1   65.29   14.90
  -1   5  -1   70.99   10.80
  -1   5  -1   68.49    9.70
  -1   5  -1   74.69    9.60
   1  -5   1   71.49   13.90
   1  -5   1   86.79    9.60
   1  -5   1   87.19    7.60
   1  -5   1   87.59    7.40
   1  -5   1   95.49   10.50
   1  -5   1   83.19    8.10
   1  -5   1   86.19   10.80
  -2   5  -1  520.55   26.90
  -2   5  -1  500.65   25.70
  -2   5  -1  459.25   27.30
  -2   5  -1  508.15   25.40
  -2   5  -1  513.55   27.40
   2  -5   1  499.25   27.10
   2  -5   1  498.15   25.30
   2  -5   1  552.24   27.70
   2  -5   1  499.05   26.70
   2  -5   1  495.95   25.60
  -3   5  -1  163.88   15.80
  -3   5  -1  126.99   10.70
  -3   5  -1  103.69   19.20
  -3   5  -1  142.09   14.20
  -3   5  -1  132.79   11.60
   3  -5   1  138.19   15.00
   3  -5   1  139.79   15.80
   3  -5   1  150.68   15.30
   3  -5   1  141.79   13.80
   3  -5   1  143.79   11.60
  -4   5  -1  138.49   12.00
  -4   5  -1  148.69   17.90
  -4   5  -1  154.38   16.40
  -4   5  -1  142.89   13.00
   4  -5   1  145.69   16.80
   4  -5   1  134.89   12.70
   4  -5   1  142.69   15.50
   4  -5   1  132.19   12.50
   4  -5   1  119.19   17.40
  -5   5  -1   38.20    6.10
  -5   5  -1   50.19    9.60
  -5   5  -1   32.80    8.30
  -5   5  -1   46.10    6.80
  -5   5  -1   48.80    9.90
   5  -5   1   42.00    8.70
   5  -5   1   38.40    9.90
   5  -5   1   45.80    6.60
   5  -5   1   40.40    6.00
   5  -5   1   71.49   18.40
  -6   5  -1  218.08   24.30
  -6   5  -1  194.08   17.80
  -6   5  -1  219.88   20.60
  -6   5  -1  211.18   23.30
   6  -5   1  144.09   23.40
   6  -5   1  215.68   16.90
   6  -5   1  218.88   23.80
   6  -5   1  218.68   23.60
   6  -5   1  198.08   21.30
  -7   5  -1  223.18   26.30
  -7   5  -1  273.87   28.10
  -7   5  -1  246.48   20.70
   7  -5   1  222.98   28.10
   7  -5   1  258.37   24.90
   7  -5   1  254.27   20.30
   7  -5   1  281.27   27.10
  -8   5  -1   12.30    9.00
  -8   5  -1   14.30   14.10
  -8   5  -1   23.70   22.80
   8  -5   1   16.10   13.90
   8  -5   1   14.80   12.60
   8  -5   1   23.40   13.30
   8  -5   1   13.00    8.80
  11   4  -1  124.79   30.10
 -11  -4   1  153.88   34.60
  10   4  -1  112.09   18.50
  10   4  -1  102.69   15.70
 -10  -4   1  101.69   17.40
 -10  -4   1   83.89   14.10
 -10  -4   1  140.89   15.60
   9   4  -1   25.10    6.70
   9   4  -1   19.90    9.90
  -9  -4   1   15.50   15.20
  -9  -4   1   44.50    9.90
  -9  -4   1   39.00    6.70
  -9  -4   1   67.39   21.50
  -9  -4   1   21.10    7.60
   8   4  -1  153.58   12.60
   8   4  -1  140.89   13.60
   8   4  -1  148.09   16.70
   8   4  -1  152.88   21.70
   8   4  -1  118.69   21.80
   8   4  -1  132.19   17.40
   8   4  -1  186.18   16.80
  -8  -4   1  170.98   13.50
  -8  -4   1  152.88   14.80
  -8  -4   1  185.08   29.20
  -8  -4   1  134.99   19.60
  -8  -4   1  177.28   23.90
  -8  -4   1  185.68   18.30
   7   4  -1   98.79   19.00
   7   4  -1  124.89   10.40
   7   4  -1   88.59   11.40
   7   4  -1  109.89   13.90
   7   4  -1  126.49   16.80
  -7  -4   1  120.09   11.10
  -7  -4   1  106.19   12.10
  -7  -4   1  108.59   16.90
  -7  -4   1  132.69   20.50
  -7  -4   1  101.29   25.10
  -7  -4   1  138.19   15.30
   6   4  -1   93.49   21.70
   6   4  -1  102.39    9.70
   6   4  -1  115.29   13.10
   6   4  -1  107.29   13.60
   6   4  -1   87.19   12.50
  -6  -4   1  101.89   10.50
  -6  -4   1   86.79   14.20
  -6  -4   1  118.69   20.50
  -6  -4   1  101.99    9.50
   5   4  -1 1878.21   88.39
   5   4  -1 1793.52   87.69
   5   4  -1 1831.02   87.69
   5   4  -1 1791.22   88.59
   5   4  -1 1849.42   87.19
   5   4  -1 1754.52   87.09
  -5  -4   1 1928.21   87.99
  -5  -4   1 1943.01   87.29
  -5  -4   1 1858.51   89.29
  -5  -4   1 1791.42   87.69
  -5  -4   1 1732.03   87.09
   4   4  -1  198.38   13.00
   4   4  -1  201.78   11.10
   4   4  -1  179.58   13.70
   4   4  -1  164.58   10.30
   4   4  -1  156.28   12.00
   4   4  -1  168.28   10.50
  -4  -4   1  200.98   15.90
  -4  -4   1  186.48   10.90
  -4  -4   1  170.68   12.90
   3   4  -1  536.85   29.30
   3   4  -1  619.24   30.00
   3   4  -1  630.74   28.90
   3   4  -1  605.84   30.70
  -3  -4   1  587.94   30.90
   2   4  -1    0.60    4.50
  -2  -4   1    3.40    5.60
  -2  -4   1   -5.30    3.30
  -2  -4   1    3.70    3.10
   1   4  -1 1171.78   54.79
   1   4  -1 1172.48   56.19
  -1  -4   1 1139.49   55.99
  -1  -4   1 1097.59   55.19
  -1  -4   1 1170.28   54.79
   0  -4   1 9999.00  472.85
  -1   4  -1 2988.20  145.49
  -1   4  -1 2987.10  145.99
  -1   4  -1 3239.48  145.89
  -1   4  -1 3041.50  144.99
  -1   4  -1 3137.59  144.99
  -1   4  -1 3136.69  145.39
   1  -4   1 2984.70  145.29
   1  -4   1 2942.31  146.19
   1  -4   1 2968.00  145.29
   1  -4   1 2962.60  144.99
   1  -4   1 3051.39  144.99
   1  -4   1 3297.77  145.89
  -2   4  -1  164.08   10.20
  -2   4  -1  181.98   13.10
  -2   4  -1  164.48   12.50
  -2   4  -1  136.29   15.60
  -2   4  -1  151.78   12.30
  -2   4  -1  168.88   10.60
   2  -4   1  163.48   12.40
   2  -4   1  166.98   12.00
   2  -4   1  187.08   12.90
   2  -4   1  166.38   10.10
   2  -4   1  162.58   10.50
  -3   4  -1 2912.71  137.99
  -3   4  -1 2994.40  137.99
  -3   4  -1 2964.00  139.59
  -3   4  -1 2950.80  139.69
  -3   4  -1 2710.73  139.19
  -3   4  -1 3003.30  138.69
   3  -4   1 2927.01  137.89
   3  -4   1 2732.93  140.59
   3  -4   1 3103.19  139.39
   3  -4   1 2851.31  138.39
   3  -4   1 2865.01  138.49
   3  -4   1 2872.51  137.89
  -4   4  -1  107.59   10.20
  -4   4  -1   84.99   13.20
  -4   4  -1  112.09   10.80
  -4   4  -1  107.69   14.90
  -4   4  -1  111.49   14.00
   4  -4   1   94.39   14.40
   4  -4   1  100.09   10.50
   4  -4   1  110.49   10.00
   4  -4   1  104.29   13.10
   4  -4   1  111.49   14.50
  -5   4  -1  282.17   16.90
  -5   4  -1  282.67   21.40
  -5   4  -1  280.87   17.30
   5  -4   1  241.08   24.40
   5  -4   1  274.27   17.20
   5  -4   1  250.77   21.50
   5  -4   1  265.47   21.60
   5  -4   1  283.87   19.90
   5  -4   1  260.97   21.00
   5  -4   1  277.07   16.60
  -6   4  -1   22.40    8.10
  -6   4  -1   26.90    6.60
  -6   4  -1   24.40    6.20
  -6   4  -1   27.20   16.40
  -6   4  -1   26.80    9.80
  -6   4  -1   29.40   10.20
   6  -4   1   23.20    9.90
   6  -4   1   31.80    5.90
   6  -4   1   32.90   10.80
   6  -4   1   24.40    6.60
   6  -4   1   32.10    9.30
  -7   4  -1    6.10   11.30
  -7   4  -1   17.20   10.50
   7  -4   1    8.40   11.20
   7  -4   1   15.50    7.50
   7  -4   1   22.30    9.70
   7  -4   1   13.30   10.50
   7  -4   1   15.70    6.90
  -8   4  -1   53.19   21.30
  -8   4  -1   21.50    8.50
  -8   4  -1   27.70   12.70
  -8   4  -1   23.40   13.30
   8  -4   1   23.80   13.00
   8  -4   1   23.30   11.50
   8  -4   1   31.50    8.20
   8  -4   1   16.70   12.40
  -9   4  -1  -16.80   14.60
  -9   4  -1  -15.60    9.40
   9  -4   1  -10.40    8.90
   9  -4   1   -1.60   15.40
   9  -4   1   -6.70   11.90
   9  -4   1   -1.50   12.50
  11   3  -1   44.80   13.00
  11   3  -1   17.70    9.40
 -11  -3   1   28.70    9.80
 -11  -3   1   15.60   14.90
  10   3  -1  107.39   13.50
  10   3  -1   83.79    9.30
  10   3  -1   75.49   12.50
 -10  -3   1   85.09   16.10
 -10  -3   1   65.29   18.10
 -10  -3   1   80.69    9.90
 -10  -3   1  111.59   15.80
 -10  -3   1   78.79   13.80
   9   3  -1  138.19   19.10
   9   3  -1  135.19   19.40
   9   3  -1  174.08   21.50
   9   3  -1  154.18   15.40
  -9  -3   1  149.29   16.50
  -9  -3   1  173.98   15.00
  -9  -3   1  173.68   20.70
   8   3  -1  410.56   27.10
   8   3  -1  388.96   25.70
   8   3  -1  313.27   28.00
   8   3  -1  360.16   24.90
   8   3  -1  368.26   21.40
   8   3  -1  382.46   22.00
   8   3  -1  406.26   24.70
  -8  -3   1  394.46   22.70
  -8  -3   1  385.26   26.20
  -8  -3   1  380.16   29.10
  -8  -3   1  416.36   36.60
  -8  -3   1  407.66   25.30
  -8  -3   1  388.36   21.80
   7   3  -1  208.28   18.30
   7   3  -1  223.78   14.80
   7   3  -1  230.88   14.40
   7   3  -1  203.98   21.60
   7   3  -1  236.08   18.20
   7   3  -1  254.27   18.00
   7   3  -1  246.68   19.60
  -7  -3   1  259.17   18.30
  -7  -3   1  236.78   15.60
  -7  -3   1  215.28   22.10
  -7  -3   1  243.68   21.70
  -7  -3   1  234.28   15.60
  -7  -3   1  202.18   26.50
  -7  -3   1  219.08   19.10
   6   3  -1  650.53   38.80
   6   3  -1  642.74   33.70
   6   3  -1  635.04   32.50
   6   3  -1  680.23   34.40
   6   3  -1  661.13   33.70
   6   3  -1  666.23   38.20
  -6  -3   1  681.93   34.30
  -6  -3   1  606.74   37.70
  -6  -3   1  662.23   32.60
  -6  -3   1  650.03   34.00
  -6  -3   1  653.53   33.70
  -6  -3   1  661.53   35.70
  -6  -3   1  639.44   32.40
   5   3  -1 2192.98  101.79
   5   3  -1 2128.89  103.69
   5   3  -1 2103.59  101.79
   5   3  -1 1822.52  103.79
   5   3  -1 2086.09  102.29
   5   3  -1 2214.88  102.69
  -5  -3   1 2255.27  101.89
  -5  -3   1 2148.39  103.59
  -5  -3   1 2290.47  102.89
  -5  -3   1 2134.79  102.29
  -5  -3   1 2247.58  102.49
  -5  -3   1 2079.69  101.69
   4   3  -1   35.60    5.20
   4   3  -1   23.70    4.20
   4   3  -1   40.20    8.40
   4   3  -1   26.80    4.10
   4   3  -1   33.50    5.60
  -4  -3   1   25.80    4.30
  -4  -3   1   23.60    4.60
  -4  -3   1   27.40    3.50
  -4  -3   1   37.10    5.20
   3   3  -1   -1.60    2.00
   3   3  -1    3.30    4.40
   3   3  -1    4.30    4.70
   3   3  -1   -1.50    2.30
   3   3  -1   -1.00    3.00
  -3  -3   1   -3.10    3.30
  -3  -3   1    6.90    5.70
  -3  -3   1   -2.30    2.30
  -3  -3   1   -2.40    2.00
   2   3  -1 2732.13  129.39
   2   3  -1 2830.92  129.89
   2   3  -1 2864.71  130.09
   2   3  -1 2601.94  129.39
   2   3  -1 2580.04  129.59
  -2  -3   1 2837.72  129.39
  -2  -3   1 2782.52  130.09
  -2  -3   1 2697.43  129.69
  -2  -3   1 2670.03  129.39
   1   3  -1  119.39    6.90
   1   3  -1   99.19    7.70
   1   3  -1  126.79    6.90
  -1  -3   1  137.39    8.90
  -1  -3   1  121.19    6.90
  -1  -3   1  114.19    8.70
  -1  -3   1  122.79    7.90
   0   3  -1  116.19    7.50
   0   3  -1  113.09    6.80
   0   3  -1  108.09    7.80
   0   3  -1  111.09    8.10
   0  -3   1  109.09    8.90
   0  -3   1  116.09    8.00
   0  -3   1  126.39    7.80
   0  -3   1  118.69    8.10
   0  -3   1  117.09    6.80
   0  -3   1  120.09    7.00
  -1   3  -1 4158.98  183.98
  -1   3  -1 3845.22  184.08
  -1   3  -1 3888.91  183.38
  -1   3  -1 3933.81  183.58
  -1   3  -1 3827.62  183.58
  -1   3  -1 3849.81  183.28
   1  -3   1 3858.41  183.28
   1  -3   1 3819.52  183.58
   1  -3   1 3740.53  183.58
   1  -3   1 3889.31  184.28
   1  -3   1 3841.62  183.28
  -2   3  -1 2422.56  110.09
  -2   3  -1 2278.57  109.59
  -2   3  -1 2318.07  110.29
  -2   3  -1 2312.77  109.09
  -2   3  -1 2270.47  109.09
  -2   3  -1 2359.66  109.49
   2  -3   1 2210.98  109.09
   2  -3   1 2243.48  109.09
   2  -3   1 2219.38  109.39
   2  -3   1 2261.97  110.19
   2  -3   1 2226.48  109.49
   2  -3   1 2489.45  110.09
  -3   3  -1  114.29    8.30
  -3   3  -1  112.29   11.20
  -3   3  -1   94.99   10.80
  -3   3  -1  111.89    8.60
  -3   3  -1  110.69   10.80
   3  -3   1  114.59    8.10
   3  -3   1   85.59   12.30
   3  -3   1  103.39   10.90
   3  -3   1  121.19   10.30
   3  -3   1  110.49    8.50
   3  -3   1  117.29   11.30
  -4   3  -1  570.44   34.00
  -4   3  -1  678.23   33.60
  -4   3  -1  606.94   35.90
  -4   3  -1  670.93   33.80
  -4   3  -1  662.03   32.30
  -4   3  -1  675.83   32.20
   4  -3   1  608.24   35.80
   4  -3   1  669.63   32.20
   4  -3   1  654.43   32.20
   4  -3   1  654.73   33.30
   4  -3   1  665.13   33.50
   4  -3   1  684.93   34.50
  -5   3  -1 1360.86   65.29
  -5   3  -1 1371.56   63.99
  -5   3  -1 1148.29   65.49
  -5   3  -1 1412.66   65.29
  -5   3  -1 1374.26   63.89
  -5   3  -1 1355.56   66.89
   5  -3   1 1290.17   65.89
   5  -3   1 1359.16   65.09
   5  -3   1 1371.46   63.89
   5  -3   1 1213.08   67.49
   5  -3   1 1337.57   67.39
   5  -3   1 1278.17   65.19
  -6   3  -1   91.49   16.20
  -6   3  -1  112.19   11.90
  -6   3  -1  112.89   18.50
  -6   3  -1  111.79   17.00
  -6   3  -1  104.89   12.90
   6  -3   1   95.89   17.20
   6  -3   1   81.19   17.40
   6  -3   1   97.19   22.80
   6  -3   1  114.69   24.90
   6  -3   1  113.49   11.60
   6  -3   1  114.29   18.10
   6  -3   1  111.39   12.80
  -7   3  -1   -3.10    7.90
  -7   3  -1    6.50    9.40
  -7   3  -1  -12.10   10.30
  -7   3  -1    6.40    6.20
  -7   3  -1    1.40    6.80
   7  -3   1  -14.90   12.50
   7  -3   1   -1.30    5.60
   7  -3   1   12.60   14.50
   7  -3   1   -3.50    6.40
   7  -3   1    9.60   12.40
   7  -3   1  -11.10    9.90
   7  -3   1    5.10    8.40
  -8   3  -1   -7.60   10.90
  -8   3  -1  -15.00   11.80
  -8   3  -1   -7.00    7.60
  -8   3  -1  -30.60   31.10
   8  -3   1   -9.70   11.50
   8  -3   1   -6.60    7.30
   8  -3   1    3.30    9.90
   8  -3   1  -11.80   10.90
  -9   3  -1  100.79   15.90
  -9   3  -1  116.49   19.10
  -9   3  -1   81.79   14.80
   9  -3   1  100.99   18.30
   9  -3   1   97.49   26.40
   9  -3   1   89.89   14.90
   9  -3   1  123.49   17.90
 -10   3  -1   57.49   16.90
 -10   3  -1   63.89   10.80
  10  -3   1   71.39   20.00
  10  -3   1   61.39   10.60
 -11  -2   1   52.99   22.50
  10   2  -1    9.20   10.70
  10   2  -1   -5.60   11.90
  10   2  -1   34.10   15.50
 -10  -2   1  -12.10    8.20
 -10  -2   1  -18.50   12.50
 -10  -2   1   35.80   19.10
 -10  -2   1  -11.20   11.60
 -10  -2   1   -4.10    9.40
 -10  -2   1   -0.90    7.20
   9   2  -1  424.46   25.80
   9   2  -1  408.06   29.10
   9   2  -1  424.16   30.30
   9   2  -1  471.05   32.70
  -9  -2   1  453.75   30.60
  -9  -2   1  445.16   26.40
  -9  -2   1  511.45   34.20
  -9  -2   1  412.46   25.30
   8   2  -1   19.50   11.40
   8   2  -1   -5.20    8.40
   8   2  -1   10.40    8.10
   8   2  -1    1.00    5.60
   8   2  -1   14.00    7.80
   8   2  -1    8.20    4.90
   8   2  -1  -11.80   11.80
  -8  -2   1    1.90    6.00
  -8  -2   1   -3.00   19.90
  -8  -2   1    0.10   14.30
  -8  -2   1   16.30    5.60
  -8  -2   1   -4.20    9.30
  -8  -2   1   11.70    8.00
  -8  -2   1    0.50    6.50
   7   2  -1  475.05   25.40
   7   2  -1  436.36   27.60
   7   2  -1  526.55   28.10
   7   2  -1  481.25   27.50
   7   2  -1  420.46   30.10
   7   2  -1  513.25   28.10
   7   2  -1  475.65   25.00
  -7  -2   1  459.15   26.70
  -7  -2   1  463.95   36.10
  -7  -2   1  486.85   25.30
  -7  -2   1  528.85   27.20
  -7  -2   1  487.45   27.60
  -7  -2   1  503.75   25.80
  -7  -2   1  474.85   28.40
   6   2  -1  136.39   17.30
   6   2  -1  169.08   12.40
   6   2  -1  176.48   14.40
   6   2  -1  190.08   14.30
   6   2  -1  148.59   11.40
   6   2  -1  173.58   14.60
   6   2  -1  147.49   14.70
  -6  -2   1  172.98   14.30
  -6  -2   1  149.49   14.90
  -6  -2   1  165.38   11.30
  -6  -2   1  161.08   11.90
  -6  -2   1  153.88   16.80
  -6  -2   1  152.48   12.70
   5   2  -1 1390.16   64.89
   5   2  -1 1376.56   64.79
   5   2  -1 1210.58   65.29
   5   2  -1 1363.16   64.79
   5   2  -1 1346.27   64.19
   5   2  -1 1347.97   64.89
  -5  -2   1 1358.16   64.19
  -5  -2   1 1375.06   64.89
  -5  -2   1 1314.17   65.29
  -5  -2   1 1391.46   64.99
  -5  -2   1 1349.96   64.69
  -5  -2   1 1299.87   64.09
  -5  -2   1 1297.67   66.49
  -5  -2   1 1351.66   64.79
   4   2  -1 5325.77  249.08
   4   2  -1 5316.57  249.18
   4   2  -1 5198.48  249.58
   4   2  -1 5234.78  249.38
   4   2  -1 5186.98  249.38
   4   2  -1 5278.37  250.07
  -4  -2   1 5413.16  249.18
  -4  -2   1 5367.36  249.48
  -4  -2   1 5280.27  249.38
  -4  -2   1 5154.58  250.17
  -4  -2   1 5157.68  249.38
  -4  -2   1 5199.58  249.08
  -4  -2   1 5399.46  249.58
   3   2  -1 1233.18   57.89
   3   2  -1 1196.68   57.39
   3   2  -1 1176.58   57.39
   3   2  -1 1175.78   57.69
   3   2  -1 1213.48   58.39
   3   2  -1 1186.68   57.69
  -3  -2   1 1207.28   57.69
  -3  -2   1 1234.18   57.79
  -3  -2   1 1267.17   57.39
  -3  -2   1 1202.68   58.49
  -3  -2   1 1176.98   57.29
   2   2  -1 1566.44   77.09
   2   2  -1 1613.64   76.59
   2   2  -1 1547.55   76.79
   2   2  -1 1630.64   76.99
   2   2  -1 1605.54   76.79
   2   2  -1 1632.54   76.59
  -2  -2   1 1639.84   76.89
  -2  -2   1 1573.34   76.59
  -2  -2   1 1718.33   76.69
  -2  -2   1 1648.24   77.29
   0   2  -1   70.99    4.50
   0   2  -1   68.39    4.50
   0   2  -1   70.19    5.40
   0   2  -1   75.29    5.70
   0  -2   1   65.99    5.60
   0  -2   1   70.29    6.10
   0  -2   1   68.39    4.60
   0  -2   1   62.19    6.10
   0  -2   1   68.69    4.50
  -1   2  -1  956.50   48.20
  -1   2  -1  989.70   47.20
  -1   2  -1  964.70   47.60
  -1   2  -1  986.70   47.50
  -1   2  -1 1082.99   47.90
  -1   2  -1 1000.60   47.30
   1  -2   1  957.90   47.20
   1  -2   1 1130.99   48.00
   1  -2   1  930.71   47.50
   1  -2   1  979.40   47.50
   1  -2   1  947.11   48.20
   1  -2   1  980.50   47.30
  -2   2  -1  657.53   33.30
  -2   2  -1  692.63   32.60
  -2   2  -1  645.24   31.70
  -2   2  -1  673.23   32.30
  -2   2  -1  662.23   31.70
  -2   2  -1  647.64   32.20
   2  -2   1  721.03   32.70
   2  -2   1  631.34   32.10
   2  -2   1  632.34   33.00
   2  -2   1  649.93   31.70
   2  -2   1  647.34   32.20
   2  -2   1  641.84   31.70
  -3   2  -1    9.00    4.20
  -3   2  -1   11.90    2.70
  -3   2  -1   -1.10    7.20
  -3   2  -1    6.70    3.70
  -3   2  -1    7.80    2.80
  -3   2  -1   13.00    4.30
   3  -2   1   11.00    3.70
   3  -2   1    1.10    6.50
   3  -2   1   11.80    4.00
   3  -2   1    6.00    4.10
   3  -2   1    1.40    5.80
   3  -2   1    9.90    2.60
   3  -2   1    7.80    2.80
  -4   2  -1  378.96   23.90
  -4   2  -1  416.86   20.60
  -4   2  -1  411.66   22.10
  -4   2  -1  407.16   22.20
  -4   2  -1  366.56   24.80
  -4   2  -1  421.06   20.80
   4  -2   1  406.36   20.40
   4  -2   1  405.06   22.10
   4  -2   1  389.46   24.50
   4  -2   1  387.96   21.70
   4  -2   1  411.26   20.70
   4  -2   1  410.86   22.80
  -5   2  -1 1293.67   60.29
  -5   2  -1 1295.67   61.29
  -5   2  -1 1238.88   62.69
  -5   2  -1 1278.07   61.39
  -5   2  -1 1115.39   62.09
  -5   2  -1 1268.97   60.19
   5  -2   1 1232.68   60.09
   5  -2   1 1254.97   63.69
   5  -2   1 1311.77   62.29
   5  -2   1 1246.58   61.19
   5  -2   1 1205.48   61.79
   5  -2   1 1258.17   60.29
  -6   2  -1  483.45   28.20
  -6   2  -1  459.65   31.00
  -6   2  -1  502.35   25.50
  -6   2  -1  401.06   27.60
  -6   2  -1  472.85   24.90
   6  -2   1  486.35   28.90
   6  -2   1  500.15   27.40
   6  -2   1  469.25   24.80
   6  -2   1  442.36   28.10
   6  -2   1  465.25   31.60
   6  -2   1  478.65   27.50
   6  -2   1  494.95   25.20
  -7   2  -1   -0.20    7.40
  -7   2  -1   13.10    8.50
  -7   2  -1  -20.90   15.10
  -7   2  -1   13.80    5.60
  -7   2  -1    1.30    6.40
  -7   2  -1    9.90    9.40
   7  -2   1    1.90   13.20
   7  -2   1    6.10    6.20
   7  -2   1    9.70    8.70
   7  -2   1   14.00    7.80
   7  -2   1    4.00    9.10
   7  -2   1    6.80    5.10
   7  -2   1    6.10   11.60
  -8   2  -1   10.80   10.30
  -8   2  -1    4.50    7.30
  -8   2  -1   12.90    6.60
  -8   2  -1    3.60   10.90
  -8   2  -1  -21.00   17.50
   8  -2   1    7.10   19.10
   8  -2   1    5.20    9.20
   8  -2   1    2.10   10.60
   8  -2   1    3.20    7.00
   8  -2   1    2.40   10.20
   8  -2   1   -1.70   13.60
  -9   2  -1   -7.40   15.90
  -9   2  -1   17.80   20.80
  -9   2  -1   -0.30    8.20
  -9   2  -1   13.90   11.70
   9  -2   1   -9.30   11.90
   9  -2   1   -4.00   12.20
   9  -2   1   -3.10    7.90
   9  -2   1    3.70   11.30
 -10   2  -1   60.89   10.60
 -10   2  -1   57.39   16.10
  10  -2   1   70.39   10.60
  10  -2   1   68.49   15.00
  10  -2   1   91.59   19.70
  11   1  -1  -20.50   13.80
  11   1  -1    4.40   12.10
  11   1  -1  -11.80    9.00
 -11  -1   1  -19.40   14.90
 -11  -1   1   -7.20    9.70
 -11  -1   1   30.40   22.50
  10   1  -1  198.28   26.10
  10   1  -1  149.79   24.30
  10   1  -1  157.78   20.40
 -10  -1   1  163.88   27.20
 -10  -1   1  207.18   24.60
 -10  -1   1  173.08   20.00
   9   1  -1   36.40    7.60
   9   1  -1   49.70   10.70
   9   1  -1   36.20   11.10
   9   1  -1   76.69   21.00
  -9  -1   1   43.20    8.10
  -9  -1   1   45.40   11.90
  -9  -1   1   40.50    7.10
  -9  -1   1   45.60   10.30
   8   1  -1  181.88   15.40
   8   1  -1  180.88   19.40
   8   1  -1  170.48   20.00
   8   1  -1  176.98   14.10
   8   1  -1  148.29   23.90
   8   1  -1  170.78   19.50
   8   1  -1  202.08   18.90
  -8  -1   1  169.88   14.70
  -8  -1   1  212.78   27.10
  -8  -1   1  205.08   29.80
  -8  -1   1  178.98   21.20
  -8  -1   1  193.08   16.00
   7   1  -1   -4.00    5.10
   7   1  -1    5.00    4.40
   7   1  -1    5.20    7.00
   7   1  -1   -4.90   10.90
   7   1  -1    8.80    9.20
   7   1  -1   13.80    7.10
  -7  -1   1    8.40    8.20
  -7  -1   1    7.00    4.90
  -7  -1   1   -3.50    5.20
  -7  -1   1    0.40    6.10
  -7  -1   1    2.10    7.20
   6   1  -1  169.08   13.70
   6   1  -1  145.49   14.20
   6   1  -1  142.89   11.40
   6   1  -1  144.29   23.70
  -6  -1   1  118.89   15.30
  -6  -1   1  139.99   11.80
  -6  -1   1  153.88   17.10
  -6  -1   1  150.78   18.50
  -6  -1   1  160.98   12.80
  -6  -1   1  141.09   14.80
   5   1  -1  988.80   46.60
   5   1  -1  923.01   46.40
   5   1  -1  909.91   45.50
   5   1  -1  935.41   46.30
   5   1  -1  966.80   46.20
  -5  -1   1  933.41   46.40
  -5  -1   1  924.71   45.50
  -5  -1   1  950.00   46.10
  -5  -1   1  942.81   46.40
  -5  -1   1  942.01   47.00
  -5  -1   1  954.80   46.50
  -5  -1   1  942.81   45.60
  -5  -1   1  940.51   49.30
   4   1  -1  240.78   14.30
   4   1  -1  243.18   12.90
   4   1  -1  268.57   14.10
   4   1  -1  250.37   13.90
   4   1  -1  242.08   14.50
   4   1  -1  245.58   13.10
   4   1  -1  199.38   16.40
  -4  -1   1  238.28   13.80
  -4  -1   1  245.88   13.10
  -4  -1   1  249.18   14.60
  -4  -1   1  249.08   13.00
  -4  -1   1  222.18   15.20
  -4  -1   1  251.67   14.30
  -4  -1   1  250.07   13.80
   3   1  -1 3980.80  186.98
   3   1  -1 3845.42  186.48
   3   1  -1 3883.11  186.48
   3   1  -1 3883.01  186.18
   3   1  -1 3947.30  186.28
   3   1  -1 3968.90  186.48
   3   1  -1 4073.69  186.58
  -3  -1   1 3913.01  186.48
  -3  -1   1 3926.21  186.48
  -3  -1   1 4006.30  186.58
  -3  -1   1 3930.91  187.08
  -3  -1   1 3947.30  186.48
  -3  -1   1 3916.01  186.18
  -3  -1   1 3942.01  186.28
   2   1  -1 4899.51  231.78
   0   1  -1 2146.29  100.29
   0   1  -1 2063.49  100.59
   0   1  -1 2148.89  100.49
   0   1  -1 2147.29  100.39
   0   1  -1 2174.88  100.29
   0  -1   1 2106.99  100.39
   0  -1   1 2104.49  100.49
   0  -1   1 2131.49  100.29
   0  -1   1 2003.40  100.59
   0  -1   1 2200.58  100.29
  -1   1  -1 1139.79   60.49
  -1   1  -1 1308.97   60.59
  -1   1  -1 1308.67   60.39
  -1   1  -1 1287.07   60.59
   1  -1   1 1242.58   60.49
   1  -1   1 1333.87   60.89
   1  -1   1 1280.47   60.39
   1  -1   1 1279.07   60.39
   1  -1   1 1256.57   60.49
   1  -1   1 1243.88   60.39
  -2   1  -1  995.40   47.50
  -2   1  -1  947.61   46.90
  -2   1  -1  959.90   46.60
  -2   1  -1 1117.19   47.40
  -2   1  -1  957.50   46.90
  -2   1  -1  967.20   46.60
   2  -1   1  948.21   47.30
   2  -1   1 1109.39   47.40
   2  -1   1  938.91   47.50
   2  -1   1  930.71   46.90
   2  -1   1  959.30   47.00
   2  -1   1  929.11   46.60
   2  -1   1  964.00   46.60
  -3   1  -1  298.17   14.60
  -3   1  -1  290.17   15.50
  -3   1  -1  310.57   15.90
  -3   1  -1  286.47   14.50
  -3   1  -1  287.17   15.60
  -3   1  -1  270.47   16.60
   3  -1   1  283.37   14.50
   3  -1   1  281.57   14.50
   3  -1   1  288.77   15.50
   3  -1   1  280.07   15.30
   3  -1   1  269.97   16.20
   3  -1   1  264.17   17.10
  -4   1  -1   65.89   11.80
  -4   1  -1   88.49    9.80
  -4   1  -1   84.59    9.70
  -4   1  -1   85.39    7.40
  -4   1  -1   79.69    9.70
  -4   1  -1   85.09    7.30
   4  -1   1   68.89   13.10
   4  -1   1   77.19   10.00
   4  -1   1   88.59    7.00
   4  -1   1  102.29   10.40
   4  -1   1   84.39    9.20
   4  -1   1   74.99    7.40
  -5   1  -1 3631.74  170.78
  -5   1  -1 3632.74  170.28
  -5   1  -1 3639.24  169.68
  -5   1  -1 3629.44  170.28
  -5   1  -1 3394.76  170.98
  -5   1  -1 3629.74  169.68
   5  -1   1 3170.88  170.78
   5  -1   1 3788.02  171.18
   5  -1   1 3581.84  169.68
   5  -1   1 3525.95  169.58
   5  -1   1 3686.23  170.28
   5  -1   1 3634.44  170.58
   5  -1   1 3598.54  171.98
  -6   1  -1  409.56   26.80
  -6   1  -1  400.36   21.60
  -6   1  -1  392.16   24.40
  -6   1  -1  346.87   23.70
  -6   1  -1  389.66   23.80
  -6   1  -1  394.96   21.20
   6  -1   1  429.66   24.90
   6  -1   1  392.86   21.40
   6  -1   1  386.66   20.90
   6  -1   1  401.06   23.10
   6  -1   1  339.57   30.90
   6  -1   1  386.36   24.00
  -7   1  -1  118.99   22.90
  -7   1  -1  123.59   19.30
  -7   1  -1  110.59   12.20
  -7   1  -1  105.49   13.50
  -7   1  -1   97.59   18.70
   7  -1   1  113.69   18.90
   7  -1   1  112.29   11.40
   7  -1   1   87.09   17.30
   7  -1   1  105.59   12.60
   7  -1   1  119.39   21.30
   7  -1   1  118.39   17.80
   7  -1   1  117.99   16.20
  -8   1  -1  657.53   36.50
  -8   1  -1  682.33   41.20
  -8   1  -1  690.63   37.60
  -8   1  -1  624.04   33.20
   8  -1   1  572.64   38.50
   8  -1   1  654.83   33.50
   8  -1   1  619.34   33.10
   8  -1   1  671.13   36.50
   8  -1   1  571.84   36.90
   8  -1   1  608.24   40.10
   8  -1   1  633.84   35.80
  -9   1  -1   13.80   19.20
  -9   1  -1   17.80   11.00
  -9   1  -1   17.90    7.20
  -9   1  -1    6.80    7.80
   9  -1   1   11.40   10.90
   9  -1   1   10.50    9.10
   9  -1   1    4.30   11.30
   9  -1   1    3.50   11.20
 -10   1  -1   29.40   14.20
 -10   1  -1   42.90    9.50
 -10   1  -1   73.79   23.20
  10  -1   1   22.20   13.20
  10  -1   1   32.70    8.60
  10  -1   1   50.59   12.40
  11   0  -1   -9.60   14.80
  11   0  -1   -8.80    9.10
  11   0  -1   11.60   13.70
 -11   0   1  -21.40   15.40
 -11   0   1  -10.90   10.00
  10   0  -1   13.70   11.90
  10   0  -1   -6.30    8.30
  10   0  -1   -6.40   12.70
 -10   0   1    3.70   12.40
 -10   0   1   -3.70   13.60
 -10   0   1    2.20    8.80
   9   0  -1  498.35   33.20
   9   0  -1  455.35   31.70
   9   0  -1  467.95   27.70
  -9   0   1  432.26   27.40
  -9   0   1  458.85   31.80
  -9   0   1  486.65   28.50
  -9   0   1  573.54   45.40
  -9   0   1  483.95   33.10
   8   0  -1  751.52   41.20
   8   0  -1  847.92   41.80
   8   0  -1  816.82   45.70
   8   0  -1  793.02   47.20
   8   0  -1  841.62   44.30
   8   0  -1  816.12   43.80
  -8   0   1  865.11   42.10
  -8   0   1  825.32   44.10
  -8   0   1  884.41   44.90
  -8   0   1  788.62   41.40
   7   0  -1    2.00    7.00
   7   0  -1    3.70   11.40
   7   0  -1    3.00    7.80
   7   0  -1   -8.40    8.10
   7   0  -1   -3.40    5.40
   7   0  -1    1.20    4.40
  -7   0   1   -5.20    8.30
  -7   0   1   -8.30    5.60
  -7   0   1    2.10    9.60
  -7   0   1  -18.50   17.50
  -7   0   1    3.50    4.90
   6   0  -1  624.24   36.50
   6   0  -1  710.03   35.40
   6   0  -1  764.32   37.40
   6   0  -1  709.93   39.50
   6   0  -1  684.73   36.80
   6   0  -1  711.33   36.80
  -6   0   1  709.53   37.00
  -6   0   1  730.13   35.50
  -6   0   1  714.93   35.20
  -6   0   1  757.52   41.90
  -6   0   1  714.93   37.20
  -6   0   1  698.73   36.90
   5   0  -1 1069.99   48.90
   5   0  -1  932.81   49.90
   5   0  -1  985.10   47.50
   5   0  -1  964.60   47.40
   5   0  -1  958.30   48.40
   5   0  -1  970.30   48.40
  -5   0   1  984.50   48.60
  -5   0   1  994.40   48.60
  -5   0   1  999.70   51.19
  -5   0   1  974.90   48.40
  -5   0   1  990.10   47.60
  -5   0   1  971.00   47.40
   4   0  -1   11.80    4.30
   4   0  -1   12.00    3.90
   4   0  -1   12.80    3.00
   4   0  -1    9.10    7.00
   4   0  -1   13.50    2.70
   4   0  -1   14.60    4.10
  -4   0   1   17.70    4.50
  -4   0   1   17.80    4.20
  -4   0   1   12.00    3.00
  -4   0   1   16.30    2.90
  -4   0   1    9.90    3.50
   3   0  -1   88.39    6.10
   3   0  -1   90.29    6.40
   3   0  -1   95.39    7.50
   3   0  -1   89.19    8.00
   3   0  -1   93.49    7.90
  -3   0   1   91.49    6.30
  -3   0   1   93.29    7.90
  -3   0   1   85.79    7.30
  -3   0   1   96.79    6.40
  -3   0   1  100.49    7.80
   2   0  -1   94.99    6.70
   2   0  -1   93.79    5.70
   2   0  -1   90.59    7.20
   2   0  -1   86.79    5.60
   2   0  -1   93.39    6.50
  -2   0   1   86.79    6.30
  -2   0   1   95.29    6.80
  -2   0   1   93.19    5.70
  -2   0   1  100.99    6.50
  -2   0   1   94.29    5.60
   1   0  -1  254.37   12.60
   1   0  -1  256.07   12.40
   1   0  -1  254.77   12.60
   1   0  -1  255.97   12.40
   1   0  -1  260.97   12.60
   1   0  -1  251.37   13.00
  -1   0   1  254.77   12.60
  -1   0   1  257.37   12.60
  -1   0   1  256.77   13.10
  -1   0   1  265.97   12.40
  -1   0   1  254.97   12.60
  -1   0   1  252.77   12.30
  -2   0  -1  991.70   46.30
  -2   0  -1 1002.70   46.90
  -2   0  -1  957.00   46.50
  -2   0  -1  957.90   46.50
  -2   0  -1  956.90   46.30
   2   0   1  956.50   46.50
   2   0   1  972.30   46.50
   2   0   1 1013.60   46.50
   2   0   1  991.90   46.90
   2   0   1  965.70   47.00
   2   0   1  960.40   46.30
   2   0   1  958.60   46.30
  -3   0  -1  128.89    7.30
  -3   0  -1  135.29    8.60
  -3   0  -1  101.29   10.50
  -3   0  -1  123.89    7.20
  -3   0  -1  112.09    9.90
  -3   0  -1  127.29    8.50
  -3   0  -1  128.29    8.40
   3   0   1  127.99    8.20
   3   0   1  125.59    7.10
   3   0   1  100.59   10.10
   3   0   1  110.89    9.40
   3   0   1  127.69    7.20
   3   0   1  123.99    8.50
  -4   0  -1  117.89    7.90
  -4   0  -1  123.79    9.60
  -4   0  -1  115.39    9.80
  -4   0  -1  122.39    9.70
  -4   0  -1  119.69    7.80
  -4   0  -1  106.19    8.60
   4   0   1  113.89    7.80
   4   0   1   98.89   14.80
   4   0   1  116.79    9.20
   4   0   1  116.99    7.60
   4   0   1   93.19   10.60
  -5   0  -1  151.78   15.80
  -5   0  -1  182.38   11.30
  -5   0  -1  181.08   13.40
  -5   0  -1  177.48   13.70
  -5   0  -1  168.68   12.10
  -5   0  -1  183.58   11.20
  -5   0  -1  175.28   13.60
   5   0   1  170.28   13.60
   5   0   1  199.28   14.30
   5   0   1  192.78   14.20
   5   0   1  179.38   10.80
   5   0   1  172.78   11.20
  -6   0  -1 2145.79  102.89
  -6   0  -1 2215.98  102.19
  -6   0  -1 2216.18  103.89
  -6   0  -1 1935.41  103.39
  -6   0  -1 2180.18  102.99
  -6   0  -1 2006.90  102.39
  -6   0  -1 2335.37  105.49
  -6   0  -1 2103.29  102.49
   6   0   1 2166.18  103.79
   6   0   1 2156.78  102.89
   6   0   1 2280.77  103.99
   6   0   1 2129.39  102.09
   6   0   1 2104.89  102.79
   6   0   1 2119.69  101.99
   6   0   1 2040.00  104.09
  -7   0  -1  625.64   31.40
  -7   0  -1  598.44   33.50
  -7   0  -1  516.65   33.10
  -7   0  -1  592.74   33.70
  -7   0  -1  598.14   31.50
  -7   0  -1  593.84   30.90
  -7   0  -1  664.33   36.20
  -7   0  -1  677.53   40.60
   7   0   1  590.54   33.40
   7   0   1  597.24   30.70
   7   0   1  596.14   31.10
   7   0   1  598.64   32.80
   7   0   1  616.44   32.40
   7   0   1  563.44   35.60
   7   0   1  590.24   33.90
   7   0   1  643.24   35.10
  -8   0  -1   62.99    9.70
  -8   0  -1   85.59   16.40
  -8   0  -1   52.19    7.40
  -8   0  -1   38.20    8.90
  -8   0  -1   77.49   12.00
  -8   0  -1   57.39   11.80
   8   0   1   78.09   11.30
   8   0   1   48.20   10.50
   8   0   1   54.89   10.50
   8   0   1   55.49    7.10
   8   0   1   81.09   16.80
   8   0   1   66.79   11.20
   8   0   1   55.09   13.70
  -9   0  -1  100.79   16.40
  -9   0  -1  105.49   14.80
  -9   0  -1  124.69   21.40
  -9   0  -1  109.79   20.40
   9   0   1  110.29   15.10
   9   0   1   89.79   12.90
 -10   0  -1   23.30   13.50
 -10   0  -1   33.30   22.00
 -10   0  -1   19.60   13.90
 -10   0  -1   16.80    8.80
  10   0   1   22.20    8.40
  10   0   1   24.40   13.10
  10   0   1    8.20   12.10
 -11   0  -1   52.19   10.80
 -11   0  -1   51.39   15.80
  11   0   1   72.59   14.10
  11   0   1   44.10    9.50
  11   0   1   58.89   14.60
  10  -1  -1   25.00   12.50
  10  -1  -1   14.40    8.90
  10  -1  -1    4.20   13.80
 -10   1   1   27.40   14.30
 -10   1   1   14.70    9.50
 -10   1   1   14.30   14.50
   9  -1  -1  184.28   24.90
   9  -1  -1  186.08   18.50
   9  -1  -1  217.88   29.80
   9  -1  -1  192.18   24.70
  -9   1   1  205.48   19.40
  -9   1   1  200.28   24.30
  -9   1   1  191.48   25.90
   8  -1  -1  200.08   20.30
   8  -1  -1  174.28   16.10
   8  -1  -1  161.28   30.40
   8  -1  -1  161.08   15.00
   8  -1  -1  177.88   21.40
   8  -1  -1  167.08   22.00
  -8   1   1  176.68   15.20
  -8   1   1  203.68   21.10
  -8   1   1  168.58   16.90
  -8   1   1  198.28   22.60
   7  -1  -1 1130.69   58.79
   7  -1  -1 1212.08   63.49
   7  -1  -1 1161.18   61.79
   7  -1  -1 1240.38   59.09
   7  -1  -1 1231.08   60.79
   7  -1  -1 1196.58   60.39
  -7   1   1 1242.18   59.29
  -7   1   1 1270.77   60.99
  -7   1   1 1229.98   60.59
  -7   1   1 1198.48   58.89
   6  -1  -1   70.99    9.20
   6  -1  -1   71.79   18.70
   6  -1  -1   64.99   13.10
   6  -1  -1   55.79    8.50
   6  -1  -1   57.09   10.10
  -6   1   1   61.09   10.20
  -6   1   1   87.59   15.40
  -6   1   1   57.09    6.10
  -6   1   1   61.69   12.80
  -6   1   1   59.89    8.40
   5  -1  -1 1172.48   55.09
   5  -1  -1 1106.29   56.39
   5  -1  -1 1127.89   53.59
   5  -1  -1 1071.29   54.29
   5  -1  -1 1112.69   54.49
   5  -1  -1 1069.59   53.39
  -5   1   1 1117.99   54.49
  -5   1   1 1120.59   54.59
  -5   1   1 1129.29   53.59
  -5   1   1 1084.89   53.39
  -5   1   1 1144.19   57.39
  -5   1   1 1050.99   54.69
   4  -1  -1 3695.63  181.48
   4  -1  -1 3928.31  182.18
   4  -1  -1 3813.42  181.08
   4  -1  -1 3769.52  181.58
   4  -1  -1 3780.52  181.08
   4  -1  -1 3999.80  182.68
  -4   1   1 3710.03  181.98
  -4   1   1 3900.81  182.68
  -4   1   1 3828.22  181.18
  -4   1   1 3809.52  181.58
  -4   1   1 3845.82  181.08
  -4   1   1 3840.02  181.58
   3  -1  -1   26.40    6.80
   3  -1  -1   30.00    5.10
   3  -1  -1   34.90    4.60
   3  -1  -1   35.70    6.90
   3  -1  -1   37.90    6.60
   3  -1  -1   34.30    7.10
  -3   1   1   26.70    6.60
  -3   1   1   32.90    5.10
  -3   1   1   40.10    4.80
  -3   1   1   22.30    6.80
  -3   1   1   36.60    7.00
  -3   1   1   32.60    7.30
   2  -1  -1 1607.44   75.79
   2  -1  -1 1640.54   76.29
   2  -1  -1 1588.54   76.69
   2  -1  -1 1520.35   75.99
   2  -1  -1 1595.24   75.99
   2  -1  -1 1536.75   75.69
  -2   1   1 1614.14   75.99
  -2   1   1 1605.24   75.79
  -2   1   1 1587.74   75.69
  -2   1   1 1572.04   75.99
  -2   1   1 1638.34   75.89
  -2   1   1 1620.84   76.29
   1  -1  -1   32.80    2.70
   1  -1  -1   33.60    3.50
   1  -1  -1   29.00    3.40
   1  -1  -1   33.90    5.90
  -1   1   1   35.40    3.70
  -1   1   1   33.80    2.80
  -1   1   1   35.60    3.60
  -1   1   1   30.30    2.90
  -1   1   1   35.60    3.70
  -1  -1  -1  813.02   38.80
  -1  -1  -1  794.12   38.80
  -1  -1  -1  818.02   38.70
  -1  -1  -1  815.72   38.70
   1   1   1  796.22   38.80
   1   1   1  828.92   38.70
   1   1   1  826.72   38.70
  -2  -1  -1    3.70    2.00
  -2  -1  -1   -1.40    2.60
  -2  -1  -1    0.10    3.50
   2   1   1    1.40    3.60
   2   1   1    0.60    2.00
   2   1   1   -0.50    2.80
  -3  -1  -1  271.97   16.60
  -3  -1  -1  296.27   15.00
  -3  -1  -1  282.77   15.10
  -3  -1  -1  301.67   14.40
  -3  -1  -1  280.77   15.80
  -3  -1  -1  289.47   14.90
   3   1   1  312.17   14.70
   3   1   1  289.67   16.10
   3   1   1  281.87   14.20
   3   1   1  285.07   15.20
   3   1   1  279.47   15.70
   3   1   1  257.87   14.60
   3   1   1  291.47   14.90
   3   1   1  277.27   14.30
  -4  -1  -1 1216.38   56.69
  -4  -1  -1 1221.48   58.59
  -4  -1  -1 1160.58   57.09
  -4  -1  -1 1172.58   57.79
  -4  -1  -1 1210.48   56.69
  -4  -1  -1 1186.48   57.19
  -4  -1  -1 1294.17   57.69
  -4  -1  -1 1133.59   57.19
   4   1   1 1189.68   57.09
   4   1   1 1170.48   56.69
   4   1   1 1376.26   57.89
   4   1   1 1139.99   57.29
   4   1   1 1126.29   57.59
   4   1   1 1146.79   56.59
   4   1   1 1151.68   57.09
   4   1   1 1132.89   57.99
   4   1   1 1196.28   57.09
  -5  -1  -1  251.77   15.20
  -5  -1  -1  244.48   13.40
  -5  -1  -1  248.28   15.20
  -5  -1  -1  254.17   13.60
  -5  -1  -1  222.78   14.60
  -5  -1  -1  254.17   15.30
   5   1   1  209.28   22.50
   5   1   1  251.17   14.60
   5   1   1  243.88   13.40
   5   1   1  231.68   15.30
   5   1   1  234.38   14.90
   5   1   1  253.07   17.00
  -6  -1  -1  360.86   21.10
  -6  -1  -1  345.07   23.60
  -6  -1  -1  373.26   21.00
  -6  -1  -1  367.36   19.10
  -6  -1  -1  290.67   27.30
  -6  -1  -1  362.86   18.80
  -6  -1  -1  333.57   21.50
  -6  -1  -1  313.57   21.20
   6   1   1  353.76   20.10
   6   1   1  349.37   20.70
   6   1   1  299.67   23.30
   6   1   1  374.96   19.90
   6   1   1  357.96   18.80
   6   1   1  343.77   22.00
   6   1   1  361.46   20.60
   6   1   1  409.26   22.20
  -7  -1  -1  270.37   24.50
  -7  -1  -1  248.78   16.50
  -7  -1  -1  247.98   19.90
  -7  -1  -1  273.77   16.80
  -7  -1  -1  271.07   19.70
  -7  -1  -1  266.07   17.60
  -7  -1  -1  244.18   29.30
  -7  -1  -1  285.27   23.70
   7   1   1  283.07   17.90
   7   1   1  307.27   21.20
   7   1   1  256.07   16.20
   7   1   1  244.48   19.50
   7   1   1  227.88   22.40
   7   1   1  255.97   15.70
   7   1   1  277.47   19.30
  -8  -1  -1  170.08   15.90
  -8  -1  -1  187.28   24.70
  -8  -1  -1  224.68   31.30
  -8  -1  -1  150.58   19.90
  -8  -1  -1  158.08   18.90
  -8  -1  -1  178.18   15.10
   8   1   1  136.59   21.90
   8   1   1  186.38   18.10
   8   1   1  171.88   15.80
   8   1   1  150.58   14.40
   8   1   1  171.18   13.40
   8   1   1  150.18   18.70
  -9  -1  -1   -7.70    7.00
  -9  -1  -1    9.40   18.20
  -9  -1  -1  -12.70   10.50
  -9  -1  -1    6.70    9.80
  -9  -1  -1    4.10    6.20
   9   1   1  -15.60   14.90
   9   1   1   -8.30   10.20
   9   1   1   -4.00    6.50
   9   1   1   -8.80    9.40
 -10  -1  -1  408.86   27.40
 -10  -1  -1  503.85   34.00
 -10  -1  -1  488.35   28.50
 -10  -1  -1  497.75   33.30
  10   1   1  470.55   27.50
  10   1   1  463.35   32.00
  10   1   1  409.56   29.10
 -11  -1  -1  249.38   23.40
 -11  -1  -1  252.17   31.50
  11   1   1  245.68   21.20
  11   1   1  234.68   23.90
  10  -2  -1   50.99   13.90
  10  -2  -1   40.60    9.80
 -10   2   1   39.40   15.40
 -10   2   1   47.60   10.50
   9  -2  -1   -4.00    8.10
   9  -2  -1   -2.20   12.80
   9  -2  -1    4.30   11.10
  -9   2   1  -12.80   13.10
  -9   2   1   -1.20    8.40
  -9   2   1    2.50   11.80
   8  -2  -1   92.49   21.30
   8  -2  -1   88.79   19.10
   8  -2  -1   67.59   12.40
  -8   2   1   76.09   12.70
  -8   2   1  103.39   20.50
  -8   2   1   69.59   13.20
  -8   2   1   88.89   14.10
   7  -2  -1   10.10    6.30
   7  -2  -1    0.60    9.30
   7  -2  -1    8.80    5.00
   7  -2  -1   12.70    7.60
   7  -2  -1   -9.00   13.40
   7  -2  -1    8.40    8.70
  -7   2   1    5.90    5.50
  -7   2   1    3.30    9.50
  -7   2   1   17.10    8.60
  -7   2   1    5.90    6.20
  -7   2   1   -2.10    7.30
   6  -2  -1  272.17   16.40
   6  -2  -1  266.37   20.50
   6  -2  -1  272.17   17.10
   6  -2  -1  258.37   20.70
   6  -2  -1  262.97   25.30
   6  -2  -1  272.97   19.30
  -6   2   1  290.27   21.20
  -6   2   1  273.37   16.50
  -6   2   1  276.37   17.30
  -6   2   1  294.17   20.30
   5  -2  -1   18.60    6.70
   5  -2  -1   23.10    4.60
   5  -2  -1   25.00    4.10
   5  -2  -1   23.10    6.00
  -5   2   1   25.50    4.30
  -5   2   1   24.00    5.90
  -5   2   1   23.60    6.90
  -5   2   1   23.60    4.80
   4  -2  -1  101.59   12.10
   4  -2  -1  123.49    8.70
   4  -2  -1  115.09   11.00
   4  -2  -1  120.69   15.90
   4  -2  -1  116.49    9.20
  -4   2   1  116.19    9.30
  -4   2   1  114.89   13.80
  -4   2   1   98.59   12.10
  -4   2   1  114.49   11.70
   3  -2  -1 3055.69  147.29
   3  -2  -1 3165.78  147.79
   3  -2  -1 2964.80  147.59
   3  -2  -1 3143.29  148.69
   3  -2  -1 3066.19  147.29
   3  -2  -1 3321.97  148.39
  -3   2   1 3183.88  147.69
  -3   2   1 3187.28  147.39
  -3   2   1 3054.29  147.69
  -3   2   1 3022.80  148.19
  -3   2   1 3068.79  147.29
   2  -2  -1  288.77   14.90
   2  -2  -1  332.17   16.20
   2  -2  -1  258.77   17.10
   2  -2  -1  292.57   15.30
   2  -2  -1  297.97   14.90
   2  -2  -1  298.37   15.80
   2  -2  -1  287.67   15.60
  -2   2   1  300.27   14.90
  -2   2   1  298.17   15.70
  -2   2   1  293.57   14.90
  -2   2   1  311.67   16.00
  -2   2   1  319.67   15.20
  -2   2   1  287.07   15.70
   1  -2  -1  202.78   11.20
   1  -2  -1  200.48   11.10
   1  -2  -1  198.08   10.60
   1  -2  -1  208.68   10.60
   1  -2  -1  208.88   10.90
   1  -2  -1  227.78   11.70
  -1   2   1  207.88   10.60
  -1   2   1  212.38   11.50
  -1   2   1  221.88   10.90
  -1   2   1  197.78   10.60
   0  -2  -1 1413.66   67.29
   0  -2  -1 1351.86   67.79
   0   2   1 1459.95   67.49
   0   2   1 1442.16   67.29
  -1  -2  -1  485.25   22.40
  -1  -2  -1  424.56   21.70
  -1  -2  -1  395.56   21.70
  -1  -2  -1  425.06   21.90
  -1  -2  -1  440.36   21.60
  -1  -2  -1  443.76   21.80
   1   2   1  486.95   22.80
  -3  -2  -1 1291.37   63.59
  -3  -2  -1 1311.07   63.79
   3   2   1 1426.56   63.49
   3   2   1 1277.77   63.69
   3   2   1 1339.77   63.69
  -4  -2  -1 3845.02  170.68
  -4  -2  -1 3599.64  170.08
  -4  -2  -1 3522.05  170.98
  -4  -2  -1 3498.05  170.58
  -4  -2  -1 3567.94  169.98
  -4  -2  -1 3512.35  170.78
   4   2   1 3710.13  170.48
   4   2   1 3529.85  170.88
   4   2   1 3581.64  170.68
  -5  -2  -1 4362.76  205.28
  -5  -2  -1 4418.86  205.68
  -5  -2  -1 4450.65  206.68
  -5  -2  -1 4453.85  206.08
  -5  -2  -1 4276.27  205.98
  -5  -2  -1 4375.56  205.28
  -5  -2  -1 4373.56  206.28
   5   2   1 4093.09  205.28
   5   2   1 4362.56  205.28
   5   2   1 4289.47  205.78
   5   2   1 4356.36  206.38
   5   2   1 4278.87  206.08
  -6  -2  -1  233.08   15.80
  -6  -2  -1  215.88   23.10
  -6  -2  -1  255.27   16.70
  -6  -2  -1  243.08   16.20
  -6  -2  -1  246.28   14.20
  -6  -2  -1  246.78   16.70
  -6  -2  -1  255.77   14.40
  -6  -2  -1  209.08   19.50
   6   2   1  235.98   14.10
   6   2   1  244.28   13.80
   6   2   1  232.88   16.00
   6   2   1  273.67   16.20
   6   2   1  249.88   17.20
   6   2   1  245.38   15.10
   6   2   1  203.78   19.10
  -7  -2  -1  143.29   16.20
  -7  -2  -1  164.28   12.00
  -7  -2  -1  152.18   20.30
  -7  -2  -1  149.88   16.20
  -7  -2  -1  158.18   12.70
  -7  -2  -1  138.29   14.50
  -7  -2  -1  173.38   19.30
  -7  -2  -1  164.38   16.00
   7   2   1  174.78   15.60
   7   2   1  151.28   13.70
   7   2   1  164.68   16.70
   7   2   1  140.89   11.90
   7   2   1  159.08   11.40
  -8  -2  -1  168.68   13.40
  -8  -2  -1  129.39   16.20
  -8  -2  -1  160.58   18.80
  -8  -2  -1  176.28   14.60
  -8  -2  -1  186.78   31.40
  -8  -2  -1  163.48   23.80
  -8  -2  -1  171.18   18.20
  -8  -2  -1  160.18   16.00
   8   2   1  140.89   17.10
   8   2   1  176.18   17.50
   8   2   1  154.68   13.50
   8   2   1  171.48   15.40
   8   2   1  172.58   12.70
   8   2   1  117.39   20.80
  -9  -2  -1    1.90    9.60
  -9  -2  -1  -13.50   10.20
  -9  -2  -1   -7.30   20.60
  -9  -2  -1   -7.90    7.60
  -9  -2  -1   -3.10    6.10
  -9  -2  -1   -8.30    6.70
   9   2   1   -4.80    6.30
   9   2   1   -0.20    9.10
 -10  -2  -1   27.50   12.60
 -10  -2  -1   24.70   13.30
 -10  -2  -1   42.30    7.90
 -10  -2  -1   19.20   11.40
 -10  -2  -1   19.30    8.20
  10   2   1   31.10    7.60
  10   2   1   26.60   11.50
  10   2   1   24.90   11.50
 -11  -2  -1   59.29   22.50
  10  -3  -1    0.30   13.60
 -10   3   1  -18.20   10.10
 -10   3   1  -21.40   16.10
   9  -3  -1  182.18   20.20
   9  -3  -1  200.98   28.20
  -9   3   1  187.68   28.90
  -9   3   1  187.68   21.60
   8  -3  -1  346.77   27.20
   8  -3  -1  372.56   24.00
   8  -3  -1  334.47   30.00
   8  -3  -1  380.46   29.50
  -8   3   1  350.86   28.70
  -8   3   1  395.86   24.70
  -8   3   1  385.56   30.60
   7  -3  -1   25.50   13.60
   7  -3  -1   29.30    5.90
   7  -3  -1   29.70    7.00
   7  -3  -1   19.60   10.70
   7  -3  -1   30.00    8.60
   7  -3  -1   45.00   15.50
  -7   3   1   33.60    9.80
  -7   3   1   28.00    6.30
  -7   3   1   25.20    7.10
  -7   3   1   24.60   10.60
  -7   3   1   13.50    8.50
   6  -3  -1   88.89   16.70
   6  -3  -1   78.09   12.60
   6  -3  -1   87.29   11.00
   6  -3  -1   64.69   10.20
   6  -3  -1   87.69   15.20
   6  -3  -1   77.09   15.10
  -6   3   1   91.59   16.40
  -6   3   1   82.59   11.10
  -6   3   1   71.69   12.50
  -6   3   1   72.29   10.30
   5  -3  -1   80.89   15.20
   5  -3  -1   90.79   11.00
   5  -3  -1   73.89   13.10
   5  -3  -1   95.29    9.70
   5  -3  -1  101.99   14.90
   5  -3  -1  105.89   13.20
  -5   3   1   91.19   10.10
  -5   3   1   84.69   15.10
  -5   3   1  101.99   14.10
  -5   3   1   90.59   11.00
   4  -3  -1 1238.28   59.59
   4  -3  -1 1234.98   60.69
   4  -3  -1 1340.97   61.39
   4  -3  -1 1223.78   62.29
   4  -3  -1 1188.68   60.29
   4  -3  -1 1264.97   59.69
  -4   3   1 1273.37   60.69
  -4   3   1 1280.77   59.69
  -4   3   1 1243.98   61.99
  -4   3   1 1113.29   60.89
  -4   3   1 1249.57   59.69
   3  -3  -1  713.43   34.80
   3  -3  -1  802.72   36.70
   3  -3  -1  630.94   38.40
   3  -3  -1  684.53   35.40
   3  -3  -1  703.53   35.70
   3  -3  -1  707.53   34.70
  -3   3   1  733.43   35.00
  -3   3   1  748.43   35.70
  -3   3   1  675.03   36.10
  -3   3   1  723.53   35.70
  -3   3   1  708.13   34.80
  -3   3   1  730.23   34.70
   2  -3  -1  131.19   10.20
   2  -3  -1  139.09    8.60
   2  -3  -1  141.59    8.40
   2  -3  -1  144.99   10.60
   2  -3  -1  133.99    9.70
   2  -3  -1  137.29    8.90
  -2   3   1  131.99   10.20
  -2   3   1  136.79   10.10
  -2   3   1  148.19   10.10
  -2   3   1  141.19    8.40
  -2   3   1  144.89    8.80
  -2   3   1  139.19    8.50
   1  -3  -1  585.64   28.90
   1  -3  -1  574.94   29.10
   1  -3  -1  580.94   29.30
   1  -3  -1  648.24   29.90
  -1   3   1  590.54   29.10
  -1   3   1  612.64   29.70
  -1   3   1  610.84   28.90
  -1   3   1  572.74   28.90
   0  -3  -1  682.03   34.00
   0  -3  -1  747.43   34.40
   0   3   1  725.83   34.40
   0   3   1  679.73   34.00
  -1  -3  -1 1021.00   48.70
  -1  -3  -1  975.70   48.70
  -1  -3  -1 1058.99   49.50
  -1  -3  -1 1014.30   48.90
   1   3   1  971.80   48.80
   1   3   1 1053.29   49.40
   1   3   1 1051.49   49.00
  -2  -3  -1   10.80    3.70
  -2  -3  -1   14.90    4.50
  -2  -3  -1    9.30    2.50
   2   3   1   15.40    3.90
   2   3   1    8.40    2.60
  -3  -3  -1 3031.20  144.29
  -3  -3  -1 3072.99  143.69
  -3  -3  -1 2993.60  144.09
  -3  -3  -1 2875.61  144.19
   3   3   1 2912.91  144.09
   3   3   1 3143.59  144.19
   3   3   1 3212.58  143.79
  -4  -3  -1  232.98   14.20
  -4  -3  -1  233.58   16.20
   4   3   1  255.67   15.20
   4   3   1  234.58   14.90
   4   3   1  258.67   13.60
  -5  -3  -1  142.69   14.60
  -5  -3  -1  163.88   16.10
   5   3   1  149.19   10.80
   5   3   1  134.69   13.60
   5   3   1  157.58   13.90
  -6  -3  -1 3118.69  148.39
  -6  -3  -1 3151.38  148.89
  -6  -3  -1 3087.79  149.19
  -6  -3  -1 3088.59  149.29
  -6  -3  -1 3184.08  150.38
  -6  -3  -1 3184.58  148.39
  -6  -3  -1 3177.28  149.88
   6   3   1 3227.88  148.99
   6   3   1 3082.49  149.79
   6   3   1 3185.68  149.49
   6   3   1 3077.09  148.29
   6   3   1 2988.30  148.29
  -7  -3  -1  689.13   33.70
  -7  -3  -1  695.63   35.30
  -7  -3  -1  675.73   33.60
  -7  -3  -1  565.64   35.10
  -7  -3  -1  704.13   40.80
  -7  -3  -1  640.24   35.10
  -7  -3  -1  697.43   37.90
   7   3   1  645.64   37.30
   7   3   1  712.73   36.60
   7   3   1  678.33   34.90
   7   3   1  650.33   33.40
   7   3   1  652.53   33.30
   7   3   1  709.13   34.70
  -8  -3  -1   20.50   14.70
  -8  -3  -1   19.20   18.00
  -8  -3  -1   19.20    8.00
  -8  -3  -1   15.30    5.50
  -8  -3  -1    2.90    6.30
  -8  -3  -1    3.60    8.60
  -8  -3  -1    4.70    9.70
  -8  -3  -1   11.50    5.80
   8   3   1   11.30    4.70
   8   3   1   20.70    8.70
   8   3   1    9.10    5.20
   8   3   1   12.30   11.90
   8   3   1    2.70    7.30
  -9  -3  -1   93.79   14.30
  -9  -3  -1   77.79   12.90
  -9  -3  -1   95.69   13.50
  -9  -3  -1   92.89   21.20
   9   3   1  106.19   22.60
   9   3   1   77.39   15.90
 -10  -3  -1   -7.50    7.60
 -10  -3  -1   15.10    7.40
 -10  -3  -1    2.20   19.40
 -10  -3  -1   -4.50   11.50
 -10  -3  -1    6.00   10.60
  10   3   1  -12.50   15.90
  10   3   1   -4.80    6.80
  10   3   1   -3.70   12.10
 -11  -3  -1  164.88   35.40
  11   3   1   98.19   21.70
   9  -4  -1  -10.50    9.10
   9  -4  -1   -9.10   13.70
   9  -4  -1    1.60   12.90
  -9   4   1    0.70    9.60
  -9   4   1   -6.40   16.90
   8  -4  -1  230.18   28.00
   8  -4  -1  214.68   20.40
   8  -4  -1  211.28   25.10
  -8   4   1  225.08   21.30
  -8   4   1  227.38   28.60
   7  -4  -1  331.17   29.50
   7  -4  -1  346.67   22.80
   7  -4  -1  379.06   28.70
   7  -4  -1  383.46   26.90
   7  -4  -1  395.16   23.80
  -7   4   1  380.26   29.40
  -7   4   1  371.26   28.10
  -7   4   1  400.56   24.10
   6  -4  -1   14.80    9.00
   6  -4  -1    3.60    6.40
   6  -4  -1    9.50    8.10
   6  -4  -1   30.80   14.10
   6  -4  -1    8.60    5.50
   6  -4  -1   -8.40    9.80
  -6   4   1    2.50    9.10
  -6   4   1    5.20    7.50
  -6   4   1   -1.90    9.40
  -6   4   1    6.40    6.60
  -6   4   1    6.00    5.40
   5  -4  -1   -0.20    6.90
   5  -4  -1    6.30    7.30
   5  -4  -1   -0.80   11.70
   5  -4  -1   -9.00    8.30
   5  -4  -1   -1.80    5.40
  -5   4   1   -8.00    8.10
  -5   4   1   -1.10    7.50
  -5   4   1    0.40    5.40
  -5   4   1   -2.70    6.10
  -5   4   1   -0.60    4.60
   4  -4  -1  407.16   25.20
   4  -4  -1  429.46   24.80
   4  -4  -1  408.56   27.30
   4  -4  -1  436.86   25.30
   4  -4  -1  438.66   22.60
   4  -4  -1  413.46   23.90
  -4   4   1  363.96   24.50
  -4   4   1  431.36   22.20
  -4   4   1  430.16   24.90
  -4   4   1  434.16   22.70
  -4   4   1  456.35   24.70
   3  -4  -1  945.11   46.10
   3  -4  -1  920.01   46.90
   3  -4  -1  946.81   46.20
   3  -4  -1  951.70   47.20
   3  -4  -1 1016.10   48.00
  -3   4   1  940.11   46.20
  -3   4   1  976.20   46.10
  -3   4   1  984.40   47.10
  -3   4   1  908.31   47.60
  -3   4   1  931.51   46.30
  -3   4   1  980.60   47.30
   2  -4  -1 4246.58  189.28
   2  -4  -1 4062.59  188.28
   2  -4  -1 3890.11  188.38
   2  -4  -1 3944.21  187.98
   2  -4  -1 3881.11  188.38
   2  -4  -1 3912.11  187.98
  -2   4   1 3902.71  188.98
  -2   4   1 4091.79  187.98
  -2   4   1 3767.52  188.18
  -2   4   1 3934.71  188.38
  -2   4   1 4118.69  188.38
  -2   4   1 3935.01  187.98
   1  -4  -1  441.76   21.30
   1  -4  -1  485.55   22.90
   1  -4  -1  425.86   22.10
   1  -4  -1  438.26   21.40
   1  -4  -1  406.56   21.70
  -1   4   1  451.95   22.60
  -1   4   1  447.46   21.30
  -1   4   1  401.76   23.90
  -1   4   1  416.76   21.50
  -1   4   1  418.86   21.70
   0  -4  -1 1934.01   93.99
   0  -4  -1 2092.79   94.39
   0   4   1 1976.50   94.29
   0   4   1 1912.11   93.99
  -1  -4  -1 2484.45  124.39
  -1  -4  -1 2757.72  125.29
  -1  -4  -1 2708.93  124.49
  -1  -4  -1 2669.83  124.59
   1   4   1 2504.05  125.09
   1   4   1 2634.24  124.59
  -2  -4  -1    4.00    6.20
  -2  -4  -1    2.00    4.20
  -2  -4  -1   -1.20    2.70
  -2  -4  -1    3.30    3.20
  -2  -4  -1    5.40    2.30
   2   4   1   -2.40    3.00
   2   4   1    5.40    4.40
   2   4   1    4.20    3.10
  -3  -4  -1  194.28   13.50
  -3  -4  -1  175.98   13.60
  -3  -4  -1  174.68   10.20
  -3  -4  -1  174.38   11.60
   3   4   1  181.58   10.60
   3   4   1  184.68   12.20
  -4  -4  -1 1109.69   54.59
  -4  -4  -1 1107.49   55.19
  -4  -4  -1 1092.59   55.49
   4   4   1 1190.18   54.19
   4   4   1 1073.79   54.99
   4   4   1 1162.58   54.99
  -5  -4  -1   26.30    9.00
  -5  -4  -1   10.00    6.80
  -5  -4  -1   20.20    9.60
   5   4   1   18.30    7.80
   5   4   1   20.50    8.50
   5   4   1   21.40    6.20
  -6  -4  -1    7.60    9.30
  -6  -4  -1   34.20   11.90
  -6  -4  -1   24.60   10.90
   6   4   1   18.50    6.60
   6   4   1   24.60    9.40
   6   4   1   29.10    8.50
  -7  -4  -1  483.15   33.60
  -7  -4  -1  456.15   24.40
  -7  -4  -1  432.86   26.70
  -7  -4  -1  447.06   24.60
  -7  -4  -1  486.05   30.20
  -7  -4  -1  451.75   26.80
   7   4   1  515.85   29.00
   7   4   1  507.35   26.10
   7   4   1  432.76   28.50
  -8  -4  -1  348.57   31.10
  -8  -4  -1  278.77   17.70
  -8  -4  -1  252.07   20.60
  -8  -4  -1  278.67   18.20
  -8  -4  -1  319.77   26.40
   8   4   1  248.88   24.00
   8   4   1  252.67   17.30
   8   4   1  337.07   24.50
   8   4   1  304.37   20.20
   8   4   1  269.77   17.00
  -9  -4  -1   22.30   17.00
  -9  -4  -1   15.10    9.00
  -9  -4  -1   -0.50    9.70
  -9  -4  -1    6.50    6.90
  -9  -4  -1   14.20    6.20
  -9  -4  -1  -11.80   11.70
   9   4   1    7.40    5.70
   9   4   1   -8.00   18.00
   9   4   1  -11.80   12.80
   9   4   1    7.40   14.10
 -10  -4  -1  245.38   20.20
 -10  -4  -1  291.97   25.50
 -10  -4  -1  318.77   33.00
 -10  -4  -1  255.47   26.00
 -10  -4  -1  242.48   20.60
  10   4   1  265.67   23.60
  10   4   1  239.78   18.80
 -11  -4  -1   27.40   22.10
 -11  -4  -1    0.60   12.90
 -11  -4  -1    6.30    8.60
  11   4   1    6.80    7.70
  11   4   1   26.60   13.30
   8  -5  -1   58.09   14.30
   8  -5  -1   43.20   15.50
   8  -5  -1   58.79    9.40
   8  -5  -1   96.29   26.40
  -8   5   1   59.49    9.90
  -8   5   1   55.19   14.90
   7  -5  -1    0.80   10.40
   7  -5  -1    6.10   11.00
   7  -5  -1   -4.50    7.90
   7  -5  -1    0.90   17.80
   7  -5  -1    1.80   11.00
  -7   5   1    6.90   12.20
   6  -5  -1   22.80    7.40
   6  -5  -1   24.30   11.10
   6  -5  -1   15.80    9.20
   6  -5  -1   24.00   10.30
   6  -5  -1   19.70    6.20
  -6   5   1   15.60    7.20
  -6   5   1   18.80   10.40
  -6   5   1   25.70   11.00
   5  -5  -1   89.19   11.20
   5  -5  -1  116.79   17.90
   5  -5  -1  138.39   21.90
   5  -5  -1  104.69   16.30
   5  -5  -1  109.09   11.90
   5  -5  -1   99.69   13.60
  -5   5   1   95.09   17.30
  -5   5   1   89.69   18.70
  -5   5   1   89.69   13.70
  -5   5   1   87.59   16.40
  -5   5   1   93.19   12.30
   4  -5  -1   -1.60    5.40
   4  -5  -1    1.50    7.20
   4  -5  -1   12.60   11.20
   4  -5  -1   -0.50    4.60
   4  -5  -1    3.30    7.00
   4  -5  -1    0.30    8.10
  -4   5   1   -2.40    6.10
  -4   5   1    2.00    7.80
  -4   5   1    2.90    5.30
  -4   5   1    6.20    7.10
  -4   5   1   -1.00    4.50
   3  -5  -1  684.43   34.50
   3  -5  -1  671.53   35.00
   3  -5  -1  698.03   33.90
   3  -5  -1  683.83   34.00
   3  -5  -1  728.83   36.40
   3  -5  -1  692.83   35.70
  -3   5   1  690.93   34.10
  -3   5   1  651.53   39.50
  -3   5   1  722.83   33.90
  -3   5   1  715.93   35.80
  -3   5   1  570.94   39.40
  -3   5   1  674.53   34.00
   2  -5  -1    4.50    5.30
   2  -5  -1    2.60    5.30
   2  -5  -1    4.30    3.50
   2  -5  -1    7.00    3.60
   2  -5  -1    7.80    5.10
   2  -5  -1    7.10    3.40
  -2   5   1    2.40    4.40
  -2   5   1    7.10    3.50
  -2   5   1   -0.90    5.40
  -2   5   1    6.40    3.50
  -2   5   1    7.00    3.30
  -2   5   1    7.00    5.10
   1  -5  -1  997.60   49.99
   1  -5  -1 1022.80   49.40
   1  -5  -1 1146.99   50.99
   1  -5  -1  980.90   49.70
  -1   5   1 1054.89   50.59
  -1   5   1  981.50   49.70
  -1   5   1 1025.20   49.40
   0  -5  -1   15.30    3.80
   0  -5  -1   12.10    3.00
   0   5   1   16.10    3.60
   0   5   1   13.90    2.80
   0   5   1   12.40    4.10
  -1  -5  -1 2455.05  109.89
  -1  -5  -1 2456.25  109.69
  -1  -5  -1 2411.06  110.99
  -1  -5  -1 2089.39  109.49
   1   5   1 2267.57  110.59
   1   5   1 2208.88  109.69
   1   5   1 2265.27  109.79
  -2  -5  -1 7178.28  371.66
  -2  -5  -1 8123.79  372.86
  -2  -5  -1 7774.12  372.16
  -2  -5  -1 8412.06  371.96
   2   5   1 7856.81  372.76
  -3  -5  -1  591.74   31.30
  -3  -5  -1  576.04   29.00
  -3  -5  -1  607.74   30.10
  -3  -5  -1  576.34   31.60
   3   5   1  572.74   29.10
   3   5   1  624.54   30.50
   3   5   1  601.04   31.40
  -4  -5  -1  442.86   24.90
  -4  -5  -1  438.46   26.30
   4   5   1  463.75   23.10
   4   5   1  453.25   24.70
  -5  -5  -1  652.13   35.60
  -5  -5  -1  640.54   34.10
  -5  -5  -1  651.83   36.60
   5   5   1  700.83   35.20
   5   5   1  634.34   35.00
   5   5   1  709.23   33.40
  -6  -5  -1   32.30    8.80
  -6  -5  -1   28.70   12.70
  -6  -5  -1   35.70   12.30
   6   5   1   26.20   11.40
   6   5   1   30.40    7.10
   6   5   1   42.00   10.20
  -7  -5  -1  639.84   36.60
  -7  -5  -1  695.23   39.70
  -7  -5  -1  709.63   42.10
   7   5   1  630.44   37.80
   7   5   1  726.73   36.00
   7   5   1  742.73   38.70
  -8  -5  -1   -6.10   10.40
  -8  -5  -1    5.80   17.40
  -8  -5  -1   14.10   14.70
   8   5   1  -13.40   10.70
   8   5   1    5.30    9.60
   8   5   1   13.20   13.10
  -9  -5  -1   25.00   25.90
  -9  -5  -1   17.50   17.00
  -9  -5  -1    2.50   13.50
  -9  -5  -1   13.30    6.20
   9   5   1   13.50   23.70
   9   5   1   -4.40   12.40
   9   5   1   14.30    8.10
   9   5   1   -2.00    5.70
 -10  -5  -1   24.70    7.40
 -10  -5  -1   37.00   19.80
  10   5   1   30.20   17.00
  10   5   1   17.80   13.40
 -11  -5  -1   82.69   23.40
  11   5   1  125.59   30.20
  11   5   1   48.60   14.20
   8  -6  -1   12.20    9.40
   8  -6  -1    7.50   14.90
   8  -6  -1   17.60   13.70
  -8   6   1    7.90    9.40
  -8   6   1   -8.70   15.20
   7  -6  -1  341.47   30.50
   7  -6  -1  357.86   31.20
   7  -6  -1  305.17   31.30
   7  -6  -1  340.77   24.20
  -7   6   1  324.17   24.50
  -7   6   1  380.26   32.20
   6  -6  -1  130.59   16.50
   6  -6  -1  128.29   24.40
   6  -6  -1  144.89   21.70
   6  -6  -1  122.69   15.00
   6  -6  -1   95.19   23.60
  -6   6   1  115.09   23.90
  -6   6   1  122.39   16.80
   5  -6  -1   64.39   13.30
   5  -6  -1  100.79   14.30
   5  -6  -1   96.89   12.70
   5  -6  -1   90.49   17.80
   5  -6  -1   85.69   11.70
  -5   6   1   63.19   11.20
  -5   6   1   73.29   10.70
  -5   6   1   89.59   14.30
  -5   6   1   91.49   11.60
   4  -6  -1  819.32   40.00
   4  -6  -1  820.72   42.80
   4  -6  -1  811.72   43.20
   4  -6  -1  805.32   39.70
   4  -6  -1  778.72   44.80
   4  -6  -1  770.42   41.50
  -4   6   1  663.33   42.20
  -4   6   1  799.82   40.20
  -4   6   1  856.51   42.70
  -4   6   1  801.42   41.80
  -4   6   1  794.22   39.70
   3  -6  -1  677.93   35.90
   3  -6  -1  684.13   37.50
   3  -6  -1  685.53   34.40
   3  -6  -1  650.53   35.10
   3  -6  -1  704.13   36.80
   3  -6  -1  693.03   34.60
  -3   6   1  695.43   34.40
  -3   6   1  708.23   36.10
  -3   6   1  668.53   34.70
  -3   6   1  654.93   40.00
  -3   6   1  717.83   37.90
   2  -6  -1    5.50    5.90
   2  -6  -1    0.50    4.20
   2  -6  -1   -2.90    6.50
   2  -6  -1    1.30    4.30
   2  -6  -1    1.10    3.90
   2  -6  -1   -4.90    6.00
  -2   6   1   -7.00    6.20
  -2   6   1    3.40    4.00
  -2   6   1   -0.60    3.70
  -2   6   1   -5.80    5.30
  -2   6   1    5.40    6.30
  -2   6   1    0.20    4.30
   1  -6  -1  291.27   17.80
   1  -6  -1  250.77   15.20
  -1   6   1  231.68   19.00
  -1   6   1  257.27   14.30
  -1   6   1  252.57   14.80
   0  -6  -1  495.75   26.30
   0  -6  -1  576.84   27.60
   0   6   1  486.25   29.30
   0   6   1  512.95   27.00
  -1  -6  -1   15.90    3.50
   1   6   1   15.80    3.50
   1   6   1   13.40    4.70
   1   6   1   22.60    6.20
  -2  -6  -1  563.34   27.00
  -2  -6  -1  453.25   26.20
  -2  -6  -1  543.95   29.60
   2   6   1  534.15   27.80
   2   6   1  578.44   29.70
  -3  -6  -1 3108.39  159.28
  -3  -6  -1 3527.15  159.68
  -3  -6  -1 3431.26  160.88
  -3  -6  -1 3452.55  160.78
  -3  -6  -1 3365.76  161.08
   3   6   1 3318.47  160.18
   3   6   1 3342.17  160.78
  -4  -6  -1  826.32   42.00
  -4  -6  -1  797.12   42.70
  -4  -6  -1  821.72   40.80
  -4  -6  -1  771.32   39.30
   4   6   1  847.92   41.20
   4   6   1  781.42   39.50
  -5  -6  -1   -2.80    8.60
  -5  -6  -1   12.60    5.70
  -5  -6  -1   30.80   11.00
   5   6   1    4.30    6.50
   5   6   1   -0.30    9.30
  -6  -6  -1 1443.06   73.69
  -6  -6  -1 1469.35   74.99
  -6  -6  -1 1514.95   76.19
   6   6   1 1615.54   72.99
   6   6   1 1435.26   74.29
   6   6   1 1553.14   74.69
  -7  -6  -1   92.59   16.50
  -7  -6  -1   96.09   17.10
  -7  -6  -1   77.19   15.50
   7   6   1  104.69   19.20
   7   6   1   70.79   18.00
   7   6   1   98.49   13.50
  -8  -6  -1  181.58   19.80
  -8  -6  -1  240.68   30.90
  -8  -6  -1  166.28   24.50
  -8  -6  -1  218.78   28.10
   8   6   1  161.38   22.10
   8   6   1  229.28   18.40
   8   6   1  253.47   24.80
  -9  -6  -1   10.60   18.10
  -9  -6  -1   29.50   24.20
   9   6   1   25.20   15.70
 -10  -6  -1   79.99   21.00
  10   6   1   49.70   13.50
  10   6   1   79.39   18.40
 -11  -6  -1  478.25   42.40
  11   6   1  473.95   37.80
  11   6   1  384.96   31.90
   7  -7  -1    7.20   12.90
   7  -7  -1    6.80    8.80
   7  -7  -1    6.20   14.50
  -7   7   1    4.20    9.00
  -7   7   1  -17.00   14.50
   6  -7  -1   39.80   12.50
   6  -7  -1   41.10   13.30
   6  -7  -1   45.10    8.70
   6  -7  -1   42.70    8.10
  -6   7   1   40.60    8.80
  -6   7   1   33.20   13.50
   5  -7  -1  129.39   23.30
   5  -7  -1  176.48   24.50
   5  -7  -1  150.28   26.90
   5  -7  -1  181.28   17.00
   5  -7  -1  137.49   15.40
  -5   7   1  169.28   24.70
  -5   7   1  159.38   17.50
   4  -7  -1   21.20   11.70
   4  -7  -1    9.90    9.00
   4  -7  -1   21.80    7.30
   4  -7  -1   16.00    7.10
   4  -7  -1   33.40   10.50
  -4   7   1   23.30    8.60
  -4   7   1   16.30   10.40
  -4   7   1   27.40    6.90
   3  -7  -1 1241.28   62.69
   3  -7  -1 1223.68   61.19
   3  -7  -1 1323.87   60.29
   3  -7  -1 1179.48   59.99
   3  -7  -1 1201.88   60.69
   3  -7  -1 1319.17   62.09
  -3   7   1 1255.67   59.79
  -3   7   1 1245.28   61.29
  -3   7   1 1258.87   64.99
  -3   7   1 1184.58   60.09
  -3   7   1 1050.99   61.99
  -3   7   1 1287.77   60.29
   2  -7  -1 1894.71   92.29
   2  -7  -1 1962.20   93.19
   2  -7  -1 1905.71   92.89
   2  -7  -1 2032.30   92.49
   2  -7  -1 2033.80   94.49
  -2   7   1 1908.61   95.69
  -2   7   1 1979.40   92.49
  -2   7   1 1955.50   92.29
  -2   7   1 1798.32   92.59
  -2   7   1 1842.32   94.09
   1  -7  -1  220.68   17.10
   1  -7  -1  180.78   14.40
  -1   7   1  209.28   20.80
  -1   7   1  197.78   16.00
   0  -7  -1 1066.69   49.60
   0  -7  -1  985.00   48.50
   0   7   1  952.20   49.70
   0   7   1  960.80   51.09
  -1  -7  -1  612.44   37.20
  -1  -7  -1  700.63   32.30
  -1  -7  -1  547.45   30.70
   1   7   1  622.14   31.40
  -2  -7  -1  614.84   43.70
  -2  -7  -1  598.74   32.40
  -2  -7  -1  715.33   35.40
   2   7   1  724.23   34.20
  -3  -7  -1  367.36   27.30
  -3  -7  -1  396.06   25.20
  -3  -7  -1  380.66   25.50
  -3  -7  -1  326.37   19.20
  -3  -7  -1  386.86   21.40
   3   7   1  413.16   25.10
   3   7   1  367.26   22.40
  -4  -7  -1  107.39   18.90
  -4  -7  -1   56.19   10.40
  -4  -7  -1   69.69   18.50
  -4  -7  -1   81.09    8.30
  -4  -7  -1   80.49   16.50
   4   7   1   71.39    7.50
   4   7   1   85.69   14.40
  -5  -7  -1  966.80   50.29
  -5  -7  -1  962.40   49.10
  -5  -7  -1  999.70   51.89
   5   7   1  988.30   49.80
   5   7   1  925.41   47.50
  -6  -7  -1    4.30    6.80
  -6  -7  -1    9.90   10.20
  -6  -7  -1   30.10   14.00
   6   7   1    8.10    7.90
   6   7   1   10.30   11.80
  -7  -7  -1  206.68   20.70
  -7  -7  -1  219.88   24.90
  -7  -7  -1  292.77   29.70
  -7  -7  -1  234.38   27.10
   7   7   1  265.77   22.90
   7   7   1  267.87   18.30
   7   7   1  255.87   23.90
  -8  -7  -1  153.38   28.20
  -8  -7  -1  182.38   32.50
   8   7   1  179.98   17.90
   8   7   1  166.28   24.30
   8   7   1  125.59   22.80
  -9  -7  -1   44.20   19.40
  -9  -7  -1   38.60   20.70
   9   7   1   41.50   22.90
   9   7   1   37.40   16.50
 -10  -7  -1   40.80   23.10
 -10  -7  -1   11.80   21.60
  10   7   1    4.00   12.80
  10   7   1   17.60   18.00
 -11  -7  -1   27.60   23.40
  11   7   1   44.30   20.20
  11   7   1    7.50   13.50
   6  -8  -1   -3.20    9.40
   6  -8  -1   -2.90   12.50
   6  -8  -1   -5.20   14.70
  -6   8   1  -20.20   14.30
  -6   8   1    5.50   13.10
  -6   8   1   -4.60    9.20
   5  -8  -1   37.70   13.30
   5  -8  -1   24.20    7.60
   5  -8  -1   31.40    8.90
   5  -8  -1   36.10   12.00
  -5   8   1   27.10    8.40
  -5   8   1   24.10   12.10
  -5   8   1   40.40   13.20
   4  -8  -1   11.30    7.50
   4  -8  -1    9.30    6.60
   4  -8  -1    3.50    9.80
   4  -8  -1    0.30   10.20
  -4   8   1    3.00   10.40
  -4   8   1    2.90    7.30
   3  -8  -1   25.40   11.60
   3  -8  -1   22.30    7.20
   3  -8  -1   25.80    9.50
   3  -8  -1   22.80    6.90
   3  -8  -1   21.30    9.00
   3  -8  -1   23.00    6.20
  -3   8   1   22.20    5.80
  -3   8   1   22.50   10.20
  -3   8   1   17.60    8.40
  -3   8   1   26.80    7.10
   2  -8  -1  325.47   19.90
   2  -8  -1  386.56   21.00
   2  -8  -1  318.47   24.70
   2  -8  -1  340.77   21.40
  -2   8   1  382.76   21.10
  -2   8   1  348.37   19.80
  -2   8   1  292.67   23.50
   1  -8  -1  811.52   41.40
   1  -8  -1  738.83   39.20
  -1   8   1  760.72   40.80
  -1   8   1  772.92   44.00
   0  -8  -1  106.69   12.30
   0  -8  -1  128.19   14.90
   0   8   1  109.59   13.70
   0   8   1   99.89   19.70
  -1  -8  -1  821.82   45.50
  -1  -8  -1 1008.70   47.10
  -1  -8  -1  987.10   46.50
   1   8   1  890.41   46.40
   1   8   1  969.80   49.50
  -2  -8  -1 1316.77   71.29
  -2  -8  -1 1544.65   72.39
  -2  -8  -1 1506.85   75.29
   2   8   1 1521.75   74.89
   2   8   1 1577.64   72.89
  -3  -8  -1  248.88   16.90
  -3  -8  -1  267.07   27.40
  -3  -8  -1  233.78   14.20
  -3  -8  -1  220.88   22.80
   3   8   1  250.47   23.20
   3   8   1  294.47   19.30
  -4  -8  -1   17.70   13.70
  -4  -8  -1   14.30    5.20
  -4  -8  -1    0.40    6.60
  -4  -8  -1   -0.50    5.00
   4   8   1    6.80   10.10
   4   8   1    5.90    6.60
  -5  -8  -1  642.64   37.80
  -5  -8  -1  735.63   40.60
  -5  -8  -1  562.34   33.80
   5   8   1  711.03   37.00
   5   8   1  627.84   33.50
  -6  -8  -1  109.39   17.40
   6   8   1   88.29   20.40
   6   8   1   78.49   12.80
  -7  -8  -1  769.72   47.10
  -7  -8  -1  834.92   45.10
  -7  -8  -1  858.21   49.80
   7   8   1  827.12   42.40
  -8  -8  -1    6.90   19.40
  -8  -8  -1   27.00   19.90
   8   8   1   13.70   10.50
   8   8   1   14.80   15.10
  -9  -8  -1   31.50   20.50
  -9  -8  -1   53.29   23.00
   9   8   1   48.00   18.40
   9   8   1   42.70   22.50
 -10  -8  -1   66.99   25.50
 -10  -8  -1   65.29   23.00
  10   8   1   52.29   14.40
  10   8   1   52.09   19.70
 -11  -8  -1   44.10   26.60
 -11  -8  -1   27.60   25.10
  11   8   1   42.30   16.20
  11   8   1   40.90   20.60
   5  -9  -1   26.80    9.80
   5  -9  -1   33.40   15.40
   5  -9  -1   19.50   13.00
  -5   9   1   17.10    9.90
  -5   9   1   35.50   13.40
   4  -9  -1  109.09   16.70
   4  -9  -1  105.69   24.60
   4  -9  -1  131.39   18.50
  -4   9   1  149.29   32.80
  -4   9   1   94.59   10.80
   3  -9  -1  237.18   26.30
   3  -9  -1  323.87   27.60
   3  -9  -1  317.87   21.50
  -3   9   1  282.27   32.50
  -3   9   1  303.17   21.70
   2  -9  -1    0.30    9.40
   2  -9  -1   -2.70    9.40
   2  -9  -1    6.10    6.70
   2  -9  -1   10.50    7.00
  -2   9   1   -5.40    8.20
  -2   9   1   -1.90    8.90
   1  -9  -1   -2.00    8.30
   1  -9  -1    8.20    6.00
  -1   9   1   -7.70    7.50
   0  -9  -1   51.19    8.50
   0  -9  -1   59.79   10.30
   0  -9  -1   68.89   13.10
   0   9   1   56.09   13.60
   0   9   1   90.19   21.70
  -1  -9  -1  184.18   17.20
  -1  -9  -1  191.98   16.40
   1   9   1  175.88   15.30
   1   9   1  229.38   22.90
  -2  -9  -1   68.89   13.50
  -2  -9  -1  118.09   22.80
   2   9   1   82.79   12.20
   2   9   1   90.09   21.50
  -3  -9  -1  993.30   53.19
  -3  -9  -1  852.51   47.10
  -3  -9  -1 1048.10   56.09
  -3  -9  -1  902.41   49.00
   3   9   1  981.90   52.79
   3   9   1 1082.09   50.49
  -4  -9  -1   -5.80   16.20
  -4  -9  -1   -8.10    6.10
  -4  -9  -1  -10.00    7.40
  -4  -9  -1    1.50    5.90
   4   9   1    8.30   11.50
  -5  -9  -1  152.38   23.70
  -5  -9  -1  227.68   28.40
   5   9   1  198.98   21.70
  -6  -9  -1   -8.40    5.90
  -6  -9  -1   -5.70   11.80
  -6  -9  -1   18.10   16.80
   6   9   1   17.60   15.50
   6   9   1   -0.10    7.80
  -7  -9  -1  397.96   36.50
   7   9   1  380.86   30.50
   7   9   1  363.76   23.50
  -8  -9  -1  665.43   48.10
   8   9   1  641.94   35.60
   8   9   1  656.63   41.60
  -9  -9  -1  211.18   40.10
  -9  -9  -1  170.88   33.60
   9   9   1  193.38   31.20
   9   9   1  209.18   33.70
 -10  -9  -1   76.39   26.10
 -10  -9  -1   42.60   23.50
  10   9   1   44.70   14.50
  10   9   1   42.70   20.40
   4 -10  -1  117.59   20.50
   4 -10  -1  114.79   26.20
  -4  10   1   99.59   11.60
  -4  10   1   80.39   14.90
   3 -10  -1  416.26   26.90
  -3  10   1  388.06   27.20
  -3  10   1  402.96   38.00
   2 -10  -1   23.50   10.70
   2 -10  -1   49.80    8.60
  -2  10   1   27.80   11.10
   1 -10  -1   43.90   10.00
  -1  10   1   31.30    8.70
  -1  10   1   31.50   10.10
   0 -10  -1   12.50    8.60
   0  10   1    7.80    8.80
   0  10   1    9.60    7.10
   1  10   1   55.19   13.70
   1  10   1   34.90    8.90
   2  10   1  702.33   37.90
   2  10   1  674.53   42.20
   3  10   1  365.56   25.90
   3  10   1  342.87   30.70
  -4 -10  -1   -8.00    6.90
  -4 -10  -1   -0.50   22.80
   4  10   1    0.80    8.10
   4  10   1    0.90   12.30
  -5 -10  -1  138.99   31.20
   5  10   1  127.29   23.90
  -6 -10  -1   34.90   19.50
   6  10   1   24.70   15.40
  -7 -10  -1  156.08   35.50
   7  10   1  113.69   15.20
   7  10   1  153.18   25.90
  -8 -10  -1   24.60   22.20
   8  10   1   11.50   17.00
   8  10   1   14.90   10.20
  -9 -10  -1   74.49   25.30
  -9 -10  -1   52.99   24.40
   9  10   1   86.89   21.40
 -10 -10  -1   22.80   24.80
 -10 -10  -1   34.00   28.10
  10  10   1   30.30   12.90
  10  10   1   10.10   20.60
   3 -11  -1   -0.30   12.40
   3 -11  -1    1.80   10.30
  -3  11   1   -5.90   13.10
   2 -11  -1   26.00   11.80
  -2  11   1   34.40   12.50
   1 -11  -1   85.39   22.30
  -1  11   1  120.99   30.30
   0 -11  -1   -4.40    9.30
   0  11   1   -0.30    9.70
   0  11   1   -2.60    7.50
  -1 -11  -1   35.90    8.90
   1  11   1   20.30    9.70
   2  11   1   15.50    9.60
  -3 -11  -1  643.14   47.80
   3  11   1  627.54   43.10
   3  11   1  727.13   39.10
  -4 -11  -1  532.65   32.90
  -4 -11  -1  551.34   44.40
   4  11   1  515.15   38.60
   4  11   1  581.04   40.80
  -5 -11  -1   41.90    8.40
   5  11   1   53.39   10.60
  -6 -11  -1  394.36   41.70
   6  11   1  308.57   31.00
  -7 -11  -1  470.05   44.60
   7  11   1  372.46   33.90
  -8 -11  -1   18.00   23.60
   8  11   1   15.90   18.40
   8  11   1   22.90   10.20
  -9 -11  -1  -10.10   25.30
  -9 -11  -1   28.10   25.80
   9  11   1   27.40   22.00
   9  11   1   42.50   17.10
   1 -12  -1    4.00   11.90
  -1  12   1   18.40   12.40
   0 -12  -1   -7.60   16.00
   0  12   1   -6.40    9.60
   0  12   1   -3.30   10.80
   1  12   1   23.40   11.30
  -2 -12  -1   33.40   23.70
  -3 -12  -1   -4.80   23.40
   3  12   1   -8.90   10.30
   3  12   1   12.30   30.90
  -4 -12  -1  -21.40   22.20
   4  12   1   24.40   15.40
   4  12   1   -4.90   10.30
  -5 -12  -1   39.50   23.50
   5  12   1   52.49   16.90
  -6 -12  -1   19.10   24.00
   6  12   1   12.10   16.90
  -7 -12  -1  198.28   44.50
   7  12   1  170.58   29.40
  -8 -12  -1  199.08   47.60
   8  12   1  195.68   33.00
   2  13   1  235.98   35.80
  -3 -13  -1   46.30   25.40
   3  13   1   63.69   15.00
  -4 -13  -1  -12.70   25.20
   4  13   1   -1.20   14.80
   4  13   1  -12.30   11.20
  -5 -13  -1   19.80   26.30
   5  13   1   16.10   12.00
   4  13  -2   46.00   19.30
   4  13  -2   10.70   13.00
  -4 -13   2    6.90   23.80
   3  13  -2   38.60   18.10
   3  13  -2  -10.90   13.20
  -3 -13   2   -6.80   23.30
   7  12  -2   20.10   19.90
  -7 -12   2   14.90   25.80
   6  12  -2  324.27   34.00
  -6 -12   2  330.47   44.80
   5  12  -2  201.38   35.90
   5  12  -2  259.47   30.30
  -5 -12   2  243.88   38.90
   4  12  -2   10.50   16.80
  -4 -12   2   -8.10   20.60
   3  12  -2   10.80   16.10
  -3 -12   2  -16.30   20.10
   2  12  -2    1.60   12.20
  -2 -12   2   19.70   22.10
   1  12  -2  173.98   36.60
  -1 -12   2  267.17   39.90
  -1 -12   2  265.17   22.90
   0  12  -2   34.80    9.30
   0 -12   2   50.59   10.50
  -1  12  -2  -12.30   13.20
  -1  12  -2   22.90   11.80
   1 -12   2   12.90   10.50
   8  11  -2   41.20   19.50
  -8 -11   2   26.60   24.30
   7  11  -2    3.90   17.90
  -7 -11   2    4.70   22.70
   6  11  -2   12.80   16.30
  -6 -11   2    5.10   20.70
   5  11  -2  245.28   33.00
   5  11  -2  265.27   28.00
  -5 -11   2  266.87   35.80
   4  11  -2  637.04   44.80
   4  11  -2  680.43   40.50
  -4 -11   2  658.93   46.10
   3  11  -2    8.00   11.10
   3  11  -2   50.09   24.60
  -3 -11   2   11.10   19.00
   2  11  -2   63.49   12.50
  -2 -11   2  103.39   21.30
   1  11  -2   15.70   10.80
  -1 -11   2    1.80   10.90
   0  11  -2    8.50    8.10
   0  11  -2    6.10   11.20
   0 -11   2    0.20   13.30
  -1  11  -2  304.97   23.30
  -1  11  -2  268.17   37.40
   1 -11   2  308.17   23.80
  -2  11  -2   53.69   10.10
   2 -11   2   52.09   14.90
   2 -11   2   44.40   10.20
   3 -11   2  197.78   23.10
   3 -11   2  175.18   32.20
   9  10  -2   54.59   19.90
  -9 -10   2   48.00   25.50
   8  10  -2   12.90   17.80
   8  10  -2   25.90    9.30
  -8 -10   2   20.60   23.00
   7  10  -2   96.89   17.90
  -7 -10   2   69.19   21.50
   6  10  -2   15.30   15.10
  -6 -10   2   -3.90   18.40
   5  10  -2  410.06   34.20
   5  10  -2  400.76   30.20
  -5 -10   2  423.26   36.30
   4  10  -2   20.80   13.50
   4  10  -2    4.30    9.40
  -4 -10   2    5.80   16.60
   3  10  -2   -6.90   10.20
   3  10  -2    1.50   12.00
  -3 -10   2  -11.30   16.60
   2  10  -2   55.89    6.70
   2  10  -2   58.79   11.00
  -2 -10   2   39.70    9.50
   1  10  -2   -3.90   11.10
   1  10  -2  -11.70    9.20
  -1 -10   2  -10.30    7.10
  -1 -10   2   21.90    7.80
  -1 -10   2   22.70   18.70
   0  10  -2  351.16   25.80
   0  10  -2  430.96   35.30
   0  10  -2  443.26   25.10
   0 -10   2  435.36   25.70
   0 -10   2  477.65   31.70
   0 -10   2  367.06   25.90
   0 -10   2  358.56   24.40
  -1  10  -2   12.50   11.40
  -1  10  -2   13.00    8.20
   1 -10   2   36.60    8.20
   1 -10   2    6.80   10.70
   1 -10   2   14.50    7.30
   1 -10   2    5.30   11.00
  -2  10  -2   51.39    9.00
  -2  10  -2   79.89   14.50
  -2  10  -2   36.80   12.60
   2 -10   2   64.59   13.40
   2 -10   2   36.00    8.30
   2 -10   2   65.29    9.30
  -3  10  -2   51.59   14.30
  -3  10  -2   34.90   13.50
  -3  10  -2   45.80    9.40
   3 -10   2   57.89    9.60
   3 -10   2   66.19   14.10
   3 -10   2   36.50    9.80
  -4  10  -2  126.09   22.20
   4 -10   2  156.58   28.80
   4 -10   2  158.38   21.20
  10   9  -2   27.80   12.00
  10   9  -2   28.80   20.20
 -10  -9   2   34.30   27.20
 -10  -9   2  -18.40   25.90
   9   9  -2  222.38   32.00
   9   9  -2  233.88   20.60
  -9  -9   2  295.47   43.40
   8   9  -2  131.99   16.00
   8   9  -2  124.79   27.10
  -8  -9   2  162.88   35.20
   7   9  -2  102.09   23.20
   7   9  -2   75.49   13.20
  -7  -9   2   77.19   19.30
   6   9  -2  533.35   32.20
  -6  -9   2  505.55   38.00
  -6  -9   2  433.36   33.20
   5   9  -2    7.60   12.40
  -5  -9   2   -0.20    8.00
  -5  -9   2    6.20   21.90
   4   9  -2  397.56   30.60
   4   9  -2  379.66   26.30
  -4  -9   2  363.66   31.30
   3   9  -2  449.16   27.40
   3   9  -2  425.46   33.10
  -3  -9   2  422.16   31.00
  -3  -9   2  415.06   33.00
   2   9  -2    5.00   10.50
   2   9  -2    4.80    5.60
  -2  -9   2   17.40   12.60
  -2  -9   2  -10.10   16.00
  -2  -9   2    5.30   10.40
   1   9  -2  932.91   45.90
   1   9  -2  926.61   52.09
   1   9  -2  942.91   47.60
  -1  -9   2  835.82   45.50
  -1  -9   2  940.81   50.49
  -1  -9   2  880.91   46.50
  -1  -9   2  882.61   47.40
  -1  -9   2 1006.60   49.60
  -1  -9   2  922.11   46.40
   0   9  -2  181.58   18.40
   0   9  -2  158.18   14.50
   0   9  -2  171.08   27.20
   0   9  -2  179.68   18.30
   0  -9   2  184.28   19.10
   0  -9   2  178.38   16.00
   0  -9   2  200.28   17.10
  -1   9  -2   -0.70    7.40
  -1   9  -2   18.40   11.60
  -1   9  -2    0.20   10.10
  -1   9  -2    8.10    7.00
   1  -9   2   -8.10    9.00
   1  -9   2   -9.40    6.20
   1  -9   2    7.30    7.10
  -2   9  -2   16.30    7.30
  -2   9  -2   -2.80   10.90
  -2   9  -2   19.60   11.30
   2  -9   2    2.40    6.50
   2  -9   2   10.20   10.00
   2  -9   2   13.00    7.50
   2  -9   2   20.90   11.10
  -3   9  -2  147.69   26.60
  -3   9  -2   76.29   14.20
  -3   9  -2  101.99   17.50
   3  -9   2  121.99   17.00
   3  -9   2  101.69   15.90
   3  -9   2  135.09   24.50
  -4   9  -2   24.10   12.90
  -4   9  -2   29.20   14.00
  -4   9  -2   24.00    8.80
   4  -9   2   36.70    9.00
   4  -9   2   40.90    9.00
   4  -9   2   22.70    8.70
   4  -9   2   38.70   13.10
  -5   9  -2   18.30    9.60
  -5   9  -2   25.40   14.60
  -5   9  -2   19.70   15.80
   5  -9   2   25.80   10.60
   5  -9   2   14.30   14.10
   5  -9   2   31.00    9.70
  10   8  -2   55.69   19.80
  10   8  -2   43.40   12.50
 -10  -8   2   59.99   26.70
 -10  -8   2   14.90   23.90
   9   8  -2   38.60   17.70
   9   8  -2   28.30   10.70
  -9  -8   2   14.10    8.30
  -9  -8   2   39.70   23.50
  -9  -8   2  -16.50   22.10
   8   8  -2  256.57   19.60
   8   8  -2  287.27   27.50
  -8  -8   2  290.17   36.30
  -8  -8   2  234.68   18.20
   7   8  -2   71.29   12.60
   7   8  -2   61.09   14.40
  -7  -8   2   67.39   19.40
   6   8  -2   74.09   18.70
   6   8  -2   64.99   10.50
  -6  -8   2   70.39   16.90
   5   8  -2  500.85   30.70
  -5  -8   2  511.15   35.40
   4   8  -2  434.66   26.70
  -4  -8   2  428.36   30.70
   3   8  -2  351.36   22.40
   3   8  -2  307.27   18.60
  -3  -8   2  352.56   27.50
   2   8  -2   12.60    7.60
   2   8  -2   16.60    5.20
   2   8  -2   31.70    9.60
  -2  -8   2   18.30    9.20
  -2  -8   2   19.80   14.10
  -2  -8   2    1.50    5.70
  -2  -8   2    2.10    7.20
   1   8  -2  328.87   18.70
   1   8  -2  312.07   21.30
   1   8  -2  284.27   26.70
   1   8  -2  298.47   17.90
  -1  -8   2  322.67   24.40
  -1  -8   2  288.97   20.90
  -1  -8   2  278.07   19.40
  -1  -8   2  328.27   19.60
  -1  -8   2  347.67   23.90
  -1  -8   2  283.17   18.20
   0   8  -2 1021.90   50.49
   0   8  -2 1003.80   54.99
   0   8  -2 1013.10   49.50
   0   8  -2  977.90   49.00
   0   8  -2  950.80   50.59
   0  -8   2  973.70   50.59
   0  -8   2  973.50   49.60
   0  -8   2 1014.20   49.70
   0  -8   2 1013.20   49.20
   0  -8   2 1083.29   51.89
   0  -8   2 1000.00   53.19
  -1   8  -2 2624.54  132.49
  -1   8  -2 2587.74  133.89
  -1   8  -2 2673.33  132.29
  -1   8  -2 2886.51  134.09
  -1   8  -2 2838.72  133.39
  -1   8  -2 2917.41  136.29
   1  -8   2 2859.81  135.59
   1  -8   2 2853.41  132.39
   1  -8   2 2810.02  133.39
   1  -8   2 2806.42  133.69
   1  -8   2 2693.73  132.49
  -2   8  -2  505.25   29.30
  -2   8  -2  567.84   38.60
  -2   8  -2  512.45   31.90
  -2   8  -2  551.94   33.70
  -2   8  -2  453.95   31.60
  -2   8  -2  492.25   28.30
   2  -8   2  565.64   33.00
   2  -8   2  497.75   32.50
   2  -8   2  538.35   29.30
   2  -8   2  624.34   33.00
   2  -8   2  505.35   31.40
   2  -8   2  621.74   36.10
  -3   8  -2  701.93   38.80
  -3   8  -2  760.12   45.60
  -3   8  -2  804.22   47.90
  -3   8  -2  758.02   43.20
   3  -8   2  741.73   38.60
   3  -8   2  668.63   42.00
   3  -8   2  695.73   40.80
   3  -8   2  767.92   45.10
   3  -8   2  786.92   47.90
   3  -8   2  738.23   38.10
   3  -8   2  724.73   36.90
  -4   8  -2  273.57   33.40
  -4   8  -2  209.78   19.70
  -4   8  -2  219.18   27.80
   4  -8   2  197.68   23.10
   4  -8   2  218.28   19.00
   4  -8   2  253.17   26.40
   4  -8   2  207.38   16.10
   4  -8   2  200.88   24.50
   4  -8   2  192.28   18.50
  -5   8  -2   14.50   12.20
  -5   8  -2    3.60   10.00
  -5   8  -2    4.60   13.70
   5  -8   2   -5.00   11.80
   5  -8   2    4.10    9.20
   5  -8   2    4.50    8.50
   5  -8   2    9.40   13.20
  -6   8  -2   17.70    9.90
  -6   8  -2   30.70   15.50
   6  -8   2   33.30   15.60
   6  -8   2   31.20   18.80
   6  -8   2   30.00    9.70
  11   7  -2   16.70   13.00
  11   7  -2   50.19   20.60
  11   7  -2    5.00    8.20
 -11  -7   2   -2.70    9.70
 -11  -7   2   41.80   24.30
 -11  -7   2  -15.80   14.50
 -11  -7   2   57.89   28.60
  10   7  -2  198.78   20.40
  10   7  -2  131.29   17.40
 -10  -7   2  200.88   34.70
 -10  -7   2  143.49   19.90
   9   7  -2   51.99   11.20
  -9  -7   2   75.39   23.10
  -9  -7   2   28.10   12.10
  -9  -7   2   51.39   22.20
   8   7  -2  280.07   19.90
   8   7  -2  257.57   18.40
   8   7  -2  310.57   26.30
  -8  -7   2  324.67   37.10
  -8  -7   2  270.87   19.80
  -8  -7   2  240.58   22.90
  -8  -7   2  255.67   24.90
   7   7  -2   32.30    8.20
   7   7  -2   19.70    5.70
   7   7  -2   20.40    4.60
   7   7  -2   42.20   12.70
   7   7  -2   24.40   12.60
  -7  -7   2   13.40    6.50
  -7  -7   2   18.00    5.40
  -7  -7   2   31.30   17.00
  -7  -7   2    5.00    9.50
  -7  -7   2   21.80    8.00
   6   7  -2  229.58   22.90
   6   7  -2  249.68   20.90
   6   7  -2  246.28   15.20
  -6  -7   2  207.28   16.20
  -6  -7   2  188.08   20.50
  -6  -7   2  232.98   27.20
   5   7  -2 1611.44   78.39
   5   7  -2 1647.84   76.29
  -5  -7   2 1470.25   77.39
  -5  -7   2 1651.93   76.79
  -5  -7   2 1594.64   79.99
   4   7  -2   -2.00    8.90
  -4  -7   2   19.30   11.60
   3   7  -2   -4.40    3.80
   3   7  -2    7.40    8.40
  -3  -7   2   12.20   10.60
  -3  -7   2   -5.80    4.10
   2   7  -2  124.69   10.80
   2   7  -2  125.99   13.90
   2   7  -2  118.29   12.50
  -2  -7   2  114.89   10.10
  -2  -7   2   88.29   12.20
  -2  -7   2  105.09   19.40
  -2  -7   2   84.29   13.40
   1   7  -2  177.78   12.80
   1   7  -2  166.08   14.00
   1   7  -2  186.08   17.00
   1   7  -2  161.78   20.10
   1   7  -2  168.68   11.50
  -1  -7   2  162.28   12.00
  -1  -7   2  145.99   14.60
  -1  -7   2  182.08   17.40
  -1  -7   2  188.58   18.80
  -1  -7   2  151.18   13.50
  -1  -7   2  174.68   13.50
   0   7  -2  254.87   15.30
   0   7  -2  202.18   16.50
   0   7  -2  237.88   23.30
   0   7  -2  223.68   16.70
   0  -7   2  259.97   19.10
   0  -7   2  220.08   14.40
   0  -7   2  252.57   15.50
   0  -7   2  219.78   17.20
   0  -7   2  215.88   15.10
   0  -7   2  264.17   21.00
  -1   7  -2 1262.47   62.39
  -1   7  -2 1317.57   64.19
  -1   7  -2 1338.57   63.39
  -1   7  -2 1214.48   63.79
  -1   7  -2 1276.17   62.09
  -1   7  -2 1335.97   66.89
   1  -7   2 1271.37   62.39
   1  -7   2 1363.86   66.09
   1  -7   2 1317.07   63.89
   1  -7   2 1266.27   63.29
   1  -7   2 1201.28   62.29
  -2   7  -2  318.37   20.00
  -2   7  -2  332.97   29.60
  -2   7  -2  310.17   22.60
  -2   7  -2  308.57   18.80
  -2   7  -2  348.77   24.50
  -2   7  -2  285.27   22.10
   2  -7   2  344.97   23.60
   2  -7   2  325.27   22.10
   2  -7   2  315.57   19.10
   2  -7   2  343.67   23.90
   2  -7   2  325.17   19.90
   2  -7   2  355.36   26.60
  -3   7  -2   31.30   10.20
  -3   7  -2   11.10    9.80
  -3   7  -2   21.80    8.50
  -3   7  -2   23.90    6.40
  -3   7  -2   16.40    5.30
   3  -7   2   17.00    5.50
   3  -7   2    7.30   14.00
   3  -7   2   19.00    6.80
   3  -7   2   23.80    6.30
   3  -7   2   23.40    9.70
   3  -7   2   18.60    8.10
  -4   7  -2   90.99   18.40
  -4   7  -2  125.99   22.80
  -4   7  -2  100.79   15.40
  -4   7  -2   70.99   11.50
   4  -7   2   95.29   13.60
   4  -7   2   97.19   12.10
   4  -7   2  102.69   14.70
   4  -7   2   99.29   18.50
   4  -7   2   89.49   21.50
  -5   7  -2  263.07   28.10
  -5   7  -2  224.68   20.40
   5  -7   2  234.68   19.40
   5  -7   2  244.18   17.70
   5  -7   2  224.88   25.40
   5  -7   2  254.27   19.80
   5  -7   2  268.07   24.30
  -6   7  -2    1.00   19.40
  -6   7  -2   -8.90    8.60
  -6   7  -2   -4.80   13.40
   6  -7   2   -6.50    9.90
   6  -7   2   -3.10    8.40
   6  -7   2    2.90   11.50
   6  -7   2   -4.20   13.10
  -7   7  -2   -1.70   22.40
  -7   7  -2  -11.50    9.40
  -7   7  -2   -2.10   15.70
   7  -7   2    3.90    9.40
   7  -7   2    4.20   11.10
   7  -7   2    0.80   14.90
  11   6  -2   -2.80   12.70
  11   6  -2   -3.80    8.20
  11   6  -2   27.60   20.20
 -11  -6   2  -11.60    9.60
 -11  -6   2   46.60   23.80
  10   6  -2   -0.60   10.90
  10   6  -2   35.20   18.00
 -10  -6   2   29.70   24.10
 -10  -6   2   14.50    7.80
 -10  -6   2   19.50   21.30
   9   6  -2  458.15   31.40
   9   6  -2  394.26   25.40
   9   6  -2  348.37   24.00
  -9  -6   2  473.55   41.50
  -9  -6   2  442.56   36.30
  -9  -6   2  372.06   30.60
  -9  -6   2  384.26   25.10
  -9  -6   2  321.67   28.10
   8   6  -2   57.89   17.00
   8   6  -2   80.49   13.90
   8   6  -2   49.40    6.90
  -8  -6   2   73.99   24.30
  -8  -6   2   56.79   11.70
   7   6  -2  306.67   22.10
   7   6  -2  329.77   19.00
   7   6  -2  337.57   19.90
   7   6  -2  306.37   26.00
   7   6  -2  343.07   20.40
   7   6  -2  371.06   24.70
  -7  -6   2  344.17   20.90
  -7  -6   2  359.46   32.10
   6   6  -2  110.19   11.40
   6   6  -2  113.59   18.30
   6   6  -2  147.99   16.70
   6   6  -2  119.69   11.40
   6   6  -2  123.69   13.20
   6   6  -2  121.59   10.30
  -6  -6   2  100.09   14.60
  -6  -6   2  108.49   23.60
  -6  -6   2  114.59   10.70
  -6  -6   2  122.89   12.50
  -6  -6   2   89.99   17.10
   5   6  -2  252.97   14.20
   5   6  -2  222.38   14.50
   5   6  -2  248.78   19.90
   5   6  -2  252.17   18.00
   5   6  -2  215.48   13.80
  -5  -6   2  263.07   23.40
  -5  -6   2  214.88   14.20
   4   6  -2 1892.71   97.19
   4   6  -2 2080.29   98.49
   4   6  -2 2189.38   97.09
   4   6  -2 2042.50   97.29
  -4  -6   2 2134.69   97.49
  -4  -6   2 1958.20   97.29
  -4  -6   2 1943.41   97.89
  -4  -6   2 2090.59   99.59
  -4  -6   2 2056.99   98.29
   3   6  -2 1089.59   52.59
   3   6  -2 1161.58   54.19
  -3  -6   2 1098.59   55.09
  -3  -6   2 1080.39   53.09
  -3  -6   2 1041.60   54.09
  -3  -6   2 1080.49   53.79
  -3  -6   2 1111.29   52.79
   2   6  -2   49.10    7.00
   2   6  -2   35.80    6.10
   2   6  -2   59.99   11.50
   2   6  -2   42.70    4.60
  -2  -6   2   43.40    7.40
  -2  -6   2   53.29   10.00
  -2  -6   2   35.90    6.10
  -2  -6   2   32.60    4.90
  -2  -6   2   39.60    6.50
   1   6  -2 2559.44  116.89
   1   6  -2 2382.46  116.49
   1   6  -2 2541.95  116.29
   1   6  -2 2349.96  117.29
   1   6  -2 2474.55  118.39
  -1  -6   2 2450.15  116.99
  -1  -6   2 2420.56  117.19
  -1  -6   2 2561.54  116.39
  -1  -6   2 2393.56  116.49
  -1  -6   2 2361.26  117.69
   0   6  -2  160.08   18.30
   0   6  -2  177.88   22.20
   0   6  -2  160.48   11.20
   0   6  -2  165.28   13.10
   0   6  -2  158.68   13.20
   0   6  -2  173.88   11.90
   0  -6   2  170.18   15.10
   0  -6   2  176.58   12.20
   0  -6   2  155.28   13.60
   0  -6   2  163.88   11.30
   0  -6   2  195.38   16.60
  -1   6  -2   54.09   11.80
  -1   6  -2   70.29    9.80
  -1   6  -2   94.79   14.10
   1  -6   2   61.89    8.60
   1  -6   2   69.59    9.90
   1  -6   2   65.99   12.70
   1  -6   2   73.39   17.10
   1  -6   2   85.09   13.70
  -2   6  -2   42.30    7.90
  -2   6  -2   39.60    4.90
  -2   6  -2   24.80    8.20
  -2   6  -2   32.80    6.40
  -2   6  -2   65.69   10.30
   2  -6   2   56.99   12.50
   2  -6   2   46.00   13.10
   2  -6   2   42.90    5.50
   2  -6   2   45.10    7.40
   2  -6   2   39.20    5.70
   2  -6   2   60.59   14.50
  -3   6  -2  120.89   16.20
  -3   6  -2  151.68   12.30
  -3   6  -2  167.88   19.00
  -3   6  -2  166.08   16.70
  -3   6  -2  126.79   23.20
  -3   6  -2  159.68   13.90
   3  -6   2  111.09   21.50
   3  -6   2  174.38   13.50
   3  -6   2  182.88   18.40
   3  -6   2  152.28   12.50
   3  -6   2  145.49   18.60
   3  -6   2  160.68   16.20
  -4   6  -2   37.70    6.10
  -4   6  -2   45.00    9.30
  -4   6  -2   42.20    6.80
  -4   6  -2   55.49   10.10
   4  -6   2   31.90    9.70
   4  -6   2   48.80    6.70
   4  -6   2   46.20   10.00
   4  -6   2   59.09   11.20
   4  -6   2   36.40   14.20
   4  -6   2   55.89   10.10
   4  -6   2   41.30    6.10
  -5   6  -2  783.32   43.20
  -5   6  -2  672.23   45.70
  -5   6  -2  789.22   40.50
  -5   6  -2  830.72   47.60
  -5   6  -2  858.41   44.50
  -5   6  -2  805.62   43.20
   5  -6   2  775.22   39.60
   5  -6   2  849.61   44.10
   5  -6   2  763.52   47.00
   5  -6   2  683.83   42.20
   5  -6   2  741.73   45.00
   5  -6   2  774.62   39.90
  -6   6  -2  402.76   35.30
  -6   6  -2  419.26   32.30
  -6   6  -2  375.56   32.10
  -6   6  -2  378.46   32.70
   6  -6   2  419.36   31.60
   6  -6   2  324.57   30.00
   6  -6   2  359.26   28.50
   6  -6   2  400.56   24.80
   6  -6   2  375.06   23.60
  -7   6  -2  -11.90   20.80
  -7   6  -2  -13.50   14.00
  -7   6  -2  -11.30    8.60
   7  -6   2   -8.40    8.50
   7  -6   2  -10.30   10.70
   7  -6   2  -13.50   13.60
   7  -6   2  -17.50   12.00
  -8   6  -2   -4.10    9.90
  -8   6  -2   -6.20   24.10
  -8   6  -2    0.70   20.20
   8  -6   2    2.00   11.80
   8  -6   2  -10.90    9.70
   8  -6   2   -0.10   15.30
  11   5  -2   -4.60   12.90
  11   5  -2  -12.00    8.50
  11   5  -2   28.80   20.30
 -11  -5   2   23.20   22.10
 -11  -5   2  -18.10    9.40
  10   5  -2   59.19    8.60
  10   5  -2   90.99   14.20
 -10  -5   2   65.99    9.80
 -10  -5   2  100.49   15.60
 -10  -5   2   82.89   14.60
 -10  -5   2   62.99   14.20
   9   5  -2  216.78   18.50
   9   5  -2  239.08   30.30
  -9  -5   2  242.38   18.00
  -9  -5   2  305.07   36.60
  -9  -5   2  267.17   30.70
  -9  -5   2  219.38   25.60
  -9  -5   2  236.38   19.90
  -9  -5   2  268.17   23.70
   8   5  -2   29.00    6.40
   8   5  -2   31.80   12.40
   8   5  -2   44.30    8.30
   8   5  -2   62.99   13.80
   8   5  -2   40.30    5.60
  -8  -5   2   28.90   10.40
  -8  -5   2   72.99   19.20
  -8  -5   2   26.30    7.10
  -8  -5   2   38.40    6.10
  -8  -5   2   42.20    8.70
  -8  -5   2   65.59   17.60
   7   5  -2   -6.60    5.20
   7   5  -2    6.30   10.70
   7   5  -2   -0.20   10.40
   7   5  -2   -2.90   11.60
   7   5  -2    3.70    4.30
  -7  -5   2  -11.20    8.60
  -7  -5   2   -1.20   15.40
  -7  -5   2   -6.20    5.70
  -7  -5   2   -1.60    7.20
  -7  -5   2    1.00    4.90
   6   5  -2    6.50    6.50
   6   5  -2    7.60    4.70
   6   5  -2   25.40    9.50
   6   5  -2   10.80    9.50
   6   5  -2   13.50    4.00
  -6  -5   2    4.00    5.40
  -6  -5   2    1.10    7.60
  -6  -5   2   10.10   13.60
   5   5  -2   24.70    6.20
   5   5  -2   36.20   17.40
   5   5  -2   24.30    4.40
   5   5  -2   32.10    6.60
   5   5  -2   27.50    3.90
  -5  -5   2   20.30    4.70
  -5  -5   2   45.30    7.70
  -5  -5   2   45.10   11.40
   4   5  -2   69.59    7.50
   4   5  -2   78.89   10.70
   4   5  -2   56.09    6.90
   4   5  -2   76.49   13.10
   4   5  -2   44.70    7.80
   4   5  -2   48.50   10.30
  -4  -5   2   64.49    9.90
  -4  -5   2   49.70    8.40
  -4  -5   2   46.50    6.80
  -4  -5   2   64.69    7.30
   3   5  -2 4244.08  193.28
   3   5  -2 3526.65  192.58
   3   5  -2 4208.88  192.48
  -3  -5   2 4218.58  192.48
  -3  -5   2 4133.69  193.58
  -3  -5   2 4107.89  192.88
  -3  -5   2 4024.10  192.38
   2   5  -2 3290.87  156.38
   2   5  -2 3233.18  156.48
   2   5  -2 3400.26  156.78
   2   5  -2 3173.18  156.98
  -2  -5   2 3440.56  156.48
  -2  -5   2 3298.57  157.58
  -2  -5   2 3286.17  156.98
   1   5  -2 1534.95   74.19
   1   5  -2 1486.35   74.99
   1   5  -2 1641.64   74.59
   1   5  -2 1598.54   74.09
  -1  -5   2 1592.54   74.19
  -1  -5   2 1501.05   74.69
  -1  -5   2 1519.95   74.79
   0   5  -2 2009.70   92.69
   0   5  -2 1837.32   94.29
   0   5  -2 1980.30   92.49
   0   5  -2 2031.20   92.99
   0   5  -2 1873.41   92.29
   0  -5   2 1799.82   93.49
   0  -5   2 1869.31   92.79
   0  -5   2 1986.80   92.19
   0  -5   2 1896.91   92.29
   0  -5   2 2095.29   92.39
   0  -5   2 1937.31   92.79
  -1   5  -2 3151.38  151.28
  -1   5  -2 3151.88  150.68
  -1   5  -2 3261.17  150.58
  -1   5  -2 3271.67  151.68
  -1   5  -2 3276.17  152.58
   1  -5   2 3167.38  150.58
   1  -5   2 3166.68  150.58
   1  -5   2 3111.49  151.08
   1  -5   2 3539.35  151.78
   1  -5   2 2722.73  155.08
   1  -5   2 3116.89  151.18
  -2   5  -2  167.18   11.50
  -2   5  -2  156.28   14.30
  -2   5  -2  175.88   12.20
  -2   5  -2  166.68   14.20
  -2   5  -2  195.08   15.90
   2  -5   2  178.58   15.20
   2  -5   2  166.48   11.40
   2  -5   2  169.48   13.90
   2  -5   2  195.38   15.60
   2  -5   2  171.88   12.00
  -3   5  -2  268.77   19.40
  -3   5  -2  244.48   15.10
  -3   5  -2  265.07   18.20
  -3   5  -2  210.48   21.40
  -3   5  -2  258.07   16.00
   3  -5   2  245.98   17.60
   3  -5   2  248.38   15.60
   3  -5   2  269.07   19.80
   3  -5   2  255.97   18.90
   3  -5   2  247.98   15.00
  -4   5  -2   15.80    8.60
  -4   5  -2    8.30    4.70
  -4   5  -2    8.60    7.90
  -4   5  -2  -16.90   14.30
  -4   5  -2   10.90    5.60
  -4   5  -2    3.00    6.40
   4  -5   2    9.90    5.40
   4  -5   2   10.20    8.30
   4  -5   2   13.90    4.90
   4  -5   2    9.80   10.70
   4  -5   2    1.60    7.90
   4  -5   2    2.00   12.00
  -5   5  -2 1227.88   62.59
  -5   5  -2 1175.88   57.49
  -5   5  -2 1203.18   59.49
  -5   5  -2 1258.57   60.19
  -5   5  -2  995.90   60.09
  -5   5  -2 1219.98   57.79
   5  -5   2 1205.58   57.69
   5  -5   2 1156.78   60.69
   5  -5   2 1186.28   57.39
   5  -5   2 1060.09   60.69
   5  -5   2 1237.78   59.89
   5  -5   2 1134.19   62.09
   5  -5   2 1144.89   57.39
   5  -5   2 1204.48   59.39
  -6   5  -2  427.56   30.20
  -6   5  -2  393.76   28.50
  -6   5  -2  390.76   34.00
  -6   5  -2  381.36   24.20
  -6   5  -2  379.36   25.50
   6  -5   2  381.16   23.20
   6  -5   2  417.36   29.30
   6  -5   2  337.77   28.80
   6  -5   2  394.66   27.10
   6  -5   2  386.96   30.10
   6  -5   2  429.96   32.90
   6  -5   2  310.77   29.30
   6  -5   2  353.46   23.10
  -7   5  -2   12.50   20.20
  -7   5  -2   -3.20   12.70
  -7   5  -2   -0.90    8.20
  -7   5  -2    3.20   12.60
   7  -5   2   -7.60   10.80
   7  -5   2    7.00    8.20
   7  -5   2    0.40   10.90
   7  -5   2    8.70   11.60
   7  -5   2   -6.30   12.30
  -8   5  -2  100.99   23.90
  -8   5  -2   81.19   11.00
  -8   5  -2   85.79   21.60
   8  -5   2   81.09   20.70
   8  -5   2   99.39   17.10
   8  -5   2   83.49   10.50
  11   4  -2   41.70   19.40
 -11  -4   2   40.10   22.80
  10   4  -2    1.50    7.70
  10   4  -2   -3.60   12.40
  10   4  -2   46.00   17.50
  10   4  -2   18.40   10.10
 -10  -4   2   74.79   28.70
 -10  -4   2   17.90   13.00
 -10  -4   2   20.90    7.60
 -10  -4   2   35.70   19.10
   9   4  -2   89.99   11.70
   9   4  -2  118.99   14.60
  -9  -4   2   95.89   15.10
  -9  -4   2  110.49   16.30
   8   4  -2  814.32   43.50
   8   4  -2  893.31   45.20
   8   4  -2  741.63   46.40
   8   4  -2  764.32   41.30
   8   4  -2  804.52   44.00
   8   4  -2  839.22   41.90
  -8  -4   2  858.11   42.20
  -8  -4   2  867.01   45.00
  -8  -4   2  870.41   47.10
  -8  -4   2  875.01   50.49
  -8  -4   2  826.12   43.90
  -8  -4   2  810.22   41.60
   7   4  -2  226.98   16.20
   7   4  -2  239.18   19.50
   7   4  -2  246.48   20.60
   7   4  -2  251.67   18.30
   7   4  -2  231.88   22.90
   7   4  -2  236.28   15.20
  -7  -4   2  259.67   20.90
  -7  -4   2  257.47   17.00
  -7  -4   2  235.98   16.60
  -7  -4   2  258.47   19.30
  -7  -4   2  256.37   24.40
  -7  -4   2  252.77   28.40
   6   4  -2  304.27   19.60
   6   4  -2  291.77   18.40
   6   4  -2  271.97   16.70
   6   4  -2  278.17   19.00
   6   4  -2  280.27   16.00
   6   4  -2  273.37   21.70
  -6  -4   2  301.87   17.30
  -6  -4   2  278.07   25.00
  -6  -4   2  278.47   16.30
  -6  -4   2  287.77   18.90
  -6  -4   2  288.67   20.40
   5   4  -2 2346.07  115.79
   5   4  -2 2362.16  115.29
   5   4  -2 2489.95  115.39
   5   4  -2 2418.16  116.29
   5   4  -2 2379.46  116.79
  -5  -4   2 2579.34  115.49
  -5  -4   2 2535.75  116.19
  -5  -4   2 2264.17  115.29
  -5  -4   2 2480.15  117.39
   4   4  -2   73.29    9.70
   4   4  -2   49.70    9.60
   4   4  -2   58.49    8.50
   4   4  -2   58.09   10.10
   4   4  -2   53.99    7.30
  -4  -4   2   54.09    7.80
  -4  -4   2   48.10   10.20
  -4  -4   2   78.79    9.60
  -4  -4   2   70.29   13.90
   3   4  -2    9.00    6.10
   3   4  -2    2.80    2.50
   3   4  -2    3.20    3.70
   3   4  -2   12.20    5.80
   3   4  -2   -0.10    4.00
   3   4  -2   -2.20    3.00
  -3  -4   2   -2.80    3.10
  -3  -4   2    2.80    3.90
  -3  -4   2   -4.80    4.50
  -3  -4   2   10.30    7.00
  -3  -4   2    4.60    2.60
   2   4  -2  159.08    9.30
   2   4  -2  162.68   10.60
   2   4  -2  165.28    9.70
   2   4  -2  181.28   11.50
  -2  -4   2  142.89   11.20
  -2  -4   2  158.88    9.50
  -2  -4   2  145.09    9.80
  -2  -4   2  174.08   12.50
  -2  -4   2  138.79   10.90
   1   4  -2    3.20    2.50
   1   4  -2    1.60    2.30
   1   4  -2    5.80    3.40
   1   4  -2    1.20    3.90
  -1  -4   2    1.10    3.70
  -1  -4   2   -0.10    6.80
  -1  -4   2    3.70    2.60
  -1  -4   2    5.50    3.70
  -1  -4   2    1.40    2.40
   0   4  -2  258.07   17.00
   0   4  -2  287.07   15.50
   0   4  -2  283.07   14.40
   0   4  -2  272.67   14.60
   0   4  -2  284.97   15.50
   0  -4   2  276.67   14.70
   0  -4   2  279.47   14.40
   0  -4   2  275.77   15.70
   0  -4   2  255.47   16.90
   0  -4   2  280.37   15.90
  -1   4  -2 2043.60   99.39
  -1   4  -2 2089.59   97.99
  -1   4  -2 2159.98   98.89
  -1   4  -2 2125.79   98.39
  -1   4  -2 2026.50   97.99
  -1   4  -2 2038.00   98.59
   1  -4   2 2047.90   97.99
   1  -4   2 2039.10   98.49
   1  -4   2 2022.70   99.49
   1  -4   2 2035.00   98.49
   1  -4   2 2054.79   97.99
  -2   4  -2  573.34   28.50
  -2   4  -2  578.44   32.00
  -2   4  -2  586.74   29.50
  -2   4  -2  536.95   30.30
  -2   4  -2  582.54   30.00
  -2   4  -2  584.94   29.80
   2  -4   2  564.64   29.60
   2  -4   2  549.85   31.60
   2  -4   2  566.94   29.40
   2  -4   2  571.44   28.40
   2  -4   2  578.24   28.30
   2  -4   2  573.24   27.90
  -3   4  -2   41.10    6.80
  -3   4  -2   34.00    4.30
  -3   4  -2   50.49    8.80
  -3   4  -2   33.20    6.10
  -3   4  -2   39.40    6.60
   3  -4   2   38.80    4.60
   3  -4   2   51.99   10.60
   3  -4   2   17.50   10.10
   3  -4   2   32.10    6.60
   3  -4   2   39.40    6.60
  -4   4  -2   65.79   13.50
  -4   4  -2   92.89   13.80
  -4   4  -2   61.59    9.50
  -4   4  -2   69.89   10.70
  -4   4  -2   86.39   15.10
   4  -4   2   82.69   15.10
   4  -4   2   66.89    9.20
   4  -4   2   82.99   12.80
   4  -4   2   72.39   10.40
   4  -4   2   68.09   14.30
  -5   4  -2  262.37   22.10
  -5   4  -2  327.17   19.30
  -5   4  -2  321.67   18.60
  -5   4  -2  332.57   23.10
  -5   4  -2  270.57   28.20
  -5   4  -2  333.67   23.20
   5  -4   2  304.27   22.40
   5  -4   2  299.17   24.40
   5  -4   2  319.97   18.40
   5  -4   2  298.27   23.70
   5  -4   2  318.37   18.90
   5  -4   2  287.47   25.30
   5  -4   2  313.27   19.00
   5  -4   2  328.07   21.40
  -6   4  -2  697.23   36.10
  -6   4  -2  751.92   39.80
  -6   4  -2  589.04   39.20
  -6   4  -2  745.73   44.10
  -6   4  -2  707.13   36.40
  -6   4  -2  737.33   39.20
   6  -4   2  697.43   38.20
   6  -4   2  711.33   42.30
   6  -4   2  684.43   35.90
   6  -4   2  746.13   39.30
   6  -4   2  618.04   39.90
   6  -4   2  730.73   36.30
   6  -4   2  682.93   39.70
   6  -4   2  705.63   36.30
  -7   4  -2  273.37   26.00
  -7   4  -2  260.77   20.40
  -7   4  -2  278.97   26.60
   7  -4   2  301.67   28.40
   7  -4   2  240.68   21.80
   7  -4   2  263.07   25.70
   7  -4   2  272.27   19.80
   7  -4   2  221.98   25.80
   7  -4   2  263.87   23.80
  -8   4  -2   15.50   13.10
  -8   4  -2   16.30    8.60
  -8   4  -2   44.70   21.40
  -8   4  -2   22.20   12.80
   8  -4   2   31.80   10.90
   8  -4   2   22.10    8.50
   8  -4   2   23.00   13.00
  -9   4  -2   94.69   11.50
  -9   4  -2   99.89   16.50
   9  -4   2  120.89   19.60
  11   3  -2   43.60   18.80
 -11  -3   2   40.20   22.70
  10   3  -2   26.40   20.80
  10   3  -2    8.10   10.20
 -10  -3   2    1.70   11.30
 -10  -3   2   26.00   19.00
 -10  -3   2   65.79   29.20
   9   3  -2    1.00    6.90
   9   3  -2   -8.90   10.30
  -9  -3   2   37.30   17.40
  -9  -3   2   32.00   25.10
  -9  -3   2   12.30    7.70
  -9  -3   2   22.50    6.60
  -9  -3   2    5.20   16.80
  -9  -3   2   -2.50    7.70
   8   3  -2   49.90   13.40
   8   3  -2   55.09    6.80
   8   3  -2   55.39   10.10
   8   3  -2   75.29   16.10
   8   3  -2   81.29   11.00
  -8  -3   2   84.29   15.90
  -8  -3   2   54.69    7.30
  -8  -3   2   55.09   10.60
  -8  -3   2   57.19   13.70
  -8  -3   2   85.99   20.20
   7   3  -2 1096.09   53.39
   7   3  -2  992.30   51.09
   7   3  -2 1064.19   52.79
   7   3  -2  995.90   54.79
   7   3  -2 1051.59   52.79
   7   3  -2 1061.89   51.49
   7   3  -2 1045.40   52.99
  -7  -3   2 1086.29   54.49
  -7  -3   2 1018.00   51.29
  -7  -3   2 1063.69   57.39
  -7  -3   2 1067.39   52.79
  -7  -3   2  939.81   51.89
  -7  -3   2 1122.39   53.59
  -7  -3   2 1113.99   51.69
   6   3  -2   53.39   11.60
   6   3  -2   31.90    6.80
   6   3  -2   29.40    4.80
   6   3  -2   48.40    7.70
   6   3  -2   33.10   10.30
  -6  -3   2   49.70   11.70
  -6  -3   2   56.69   12.40
  -6  -3   2   48.00    8.40
  -6  -3   2   29.50    7.40
  -6  -3   2   26.20    5.10
  -6  -3   2   20.40   12.60
   5   3  -2 1006.80   48.90
   5   3  -2  948.31   49.80
   5   3  -2 1010.70   48.70
   5   3  -2 1043.10   49.80
   5   3  -2 1065.39   49.99
   5   3  -2  991.90   50.89
  -5  -3   2 1069.19   49.00
  -5  -3   2  972.50   49.60
  -5  -3   2  964.20   48.70
  -5  -3   2  997.20   51.69
  -5  -3   2 1063.29   49.99
   4   3  -2 4473.95  209.38
   4   3  -2 4349.96  209.28
   4   3  -2 4296.77  209.88
   4   3  -2 4390.46  209.68
   4   3  -2 4487.25  210.38
  -4  -3   2 4214.58  209.28
  -4  -3   2 4492.45  210.48
  -4  -3   2 4600.34  209.88
  -4  -3   2 4744.43  209.48
  -4  -3   2 4199.68  209.58
   3   3  -2 1430.96   70.69
   3   3  -2 1496.55   70.39
   3   3  -2 1474.65   70.29
   3   3  -2 1469.45   70.99
   3   3  -2 1433.56   71.19
   3   3  -2 1466.25   70.79
  -3  -3   2 1540.05   70.39
  -3  -3   2 1517.55   71.49
   2   3  -2  836.92   41.10
   2   3  -2  815.32   41.50
   2   3  -2  908.21   42.10
  -2  -3   2  840.02   41.70
  -2  -3   2  859.81   41.10
  -2  -3   2  899.41   41.20
  -2  -3   2  899.01   42.20
  -2  -3   2  810.22   41.50
   1   3  -2 1933.51   92.19
   1   3  -2 1954.60   92.39
   1   3  -2 1981.30   92.09
   1   3  -2 1892.51   92.49
  -1  -3   2 2020.80   92.19
  -1  -3   2 1857.41   92.39
  -1  -3   2 1921.01   92.49
  -1  -3   2 1986.60   92.79
   0   3  -2  395.56   21.70
   0   3  -2  419.86   20.60
   0   3  -2  419.56   20.50
   0   3  -2  482.15   21.30
   0   3  -2  413.36   21.10
   0  -3   2  374.26   21.90
   0  -3   2  418.26   20.60
   0  -3   2  425.76   20.50
   0  -3   2  420.86   21.30
   0  -3   2  401.26   21.20
  -1   3  -2 2169.88   93.39
  -1   3  -2 1939.01   92.99
  -1   3  -2 1939.71   92.79
  -1   3  -2 1907.31   93.69
  -1   3  -2 1914.61   92.49
  -1   3  -2 1999.20   92.49
   1  -3   2 1872.31   93.69
   1  -3   2 1922.41   92.89
   1  -3   2 1908.41   92.49
   1  -3   2 1965.60   92.49
   1  -3   2 1898.51   92.79
  -2   3  -2 1481.35   70.29
  -2   3  -2 1451.65   70.79
  -2   3  -2 1463.15   69.79
  -2   3  -2 1467.95   71.39
  -2   3  -2 1451.05   69.69
  -2   3  -2 1469.05   70.39
   2  -3   2 1449.35   70.29
   2  -3   2 1402.36   71.29
   2  -3   2 1435.26   70.19
   2  -3   2 1650.23   70.99
   2  -3   2 1402.46   69.59
   2  -3   2 1450.95   69.69
   2  -3   2 1434.76   69.69
  -3   3  -2   21.40    5.50
  -3   3  -2   17.80    5.40
  -3   3  -2   17.50    3.50
  -3   3  -2   14.10    3.70
  -3   3  -2   14.10    8.10
   3  -3   2    5.10    8.30
   3  -3   2   13.00    5.20
   3  -3   2   15.50    5.20
   3  -3   2   15.50    3.60
   3  -3   2   17.40    4.80
   3  -3   2   20.60    4.70
   3  -3   2   15.80    3.20
  -4   3  -2 1000.80   47.60
  -4   3  -2  996.40   47.50
  -4   3  -2  897.61   49.30
  -4   3  -2  987.20   50.89
  -4   3  -2 1001.40   48.80
  -4   3  -2 1012.10   48.70
   4  -3   2  984.30   48.60
   4  -3   2 1053.99   49.80
   4  -3   2  978.50   47.60
   4  -3   2  922.71   50.39
   4  -3   2  957.70   49.70
   4  -3   2  955.80   48.30
   4  -3   2  972.30   47.40
   4  -3   2  974.80   47.50
  -5   3  -2   45.60    8.20
  -5   3  -2   13.90   13.50
  -5   3  -2   41.30    5.80
  -5   3  -2   41.90    5.70
  -5   3  -2   38.70    7.30
   5  -3   2   57.49    9.40
   5  -3   2   38.50    5.50
   5  -3   2   33.40   11.20
   5  -3   2   63.39   13.00
   5  -3   2   55.49   15.40
   5  -3   2   39.60    8.00
  -6   3  -2  224.78   19.60
  -6   3  -2  202.08   20.20
  -6   3  -2  203.18   15.20
  -6   3  -2  160.18   18.70
  -6   3  -2  146.69   24.70
  -6   3  -2  194.88   14.60
   6  -3   2  219.58   18.20
   6  -3   2  188.38   15.10
   6  -3   2  167.18   20.10
   6  -3   2  177.38   15.30
   6  -3   2  197.68   14.20
   6  -3   2  183.18   20.30
   6  -3   2  175.98   24.20
   6  -3   2  198.28   19.50
  -7   3  -2   49.99   10.40
  -7   3  -2   40.90    7.30
  -7   3  -2   42.40    6.70
  -7   3  -2   46.60   11.00
  -7   3  -2   30.90   17.30
   7  -3   2   58.79   15.50
   7  -3   2   33.90    6.50
   7  -3   2   41.90    7.00
   7  -3   2   39.60   13.90
   7  -3   2   41.10    9.20
   7  -3   2   41.50   10.70
   7  -3   2   51.89    9.80
  -8   3  -2   66.79   13.20
  -8   3  -2   53.69    8.70
  -8   3  -2   94.19   21.30
  -8   3  -2   61.29   12.20
   8  -3   2   74.19   15.40
   8  -3   2   59.19    8.60
   8  -3   2   60.29   12.60
   8  -3   2   98.99   21.70
  -9   3  -2   -4.10    8.80
  -9   3  -2  -11.20   13.90
  -9   3  -2   11.50   13.90
  -9   3  -2   22.70   23.20
   9  -3   2   -8.90    8.40
   9  -3   2    4.30   11.70
   9  -3   2    6.50   13.20
 -10   3  -2   28.90   16.30
 -10   3  -2   37.70   10.70
 -11  -2   2   54.29   22.90
  10   2  -2   40.20   13.00
  10   2  -2   24.80   12.50
  10   2  -2   23.90   11.80
 -10  -2   2   43.50   11.80
 -10  -2   2   33.80   13.30
 -10  -2   2   28.70    9.10
 -10  -2   2   26.20   10.40
   9   2  -2   57.19    8.10
  -9  -2   2   57.09    8.50
  -9  -2   2   73.19   16.80
  -9  -2   2   61.09   12.40
  -9  -2   2   77.39   13.50
  -9  -2   2   70.19   10.80
   8   2  -2  303.07   22.30
   8   2  -2  298.47   21.90
   8   2  -2  261.27   22.50
   8   2  -2  271.87   17.70
   8   2  -2  283.67   18.60
  -8  -2   2  311.07   36.70
  -8  -2   2  297.67   19.50
  -8  -2   2  283.67   22.60
  -8  -2   2  236.88   20.20
  -8  -2   2  284.07   27.90
  -8  -2   2  312.37   27.40
  -8  -2   2  281.47   18.10
   7   2  -2   17.70    6.70
   7   2  -2    6.10    5.20
   7   2  -2   19.80    7.20
   7   2  -2    3.50   10.80
   7   2  -2   16.40    4.60
   7   2  -2   27.10    9.70
  -7  -2   2   22.30    5.00
  -7  -2   2    8.80    5.70
  -7  -2   2   13.70    5.90
  -7  -2   2   14.50   12.20
  -7  -2   2   -0.10    8.30
  -7  -2   2  -14.50   16.90
  -7  -2   2   21.90    7.20
   6   2  -2   71.19   11.40
   6   2  -2   51.69    7.80
   6   2  -2   78.99   10.20
   6   2  -2   86.89   12.50
   6   2  -2   66.79    9.70
   6   2  -2   74.49   12.90
   6   2  -2   87.39   11.50
  -6  -2   2   79.89   12.80
  -6  -2   2   65.59   10.00
  -6  -2   2   49.50    8.10
  -6  -2   2   67.69   10.40
  -6  -2   2   61.49   14.30
   5   2  -2    4.00    8.10
   5   2  -2   11.60    5.10
   5   2  -2    6.00    3.60
   5   2  -2   20.40    6.50
   5   2  -2   10.90    3.30
   5   2  -2   14.70    4.30
   5   2  -2    7.10    5.30
  -5  -2   2   10.30    8.70
  -5  -2   2    9.70    5.60
  -5  -2   2   12.00    3.90
  -5  -2   2   14.40    5.10
  -5  -2   2   13.60    3.50
  -5  -2   2   -3.80   10.00
  -5  -2   2    5.50    3.70
   4   2  -2  213.38   13.50
   4   2  -2  196.58   15.40
   4   2  -2  205.08   12.40
   4   2  -2  209.88   13.20
   4   2  -2  235.98   12.00
   4   2  -2  202.28   11.70
   4   2  -2  214.08   13.20
  -4  -2   2  219.48   13.30
  -4  -2   2  235.38   12.30
  -4  -2   2  203.08   11.70
  -4  -2   2  214.98   13.90
  -4  -2   2  181.78   16.90
   3   2  -2 4768.52  221.68
   3   2  -2 4616.64  222.08
   3   2  -2 4691.43  221.68
   3   2  -2 4484.15  221.88
   3   2  -2 4721.43  222.38
  -3  -2   2 4532.35  221.88
  -3  -2   2 4502.25  221.68
  -3  -2   2 4957.50  221.78
  -3  -2   2 4772.92  222.48
  -3  -2   2 4859.71  222.08
   2   2  -2  629.24   32.00
   2   2  -2  654.83   31.80
   2   2  -2  628.24   31.70
   2   2  -2  664.13   31.30
   2   2  -2  644.54   31.30
  -2  -2   2  636.84   31.80
  -2  -2   2  678.63   31.40
  -2  -2   2  649.74   32.30
  -2  -2   2  677.73   31.80
   1   2  -2  110.59    7.70
   1   2  -2  102.79    7.40
   1   2  -2  122.09    6.60
   1   2  -2  122.09    8.30
   1   2  -2  109.29    6.40
  -1  -2   2  109.79    6.50
  -1  -2   2  101.19    7.70
  -1  -2   2  106.99    6.50
  -1  -2   2  103.39    7.50
   0   2  -2  398.26   19.90
   0   2  -2  404.46   19.20
   0   2  -2  401.06   19.20
   0   2  -2  385.16   19.60
   0   2  -2  371.86   18.80
   0  -2   2  399.86   19.70
   0  -2   2  360.56   20.20
   0  -2   2  403.36   19.20
   0  -2   2  394.66   19.80
   0  -2   2  408.46   19.20
  -1   2  -2  476.85   23.30
  -1   2  -2  490.25   24.00
  -1   2  -2  485.45   23.80
  -1   2  -2  464.35   25.00
  -1   2  -2  496.15   23.30
   1  -2   2  477.55   23.90
   1  -2   2  472.05   23.30
   1  -2   2  476.15   23.30
   1  -2   2  448.26   24.90
   1  -2   2  474.75   23.90
  -2   2  -2 4358.36  206.88
  -2   2  -2 4777.12  207.88
  -2   2  -2 4255.57  207.18
  -2   2  -2 4378.56  206.88
  -2   2  -2 4328.97  207.18
  -2   2  -2 4602.24  207.88
   2  -2   2 4237.98  207.18
   2  -2   2 4288.67  206.88
   2  -2   2 4454.45  207.78
   2  -2   2 4248.08  206.88
   2  -2   2 4266.77  206.78
   2  -2   2 4309.47  207.08
  -3   2  -2   31.10    4.90
  -3   2  -2   35.10    5.90
  -3   2  -2   38.60    6.30
  -3   2  -2   24.90    8.10
  -3   2  -2   40.60    8.80
  -3   2  -2   39.40    8.40
   3  -2   2   46.00    7.90
   3  -2   2   43.50    9.20
   3  -2   2   21.90    7.10
   3  -2   2   31.40    5.70
   3  -2   2   29.20    3.40
   3  -2   2   31.40    7.10
   3  -2   2   27.50    4.60
   3  -2   2   40.20    5.60
  -4   2  -2  452.25   22.60
  -4   2  -2  458.45   24.10
  -4   2  -2  403.46   24.50
  -4   2  -2  455.85   22.70
  -4   2  -2  447.46   26.40
  -4   2  -2  447.36   24.30
   4  -2   2  434.56   22.60
   4  -2   2  435.26   22.60
   4  -2   2  441.06   24.10
   4  -2   2  449.56   22.80
   4  -2   2  411.46   27.40
   4  -2   2  415.26   26.00
   4  -2   2  434.56   23.70
   4  -2   2  500.15   25.20
  -5   2  -2  884.81   47.30
  -5   2  -2  931.71   44.00
  -5   2  -2  760.12   49.50
  -5   2  -2  928.01   45.60
  -5   2  -2  932.81   45.40
  -5   2  -2  943.41   44.20
   5  -2   2  909.01   45.40
   5  -2   2  888.81   47.70
   5  -2   2  893.71   45.00
   5  -2   2  908.41   44.40
   5  -2   2  927.61   46.50
   5  -2   2  907.91   44.00
   5  -2   2  885.31   46.40
  -6   2  -2  495.55   33.10
  -6   2  -2  551.24   30.20
  -6   2  -2  453.25   29.90
  -6   2  -2  538.05   27.30
  -6   2  -2  538.45   29.80
  -6   2  -2  532.55   27.40
   6  -2   2  495.15   27.30
   6  -2   2  468.75   30.80
   6  -2   2  519.05   29.60
   6  -2   2  534.25   27.10
   6  -2   2  485.75   33.00
   6  -2   2  548.35   29.20
   6  -2   2  505.35   30.70
   6  -2   2  520.65   26.80
  -7   2  -2   -2.80    7.40
  -7   2  -2  -15.60   15.40
  -7   2  -2    1.70    5.60
  -7   2  -2    4.30    8.70
  -7   2  -2   -3.70    6.20
  -7   2  -2   -5.10    9.60
   7  -2   2    3.00    7.80
   7  -2   2   -6.10   12.70
   7  -2   2   -3.60    9.10
   7  -2   2  -14.50   12.30
   7  -2   2   -6.70    8.80
   7  -2   2   -2.80    6.00
   7  -2   2    2.90    5.20
  -8   2  -2   50.69   11.70
  -8   2  -2   21.60   28.90
  -8   2  -2   40.40    8.00
  -8   2  -2   41.30    7.40
  -8   2  -2   47.80   11.80
   8  -2   2   62.89   15.90
   8  -2   2   43.10    7.70
   8  -2   2   41.00   11.20
   8  -2   2   68.49   10.90
   8  -2   2   53.29   10.10
  -9   2  -2   -6.00    8.30
  -9   2  -2  -11.20   21.40
  -9   2  -2   -9.80   13.00
  -9   2  -2    3.60   12.40
   9  -2   2    4.80   11.90
   9  -2   2  -13.50   11.90
   9  -2   2   -2.40    7.90
 -10   2  -2   25.10   24.00
 -10   2  -2  -10.50    9.30
 -10   2  -2  -20.70   15.10
  10  -2   2   -7.60    8.90
  10  -2   2   -2.90   13.80
  10  -2   2   -9.00   13.70
  11   1  -2   35.20   12.70
  11   1  -2   24.50    9.40
  11   1  -2    5.60   14.30
 -11  -1   2   28.60   10.60
 -11  -1   2   13.30   15.50
  10   1  -2    3.50   10.70
  10   1  -2   -2.00    8.00
 -10  -1   2  -15.40    8.70
 -10  -1   2    3.10   11.70
 -10  -1   2  -17.20   13.10
   9   1  -2  421.66   30.00
   9   1  -2  443.66   29.60
   9   1  -2  410.46   30.00
   9   1  -2  429.86   25.90
  -9  -1   2  450.75   31.30
  -9  -1   2  414.76   29.40
  -9  -1   2  408.66   25.30
  -9  -1   2  437.16   26.50
   8   1  -2  689.93   43.00
   8   1  -2  719.33   40.20
   8   1  -2  731.23   39.60
   8   1  -2  740.13   37.20
   8   1  -2  741.03   39.80
   8   1  -2  682.33   36.60
  -8  -1   2  705.83   39.40
  -8  -1   2  714.73   36.90
  -8  -1   2  651.73   39.10
  -8  -1   2  772.12   37.60
  -8  -1   2  794.62   40.70
   7   1  -2   -7.90    5.20
   7   1  -2    4.90    9.40
   7   1  -2    5.60    7.10
   7   1  -2   -4.10   11.30
   7   1  -2   11.00    7.20
   7   1  -2   -9.70    8.00
   7   1  -2   -1.20    4.50
  -7  -1   2   -5.30    8.40
  -7  -1   2   -3.10    5.60
  -7  -1   2    5.20    4.80
  -7  -1   2    2.40    7.10
   6   1  -2    0.50    9.60
   6   1  -2   11.40    5.50
   6   1  -2   -8.40    6.80
   6   1  -2    2.10    6.20
   6   1  -2   14.00    7.60
   6   1  -2    5.50    5.00
   6   1  -2   -3.20    4.40
  -6  -1   2    4.60    6.10
  -6  -1   2    4.70    4.10
  -6  -1   2    1.70    4.60
  -6  -1   2   -9.60    6.80
  -6  -1   2    6.60    5.10
   5   1  -2 2425.16  114.69
   5   1  -2 2401.56  115.29
   5   1  -2 2390.76  114.59
   5   1  -2 2371.26  115.19
   5   1  -2 2330.37  116.29
   5   1  -2 2394.66  115.09
   5   1  -2 2454.35  115.59
  -5  -1   2 2426.46  114.69
  -5  -1   2 2386.16  115.19
  -5  -1   2 2384.46  114.59
  -5  -1   2 2566.04  117.29
  -5  -1   2 2441.46  115.39
  -5  -1   2 2404.96  115.39
   4   1  -2 1143.39   54.69
   4   1  -2 1139.29   54.59
   4   1  -2 1130.79   53.99
   4   1  -2 1123.69   53.89
   4   1  -2 1110.29   54.39
   4   1  -2 1104.59   55.69
   4   1  -2 1122.79   54.59
  -4  -1   2 1146.99   54.09
  -4  -1   2 1148.19   54.69
  -4  -1   2 1138.79   56.39
  -4  -1   2 1127.49   54.59
  -4  -1   2 1120.29   53.99
  -4  -1   2 1113.09   54.49
   3   1  -2  258.07   14.40
   3   1  -2  261.37   13.40
   3   1  -2  257.27   13.30
   3   1  -2  257.77   14.00
   3   1  -2  238.98   15.90
   3   1  -2  265.37   14.00
   3   1  -2  272.17   14.40
  -3  -1   2  274.37   13.50
  -3  -1   2  224.88   16.70
  -3  -1   2  262.17   13.40
  -3  -1   2  270.77   14.50
  -3  -1   2  271.97   14.30
   2   1  -2 1732.63   82.59
   2   1  -2 1759.72   83.19
   2   1  -2 1689.53   82.89
   2   1  -2 1714.83   82.89
   2   1  -2 1787.52   82.59
  -2  -1   2 1844.12   82.69
  -2  -1   2 1700.53   82.79
  -2  -1   2 1658.83   82.59
  -2  -1   2 1758.82   83.29
  -2  -1   2 1772.82   82.99
  -2  -1   2 1757.62   82.89
   1   1  -2   -2.90    1.50
   1   1  -2   -3.50    2.30
   1   1  -2   -2.20    1.60
  -1  -1   2   -1.80    2.10
  -1  -1   2   -2.90    2.20
  -1  -1   2   -2.60    2.00
  -1  -1   2    0.00    1.40
   0   1  -2 2476.65  118.79
   0   1  -2 2446.06  118.99
   0   1  -2 2582.64  118.79
   0   1  -2 2561.74  118.99
   0   1  -2 2531.15  118.99
   0  -1   2 2648.03  118.89
   0  -1   2 2433.96  118.99
   0  -1   2 2441.26  119.19
   0  -1   2 2414.86  118.79
   0  -1   2 2597.24  119.09
  -1   1  -2 1789.62   82.29
  -1   1  -2 1725.43   81.79
  -1   1  -2 1720.63   81.69
  -1   1  -2 1702.63   81.49
  -1   1  -2 1778.12   81.49
  -1   1  -2 1769.92   81.49
   1  -1   2 1744.03   82.19
   1  -1   2 1647.14   81.59
   1  -1   2 1642.74   81.69
   1  -1   2 1706.33   81.49
   1  -1   2 1696.13   81.69
  -2   1  -2   26.40    4.40
  -2   1  -2   18.50    5.70
  -2   1  -2   24.50    4.00
  -2   1  -2   33.50    6.20
  -2   1  -2   20.40    3.30
  -2   1  -2   27.90    6.20
   2  -1   2   22.70    2.50
   2  -1   2   23.20    3.80
   2  -1   2   20.10    3.30
   2  -1   2   26.00    4.20
   2  -1   2   21.60    5.30
   2  -1   2   25.30    5.40
  -3   1  -2  180.38   10.10
  -3   1  -2  181.18   10.00
  -3   1  -2  153.48   13.40
  -3   1  -2  181.98   11.40
  -3   1  -2  196.28   12.10
  -3   1  -2  182.98   11.50
   3  -1   2  173.88   11.00
   3  -1   2  182.58    9.80
   3  -1   2  181.78   10.20
   3  -1   2  175.48   10.00
   3  -1   2  156.08   13.00
   3  -1   2  171.38   12.20
  -4   1  -2 1297.97   61.59
  -4   1  -2 1266.77   61.49
  -4   1  -2 1286.87   60.79
  -4   1  -2 1202.58   61.09
  -4   1  -2 1273.37   60.79
  -4   1  -2 1234.48   62.09
  -4   1  -2 1292.57   62.39
   4  -1   2 1275.07   61.39
   4  -1   2 1289.47   62.09
   4  -1   2 1310.77   62.69
   4  -1   2 1263.27   60.79
   4  -1   2 1257.37   61.29
   4  -1   2 1284.77   60.99
   4  -1   2 1258.87   60.69
  -5   1  -2  599.64   29.10
  -5   1  -2  617.94   29.30
  -5   1  -2  573.54   32.60
  -5   1  -2  499.95   31.10
  -5   1  -2  611.34   30.80
  -5   1  -2  600.24   30.60
   5  -1   2  602.54   29.10
   5  -1   2  514.35   35.30
   5  -1   2  587.34   31.70
   5  -1   2  604.84   30.60
   5  -1   2  590.34   28.90
   5  -1   2  563.64   29.30
   5  -1   2  598.44   30.20
  -6   1  -2 2856.31  152.08
  -6   1  -2 3174.08  151.18
  -6   1  -2 3230.88  150.38
  -6   1  -2 3359.86  150.58
  -6   1  -2 3267.47  151.28
  -6   1  -2 3365.86  152.48
   6  -1   2 2817.72  152.88
   6  -1   2 3060.79  150.78
   6  -1   2 3234.18  150.38
   6  -1   2 3144.09  150.38
   6  -1   2 3263.97  151.18
   6  -1   2 3204.58  152.48
   6  -1   2 3183.98  151.88
  -7   1  -2  607.94   31.30
  -7   1  -2  634.44   37.80
  -7   1  -2  610.94   33.80
  -7   1  -2  519.35   34.20
  -7   1  -2  638.54   31.80
  -7   1  -2  639.54   34.50
   7  -1   2  571.04   34.80
   7  -1   2  616.34   33.80
   7  -1   2  616.84   31.40
   7  -1   2  584.14   31.80
   7  -1   2  600.94   36.20
   7  -1   2  570.24   30.90
   7  -1   2  612.44   33.30
  -8   1  -2   -8.10   10.30
  -8   1  -2   -9.90   16.90
  -8   1  -2    6.10    9.60
  -8   1  -2   -2.80    8.20
  -8   1  -2    4.00    6.20
   8  -1   2    7.10    8.70
   8  -1   2   -7.40   13.40
   8  -1   2   -6.30    9.80
   8  -1   2   -2.00   13.60
   8  -1   2   -1.30    6.40
  -9   1  -2   67.59    9.20
  -9   1  -2   72.39   21.40
  -9   1  -2   75.89   19.00
  -9   1  -2   58.79    8.60
  -9   1  -2   68.49   13.60
   9  -1   2   84.49   15.90
   9  -1   2   66.19    8.70
   9  -1   2   72.09   12.30
 -10   1  -2    7.00    9.10
 -10   1  -2    0.60   14.20
 -10   1  -2   33.20   23.00
  10  -1   2   27.60   12.10
  10  -1   2    8.10    8.30
  10  -1   2    6.50   12.60
  11   0  -2   12.70   12.90
 -11   0   2  -11.10   15.70
 -11   0   2   -5.00   10.30
  10   0  -2  -10.90   12.80
  10   0  -2    3.00    8.50
  10   0  -2    9.30   11.10
 -10   0   2  -14.50   13.20
 -10   0   2   -4.60    9.20
 -10   0   2   19.70   12.10
   9   0  -2   -2.20   10.60
   9   0  -2    5.80    9.90
   9   0  -2  -15.70   11.30
   9   0  -2    5.40   11.00
  -9   0   2  -15.90    7.70
  -9   0   2    9.30   25.90
  -9   0   2  -10.20   11.70
  -9   0   2    2.60   10.20
   8   0  -2  134.79   19.80
   8   0  -2  110.49   23.70
   8   0  -2  124.79   18.30
   8   0  -2   93.49   14.60
   8   0  -2   93.79   19.80
   8   0  -2  106.69   12.90
  -8   0   2  114.19   13.70
  -8   0   2  115.09   21.10
  -8   0   2  118.79   15.30
  -8   0   2   89.89   17.50
  -8   0   2  112.49   23.60
   7   0  -2 1167.58   63.39
   7   0  -2 1219.68   59.79
   7   0  -2 1184.38   61.89
   7   0  -2 1161.48   59.49
   7   0  -2 1224.38   61.29
   7   0  -2 1233.98   61.09
  -7   0   2 1291.17   61.69
  -7   0   2 1096.99   61.29
  -7   0   2 1388.76   67.49
  -7   0   2 1224.48   59.59
  -7   0   2 1250.37   61.29
  -7   0   2 1278.77   59.89
   6   0  -2   31.90   10.40
   6   0  -2   18.60    5.00
   6   0  -2   11.10    7.40
   6   0  -2   26.60    6.70
   6   0  -2   17.10    4.50
  -6   0   2   23.70    5.90
  -6   0   2   24.70    4.70
  -6   0   2   18.30    7.60
  -6   0   2   24.70    7.00
  -6   0   2   13.80   14.60
  -6   0   2   20.00    5.20
   5   0  -2   44.40    7.60
   5   0  -2   38.60    9.50
   5   0  -2   31.20    4.50
   5   0  -2   46.40    6.00
   5   0  -2   37.50    6.50
  -5   0   2   38.20    6.50
  -5   0   2   49.20   11.70
  -5   0   2   38.50    7.20
  -5   0   2   40.00    4.70
  -5   0   2   37.60   11.90
  -5   0   2   43.10    6.20
   4   0  -2 1722.73   83.59
   4   0  -2 1705.33   85.19
   4   0  -2 1792.62   84.59
   4   0  -2 1766.02   83.69
   4   0  -2 1707.93   84.09
   4   0  -2 1757.42   84.29
  -4   0   2 1818.92   85.79
  -4   0   2 1771.42   84.19
  -4   0   2 1768.42   84.29
  -4   0   2 1757.72   84.39
  -4   0   2 1750.32   83.69
  -4   0   2 1784.22   83.69
   3   0  -2  836.32   44.30
   3   0  -2  899.81   42.80
   3   0  -2  881.31   42.80
   3   0  -2  908.11   43.50
   3   0  -2  884.61   43.30
   3   0  -2  876.41   43.30
  -3   0   2  896.41   42.80
  -3   0   2  903.71   43.50
  -3   0   2  895.51   43.30
  -3   0   2  908.01   43.40
  -3   0   2  901.71   44.80
  -3   0   2  907.11   42.90
   1   0  -2  146.29    7.40
   1   0  -2  136.49    7.90
   1   0  -2  128.99    7.50
   1   0  -2  137.19    7.30
   1   0  -2  149.29    8.30
   1   0  -2  138.49    8.60
  -1   0   2  132.69    7.20
  -1   0   2  143.49    7.40
  -1   0   2  137.69    7.50
  -1   0   2  138.19    7.90
  -1   0   2  140.29    8.10
  -1   0   2  140.89    8.10
   0   0  -2 1275.37   66.49
   0   0  -2 1461.75   66.29
   0   0  -2 1334.17   66.29
   0   0  -2 1459.05   66.39
   0   0  -2 1432.46   66.19
   0   0   2 1416.16   66.39
   0   0   2 1481.45   66.19
   0   0   2 1342.27   66.59
   0   0   2 1390.06   66.19
  -2   0  -2  402.66   19.90
  -2   0  -2  435.46   19.80
  -2   0  -2  397.46   19.50
  -2   0  -2  407.16   19.90
  -2   0  -2  407.56   19.50
  -2   0  -2  359.66   20.50
   2   0   2  434.76   19.80
   2   0   2  395.36   19.80
   2   0   2  391.36   19.80
   2   0   2  389.16   20.70
   2   0   2  395.06   19.40
   2   0   2  400.06   19.40
  -3   0  -2   73.49    9.30
  -3   0  -2   96.49    7.90
  -3   0  -2   82.89    7.50
  -3   0  -2   93.19    6.30
  -3   0  -2  100.09    6.50
  -3   0  -2   97.49    7.70
  -3   0  -2  112.99    8.60
   3   0   2   77.59    9.50
   3   0   2   93.29    6.10
   3   0   2   89.09    7.60
   3   0   2   97.19    6.40
   3   0   2  100.59    7.50
   3   0   2  104.99    6.80
  -4   0  -2 1055.19   48.40
  -4   0  -2 1028.10   49.00
  -4   0  -2 1077.79   49.80
  -4   0  -2  969.10   49.70
  -4   0  -2  990.50   48.90
  -4   0  -2 1012.40   48.30
  -4   0  -2  944.41   48.80
   4   0   2  995.30   49.60
   4   0   2 1048.90   48.80
   4   0   2 1008.50   48.40
   4   0   2  982.80   48.30
   4   0   2  994.50   48.80
   4   0   2 1001.70   48.90
  -5   0  -2  414.06   21.70
  -5   0  -2  426.76   20.20
  -5   0  -2  359.76   20.60
  -5   0  -2  377.46   25.20
  -5   0  -2  328.77   26.90
  -5   0  -2  357.16   23.40
  -5   0  -2  393.56   19.90
  -5   0  -2  398.96   21.60
   5   0   2  392.46   20.40
   5   0   2  407.66   21.20
   5   0   2  341.07   23.10
   5   0   2  392.06   19.80
   5   0   2  378.06   22.80
   5   0   2  401.06   20.00
   5   0   2  393.46   21.40
  -6   0  -2   43.90    5.50
  -6   0  -2   74.09   12.90
  -6   0  -2   58.79    8.90
  -6   0  -2   46.70    7.50
  -6   0  -2   30.50   13.00
  -6   0  -2   47.70   11.70
   6   0   2   37.70    7.30
   6   0   2   43.10    5.20
   6   0   2   47.80    7.10
   6   0   2   39.40   10.00
   6   0   2   58.79    8.40
   6   0   2   55.09   10.30
  -7   0  -2   46.90    8.40
  -7   0  -2   44.90    9.10
  -7   0  -2   55.29   16.60
  -7   0  -2   69.99   11.00
  -7   0  -2   47.70   11.90
  -7   0  -2   43.20    6.60
  -7   0  -2   51.79   13.80
   7   0   2   38.00    8.60
   7   0   2   76.89   14.50
   7   0   2   48.80   11.70
   7   0   2   63.09   12.10
   7   0   2   54.29    8.90
   7   0   2   57.99    9.70
   7   0   2   39.00    6.00
  -8   0  -2  279.57   23.10
  -8   0  -2  288.87   24.10
  -8   0  -2  283.87   19.10
  -8   0  -2  268.37   18.10
  -8   0  -2  313.57   28.20
  -8   0  -2  254.37   19.10
   8   0   2  280.17   24.50
   8   0   2  288.17   21.60
   8   0   2  264.87   18.40
   8   0   2  254.77   19.50
   8   0   2  266.17   17.70
   8   0   2  262.77   24.90
   8   0   2  261.37   22.20
  -9   0  -2   33.30   11.00
  -9   0  -2   26.80   11.70
  -9   0  -2   17.00   10.80
  -9   0  -2   54.49   19.20
  -9   0  -2   29.90    7.20
  -9   0  -2   27.30    8.10
   9   0   2   34.40   11.40
   9   0   2   24.50   10.80
   9   0   2   43.40   19.60
   9   0   2   29.10    7.40
 -10   0  -2   63.09   14.00
 -10   0  -2   59.99   11.40
 -10   0  -2   48.20   13.10
 -10   0  -2   52.09    9.20
  10   0   2   64.49   12.70
 -11   0  -2   30.10    9.90
 -11   0  -2   21.60   15.80
 -11   0  -2   66.59   25.30
  11   0   2   48.10   15.90
  11   0   2   32.40    9.10
  10  -1  -2  -17.20    8.80
  10  -1  -2    2.60   11.70
  10  -1  -2  -17.40   13.80
 -10   1   2  -20.60   14.40
 -10   1   2   -3.30    9.30
   9  -1  -2   -9.10   11.90
   9  -1  -2   -3.00    7.70
   9  -1  -2   12.40   10.80
   9  -1  -2    4.10   10.80
  -9   1   2    8.00   11.20
  -9   1   2  -12.30    8.20
  -9   1   2   -8.80   12.20
   8  -1  -2  380.16   23.90
   8  -1  -2  423.96   29.30
   8  -1  -2  415.06   24.70
   8  -1  -2  397.66   29.50
   8  -1  -2  428.66   28.10
  -8   1   2  428.36   28.50
  -8   1   2  393.86   24.10
  -8   1   2  437.06   26.10
  -8   1   2  448.16   29.60
   7  -1  -2   18.00    7.80
   7  -1  -2    6.80    9.00
   7  -1  -2   -1.90   13.10
   7  -1  -2    8.00    8.10
   7  -1  -2    3.00    5.90
   7  -1  -2   14.00    5.00
  -7   1   2   -4.00    7.00
  -7   1   2   11.50    5.20
  -7   1   2   15.00    9.40
  -7   1   2    6.90    6.10
   6  -1  -2   50.89    8.20
   6  -1  -2   53.69   14.20
   6  -1  -2   64.39   12.30
   6  -1  -2   69.29    9.20
   6  -1  -2   48.70    5.90
  -6   1   2   74.49   16.10
  -6   1   2   38.30    7.40
  -6   1   2   74.29    9.40
  -6   1   2   57.19    8.60
  -6   1   2   65.19   10.70
  -6   1   2   84.49   14.10
   5  -1  -2  108.29   13.00
   5  -1  -2   77.19    9.40
   5  -1  -2   82.69   12.10
   5  -1  -2   75.49   16.10
   5  -1  -2   58.29   13.10
   5  -1  -2   93.39    8.60
  -5   1   2   66.79   13.30
  -5   1   2   84.49   11.60
  -5   1   2   78.79    9.60
  -5   1   2   91.89   13.60
  -5   1   2   94.79    8.80
  -5   1   2   93.59   12.50
   4  -1  -2  674.53   32.60
   4  -1  -2  638.14   37.10
   4  -1  -2  640.24   33.50
   4  -1  -2  642.04   33.60
   4  -1  -2  704.33   34.10
   4  -1  -2  663.23   32.50
  -4   1   2  643.94   33.80
  -4   1   2  669.33   32.70
  -4   1   2  673.93   36.30
  -4   1   2  685.93   33.60
  -4   1   2  674.03   33.80
  -4   1   2  674.63   32.50
   3  -1  -2 2647.34  124.49
   3  -1  -2 2715.13  125.89
   3  -1  -2 2544.55  124.79
   3  -1  -2 2561.34  124.49
   3  -1  -2 2693.73  125.39
   3  -1  -2 2608.04  124.89
  -3   1   2 2628.94  124.49
  -3   1   2 2653.73  124.89
  -3   1   2 2619.54  125.79
  -3   1   2 2561.84  125.19
  -3   1   2 2657.33  124.89
  -3   1   2 2641.04  124.49
   2  -1  -2 1140.39   53.19
   2  -1  -2 1139.39   52.49
   2  -1  -2 1073.29   53.59
   2  -1  -2 1120.19   52.79
   2  -1  -2 1065.49   52.49
   2  -1  -2 1104.29   52.69
   2  -1  -2 1065.19   52.39
  -2   1   2 1121.99   52.69
  -2   1   2 1102.89   53.09
  -2   1   2 1136.99   52.39
  -2   1   2 1106.89   52.39
  -2   1   2 1114.69   52.79
  -2   1   2 1029.60   53.59
   1  -1  -2  937.41   46.00
   1  -1  -2  963.50   45.80
   1  -1  -2  959.20   46.40
   1  -1  -2  902.11   46.50
   1  -1  -2  965.10   45.80
   1  -1  -2  964.90   46.00
   1  -1  -2  952.80   46.00
  -1   1   2  965.50   46.00
  -1   1   2  958.80   46.40
  -1   1   2 1028.30   46.10
  -1   1   2  965.00   45.80
  -1   1   2  973.60   46.00
  -1   1   2  958.10   45.80
   0  -1  -2   46.60    3.80
   0  -1  -2   46.40    3.80
   0  -1  -2   51.89    5.10
   0   1   2   49.90    4.00
  -1  -1  -2  477.35   23.50
  -1  -1  -2  489.55   23.50
   1   1   2  485.05   23.50
   1   1   2  491.45   23.80
  -3  -1  -2 1995.40   90.89
  -3  -1  -2 1864.51   91.19
  -3  -1  -2 1754.52   90.99
  -3  -1  -2 1969.70   90.49
   3   1   2 2002.00   90.89
   3   1   2 1878.01   91.19
  -4  -1  -2 1296.97   63.39
  -4  -1  -2 1388.66   62.99
  -4  -1  -2 1421.06   64.09
  -4  -1  -2 1229.38   63.59
  -4  -1  -2 1315.17   64.19
  -4  -1  -2 1326.27   63.39
  -4  -1  -2 1308.17   62.99
   4   1   2 1320.57   64.09
   4   1   2 1306.47   63.39
   4   1   2 1305.77   62.99
   4   1   2 1331.57   62.99
  -5  -1  -2 1318.27   60.19
  -5  -1  -2 1274.57   60.19
  -5  -1  -2 1277.47   60.89
  -5  -1  -2 1236.38   61.99
  -5  -1  -2 1317.77   62.59
  -5  -1  -2 1229.98   60.79
  -5  -1  -2 1208.98   60.89
  -5  -1  -2 1274.17   61.49
   5   1   2 1242.78   60.89
   5   1   2 1217.18   61.69
   5   1   2 1210.98   61.59
   5   1   2 1248.98   60.19
   5   1   2 1256.07   60.19
   5   1   2 1304.37   60.79
   5   1   2 1256.77   60.79
  -6  -1  -2  130.69   10.30
  -6  -1  -2   94.89   12.50
  -6  -1  -2  126.19   13.40
  -6  -1  -2   83.29   14.00
  -6  -1  -2   99.59   13.10
  -6  -1  -2  131.99   10.00
  -6  -1  -2   96.69   11.70
  -6  -1  -2  127.99   13.10
   6   1   2  102.39   11.10
   6   1   2   99.69   15.00
   6   1   2   97.49   12.90
   6   1   2  114.69    9.80
  -7  -1  -2  619.14   33.20
  -7  -1  -2  636.54   35.20
  -7  -1  -2  644.74   41.20
  -7  -1  -2  667.13   34.60
  -7  -1  -2  563.84   34.90
  -7  -1  -2  687.43   32.80
  -7  -1  -2  674.33   34.90
  -7  -1  -2  682.03   37.80
   7   1   2  650.33   34.40
   7   1   2  607.54   36.50
   7   1   2  641.24   32.30
   7   1   2  617.34   35.80
   7   1   2  661.13   34.30
   7   1   2  652.13   32.50
  -8  -1  -2    3.40   19.10
  -8  -1  -2    2.50    8.30
  -8  -1  -2    0.30    5.50
  -8  -1  -2   -6.50    9.00
  -8  -1  -2   -7.10    9.50
  -8  -1  -2   -5.70    6.10
  -8  -1  -2   -3.50    7.00
  -8  -1  -2    1.30   14.70
   8   1   2    2.60    5.00
   8   1   2    8.70   13.20
   8   1   2   -0.40    7.80
   8   1   2    5.90    8.30
   8   1   2  -11.10    5.60
  -9  -1  -2   30.50   17.40
  -9  -1  -2   15.90   10.70
  -9  -1  -2    1.00    8.50
  -9  -1  -2   13.80    6.60
  -9  -1  -2    5.20    7.50
  -9  -1  -2   21.20   10.20
  -9  -1  -2   -1.20   11.20
   9   1   2    6.50    6.50
   9   1   2   13.90   10.40
   9   1   2    4.90   12.90
 -10  -1  -2   77.29   17.20
 -10  -1  -2  117.49   17.90
 -10  -1  -2   99.79   14.40
 -10  -1  -2  108.79   16.50
 -10  -1  -2   74.89   14.30
  10   1   2   99.79   19.50
  10   1   2  100.59   16.10
 -11  -1  -2   -2.50   14.30
 -11  -1  -2    4.60    9.30
 -11  -1  -2   51.89   23.90
  11   1   2    5.30    8.40
  11   1   2   23.10   14.80
  10  -2  -2    3.10   12.50
  10  -2  -2  -21.50   14.50
  10  -2  -2  -10.60    9.10
 -10   2   2  -20.70   10.00
 -10   2   2  -20.90   15.70
   9  -2  -2  359.96   32.10
   9  -2  -2  427.96   39.20
   9  -2  -2  406.86   32.60
   9  -2  -2  395.66   26.50
  -9   2   2  410.06   33.60
  -9   2   2  413.26   36.00
  -9   2   2  418.56   27.00
   8  -2  -2  173.38   23.30
   8  -2  -2  175.48   21.00
   8  -2  -2  169.58   17.00
   8  -2  -2  139.09   23.20
  -8   2   2  162.08   23.80
  -8   2   2  160.18   24.30
  -8   2   2  171.08   22.50
   7  -2  -2  182.38   19.50
   7  -2  -2  142.69   25.10
   7  -2  -2  158.98   15.00
   7  -2  -2  162.18   20.10
   7  -2  -2  154.78   13.70
   7  -2  -2  150.88   20.20
  -7   2   2  156.88   20.70
  -7   2   2  165.98   13.90
  -7   2   2  164.38   15.60
  -7   2   2  160.78   19.40
   6  -2  -2  336.67   19.90
   6  -2  -2  327.37   23.40
   6  -2  -2  334.07   27.20
   6  -2  -2  345.87   23.40
   6  -2  -2  341.77   22.20
   6  -2  -2  331.67   19.20
  -6   2   2  344.07   19.40
  -6   2   2  342.57   20.20
  -6   2   2  353.96   23.30
   5  -2  -2   -3.00    4.40
   5  -2  -2    1.60    3.80
   5  -2  -2    4.70    5.70
   5  -2  -2   -9.20   10.30
   5  -2  -2   -5.50    6.60
   5  -2  -2    0.80    6.30
  -5   2   2    3.20    4.50
  -5   2   2    3.30    7.10
  -5   2   2    4.50    6.00
  -5   2   2   -2.80    6.70
  -5   2   2    2.20    4.40
  -5   2   2   -2.40    6.50
   4  -2  -2 2785.62  131.49
   4  -2  -2 2701.93  130.79
   4  -2  -2 2759.02  130.19
   4  -2  -2 2613.34  130.59
   4  -2  -2 2837.32  132.29
   4  -2  -2 2646.54  130.09
  -4   2   2 2761.92  130.19
  -4   2   2 2606.54  131.19
  -4   2   2 2793.62  130.79
  -4   2   2 2758.22  130.19
  -4   2   2 2825.32  130.49
  -4   2   2 2828.22  130.69
   3  -2  -2 2014.20   98.39
   3  -2  -2 2044.80   98.99
   3  -2  -2 2057.09  100.09
   3  -2  -2 2075.79   99.49
   3  -2  -2 2098.99   98.49
   3  -2  -2 1998.90   98.79
  -3   2   2 2007.50   99.39
  -3   2   2 2077.39   98.49
  -3   2   2 2084.79   99.09
  -3   2   2 2145.49   98.89
  -3   2   2 2090.09   98.49
  -3   2   2 2194.78   98.89
   2  -2  -2  110.09    6.90
   2  -2  -2  110.09    9.00
   2  -2  -2  112.29    8.80
   2  -2  -2  113.99    7.30
   2  -2  -2  108.39    8.30
  -2   2   2  113.89    7.00
  -2   2   2  111.39    7.20
  -2   2   2  115.09    8.60
  -2   2   2  105.39    8.70
  -2   2   2  121.19    8.50
  -2   2   2  115.19    8.00
   1  -2  -2    6.80    1.80
   1  -2  -2    5.50    2.00
   1  -2  -2    7.60    2.50
   1  -2  -2    7.10    2.00
  -1   2   2    9.00    1.70
  -1   2   2    6.20    2.00
  -1   2   2    6.70    2.40
  -1  -2  -2  594.64   29.40
  -1  -2  -2  614.04   29.30
  -1  -2  -2  571.54   29.00
  -1  -2  -2  658.33   29.90
  -1  -2  -2  574.14   29.30
   1   2   2  609.54   29.30
   1   2   2  603.64   29.10
   1   2   2  595.64   29.40
  -2  -2  -2  820.52   40.50
  -2  -2  -2  824.72   40.20
  -2  -2  -2  868.21   40.90
  -2  -2  -2  823.62   40.20
   2   2   2  841.32   40.20
   2   2   2  828.92   40.50
   2   2   2  865.41   41.30
   2   2   2  840.62   40.30
  -3  -2  -2 2361.66  108.19
  -3  -2  -2 2128.19  108.39
  -3  -2  -2 2272.57  108.49
   3   2   2 2449.85  108.29
   3   2   2 2296.67  108.69
   3   2   2 2165.38  108.39
  -4  -2  -2  790.02   40.60
  -4  -2  -2  759.02   40.00
  -4  -2  -2  899.61   40.30
   4   2   2  862.41   39.90
   4   2   2  792.02   40.30
   4   2   2  794.92   40.30
  -5  -2  -2  112.79    7.80
  -5  -2  -2   86.39   13.60
  -5  -2  -2   95.19   14.80
  -5  -2  -2   85.99   10.10
   5   2   2   93.49    9.60
   5   2   2   69.49   11.90
   5   2   2  102.79    7.60
   5   2   2   97.69    8.50
  -6  -2  -2 1968.60  100.99
  -6  -2  -2 2195.98   99.69
  -6  -2  -2 2103.19   99.69
  -6  -2  -2 2104.59  100.39
  -6  -2  -2 2103.39  101.49
  -6  -2  -2 2134.69  100.39
  -6  -2  -2 2272.67  102.49
  -6  -2  -2 1984.00  100.49
   6   2   2 2123.19   99.59
   6   2   2 1946.31  101.59
   6   2   2 2085.79   99.59
   6   2   2 2074.99  100.19
   6   2   2 2139.79  100.39
  -7  -2  -2  198.68   17.20
  -7  -2  -2  204.08   16.90
  -7  -2  -2  256.27   18.10
  -7  -2  -2  220.88   22.70
  -7  -2  -2  232.28   14.90
  -7  -2  -2  238.18   18.20
  -7  -2  -2  244.58   15.40
   7   2   2  257.17   17.40
   7   2   2  227.88   14.30
   7   2   2  222.28   17.20
   7   2   2  225.78   14.60
   7   2   2  250.17   16.60
  -8  -2  -2   87.69   15.80
  -8  -2  -2  121.59   13.30
  -8  -2  -2  118.09   29.80
  -8  -2  -2  103.29   18.10
  -8  -2  -2  116.39   17.20
  -8  -2  -2  121.59   23.40
  -8  -2  -2  117.59   13.90
  -8  -2  -2   97.39   14.80
   8   2   2  131.69   16.20
   8   2   2  137.59   15.10
   8   2   2  113.59   11.60
   8   2   2  109.89   12.30
  -9  -2  -2    6.80    9.90
  -9  -2  -2   -3.10    9.40
  -9  -2  -2   35.80   23.70
  -9  -2  -2   -4.00   10.70
  -9  -2  -2   -7.70   17.40
  -9  -2  -2  -13.40   10.20
  -9  -2  -2  -12.50    6.90
   9   2   2    3.20    9.60
 -10  -2  -2   28.70    8.40
 -10  -2  -2   62.89   20.50
 -10  -2  -2   37.90    8.00
 -10  -2  -2   34.70   12.70
 -10  -2  -2   34.70   14.90
 -10  -2  -2   45.30   12.20
  10   2   2   32.60    7.50
  10   2   2   33.70   12.90
 -11  -2  -2  198.88   21.30
 -11  -2  -2  162.08   29.20
  11   2   2  218.18   23.50
  11   2   2  179.08   19.20
   9  -3  -2   13.00   12.50
   9  -3  -2   -4.50   14.10
   9  -3  -2   -4.90    8.80
  -9   3   2  -12.10   14.30
  -9   3   2   -3.20    9.20
   8  -3  -2   -3.40    9.90
   8  -3  -2   -9.00    7.70
   8  -3  -2   11.40   11.20
  -8   3   2  -12.70    8.00
  -8   3   2   -1.90   11.30
   7  -3  -2  186.48   20.10
   7  -3  -2  198.78   15.40
   7  -3  -2  182.38   30.40
   7  -3  -2  174.88   22.50
  -7   3   2  179.88   21.10
  -7   3   2  182.38   15.60
  -7   3   2  189.68   22.80
  -7   3   2  199.08   17.30
   6  -3  -2  368.46   29.50
   6  -3  -2  395.66   22.40
   6  -3  -2  382.46   21.40
   6  -3  -2  384.96   25.90
   6  -3  -2  373.46   26.20
   6  -3  -2  376.76   24.10
  -6   3   2  396.26   24.70
  -6   3   2  372.86   21.60
  -6   3   2  381.16   22.50
  -6   3   2  402.26   26.20
   5  -3  -2   86.59    9.70
   5  -3  -2   92.69   15.40
   5  -3  -2   95.49   13.20
   5  -3  -2   82.89   11.00
   5  -3  -2   78.29   15.20
   5  -3  -2   72.29   13.10
  -5   3   2   59.89   13.40
  -5   3   2   84.89   11.10
  -5   3   2   95.29    9.90
  -5   3   2   74.29   12.60
  -5   3   2   84.69   15.50
   4  -3  -2   10.90    5.80
   4  -3  -2    0.80    9.50
   4  -3  -2    2.90    4.10
   4  -3  -2    4.10    3.60
   4  -3  -2    0.50    6.20
   4  -3  -2    6.40    5.40
  -4   3   2    4.00    6.10
  -4   3   2    9.10    5.70
  -4   3   2    3.30    4.10
  -4   3   2    5.90    5.00
  -4   3   2    5.80    4.00
  -4   3   2    8.40    3.70
   3  -3  -2 1512.55   74.69
   3  -3  -2 1633.74   75.69
   3  -3  -2 1571.34   74.19
   3  -3  -2 1593.64   74.89
   3  -3  -2 1549.74   74.09
  -3   3   2 1623.74   74.59
  -3   3   2 1434.06   75.09
  -3   3   2 1669.53   74.99
  -3   3   2 1567.54   74.19
  -3   3   2 1488.75   77.39
  -3   3   2 1468.25   76.49
   2  -3  -2 6836.12  324.67
   2  -3  -2 6750.72  324.27
   2  -3  -2 6783.22  324.27
   2  -3  -2 6901.91  324.67
   2  -3  -2 6643.74  324.57
  -2   3   2 6937.91  324.67
  -2   3   2 6764.12  324.57
  -2   3   2 6738.53  324.27
  -2   3   2 7107.79  324.37
  -2   3   2 7186.18  324.67
   1  -3  -2  276.97   15.00
   1  -3  -2  258.47   14.00
  -1   3   2  251.57   14.60
  -1   3   2  267.27   14.00
   0  -3  -2 3103.19  141.49
   0  -3  -2 2859.31  141.09
   0  -3  -2 3026.10  141.29
   0   3   2 2946.61  141.49
   0   3   2 2965.50  141.09
  -1  -3  -2 2362.56  110.69
  -1  -3  -2 2298.87  110.59
  -1  -3  -2 2534.85  111.19
  -1  -3  -2 2226.48  110.49
  -1  -3  -2 2383.06  110.79
  -1  -3  -2 2399.26  110.79
   1   3   2 2215.88  110.59
   1   3   2 2235.98  110.49
  -2  -3  -2   26.60    5.60
  -2  -3  -2   26.00    3.50
  -2  -3  -2   33.00    4.10
  -2  -3  -2   26.40    4.80
   2   3   2   21.90    3.70
   2   3   2   27.00    3.70
   2   3   2   26.90    6.30
   2   3   2   24.60    4.80
  -3  -3  -2  903.01   44.10
  -3  -3  -2  913.91   45.20
  -3  -3  -2  907.81   44.80
  -3  -3  -2  906.61   44.50
   3   3   2  906.01   45.00
   3   3   2  962.90   44.30
   3   3   2  919.71   44.70
   3   3   2  912.41   44.60
  -4  -3  -2  195.98   13.10
  -4  -3  -2  219.38   12.50
  -4  -3  -2  207.98   15.00
   4   3   2  224.38   12.80
   4   3   2  212.98   14.20
  -5  -3  -2  318.37   19.10
  -5  -3  -2  328.77   18.60
  -5  -3  -2  342.17   21.10
   5   3   2  353.46   18.80
   5   3   2  329.27   19.90
   5   3   2  343.17   21.50
  -6  -3  -2  155.68   19.00
  -6  -3  -2  111.29   12.20
  -6  -3  -2  149.09   17.10
   6   3   2  127.59   12.50
   6   3   2  152.68   14.90
   6   3   2  157.98   17.60
   6   3   2  126.09   15.40
  -7  -3  -2  107.59   11.00
  -7  -3  -2   78.09   12.60
  -7  -3  -2   80.59   13.50
  -7  -3  -2  102.69   10.50
  -7  -3  -2  111.19   16.20
  -7  -3  -2  115.99   20.20
   7   3   2  118.09   17.40
   7   3   2   98.79   20.00
   7   3   2  105.29   13.10
  -8  -3  -2  415.96   22.50
  -8  -3  -2  369.86   29.30
  -8  -3  -2  440.66   30.20
  -8  -3  -2  400.36   22.20
  -8  -3  -2  356.76   24.50
  -8  -3  -2  465.95   36.80
   8   3   2  381.86   21.60
   8   3   2  321.57   27.20
   8   3   2  437.26   24.50
   8   3   2  381.96   21.80
  -9  -3  -2   24.30   17.30
  -9  -3  -2   14.50    6.40
  -9  -3  -2    3.40    7.30
  -9  -3  -2   12.20    6.70
  -9  -3  -2   41.60   22.60
  -9  -3  -2   -0.70   11.20
  -9  -3  -2    6.70    9.90
  -9  -3  -2   15.60    9.40
   9   3   2   14.60   10.00
   9   3   2   12.70    6.00
 -10  -3  -2   23.50   20.60
 -10  -3  -2   24.00    7.70
 -10  -3  -2   13.70    7.80
  10   3   2   30.40   12.90
  10   3   2   12.30    6.70
 -11  -3  -2   47.90   23.30
  11   3   2   22.70   14.80
   9  -4  -2    0.90    9.30
   9  -4  -2    1.20   14.20
   9  -4  -2   17.90   13.40
  -9   4   2   -8.30    9.80
  -9   4   2   -6.10   14.90
   8  -4  -2  289.47   29.20
   8  -4  -2  296.27   30.00
   8  -4  -2  271.27   26.90
   8  -4  -2  283.67   22.50
  -8   4   2  314.57   30.30
  -8   4   2  290.57   23.40
   7  -4  -2    2.40    9.20
   7  -4  -2    1.60    7.40
   7  -4  -2    0.80    6.20
   7  -4  -2    3.70   10.10
   7  -4  -2   -8.80   11.50
  -7   4   2   -6.40    7.40
  -7   4   2    4.00   10.20
  -7   4   2   -0.50   11.20
   6  -4  -2    4.40    8.80
   6  -4  -2    1.80    8.00
   6  -4  -2   -6.50   10.00
   6  -4  -2   -2.90    6.30
   6  -4  -2   28.10   14.40
   6  -4  -2    0.90    5.40
  -6   4   2    7.90    8.70
  -6   4   2   -3.00    6.50
  -6   4   2    3.50    5.50
  -6   4   2   -5.50    9.60
  -6   4   2   -4.40    7.30
   5  -4  -2   31.00    8.10
   5  -4  -2   17.70    5.30
   5  -4  -2    8.10    8.70
   5  -4  -2   22.20   12.30
   5  -4  -2   15.90    5.90
   5  -4  -2   22.10    7.20
  -5   4   2   25.20    5.60
  -5   4   2   15.30    7.70
  -5   4   2   23.60    5.00
  -5   4   2   16.50    6.80
  -5   4   2   18.10    5.70
  -5   4   2   20.70    8.70
   4  -4  -2  112.69   15.30
   4  -4  -2   97.69   12.80
   4  -4  -2   85.69   17.10
   4  -4  -2   90.49   11.40
   4  -4  -2   77.19   10.70
   4  -4  -2   77.49   14.80
  -4   4   2   88.19   14.90
  -4   4   2   89.79    9.80
  -4   4   2   93.29   10.60
  -4   4   2  116.89   11.40
  -4   4   2   78.39   13.00
  -4   4   2  102.29   13.50
   3  -4  -2  199.18   15.20
   3  -4  -2  200.48   12.60
   3  -4  -2  200.68   14.10
   3  -4  -2  194.08   11.90
   3  -4  -2  211.28   15.60
   3  -4  -2  167.18   17.10
  -3   4   2  219.48   13.20
  -3   4   2  164.48   19.30
  -3   4   2  181.48   14.70
  -3   4   2  211.48   12.20
  -3   4   2  214.88   14.40
  -3   4   2  196.58   12.50
   2  -4  -2 1945.91   93.79
   2  -4  -2 2001.00   93.39
   2  -4  -2 1950.50   93.79
   2  -4  -2 1968.50   93.39
   2  -4  -2 2064.59   94.79
  -2   4   2 1919.01   94.79
  -2   4   2 1972.30   93.79
  -2   4   2 1931.81   93.79
  -2   4   2 1941.11   93.39
   1  -4  -2 2365.36  107.99
   1  -4  -2 2207.68  107.19
  -1   4   2 2227.08  107.79
  -1   4   2 2219.78  107.19
   0  -4  -2 1394.66   63.69
   0  -4  -2 1271.47   63.09
   0   4   2 1308.27   63.59
   0   4   2 1314.47   63.19
  -1  -4  -2 1484.15   69.69
  -1  -4  -2 1530.65   69.89
  -1  -4  -2 1420.56   69.79
  -1  -4  -2 1436.36   69.59
  -1  -4  -2 1522.15   70.49
  -1  -4  -2 1441.76   69.49
   1   4   2 1414.76   69.79
   1   4   2 1417.26   69.49
  -2  -4  -2 5057.49  247.78
  -2  -4  -2 5274.27  247.58
  -2  -4  -2 5226.18  247.68
  -2  -4  -2 5478.05  248.28
  -2  -4  -2 4940.41  247.58
  -2  -4  -2 5322.97  248.28
   2   4   2 5495.25  248.38
   2   4   2 4995.30  247.68
   2   4   2 5328.17  247.88
  -3  -4  -2  662.83   31.70
  -3  -4  -2  677.23   31.50
  -3  -4  -2  605.14   31.60
  -3  -4  -2  619.84   33.00
  -3  -4  -2  675.83   33.30
  -3  -4  -2  621.84   32.20
   3   4   2  673.63   32.70
   3   4   2  641.34   31.80
   3   4   2  640.94   33.20
  -4  -4  -2    6.20    8.00
  -4  -4  -2   12.90    7.50
  -4  -4  -2    6.20    5.80
  -4  -4  -2    6.60    4.10
  -4  -4  -2   12.10    4.30
   4   4   2    8.40    4.80
   4   4   2    0.90    4.60
   4   4   2   10.50    6.80
  -5  -4  -2  172.38   16.20
  -5  -4  -2  161.48   13.00
  -5  -4  -2  191.68   16.70
   5   4   2  173.28   16.10
   5   4   2  159.88   13.90
   5   4   2  178.88   15.10
   5   4   2  176.48   12.70
  -6  -4  -2  345.47   23.30
  -6  -4  -2  351.46   25.10
  -6  -4  -2  308.07   21.10
   6   4   2  318.57   21.00
   6   4   2  346.87   22.20
   6   4   2  331.37   23.90
   6   4   2  336.37   19.70
  -7  -4  -2 1556.74   75.29
  -7  -4  -2 1529.25   73.89
  -7  -4  -2 1366.36   72.29
   7   4   2 1359.76   72.89
   7   4   2 1522.15   73.19
   7   4   2 1526.25   72.09
  -8  -4  -2    7.10   16.60
  -8  -4  -2   11.70   14.40
  -8  -4  -2   -6.50   10.10
   8   4   2    8.20    9.60
   8   4   2   20.40   12.40
  -9  -4  -2   12.40    6.30
  -9  -4  -2   20.30   17.10
  -9  -4  -2   -6.10    6.90
  -9  -4  -2   -8.80   11.40
  -9  -4  -2    9.10   21.10
   9   4   2    3.10   10.30
   9   4   2    0.50    5.60
 -10  -4  -2  133.39   31.30
  10   4   2  107.89   20.10
 -11  -4  -2   -9.30   12.70
 -11  -4  -2   21.80   22.50
 -11  -4  -2   -5.00    8.60
  11   4   2   -4.70    7.00
  11   4   2   -8.80   15.00
  11   4   2   13.00   12.70
   8  -5  -2   10.70   13.00
   8  -5  -2    3.00    9.10
   8  -5  -2  -10.00   13.50
  -8   5   2   -7.00    9.10
  -8   5   2  -10.50   14.20
   7  -5  -2  467.25   27.70
   7  -5  -2  395.76   33.60
   7  -5  -2  488.15   32.60
   7  -5  -2  421.86   27.70
   7  -5  -2  428.56   30.70
  -7   5   2  467.95   32.20
  -7   5   2  486.75   33.80
   6  -5  -2  401.66   24.60
   6  -5  -2  462.05   25.80
   6  -5  -2  452.65   30.30
   6  -5  -2  367.56   30.70
   6  -5  -2  432.16   28.30
  -6   5   2  474.45   30.70
  -6   5   2  415.86   28.90
  -6   5   2  447.06   25.90
   5  -5  -2  -12.70    9.50
   5  -5  -2    1.60    7.80
   5  -5  -2   21.50   12.90
   5  -5  -2    6.50    8.30
   5  -5  -2    3.60    5.20
   5  -5  -2    0.60    6.10
  -5   5   2   -5.40    9.10
  -5   5   2   -2.30    7.00
  -5   5   2   -3.20    6.20
  -5   5   2    4.00    8.40
  -5   5   2    4.80    5.10
   4  -5  -2 2129.09  103.39
   4  -5  -2 1994.60  106.29
   4  -5  -2 2227.68  104.69
   4  -5  -2 2180.38  105.69
   4  -5  -2 2091.89  104.19
   4  -5  -2 2228.18  103.59
  -4   5   2 2176.38  103.59
  -4   5   2 2202.68  103.39
  -4   5   2 2228.88  104.69
  -4   5   2 2201.38  104.39
   3  -5  -2  287.27   19.80
   3  -5  -2  261.17   15.20
   3  -5  -2  261.27   17.40
   3  -5  -2  252.17   16.80
   3  -5  -2  259.47   15.90
   3  -5  -2  267.17   18.70
  -3   5   2  271.77   17.70
  -3   5   2  253.77   19.20
  -3   5   2  274.97   16.30
  -3   5   2  222.58   18.10
  -3   5   2  252.97   15.70
  -3   5   2  274.17   15.30
   2  -5  -2  694.03   35.90
   2  -5  -2  760.42   37.30
   2  -5  -2  714.43   35.80
   2  -5  -2  716.63   35.00
   2  -5  -2  733.23   35.20
   2  -5  -2  718.13   36.30
  -2   5   2  674.33   36.70
  -2   5   2  708.53   35.10
  -2   5   2  728.73   35.00
  -2   5   2  723.83   35.70
   1  -5  -2  261.17   15.00
   1  -5  -2  279.87   16.80
  -1   5   2  263.87   15.00
  -1   5   2  254.27   16.30
   0  -5  -2  940.31   47.50
   0  -5  -2 1043.20   48.20
   0   5   2  962.60   47.40
   0   5   2  975.90   47.90
  -1  -5  -2  763.92   35.40
  -1  -5  -2  640.54   35.20
  -1  -5  -2  744.93   35.00
   1   5   2  704.93   35.40
   1   5   2  710.33   34.90
   1   5   2  744.13   35.40
   1   5   2  701.83   36.30
  -2  -5  -2   46.80    7.00
  -2  -5  -2   68.89    7.60
  -2  -5  -2   63.99    6.80
   2   5   2   40.40    9.50
  -3  -5  -2 1666.23   82.99
  -3  -5  -2 1718.13   82.99
  -3  -5  -2 1572.64   81.59
  -3  -5  -2 1831.32   81.79
  -3  -5  -2 1714.13   82.19
  -3  -5  -2 1765.12   81.79
   3   5   2 1673.73   81.79
   3   5   2 1720.13   82.89
   3   5   2 1751.12   82.49
  -4  -5  -2  369.66   20.70
  -4  -5  -2  376.06   22.90
  -4  -5  -2  360.76   23.00
  -4  -5  -2  364.66   19.50
  -4  -5  -2  361.86   23.30
   4   5   2  367.36   23.00
   4   5   2  386.26   21.90
   4   5   2  372.76   19.90
  -5  -5  -2   94.59   15.00
  -5  -5  -2  110.29   17.20
  -5  -5  -2   91.99   11.70
  -5  -5  -2   97.59   16.10
   5   5   2   96.09   14.60
   5   5   2   86.09   15.40
   5   5   2   91.19   14.80
   5   5   2   97.79   11.10
  -6  -5  -2  473.85   29.30
  -6  -5  -2  486.05   30.40
  -6  -5  -2  432.66   26.20
  -6  -5  -2  463.55   29.00
   6   5   2  483.45   28.10
   6   5   2  440.16   27.30
   6   5   2  502.45   25.80
  -7  -5  -2   75.29   14.60
  -7  -5  -2  100.69   23.80
  -7  -5  -2   50.49   10.50
   7   5   2   66.29    9.50
   7   5   2   76.69   18.10
   7   5   2   59.89   10.70
  -8  -5  -2  943.41   51.49
  -8  -5  -2  909.31   48.50
  -8  -5  -2  754.12   44.80
   8   5   2  907.21   46.90
   8   5   2  897.01   44.60
   8   5   2  755.42   45.80
  -9  -5  -2  427.66   34.20
  -9  -5  -2  447.36   39.00
   9   5   2  398.06   27.80
   9   5   2  435.86   31.00
 -10  -5  -2   63.19   20.70
  10   5   2   42.60   14.00
  11   5   2  184.08   37.00
  11   5   2  174.28   24.00
   8  -6  -2  -17.10   14.80
   8  -6  -2   -4.50   13.80
   8  -6  -2   -5.70    9.30
  -8   6   2  -14.40   15.60
  -8   6   2   -9.20    9.40
   7  -6  -2    9.20    8.50
   7  -6  -2   25.10   12.80
   7  -6  -2   14.20   13.70
  -7   6   2   13.70    8.60
  -7   6   2   17.90   13.30
   6  -6  -2  322.87   25.80
   6  -6  -2  262.17   27.70
   6  -6  -2  282.27   20.80
   6  -6  -2  333.87   22.30
   6  -6  -2  348.87   28.50
  -6   6   2  330.87   22.30
  -6   6   2  329.77   28.40
  -6   6   2  293.37   22.70
   5  -6  -2  304.27   23.50
   5  -6  -2  275.47   26.00
   5  -6  -2  300.07   19.60
   5  -6  -2  343.77   29.10
   5  -6  -2  331.37   20.90
  -5   6   2  313.07   25.60
  -5   6   2  305.47   24.40
  -5   6   2  299.97   21.30
  -5   6   2  307.77   20.80
   4  -6  -2  144.99   20.30
   4  -6  -2  200.78   22.50
   4  -6  -2  162.88   13.50
   4  -6  -2  160.38   17.50
   4  -6  -2  162.08   15.00
   4  -6  -2  194.08   19.40
  -4   6   2  148.59   19.80
  -4   6   2  147.19   14.70
  -4   6   2  161.08   13.80
  -4   6   2  143.49   17.90
   3  -6  -2  957.80   49.30
   3  -6  -2 1027.10   48.70
   3  -6  -2  979.20   48.30
   3  -6  -2  990.40   49.70
   3  -6  -2 1082.69   51.69
   3  -6  -2 1016.50   50.39
  -3   6   2  987.30   48.60
  -3   6   2 1028.70   49.10
  -3   6   2 1015.70   49.70
  -3   6   2 1012.70   48.40
  -3   6   2  928.21   52.49
  -3   6   2  850.91   50.39
   2  -6  -2 2521.85  121.29
   2  -6  -2 2539.55  121.89
   2  -6  -2 2593.34  121.39
   2  -6  -2 2763.62  123.39
   2  -6  -2 2558.14  122.09
  -2   6   2 2576.94  121.29
  -2   6   2 2324.27  123.79
  -2   6   2 2539.65  121.79
   1  -6  -2   10.10    4.00
   1  -6  -2   13.90    5.60
  -1   6   2   12.40    3.90
  -1   6   2   11.20    5.00
   0  -6  -2  149.59   12.60
   0  -6  -2  134.19   10.60
   0   6   2  145.49   10.40
   0   6   2  138.89   11.70
  -1  -6  -2   58.79   13.90
  -1  -6  -2   87.09    8.70
  -1  -6  -2   89.19   10.00
   1   6   2   80.49    8.90
   1   6   2   98.09   12.90
  -2  -6  -2 1001.60   54.09
  -2  -6  -2 1171.68   54.29
  -2  -6  -2 1159.38   54.69
  -2  -6  -2 1180.38   56.29
  -2  -6  -2 1032.80   55.59
   2   6   2 1193.98   55.09
  -3  -6  -2 2419.26  112.19
  -3  -6  -2 2127.89  111.79
  -3  -6  -2 2497.25  112.09
  -3  -6  -2 2454.45  113.49
  -3  -6  -2 2400.66  113.79
   3   6   2 2430.46  112.79
   3   6   2 2134.99  111.99
   3   6   2 2356.56  113.29
  -4  -6  -2   18.90    5.30
  -4  -6  -2   17.20    6.90
  -4  -6  -2   15.20    4.10
  -4  -6  -2   14.70    4.00
  -4  -6  -2   30.60   10.00
  -4  -6  -2   12.20    7.60
   4   6   2   30.40    8.80
   4   6   2   19.20    6.70
   4   6   2   15.80    6.00
  -5  -6  -2  214.88   16.50
  -5  -6  -2  267.87   21.80
  -5  -6  -2  200.48   14.50
   5   6   2  224.38   19.00
   5   6   2  225.28   15.40
  -6  -6  -2  233.48   22.40
  -6  -6  -2  258.17   24.70
  -6  -6  -2  176.38   17.10
  -6  -6  -2  204.38   21.30
   6   6   2  224.28   19.30
   6   6   2  215.48   20.70
   6   6   2  216.28   16.40
  -7  -6  -2  121.49   25.90
  -7  -6  -2  113.49   16.30
  -7  -6  -2   71.49   15.20
   7   6   2  105.29   14.40
   7   6   2  109.59   19.50
   7   6   2   82.79   17.80
  -8  -6  -2   85.79   18.50
  -8  -6  -2   49.50   12.10
  -8  -6  -2   75.09   21.40
   8   6   2   48.00   12.70
   8   6   2   72.69   11.30
   8   6   2   86.39   18.60
  -9  -6  -2  136.09   32.90
  -9  -6  -2  139.59   28.40
   9   6   2  118.69   20.40
   9   6   2  156.58   24.90
 -10  -6  -2   51.09   23.50
 -10  -6  -2   11.60   19.90
  10   6   2   10.90   14.10
  10   6   2   32.00   17.40
  10   6   2  -12.80   13.80
 -11  -6  -2   44.20   23.80
  11   6   2   -6.50   15.90
  11   6   2   11.80   15.80
   7  -7  -2   10.00    9.10
   7  -7  -2    4.80   14.80
   7  -7  -2    9.30   13.80
  -7   7   2    9.40    9.30
  -7   7   2   -0.40   14.30
   6  -7  -2    7.90    7.50
   6  -7  -2    3.30   11.90
   6  -7  -2   -3.80   13.00
   6  -7  -2    1.30    8.10
  -6   7   2  -13.00   12.50
  -6   7   2   -4.50    8.10
   5  -7  -2   10.00   10.50
   5  -7  -2   11.00    6.50
   5  -7  -2   13.30    7.40
   5  -7  -2   14.70    9.80
   5  -7  -2    9.20   11.70
  -5   7   2    3.00    7.40
   4  -7  -2   53.99    7.40
   4  -7  -2   42.50    9.50
   4  -7  -2   32.90   15.90
   4  -7  -2   40.30   16.10
   4  -7  -2   41.60    6.70
  -4   7   2   49.90    7.20
  -4   7   2   37.80   12.40
  -4   7   2   31.00    9.10
  -4   7   2   50.59   10.40
  -4   7   2   41.90    6.90
   3  -7  -2  109.99   12.30
   3  -7  -2  124.19   19.40
   3  -7  -2  128.99   14.70
   3  -7  -2  128.09   13.70
   3  -7  -2  139.89   18.30
  -3   7   2  109.79   17.10
  -3   7   2  118.89   13.60
  -3   7   2  113.49   12.40
   2  -7  -2  329.77   23.20
   2  -7  -2  322.07   19.00
   2  -7  -2  292.37   18.00
   2  -7  -2  319.67   19.50
  -2   7   2  331.97   19.20
  -2   7   2  275.07   22.00
   1  -7  -2  499.05   27.80
   1  -7  -2  585.94   30.40
  -1   7   2  509.95   27.60
  -1   7   2  521.55   30.70
   0  -7  -2   23.00    4.50
   0  -7  -2   45.80   12.10
   0   7   2   40.50   10.60
   0   7   2   28.10    4.50
   0   7   2   22.10    6.10
  -1  -7  -2   26.50    5.30
  -1  -7  -2   13.90    6.50
  -1  -7  -2   17.70    6.70
  -1  -7  -2   28.30    4.50
   1   7   2   33.20    9.10
   1   7   2   21.90    5.50
  -2  -7  -2  599.64   33.80
  -2  -7  -2  692.93   35.70
  -2  -7  -2  681.03   39.00
  -2  -7  -2  690.83   34.20
  -2  -7  -2  678.83   37.20
   2   7   2  721.83   35.40
   2   7   2  703.33   37.10
  -3  -7  -2  481.75   26.80
  -3  -7  -2  491.75   30.00
  -3  -7  -2  496.15   25.90
  -3  -7  -2  507.45   29.70
  -3  -7  -2  476.45   32.00
  -3  -7  -2  480.85   26.30
   3   7   2  509.95   29.30
   3   7   2  504.15   27.80
  -4  -7  -2  731.03   38.60
  -4  -7  -2  763.42   41.90
  -4  -7  -2  807.02   42.20
  -4  -7  -2  819.32   42.90
  -4  -7  -2  788.12   39.20
  -4  -7  -2  804.72   43.20
   4   7   2  735.53   39.10
   4   7   2  829.52   41.00
  -5  -7  -2  325.27   23.70
  -5  -7  -2  358.86   26.70
  -5  -7  -2  303.77   18.80
  -5  -7  -2  297.77   21.00
  -5  -7  -2  340.87   25.60
  -5  -7  -2  321.47   18.20
   5   7   2  329.07   22.90
   5   7   2  301.27   19.30
  -6  -7  -2  890.81   49.70
  -6  -7  -2  986.20   51.79
  -6  -7  -2  859.41   47.60
   6   7   2  940.21   50.19
   6   7   2  952.60   46.70
   6   7   2  958.00   49.30
  -7  -7  -2 1190.38   65.49
  -7  -7  -2 1312.77   67.19
  -7  -7  -2 1290.37   65.59
  -7  -7  -2 1100.59   63.19
   7   7   2 1364.46   62.69
   7   7   2 1316.57   64.99
  -8  -7  -2   25.50   18.90
  -8  -7  -2   -0.50   17.40
   8   7   2   12.90   14.30
   8   7   2   14.00   12.70
   8   7   2   16.40   10.70
  -9  -7  -2    9.80   20.30
  -9  -7  -2   12.30   18.30
   9   7   2   22.20   15.90
   9   7   2   12.60   12.00
 -10  -7  -2   82.39   22.10
  10   7   2  121.79   28.20
  10   7   2   88.49   16.80
 -11  -7  -2   24.80   23.80
 -11  -7  -2   67.29   27.60
  11   7   2   41.20   20.10
  11   7   2   29.30   16.50
   6  -8  -2   22.20    9.70
   6  -8  -2   25.30   13.70
   6  -8  -2   24.70   15.00
  -6   8   2   13.20   14.80
   5  -8  -2   17.60   13.10
   5  -8  -2   13.20    7.50
   5  -8  -2   25.60    8.60
   5  -8  -2   22.20   11.90
  -5   8   2   16.40    7.60
  -5   8   2   10.30   11.30
  -5   8   2   16.20    8.50
   4  -8  -2  159.68   21.10
   4  -8  -2  184.88   18.10
   4  -8  -2  180.48   25.00
   4  -8  -2  155.98   15.80
   4  -8  -2  150.88   23.00
  -4   8   2  162.78   17.60
  -4   8   2  170.18   18.20
   3  -8  -2   19.70   11.50
   3  -8  -2    9.80    6.00
   3  -8  -2   21.80    7.10
   3  -8  -2   12.00    6.90
   3  -8  -2   17.20   10.60
  -3   8   2   11.50   11.00
  -3   8   2   20.80    6.70
  -3   8   2   13.60    6.30
  -3   8   2   12.90    8.90
   2  -8  -2  357.46   21.40
   2  -8  -2  395.56   23.30
   2  -8  -2  407.26   26.30
  -2   8   2  347.97   25.60
  -2   8   2  391.36   22.60
   1  -8  -2  310.27   23.10
   1  -8  -2  293.57   19.60
  -1   8   2  326.67   19.10
  -1   8   2  286.17   21.30
  -1   8   2  307.27   26.10
   0  -8  -2   -2.40    7.00
   0  -8  -2   -3.50    4.80
   0   8   2    2.50    6.60
   0   8   2   -0.50    5.30
  -1  -8  -2  123.19   14.20
  -1  -8  -2   79.59   10.80
  -1  -8  -2  106.09   12.10
   1   8   2  101.39   17.80
   1   8   2  114.19   18.10
  -2  -8  -2   44.90    8.20
  -2  -8  -2   66.09   11.10
  -2  -8  -2   49.40    9.00
  -2  -8  -2   41.40    8.50
  -3  -8  -2    6.70    5.60
  -3  -8  -2   24.50   15.70
  -3  -8  -2    7.80    5.10
  -3  -8  -2   13.10    5.70
  -3  -8  -2   16.30    6.80
   3   8   2   29.70   10.00
   3   8   2   17.60    6.60
  -4  -8  -2    8.50    6.10
  -4  -8  -2   21.40    9.60
  -4  -8  -2    2.10    8.70
  -4  -8  -2   13.70   14.60
  -4  -8  -2    6.10    5.30
   4   8   2   19.20   10.40
   4   8   2   13.90    6.90
  -5  -8  -2  732.93   39.00
  -5  -8  -2  701.13   36.50
  -5  -8  -2  665.43   37.30
  -5  -8  -2  799.42   43.90
  -5  -8  -2  731.53   41.40
   5   8   2  764.82   39.90
   5   8   2  722.43   37.30
  -6  -8  -2   28.90   11.40
  -6  -8  -2   47.70   14.70
  -6  -8  -2   13.00    5.60
   6   8   2   12.40   10.00
   6   8   2   21.90    8.70
   6   8   2   32.90   12.90
  -7  -8  -2  165.88   23.20
  -7  -8  -2  140.99   35.40
  -7  -8  -2  139.89   15.30
  -7  -8  -2  196.58   30.90
   7   8   2  204.78   17.00
  -8  -8  -2  882.91   51.99
   8   8   2  936.81   47.20
   8   8   2  875.41   50.29
  -9  -8  -2   71.59   20.80
   9   8   2   74.49   14.00
   9   8   2   80.09   18.00
 -10  -8  -2   44.50   25.40
 -10  -8  -2   11.80   22.30
  10   8   2   17.20   18.40
  10   8   2   17.30   14.40
 -11  -8  -2   76.79   25.00
  11   8   2  130.39   31.60
  11   8   2  135.99   25.50
   5  -9  -2  133.49   20.60
   5  -9  -2  108.99   27.70
   5  -9  -2  138.29   30.20
  -5   9   2   99.79   11.80
  -5   9   2  176.48   35.40
  -5   9   2  105.89   18.90
   4  -9  -2   -7.70    8.60
   4  -9  -2    3.40   11.50
  -4   9   2   -5.50    8.60
  -4   9   2    4.30    7.10
   3  -9  -2    5.70   10.20
   3  -9  -2    3.30    6.40
   3  -9  -2   10.80    8.00
   3  -9  -2   19.00   12.10
  -3   9   2    6.30    7.80
  -3   9   2    3.20    6.70
   2  -9  -2   47.20   10.20
  -2   9   2   41.10   10.00
  -2   9   2   43.30    9.40
   1  -9  -2  612.44   33.40
   1  -9  -2  648.94   35.80
  -1   9   2  586.34   35.10
   0  -9  -2  384.46   24.00
   0  -9  -2  429.46   26.20
   0   9   2  372.56   25.10
   0   9   2  425.36   29.80
  -1  -9  -2  567.94   33.20
  -1  -9  -2  653.63   38.80
  -1  -9  -2  644.04   34.40
  -1  -9  -2  742.73   35.80
   1   9   2  689.13   38.60
   1   9   2  628.24   34.40
  -2  -9  -2  642.64   40.30
  -2  -9  -2  701.63   36.30
  -2  -9  -2  758.82   42.10
  -2  -9  -2  646.04   34.60
   2   9   2  691.63   40.30
   2   9   2  718.93   37.10
  -3  -9  -2  325.47   32.20
  -3  -9  -2  279.87   19.50
  -3  -9  -2  317.97   20.80
  -3  -9  -2  283.17   16.90
  -3  -9  -2  293.17   26.70
   3   9   2  304.97   22.40
   3   9   2  289.77   26.00
  -4  -9  -2   -9.30    6.10
  -4  -9  -2    5.00   16.40
  -4  -9  -2   -3.00    5.80
  -4  -9  -2   -4.30    7.60
  -4  -9  -2    0.20    7.10
   4   9   2   -2.90    7.20
   4   9   2    0.80   11.10
  -5  -9  -2  111.69   11.60
  -5  -9  -2  103.39   22.40
  -6  -9  -2   23.50   16.60
  -6  -9  -2    4.70   12.50
   6   9   2    9.40   18.40
   6   9   2    5.50    8.60
  -7  -9  -2   53.69   11.30
   7   9   2   75.49   15.00
  -8  -9  -2   67.09   21.20
   8   9   2   72.49   17.10
   8   9   2   60.29   11.60
  -9  -9  -2  177.18   39.00
  -9  -9  -2   98.99   22.80
   9   9   2  123.89   27.70
   9   9   2  102.69   19.50
 -10  -9  -2   36.70   23.70
 -10  -9  -2   41.60   24.60
  10   9   2   29.20   13.60
  10   9   2   24.60   19.20
   4 -10  -2   -3.50   12.80
   4 -10  -2  -13.20    9.90
  -4  10   2   -7.40   12.10
   3 -10  -2  134.39   25.60
   2 -10  -2    0.70   10.20
  -2  10   2    4.20   10.20
   1 -10  -2   11.00    9.70
  -1  10   2    9.50    9.10
  -1  10   2    9.50    8.30
   0 -10  -2   15.30    8.60
   0  10   2   11.50    8.60
   0  10   2   11.60    7.10
  -1 -10  -2  207.88   19.30
  -1 -10  -2  169.08   15.90
   1  10   2  194.58   17.20
   1  10   2  217.48   25.10
  -2 -10  -2   27.40    7.20
  -3 -10  -2  856.91   43.60
  -3 -10  -2  710.23   40.40
   3  10   2  847.42   46.90
   3  10   2  872.71   43.70
  -4 -10  -2  912.41   47.60
   4  10   2  894.11   51.29
   4  10   2  956.90   48.80
  -5 -10  -2  232.18   33.90
  -5 -10  -2  189.88   18.70
   5  10   2  212.38   24.10
  -6 -10  -2  132.69   33.30
   6  10   2  117.09   23.20
  -7 -10  -2  280.87   37.00
   7  10   2  249.18   28.70
   7  10   2  225.78   19.10
  -8 -10  -2   83.99   23.10
  -8 -10  -2   33.60   22.60
   8  10   2   63.99   18.20
   8  10   2   93.49   17.00
  -9 -10  -2   11.40   22.70
  -9 -10  -2   35.80   24.10
   9  10   2   35.30   12.60
   9  10   2   36.20   18.60
 -10 -10  -2   65.59   28.70
 -10 -10  -2   62.59   25.20
  10  10   2   38.90   20.20
  10  10   2   31.00   13.20
   3 -11  -2   76.09   14.90
   2 -11  -2  233.48   27.80
  -2  11   2  264.17   33.70
   1 -11  -2  112.99   23.70
  -1  11   2  155.68   29.90
   0 -11  -2   -0.30    9.60
   0  11   2   -2.50    9.30
   0  11   2   -0.80    7.80
   1  11   2   71.29   10.70
  -2 -11  -2   10.10    6.70
   2  11   2    0.10    9.00
  -3 -11  -2    3.10   21.50
   3  11   2   -0.60    8.80
   3  11   2   -0.50   12.00
  -4 -11  -2   29.50   21.50
  -4 -11  -2   13.50    9.20
   4  11   2   32.50   14.10
   4  11   2   17.60    9.00
  -5 -11  -2  303.57   24.90
  -5 -11  -2  398.06   40.70
   5  11   2  356.16   28.20
  -6 -11  -2   28.10   21.80
   6  11   2   27.20   15.80
  -7 -11  -2   85.99   23.60
   7  11   2   81.49   19.30
  -8 -11  -2  240.68   42.00
  -8 -11  -2  158.98   33.90
   8  11   2  214.88   19.50
   8  11   2  208.58   30.00
  -9 -11  -2   19.70   25.30
  -9 -11  -2  -11.30   24.10
   9  11   2   12.40   19.40
   9  11   2   14.00   11.80
   1 -12  -2  337.07   31.70
  -1  12   2  412.36   37.90
   0 -12  -2  220.98   26.30
   0  12   2  266.17   33.40
  -1 -12  -2  110.99   21.30
   1  12   2   77.59   12.60
   1  12   2  115.19   19.10
   2  12   2  164.68   29.90
  -3 -12  -2  136.89   25.70
   3  12   2  133.69   23.00
  -4 -12  -2   32.30   24.30
   4  12   2   18.50   10.00
  -5 -12  -2   -9.60   23.70
   5  12   2   27.60   15.30
  -6 -12  -2    1.60   24.00
   6  12   2   15.20   16.70
  -7 -12  -2   92.79   26.90
   7  12   2   86.59   20.40
   2  13   2  -11.10   11.50
  -3 -13  -2  111.39   27.70
   3  13   2   92.79   21.90
  -4 -13  -2   49.60   26.50
   4  13   2   78.19   16.30
  -5 -13  -2  -22.90   25.70
   5  13   2   18.30   16.20
   7  12  -3   -2.40   19.30
  -7 -12   3    3.90   25.60
   6  12  -3   26.50   18.00
  -6 -12   3   -3.30   23.40
   5  12  -3   66.49   18.40
  -5 -12   3   45.10   22.70
   4  12  -3   44.50   13.00
  -4 -12   3   82.19   21.90
   3  12  -3  -15.80   12.20
   3  12  -3   12.80   15.80
  -3 -12   3  -21.20   20.40
   2  12  -3   13.20   15.20
   2  12  -3   -6.60   12.70
  -2 -12   3    1.70   21.20
  -2 -12   3   40.60   10.10
   1  12  -3    7.30   14.90
  -1 -12   3   35.30   10.20
  -1 -12   3   -3.70   22.10
   0  12  -3  323.07   25.00
   0 -12   3  377.06   27.20
   8  11  -3  139.09   31.50
  -8 -11   3  135.69   27.10
   7  11  -3   41.90   18.00
  -7 -11   3   37.30   23.70
   6  11  -3   15.00   15.90
  -6 -11   3   14.70   20.70
   5  11  -3  284.67   29.20
  -5 -11   3  296.67   36.30
   4  11  -3   43.20   15.20
  -4 -11   3   38.60   18.70
   3  11  -3   27.10   14.80
  -3 -11   3   21.80   18.80
   2  11  -3   51.09   16.80
  -2 -11   3   35.00   19.70
  -2 -11   3   41.80    9.70
   1  11  -3   23.30   13.40
   1  11  -3   28.20    7.70
  -1 -11   3    5.10   20.60
  -1 -11   3   40.80    9.30
  -1 -11   3   53.49   14.10
   0  11  -3   13.40    8.10
   0  11  -3    2.90   12.70
   0 -11   3   23.40    9.20
   0 -11   3  -13.00    9.20
   0 -11   3   35.50   14.60
  -1  11  -3  126.09   19.70
   1 -11   3  140.69   20.40
   1 -11   3  154.18   29.70
  -2  11  -3  275.37   42.50
  -2  11  -3  299.87   24.90
   2 -11   3  311.27   25.00
   2 -11   3  308.87   33.40
   9  10  -3   98.29   21.00
  -9 -10   3   92.09   27.20
   8  10  -3   84.49   19.30
   8  10  -3  109.39   14.40
  -8 -10   3   89.79   23.90
   7  10  -3   19.80   15.90
  -7 -10   3   14.10   20.60
   6  10  -3   13.70   14.80
   6  10  -3  -11.40    6.70
  -6 -10   3   -5.80   18.50
  -5 -10   3   50.69   18.20
  -5 -10   3   28.40    7.10
   4  10  -3  901.61   47.30
  -4 -10   3  753.32   43.10
  -4 -10   3  893.21   50.99
   3  10  -3  513.85   31.70
  -3 -10   3  488.55   30.40
  -3 -10   3  501.65   37.70
   2  10  -3  309.47   20.30
   2  10  -3  310.77   23.90
  -2 -10   3  290.07   32.10
  -2 -10   3  325.07   22.40
  -2 -10   3  239.88   20.20
  -2 -10   3  253.37   24.70
   1  10  -3  580.24   34.00
   1  10  -3  577.54   31.20
  -1 -10   3  506.25   33.80
  -1 -10   3  660.23   38.20
  -1 -10   3  592.04   32.40
  -1 -10   3  496.95   31.20
   0  10  -3  173.28   30.40
   0  10  -3  175.98   19.70
   0  10  -3  128.09   17.70
   0 -10   3   99.39   21.80
   0 -10   3  134.39   16.50
   0 -10   3  136.69   17.20
  -1  10  -3   33.20   12.20
  -1  10  -3   37.90    9.10
   1 -10   3   19.80   11.40
   1 -10   3   27.70    8.20
  -2  10  -3   14.50   14.40
  -2  10  -3   -1.50   12.00
  -2  10  -3    1.70    8.40
   2 -10   3   11.70    8.70
   2 -10   3    4.10   12.90
   2 -10   3    0.40    8.20
  -3  10  -3    2.70   13.80
  -3  10  -3   12.70   14.50
   3 -10   3    7.20    9.20
   3 -10   3   10.10   14.40
  -4  10  -3   11.60   15.20
  -4  10  -3    1.60    9.60
   4 -10   3    6.20    9.80
   4 -10   3   10.80   15.00
  10   9  -3   80.69   21.20
  10   9  -3   56.49   12.80
 -10  -9   3   69.49   28.10
   9   9  -3  317.97   24.50
   9   9  -3  425.26   25.70
   9   9  -3  430.66   35.20
  -9  -9   3  469.75   47.10
  -9  -9   3  326.77   32.60
   8   9  -3   14.50   16.10
   8   9  -3   10.70    8.70
  -8  -9   3  -11.20    8.20
  -8  -9   3   29.60   21.40
   7   9  -3   54.89    7.30
  -7  -9   3   44.20    8.40
  -7  -9   3   40.70    7.30
   6   9  -3   69.09   14.40
  -6  -9   3   51.79   18.40
   5   9  -3    5.10    6.30
   5   9  -3    8.20    5.10
  -5  -9   3  -13.10    8.40
  -5  -9   3    1.90    6.10
  -5  -9   3   19.30   20.60
   4   9  -3   62.99    7.70
  -4  -9   3   54.59    6.80
  -4  -9   3   49.90    8.60
   3   9  -3  264.77   20.70
   3   9  -3  230.48   17.60
   3   9  -3  231.08   15.60
  -3  -9   3  216.38   19.50
  -3  -9   3  197.88   20.70
  -3  -9   3  236.78   26.80
  -3  -9   3  201.18   16.30
  -3  -9   3  232.98   24.60
   2   9  -3  225.78   15.90
   2   9  -3  260.37   20.80
   2   9  -3  256.57   17.30
  -2  -9   3  184.48   18.40
  -2  -9   3  191.88   19.40
  -2  -9   3  253.47   19.20
  -2  -9   3  277.87   24.60
  -2  -9   3  189.48   21.10
  -2  -9   3  242.68   27.50
  -2  -9   3  281.07   24.90
   1   9  -3   24.70    9.80
   1   9  -3   41.40    6.20
  -1  -9   3   68.79   17.30
  -1  -9   3   39.60    6.60
  -1  -9   3   34.10    7.10
  -1  -9   3   33.40    9.30
   0   9  -3 1486.25   72.59
   0   9  -3 1418.36   72.39
   0   9  -3 1565.64   79.29
   0   9  -3 1648.94   75.49
   0  -9   3 1416.66   72.29
   0  -9   3 1355.16   76.59
   0  -9   3 1387.16   73.89
   0  -9   3 1494.05   76.49
   0  -9   3 1614.54   76.29
  -1   9  -3  737.23   43.10
  -1   9  -3  819.52   41.30
   1  -9   3  831.22   41.00
   1  -9   3  758.02   53.29
   1  -9   3  837.32   41.40
   1  -9   3  785.42   43.70
  -2   9  -3   17.70    8.60
  -2   9  -3   18.90   11.60
  -2   9  -3   46.50   13.30
  -2   9  -3   32.80    7.80
   2  -9   3   33.00   12.10
   2  -9   3   31.50    7.90
   2  -9   3   26.20    7.10
   2  -9   3   17.30   12.30
  -3   9  -3   10.40   12.40
  -3   9  -3    8.40   12.30
  -3   9  -3    5.40    8.00
   3  -9   3   -1.20   11.00
   3  -9   3   12.20   12.40
   3  -9   3   -0.60    7.50
   3  -9   3    1.80    7.90
  -4   9  -3   31.90   14.40
  -4   9  -3   28.30    9.30
  -4   9  -3   23.30   13.80
   4  -9   3   34.80    9.00
   4  -9   3   43.10    8.60
   4  -9   3   40.10   13.60
  -5   9  -3   97.09   12.20
  -5   9  -3  117.19   18.10
  -5   9  -3  183.58   41.30
   5  -9   3  152.58   29.00
   5  -9   3  133.89   20.70
   5  -9   3  139.69   15.70
  10   8  -3   54.29   12.50
  10   8  -3   80.09   19.90
 -10  -8   3   38.50   25.90
 -10  -8   3   70.29   26.70
   9   8  -3   10.00    7.50
  -9  -8   3   26.80    8.40
  -9  -8   3   10.60    8.50
  -9  -8   3   50.99   23.60
   8   8  -3  330.27   28.30
   8   8  -3  259.87   20.40
   8   8  -3  339.67   21.00
  -8  -8   3  284.27   21.90
  -8  -8   3  355.76   38.40
  -8  -8   3  271.87   20.40
   7   8  -3  317.57   18.70
   7   8  -3  278.77   19.30
   7   8  -3  307.17   25.40
  -7  -8   3  257.97   25.80
  -7  -8   3  264.87   18.50
  -7  -8   3  270.97   20.40
   6   8  -3   54.89    6.90
   6   8  -3   72.89   10.60
   6   8  -3   94.89   22.00
  -6  -8   3   47.40   11.10
  -6  -8   3   48.70    7.60
  -6  -8   3   50.29    6.40
  -6  -8   3   81.99   19.30
   5   8  -3  860.41   44.50
   5   8  -3  826.32   41.80
   5   8  -3  798.42   41.30
  -5  -8   3  779.42   43.50
  -5  -8   3  844.12   42.40
  -5  -8   3  896.01   48.10
   4   8  -3   32.70    4.90
   4   8  -3   25.10    6.50
  -4  -8   3   12.10   10.00
  -4  -8   3   29.50    5.90
  -4  -8   3   14.80    7.30
  -4  -8   3   28.10    8.40
   3   8  -3   86.49   15.40
   3   8  -3   62.69   13.40
   3   8  -3   71.69    9.90
   3   8  -3   60.39    6.90
   3   8  -3   71.39   10.20
  -3  -8   3   43.80    7.70
  -3  -8   3   51.39    6.30
  -3  -8   3   47.00    8.70
  -3  -8   3   61.69   10.70
  -3  -8   3   94.09   20.70
   2   8  -3  388.66   22.00
   2   8  -3  390.46   25.00
   2   8  -3  349.96   25.80
   2   8  -3  372.76   20.80
  -2  -8   3  392.46   26.80
  -2  -8   3  365.86   23.00
  -2  -8   3  381.46   28.80
  -2  -8   3  379.26   21.50
  -2  -8   3  402.06   26.50
   1   8  -3   75.19   10.10
  -1  -8   3   71.19   11.40
  -1  -8   3   55.49    9.10
   0   8  -3    0.10    4.80
   0   8  -3   -6.50    8.40
   0   8  -3    2.50    7.30
   0  -8   3    1.10    5.20
   0  -8   3    0.30    7.90
   0  -8   3   17.70    6.50
  -1   8  -3   82.89   13.80
   1  -8   3   81.99   14.00
   1  -8   3  123.69   20.20
  -2   8  -3  394.96   39.50
  -2   8  -3  311.17   21.30
  -2   8  -3  322.37   25.90
  -2   8  -3  348.67   22.20
  -2   8  -3  386.16   28.40
  -2   8  -3  305.67   24.50
   2  -8   3  401.16   27.50
   2  -8   3  320.17   24.70
   2  -8   3  342.27   21.40
  -3   8  -3   21.90   11.30
  -3   8  -3   29.20    7.80
  -3   8  -3   17.80    8.90
   3  -8   3   21.80    6.60
   3  -8   3   44.90   15.00
   3  -8   3   27.20    7.40
   3  -8   3   32.20   10.10
  -4   8  -3   80.59    9.70
  -4   8  -3   86.99   13.90
  -4   8  -3  134.29   33.30
   4  -8   3  110.89   16.80
   4  -8   3   66.89    8.90
   4  -8   3   67.89   12.30
   4  -8   3  102.29   12.30
  -5   8  -3    7.10   14.30
  -5   8  -3   11.30    8.80
  -5   8  -3   16.30   20.10
  -5   8  -3   17.80   13.40
   5  -8   3    2.80   14.00
   5  -8   3    5.10    8.40
   5  -8   3   21.00   13.10
   5  -8   3   22.50    9.50
  -6   8  -3    8.80   15.70
  -6   8  -3   -0.40    9.70
   6  -8   3   -3.00   14.10
   6  -8   3   14.90   19.40
   6  -8   3    6.10    9.50
  11   7  -3   34.10   21.20
 -11  -7   3   17.50   24.90
 -11  -7   3   40.80   28.80
  10   7  -3   38.90   17.90
  10   7  -3   14.20   11.50
  10   7  -3   -7.00    8.00
 -10  -7   3   16.20   23.40
 -10  -7   3   -8.20    8.90
 -10  -7   3   25.70   25.00
   9   7  -3   30.30   16.10
   9   7  -3    6.20   10.00
   9   7  -3   -9.50    7.20
  -9  -7   3   -9.70    7.70
  -9  -7   3   18.20   23.10
  -9  -7   3  -10.10   11.60
  -9  -7   3   -9.10    8.10
   8   7  -3   55.29    7.60
   8   7  -3   73.59   14.00
  -8  -7   3   45.50    7.20
  -8  -7   3   48.60    8.60
  -8  -7   3   42.30   11.70
   7   7  -3  381.06   25.20
   7   7  -3  400.86   31.20
   7   7  -3  455.55   23.40
   7   7  -3  403.26   23.60
   7   7  -3  387.16   22.40
   7   7  -3  414.36   31.10
  -7  -7   3  426.56   53.19
  -7  -7   3  430.76   24.60
  -7  -7   3  407.36   28.50
  -7  -7   3  378.76   22.90
  -7  -7   3  398.76   25.90
   6   7  -3  175.08   18.40
   6   7  -3  142.19   13.50
   6   7  -3  170.68   12.50
   6   7  -3  152.88   12.10
   6   7  -3  158.88   21.30
  -6  -7   3  127.69   16.50
  -6  -7   3  170.78   26.90
  -6  -7   3  149.19   12.70
  -6  -7   3  140.69   14.80
   5   7  -3  256.37   15.90
   5   7  -3  293.87   15.40
   5   7  -3  250.47   18.90
   5   7  -3  257.47   16.90
   5   7  -3  283.77   20.20
  -5  -7   3  257.07   16.30
  -5  -7   3  323.37   27.00
  -5  -7   3  260.27   17.80
  -5  -7   3  237.28   22.00
  -5  -7   3  248.98   19.60
   4   7  -3 2042.10  102.19
   4   7  -3 2135.39  102.79
   4   7  -3 2159.88  101.49
   4   7  -3 2103.19  101.29
  -4  -7   3 2064.29  102.29
  -4  -7   3 2192.48  101.69
  -4  -7   3 2161.98  101.39
  -4  -7   3 2122.79  103.89
   3   7  -3  813.72   40.50
   3   7  -3  768.72   38.20
  -3  -7   3  795.72   38.40
  -3  -7   3  716.93   40.00
  -3  -7   3  742.43   41.30
  -3  -7   3  763.32   39.30
  -3  -7   3  817.02   42.10
   2   7  -3    4.60    5.00
   2   7  -3    4.10    4.10
   2   7  -3    5.10    6.00
  -2  -7   3    7.00   11.30
  -2  -7   3   -2.30    5.60
  -2  -7   3    2.50    8.00
  -2  -7   3   -4.50    4.50
  -2  -7   3   -6.30    6.80
   1   7  -3  233.88   15.50
   1   7  -3  238.98   20.90
   1   7  -3  225.28   16.90
   1   7  -3  228.08   14.40
  -1  -7   3  246.68   20.20
  -1  -7   3  208.78   18.00
  -1  -7   3  278.17   20.50
  -1  -7   3  234.18   16.30
  -1  -7   3  229.88   14.90
   0   7  -3   19.00    6.60
   0   7  -3   20.70    8.60
   0   7  -3   26.30    5.30
   0   7  -3   16.90    4.60
   0  -7   3   19.50    5.80
   0  -7   3   30.10    8.40
   0  -7   3   15.30    7.20
   0  -7   3   29.80    5.80
  -1   7  -3 1473.45   75.99
  -1   7  -3 1541.55   75.29
  -1   7  -3 1606.84   76.49
  -1   7  -3 1503.95   74.19
  -1   7  -3 1520.15   74.49
  -1   7  -3 1615.34   78.89
   1  -7   3 1498.85   74.39
   1  -7   3 1536.85   74.29
   1  -7   3 1578.04   77.99
   1  -7   3 1579.94   75.99
   1  -7   3 1504.95   75.39
  -2   7  -3    2.40    4.90
  -2   7  -3  -12.50    9.00
  -2   7  -3   -6.50    6.20
  -2   7  -3   13.10    5.90
  -2   7  -3   18.30    9.20
  -2   7  -3    7.30    8.00
   2  -7   3   13.90   13.60
   2  -7   3    1.30    8.20
   2  -7   3    2.10    7.80
   2  -7   3   14.80    6.00
  -3   7  -3   34.60   10.50
  -3   7  -3   35.70    6.90
  -3   7  -3   22.00    9.40
   3  -7   3   16.40    5.90
   3  -7   3   23.50   11.40
   3  -7   3   41.40   15.20
   3  -7   3   34.40    6.80
   3  -7   3   30.40   10.00
   3  -7   3   29.00    6.90
  -4   7  -3   41.40    7.90
  -4   7  -3   40.20   10.80
  -4   7  -3   35.10   22.40
  -4   7  -3   35.00    9.60
  -4   7  -3   51.59   12.10
   4  -7   3   42.70    7.60
   4  -7   3   33.10    6.70
   4  -7   3   44.40   15.50
   4  -7   3   44.70   17.10
   4  -7   3   54.69   11.30
   4  -7   3   44.30   11.30
  -5   7  -3   36.80   13.20
  -5   7  -3   32.40   20.30
   5  -7   3   50.29    9.60
   5  -7   3   47.70    8.30
   5  -7   3   39.10   21.50
   5  -7   3   24.20   10.90
  -6   7  -3   54.49    9.80
  -6   7  -3   63.59   14.80
  -6   7  -3   86.79   22.30
   6  -7   3   78.19   14.30
   6  -7   3   51.49   13.10
   6  -7   3   61.99    9.60
  -7   7  -3    5.70   17.80
  -7   7  -3  -19.70   23.40
  -7   7  -3   10.00   10.00
   7  -7   3    2.70    9.90
   7  -7   3    7.70   11.70
   7  -7   3    4.40   14.70
  11   6  -3   -7.90   10.00
  11   6  -3   25.70   19.80
  11   6  -3    7.30   13.10
 -11  -6   3   30.70   24.00
 -11  -6   3   -4.70   10.00
  10   6  -3   64.79   13.20
  10   6  -3   31.90    8.50
 -10  -6   3   44.60    9.40
 -10  -6   3   87.69   22.50
   9   6  -3  270.67   25.90
   9   6  -3  293.77   25.00
   9   6  -3  295.37   21.30
  -9  -6   3  344.37   34.80
  -9  -6   3  373.46   38.80
  -9  -6   3  298.17   22.70
   8   6  -3  229.08   22.60
   8   6  -3  256.17   19.20
   8   6  -3  283.57   20.00
  -8  -6   3  267.47   20.30
  -8  -6   3  310.77   35.00
   7   6  -3  337.97   21.10
   7   6  -3  345.47   20.10
   7   6  -3  399.16   25.30
   7   6  -3  335.37   24.30
   7   6  -3  326.17   27.10
  -7  -6   3  356.56   22.00
  -7  -6   3  411.26   34.40
  -7  -6   3  357.86   24.10
  -7  -6   3  339.77   26.40
  -7  -6   3  348.77   20.90
   6   6  -3  213.48   18.20
   6   6  -3  198.28   14.30
   6   6  -3  198.28   18.80
   6   6  -3  187.18   16.50
   6   6  -3  195.08   20.80
   6   6  -3  183.58   12.90
  -6  -6   3  202.28   25.20
  -6  -6   3  194.48   17.00
  -6  -6   3  195.18   13.50
  -6  -6   3  161.08   20.20
  -6  -6   3  196.98   15.40
   5   6  -3    5.50    3.80
   5   6  -3   15.60    8.80
   5   6  -3    2.70    5.90
   5   6  -3   11.70   10.00
   5   6  -3    0.30    4.80
  -5  -6   3    4.90   12.50
  -5  -6   3   -8.00    7.80
  -5  -6   3    5.90    6.30
  -5  -6   3   -5.90    5.30
  -5  -6   3    5.60    4.10
   4   6  -3    6.80    6.70
   4   6  -3    7.60    4.60
   4   6  -3   16.30    8.60
   4   6  -3   10.20    5.70
   4   6  -3    8.60    3.70
  -4  -6   3   -5.80    7.50
  -4  -6   3    9.90    4.10
  -4  -6   3    2.50    5.10
  -4  -6   3   19.80   10.80
  -4  -6   3    8.30    6.20
   3   6  -3 1794.52   83.79
   3   6  -3 1764.92   85.09
   3   6  -3 1760.42   84.39
  -3  -6   3 1725.23   83.79
  -3  -6   3 1747.43   85.59
  -3  -6   3 1733.13   84.69
  -3  -6   3 1753.02   83.99
  -3  -6   3 1741.33   84.99
   2   6  -3  854.21   41.30
   2   6  -3  859.81   41.70
   2   6  -3  868.11   42.40
  -2  -6   3  803.82   42.70
  -2  -6   3  879.01   44.20
  -2  -6   3  869.51   41.50
  -2  -6   3  799.92   42.90
   1   6  -3    4.40    3.60
   1   6  -3    7.20    4.10
   1   6  -3    1.60    5.40
   1   6  -3    3.20    7.00
  -1  -6   3   -7.80   10.90
  -1  -6   3   -3.90    6.00
  -1  -6   3   -0.80    4.00
  -1  -6   3    7.00    4.60
  -1  -6   3   11.20    6.60
   0   6  -3  593.64   31.30
   0   6  -3  616.74   31.40
   0   6  -3  565.04   32.90
   0   6  -3  624.14   33.20
   0   6  -3  591.74   30.40
   0  -6   3  585.04   31.70
   0  -6   3  609.84   30.60
   0  -6   3  602.84   32.50
   0  -6   3  601.24   36.10
   0  -6   3  605.84   30.10
  -1   6  -3  109.39   14.60
  -1   6  -3  142.09   16.30
  -1   6  -3  125.39   11.40
  -1   6  -3   88.79   12.70
  -1   6  -3  106.59   10.10
   1  -6   3  129.79   15.90
   1  -6   3   97.59   13.60
   1  -6   3  120.49   11.70
   1  -6   3  135.79   18.60
  -2   6  -3  241.18   25.90
  -2   6  -3  233.48   29.40
  -2   6  -3  291.97   20.00
  -2   6  -3  297.67   18.00
  -2   6  -3  325.57   26.80
  -2   6  -3  327.77   22.20
  -2   6  -3  280.27   16.90
   2  -6   3  298.07   17.00
   2  -6   3  262.37   15.60
   2  -6   3  279.17   19.80
   2  -6   3  295.17   17.80
   2  -6   3  312.07   21.20
   2  -6   3  290.97   24.70
  -3   6  -3 1831.62   83.49
  -3   6  -3 1813.72   86.39
  -3   6  -3 1706.13   82.29
  -3   6  -3 1695.73   81.99
  -3   6  -3 1539.25   84.09
  -3   6  -3 1761.02   84.09
   3  -6   3 1678.23   85.59
   3  -6   3 1699.93   82.09
   3  -6   3 1724.73   81.99
   3  -6   3 1692.93   81.59
   3  -6   3 1732.23   83.59
   3  -6   3 1591.94   85.09
  -4   6  -3  165.88   19.60
  -4   6  -3  172.08   22.00
  -4   6  -3  138.49   27.10
  -4   6  -3  147.29   15.70
  -4   6  -3  153.68   14.00
   4  -6   3  156.08   13.30
   4  -6   3  169.48   15.30
   4  -6   3  130.29   23.90
   4  -6   3  158.48   18.80
   4  -6   3  150.38   13.90
   4  -6   3  185.68   21.50
  -5   6  -3  411.76   29.70
  -5   6  -3  362.76   23.60
  -5   6  -3  366.66   42.20
  -5   6  -3  377.86   27.70
   5  -6   3  343.57   31.00
   5  -6   3  375.66   22.30
   5  -6   3  415.96   29.10
   5  -6   3  349.07   26.60
   5  -6   3  339.67   22.80
   5  -6   3  373.16   23.40
   5  -6   3  368.96   32.20
  -6   6  -3  258.27   28.30
  -6   6  -3  242.08   21.50
  -6   6  -3  297.77   33.50
  -6   6  -3  269.67   29.20
   6  -6   3  276.97   19.60
   6  -6   3  226.18   25.60
   6  -6   3  253.87   20.90
   6  -6   3  269.07   28.60
  -7   6  -3   32.50   22.20
  -7   6  -3   12.50   14.70
  -7   6  -3   15.30    9.00
   7  -6   3    7.70   15.30
   7  -6   3   40.20   11.20
   7  -6   3   20.30    9.00
  -8   6  -3   -2.00   10.10
  -8   6  -3  -11.80   16.50
  -8   6  -3  -14.30   24.50
   8  -6   3    0.40    9.80
   8  -6   3   16.30   12.30
   8  -6   3   -4.50   15.40
  11   5  -3  159.58   31.40
 -11  -5   3  166.78   35.10
  10   5  -3   17.90   17.20
 -10  -5   3   -8.30    8.70
 -10  -5   3   15.00    7.70
 -10  -5   3   48.20   25.80
 -10  -5   3   15.80   20.40
   9   5  -3  169.18   23.20
   9   5  -3  179.18   18.20
  -9  -5   3  180.48   30.70
  -9  -5   3  195.88   26.20
  -9  -5   3  233.68   22.80
  -9  -5   3  189.18   19.00
  -9  -5   3  206.28   16.70
  -9  -5   3  252.17   37.10
   8   5  -3  717.33   37.50
   8   5  -3  678.93   39.30
   8   5  -3  739.13   47.60
   8   5  -3  679.03   37.20
   8   5  -3  707.93   40.00
   8   5  -3  787.12   41.30
  -8  -5   3  784.22   44.50
  -8  -5   3  768.12   41.40
  -8  -5   3  687.43   37.10
   7   5  -3  130.19   18.20
   7   5  -3  162.58   12.40
   7   5  -3  134.99   14.30
   7   5  -3  136.39   20.80
   7   5  -3  161.58   16.50
   7   5  -3  177.88   18.50
  -7  -5   3  141.29   15.20
  -7  -5   3  189.08   27.90
  -7  -5   3  126.39   20.10
   6   5  -3   32.30   10.20
   6   5  -3   17.30    7.40
   6   5  -3   27.30    4.50
   6   5  -3   27.60    6.60
   6   5  -3   18.60    5.40
  -6  -5   3   25.30   14.80
  -6  -5   3   20.10    8.50
  -6  -5   3   16.80    5.70
   5   5  -3  529.15   28.60
   5   5  -3  529.35   28.60
   5   5  -3  533.55   30.10
   5   5  -3  514.35   26.50
   5   5  -3  534.85   27.00
   5   5  -3  475.85   30.60
  -5  -5   3  556.94   27.30
  -5  -5   3  499.95   28.20
  -5  -5   3  547.95   32.40
  -5  -5   3  527.95   29.50
  -5  -5   3  511.75   26.60
   4   5  -3  171.38   15.90
   4   5  -3  179.18   12.00
   4   5  -3  210.88   16.70
   4   5  -3  168.88   11.10
   4   5  -3  194.38   14.60
   4   5  -3  166.18   13.80
  -4  -5   3  165.28   12.60
  -4  -5   3  160.98   13.70
  -4  -5   3  179.48   11.50
  -4  -5   3  209.18   18.90
  -4  -5   3  141.99   15.70
   3   5  -3 1836.22   87.89
   3   5  -3 1825.72   87.69
   3   5  -3 1853.91   88.39
  -3  -5   3 1855.51   87.89
  -3  -5   3 1818.42   87.79
  -3  -5   3 1822.52   88.49
  -3  -5   3 1877.71   89.29
   2   5  -3  240.38   18.10
   2   5  -3  231.48   13.20
   2   5  -3  221.68   17.40
   2   5  -3  245.68   13.70
  -2  -5   3  229.18   13.30
  -2  -5   3  264.77   16.90
  -2  -5   3  206.68   16.00
  -2  -5   3  185.38   15.50
   1   5  -3   -4.50    5.60
   1   5  -3   -2.20    4.50
   1   5  -3    1.60    3.60
   1   5  -3    1.40    3.40
  -1  -5   3    3.90    5.30
  -1  -5   3   -4.70    8.00
  -1  -5   3   -4.70    3.40
  -1  -5   3    3.70    3.60
  -1  -5   3    9.00    7.80
   0   5  -3  609.04   31.50
   0   5  -3  581.74   29.70
   0   5  -3  625.34   30.70
   0   5  -3  618.14   30.70
   0   5  -3  598.94   29.40
   0  -5   3  601.04   31.20
   0  -5   3  543.65   32.00
   0  -5   3  596.14   29.60
   0  -5   3  588.44   30.80
   0  -5   3  588.24   29.80
  -1   5  -3  172.48   11.60
  -1   5  -3  159.28   18.50
  -1   5  -3  151.48   13.10
  -1   5  -3  153.48   10.90
  -1   5  -3  176.38   15.20
   1  -5   3  170.48   14.90
   1  -5   3  167.58   11.70
   1  -5   3  139.99   17.60
   1  -5   3  157.78   13.90
   1  -5   3  163.98   10.90
  -2   5  -3  690.93   35.60
  -2   5  -3  716.83   36.00
  -2   5  -3  707.93   37.10
  -2   5  -3  695.03   37.60
  -2   5  -3  702.73   36.80
  -2   5  -3  720.53   40.10
   2  -5   3  769.22   41.40
   2  -5   3  688.63   37.10
   2  -5   3  737.73   34.70
   2  -5   3  693.83   36.70
   2  -5   3  696.53   35.60
   2  -5   3  732.53   35.30
  -3   5  -3   25.70    7.40
  -3   5  -3   21.30    5.20
  -3   5  -3   19.30    4.70
  -3   5  -3   27.10    8.10
  -3   5  -3   16.80    6.30
   3  -5   3   20.60    4.80
   3  -5   3   22.80    5.80
   3  -5   3   24.50    5.10
   3  -5   3   29.90    7.00
   3  -5   3   26.50    7.80
  -4   5  -3    1.80    5.80
  -4   5  -3    3.30    9.10
  -4   5  -3    2.70    8.90
  -4   5  -3    5.80    5.10
  -4   5  -3   -2.80    6.70
   4  -5   3   -0.80    5.70
   4  -5   3   -1.90    6.50
   4  -5   3  -11.50   12.40
   4  -5   3    2.00    7.30
   4  -5   3    3.90    4.90
   4  -5   3   -2.40    8.60
  -5   5  -3  438.76   25.10
  -5   5  -3  450.45   25.80
  -5   5  -3  463.45   29.00
  -5   5  -3  484.05   30.70
  -5   5  -3  467.15   34.60
   5  -5   3  412.56   24.90
   5  -5   3  446.86   31.40
   5  -5   3  427.16   24.90
   5  -5   3  437.66   28.00
   5  -5   3  430.96   32.10
   5  -5   3  475.15   29.90
   5  -5   3  469.15   25.60
  -6   5  -3  221.68   24.10
  -6   5  -3  243.88   26.80
   6  -5   3  220.38   18.00
   6  -5   3  223.48   22.70
   6  -5   3  270.07   28.20
   6  -5   3  226.58   20.80
   6  -5   3  224.28   19.70
   6  -5   3  244.58   25.60
  -7   5  -3  296.87   23.00
  -7   5  -3  287.47   30.00
  -7   5  -3  298.67   30.60
  -7   5  -3  346.37   35.90
   7  -5   3  302.27   23.90
   7  -5   3  260.67   27.90
   7  -5   3  307.07   22.70
   7  -5   3  330.67   30.00
  -8   5  -3   -5.00    9.70
  -8   5  -3   17.40   24.00
  -8   5  -3   -2.30   15.00
   8  -5   3    8.20    9.20
   8  -5   3   22.10   12.20
  11   4  -3   25.70   20.30
  10   4  -3   22.20   10.00
  10   4  -3    2.10    8.10
  10   4  -3   47.70   17.10
 -10  -4   3   27.40   14.60
 -10  -4   3   47.00   19.60
 -10  -4   3   15.80    9.00
 -10  -4   3   26.80    7.90
   9   4  -3  166.78   22.90
   9   4  -3  170.88   17.40
  -9  -4   3  182.48   18.80
  -9  -4   3  245.68   39.80
  -9  -4   3  158.58   26.20
  -9  -4   3  203.08   16.20
  -9  -4   3  177.98   29.00
   8   4  -3    3.10    9.20
   8   4  -3    1.60    6.30
   8   4  -3  -11.90   12.50
  -8  -4   3    5.90   16.20
  -8  -4   3    3.60    7.30
  -8  -4   3   18.90    5.70
  -8  -4   3   21.00    8.80
  -8  -4   3   -0.40   10.60
  -8  -4   3    1.30   20.30
   7   4  -3 1764.22   82.69
   7   4  -3 1709.13   84.09
   7   4  -3 1651.93   85.49
   7   4  -3 1590.44   82.29
   7   4  -3 1647.24   83.49
   7   4  -3 1750.72   83.89
  -7  -4   3 1862.71   84.49
  -7  -4   3 1837.02   82.89
  -7  -4   3 1806.52   87.29
  -7  -4   3 1633.74   83.49
  -7  -4   3 1626.24   82.29
   6   4  -3  185.68   19.40
   6   4  -3  182.18   13.70
   6   4  -3  186.78   12.60
   6   4  -3  183.88   17.20
   6   4  -3  205.68   16.60
   6   4  -3  201.58   15.90
  -6  -4   3  192.88   14.50
  -6  -4   3  190.48   18.50
  -6  -4   3  186.58   23.40
  -6  -4   3  172.98   17.90
   5   4  -3  147.39   10.80
   5   4  -3  143.69   13.10
   5   4  -3  124.39   10.70
   5   4  -3  131.19   14.20
   5   4  -3  136.59   13.10
   5   4  -3  137.39   15.90
  -5  -4   3  130.69   11.50
  -5  -4   3  127.39   15.60
   4   4  -3 2563.64  127.79
   4   4  -3 2766.12  127.89
   4   4  -3 2762.32  128.49
   4   4  -3 2592.74  128.69
   4   4  -3 2603.14  128.99
  -4  -4   3 2602.14  127.79
  -4  -4   3 2867.91  127.99
  -4  -4   3 2814.92  129.59
  -4  -4   3 2614.84  128.29
  -4  -4   3 2755.62  128.59
   3   4  -3    3.50    6.70
   3   4  -3   -3.60    2.80
   3   4  -3   -6.10    4.20
  -3  -4   3   -2.80    2.80
  -3  -4   3   -6.20    4.30
  -3  -4   3    1.00    7.60
   2   4  -3 3033.60  144.19
   2   4  -3 3058.29  143.79
   2   4  -3 2985.10  143.89
   2   4  -3 3117.69  144.49
  -2  -4   3 3090.89  144.69
  -2  -4   3 3151.68  143.89
  -2  -4   3 3001.80  143.79
  -2  -4   3 2914.71  144.29
  -2  -4   3 2957.50  144.19
   1   4  -3  197.18   13.00
   1   4  -3  206.38   11.70
   1   4  -3  195.88   11.50
   1   4  -3  188.38   13.90
  -1  -4   3  171.28   13.10
  -1  -4   3  214.68   14.40
  -1  -4   3  221.28   13.80
  -1  -4   3  199.58   11.60
  -1  -4   3  200.38   11.80
  -1  -4   3  206.98   13.50
   0   4  -3  502.75   25.00
   0   4  -3  497.95   25.20
   0   4  -3  524.95   26.00
   0   4  -3  505.95   26.50
   0   4  -3  547.15   26.10
   0  -4   3  510.75   25.30
   0  -4   3  501.35   26.20
   0  -4   3  453.75   26.90
   0  -4   3  511.85   25.10
   0  -4   3  488.65   26.20
  -1   4  -3 6104.99  274.07
  -1   4  -3 6014.10  273.37
  -1   4  -3 5473.85  273.37
  -1   4  -3 5578.94  272.97
  -1   4  -3 5918.91  274.37
  -1   4  -3 6065.49  272.97
   1  -4   3 5668.33  273.37
   1  -4   3 5159.58  272.67
   1  -4   3 5605.64  274.37
   1  -4   3 5646.83  272.97
   1  -4   3 6071.19  273.07
   1  -4   3 5969.90  273.57
  -2   4  -3  335.97   19.50
  -2   4  -3  311.87   18.40
  -2   4  -3  310.37   16.70
  -2   4  -3  311.67   17.00
   2  -4   3  313.37   19.00
   2  -4   3  310.37   16.60
   2  -4   3  261.67   21.60
   2  -4   3  301.17   18.30
   2  -4   3  297.87   16.00
   2  -4   3  307.37   16.90
  -3   4  -3   13.40    5.50
  -3   4  -3   12.50    4.70
  -3   4  -3   13.20    7.10
  -3   4  -3   12.30    4.20
  -3   4  -3    7.00    6.50
   3  -4   3   11.70    6.10
   3  -4   3   -5.40   10.60
   3  -4   3   15.50    4.10
   3  -4   3   14.30    4.50
   3  -4   3   20.20    5.20
   3  -4   3    9.70    6.70
  -4   4  -3  176.38   17.90
  -4   4  -3  151.88   16.30
  -4   4  -3  159.88   13.30
  -4   4  -3  161.38   12.30
  -4   4  -3  135.09   17.10
  -4   4  -3  143.59   15.90
   4  -4   3  152.78   15.60
   4  -4   3  150.08   17.00
   4  -4   3  153.48   11.90
   4  -4   3  164.88   12.00
   4  -4   3  155.98   12.80
  -5   4  -3   49.10   16.80
  -5   4  -3  106.09   18.40
  -5   4  -3   79.09   12.70
  -5   4  -3   83.19   16.60
  -5   4  -3   52.49    9.00
  -5   4  -3   76.49   11.40
   5  -4   3   81.09   12.30
   5  -4   3   92.89   17.60
   5  -4   3   79.09   11.20
   5  -4   3   79.89   10.90
   5  -4   3   67.49   13.70
   5  -4   3   65.09   13.30
   5  -4   3   64.19   13.20
  -6   4  -3  161.28   16.00
  -6   4  -3  117.39   28.10
  -6   4  -3  158.98   15.00
  -6   4  -3  171.28   20.90
  -6   4  -3  177.18   22.40
   6  -4   3  177.08   24.10
   6  -4   3  159.98   15.90
   6  -4   3  137.69   14.80
   6  -4   3  181.38   21.60
   6  -4   3  152.38   14.60
   6  -4   3  140.69   22.80
   6  -4   3  166.58   19.10
  -7   4  -3   83.79   13.50
  -7   4  -3  104.59   21.40
  -7   4  -3   72.19    9.30
  -7   4  -3   79.09   13.10
   7  -4   3   83.09   15.80
   7  -4   3  115.29   20.90
   7  -4   3   88.09   13.00
   7  -4   3   73.79    9.80
  -8   4  -3   64.59   13.90
  -8   4  -3   89.09   23.70
  -8   4  -3   62.79    9.90
  -8   4  -3   46.80   23.70
   8  -4   3   87.79   16.90
   8  -4   3   77.19   14.40
   8  -4   3   73.49    9.60
  -9   4  -3   77.79   26.00
  -9   4  -3   24.50   15.90
  -9   4  -3   24.50   10.00
   9  -4   3   44.70   13.80
   9  -4   3   25.30    9.90
   9  -4   3   34.20   15.90
  11   3  -3   59.89   19.70
  10   3  -3   -3.80    9.20
  10   3  -3   10.70    9.70
  10   3  -3   52.19   33.60
 -10  -3   3   -2.20    9.20
 -10  -3   3   14.60   11.70
   9   3  -3  261.37   22.70
   9   3  -3  237.98   19.60
  -9  -3   3  315.87   28.70
  -9  -3   3  260.47   18.60
  -9  -3   3  256.07   20.80
  -9  -3   3  277.47   24.30
  -9  -3   3  207.58   20.80
   8   3  -3  149.09   15.40
   8   3  -3  139.49   20.50
   8   3  -3  168.78   13.40
   8   3  -3  177.98   18.40
   8   3  -3  158.18   17.50
  -8  -3   3  136.39   16.50
  -8  -3   3  128.69   25.60
  -8  -3   3  150.88   32.80
  -8  -3   3  168.18   14.20
  -8  -3   3  162.88   16.10
   7   3  -3  198.98   13.80
   7   3  -3  214.88   17.60
   7   3  -3  183.08   19.50
   7   3  -3  192.08   15.20
   7   3  -3  202.48   18.50
  -7  -3   3  218.48   18.70
  -7  -3   3  195.48   15.90
  -7  -3   3  190.58   20.20
  -7  -3   3  180.48   22.30
  -7  -3   3  199.18   18.80
   6   3  -3  153.18   12.50
   6   3  -3  147.19   19.00
   6   3  -3  151.68   11.20
   6   3  -3  167.48   23.60
   6   3  -3  153.18   15.20
   6   3  -3  140.79   15.80
  -6  -3   3  123.99   22.30
  -6  -3   3  142.39   17.10
  -6  -3   3  155.58   11.60
  -6  -3   3  154.58   13.00
  -6  -3   3  164.18   15.30
   5   3  -3  117.49   12.10
   5   3  -3  106.49   12.70
   5   3  -3  120.09    9.10
   5   3  -3  109.59   10.10
   5   3  -3  120.99   11.80
   5   3  -3  107.49   15.00
  -5  -3   3  111.59   12.40
  -5  -3   3  114.69   10.70
  -5  -3   3  106.69   13.90
  -5  -3   3  114.39    9.20
  -5  -3   3  104.89   18.20
   4   3  -3  571.44   30.50
   4   3  -3  613.14   30.70
   4   3  -3  616.64   29.50
   4   3  -3  548.75   32.80
   4   3  -3  584.34   30.30
  -4  -3   3  555.74   29.20
  -4  -3   3  633.14   31.10
  -4  -3   3  606.44   32.70
  -4  -3   3  633.84   29.70
   3   3  -3  667.53   35.40
   3   3  -3  743.63   34.90
   3   3  -3  707.73   36.10
   3   3  -3  703.13   34.70
   3   3  -3  712.43   35.70
  -3  -3   3  760.52   35.00
  -3  -3   3  723.43   35.50
  -3  -3   3  738.33   36.80
  -3  -3   3  718.93   34.80
  -3  -3   3  703.83   35.80
   2   3  -3  649.04   31.80
   2   3  -3  624.64   32.40
   2   3  -3  678.23   33.00
  -2  -3   3  665.33   31.90
  -2  -3   3  665.23   31.80
  -2  -3   3  631.24   32.60
  -2  -3   3  705.83   33.20
  -2  -3   3  623.44   32.40
   1   3  -3 1340.87   63.59
   1   3  -3 1312.47   64.09
   1   3  -3 1375.36   63.59
   1   3  -3 1314.57   63.89
  -1  -3   3 1319.07   63.59
  -1  -3   3 1379.16   63.59
  -1  -3   3 1258.97   63.89
  -1  -3   3 1316.67   64.09
  -1  -3   3 1383.56   64.19
   0   3  -3    7.10    4.00
   0   3  -3    1.00    2.40
   0   3  -3    5.70    2.50
   0   3  -3    4.50    3.50
   0  -3   3    6.20    2.70
   0  -3   3    1.40    2.50
   0  -3   3    5.00    3.60
   0  -3   3   -0.90    3.80
   0  -3   3    8.20    5.50
  -1   3  -3  123.29    8.30
  -1   3  -3  108.79   10.00
  -1   3  -3  116.79    9.80
  -1   3  -3  134.99   10.60
  -1   3  -3  114.39    8.10
   1  -3   3  115.09   10.10
   1  -3   3   95.89   12.60
   1  -3   3  118.39    8.20
   1  -3   3  123.29   10.30
   1  -3   3  119.29    8.00
  -2   3  -3 2238.18  105.59
  -2   3  -3 2269.27  104.89
  -2   3  -3 2257.67  106.69
  -2   3  -3 2249.18  105.49
  -2   3  -3 2192.88  104.89
  -2   3  -3 2201.78  106.09
   2  -3   3 2190.38  105.39
   2  -3   3 2194.58  104.89
   2  -3   3 2184.88  104.89
   2  -3   3 2178.88  106.49
   2  -3   3 2160.68  105.39
   2  -3   3 2177.68  104.79
  -3   3  -3 3407.86  168.38
  -3   3  -3 3569.54  167.58
  -3   3  -3 3619.44  167.08
  -3   3  -3 3505.75  167.58
  -3   3  -3 3542.15  167.08
  -3   3  -3 3799.52  168.98
   3  -3   3 3516.75  166.98
   3  -3   3 3500.95  168.48
   3  -3   3 3330.07  167.38
   3  -3   3 3451.85  166.98
   3  -3   3 3510.95  167.58
   3  -3   3 3526.75  167.48
  -4   3  -3  240.98   24.00
  -4   3  -3  307.87   17.30
  -4   3  -3  300.57   20.30
  -4   3  -3  306.57   16.80
  -4   3  -3  300.27   19.60
   4  -3   3  273.07   24.20
   4  -3   3  282.17   27.90
   4  -3   3  304.87   17.10
   4  -3   3  295.27   16.50
   4  -3   3  303.97   16.80
   4  -3   3  294.77   19.70
  -5   3  -3 1197.98   54.49
  -5   3  -3  981.90   56.39
  -5   3  -3 1165.98   56.09
  -5   3  -3 1086.99   58.69
  -5   3  -3 1124.09   54.29
  -5   3  -3 1063.09   57.39
   5  -3   3 1071.79   57.29
   5  -3   3 1184.88   56.59
   5  -3   3 1168.38   54.39
   5  -3   3 1152.98   55.79
   5  -3   3 1061.59   57.69
   5  -3   3 1094.29   54.09
   5  -3   3 1114.09   54.39
  -6   3  -3  127.69   18.20
  -6   3  -3  121.59   19.40
  -6   3  -3   94.09   17.70
  -6   3  -3   83.29   17.70
  -6   3  -3  117.29   14.00
  -6   3  -3  119.99   12.70
   6  -3   3  111.69   13.00
   6  -3   3  109.59   18.40
   6  -3   3  100.29   22.30
   6  -3   3  115.29   12.30
   6  -3   3  122.19   16.80
   6  -3   3  124.39   13.60
   6  -3   3   86.29   19.70
  -7   3  -3   17.50    6.60
  -7   3  -3   -8.60   27.00
  -7   3  -3   17.20   10.80
  -7   3  -3   28.70   13.40
   7  -3   3   22.80   10.50
   7  -3   3   26.20    9.90
   7  -3   3   31.70   14.60
   7  -3   3   19.00    7.00
   7  -3   3    7.70   14.90
   7  -3   3   23.70    9.20
  -8   3  -3   27.20   12.00
  -8   3  -3   22.50    8.40
  -8   3  -3   15.40   21.30
   8  -3   3   28.30    8.30
   8  -3   3   40.60   11.20
   8  -3   3   29.40   12.20
  -9   3  -3  -17.90   14.00
  -9   3  -3   12.60   22.90
  -9   3  -3  -10.00    9.20
   9  -3   3   -1.70   12.40
   9  -3   3   -8.80   13.50
   9  -3   3  -16.90    8.80
  11   2  -3   95.89   16.50
  11   2  -3  136.59   20.80
  11   2  -3  135.79   25.50
 -11  -2   3  117.29   17.80
 -11  -2   3  137.89   22.50
  10   2  -3   23.20   16.90
 -10  -2   3   20.80   12.00
   9   2  -3   52.99   15.00
   9   2  -3   16.50    7.70
   9   2  -3    4.80   11.50
  -9  -2   3   19.70   12.40
  -9  -2   3   27.80   10.80
  -9  -2   3   29.90    7.20
  -9  -2   3   22.20    8.40
  -9  -2   3   17.90    8.40
   8   2  -3  225.68   20.50
   8   2  -3  173.88   22.30
   8   2  -3  214.98   15.90
   8   2  -3  254.87   20.20
   8   2  -3  207.28   17.10
  -8  -2   3  206.68   18.10
  -8  -2   3  203.98   23.50
  -8  -2   3  222.78   16.30
  -8  -2   3  221.08   21.50
  -8  -2   3  217.68   18.60
  -8  -2   3  274.87   35.80
   7   2  -3  130.89   15.10
   7   2  -3   96.29   12.80
   7   2  -3   83.79   13.70
   7   2  -3   77.29   17.60
   7   2  -3  120.39   11.30
   7   2  -3  143.39   16.00
  -7  -2   3  111.49   13.40
  -7  -2   3   98.79   20.10
  -7  -2   3   96.99   13.60
  -7  -2   3  100.59   18.20
  -7  -2   3  136.89   16.50
  -7  -2   3  126.89   11.80
   6   2  -3  309.47   23.60
   6   2  -3  320.27   20.00
   6   2  -3  324.47   20.70
   6   2  -3  330.57   20.10
   6   2  -3  321.77   18.50
   6   2  -3  328.47   17.80
   6   2  -3  307.77   21.00
  -6  -2   3  290.17   27.90
  -6  -2   3  333.97   20.60
  -6  -2   3  304.17   19.30
  -6  -2   3  319.97   21.70
  -6  -2   3  323.27   18.00
  -6  -2   3  345.07   18.90
   5   2  -3   -8.20    5.90
   5   2  -3   -0.30    5.20
   5   2  -3   -6.00    4.00
   5   2  -3    6.40    6.40
   5   2  -3    4.30    4.00
   5   2  -3    2.90    3.40
   5   2  -3   -6.70    8.20
  -5  -2   3    3.00    3.80
  -5  -2   3   -3.00    3.60
  -5  -2   3  -10.40    6.30
  -5  -2   3   -1.30    5.40
   4   2  -3 1740.43   85.99
   4   2  -3 1677.53   85.79
   4   2  -3 1876.51   85.49
   4   2  -3 1851.01   86.09
   4   2  -3 1748.03   85.89
   4   2  -3 1786.72   86.79
   4   2  -3 1769.02   85.39
  -4  -2   3 1770.52   85.89
  -4  -2   3 1776.52   85.89
  -4  -2   3 1723.93   85.29
  -4  -2   3 1858.81   86.09
  -4  -2   3 1946.81   85.59
  -4  -2   3 1803.52   87.19
   3   2  -3 2474.25  118.59
   3   2  -3 2374.16  118.09
   3   2  -3 2563.14  117.79
   3   2  -3 2347.27  118.09
   3   2  -3 2545.35  118.29
   3   2  -3 2459.65  117.79
  -3  -2   3 2385.46  117.69
  -3  -2   3 2648.73  117.89
  -3  -2   3 2523.85  118.79
  -3  -2   3 2523.35  118.29
   2   2  -3  221.58   12.10
   2   2  -3  225.78   11.90
   2   2  -3  238.78   12.70
   2   2  -3  217.58   13.30
   2   2  -3  204.78   12.90
   2   2  -3  237.58   13.40
  -2  -2   3  243.68   11.90
  -2  -2   3  228.98   12.20
  -2  -2   3  221.18   12.90
  -2  -2   3  204.48   13.30
  -2  -2   3  242.78   14.00
   1   2  -3   99.29    6.60
   1   2  -3  111.99    6.90
   1   2  -3  105.09    8.40
   1   2  -3   89.09    7.80
  -1  -2   3  102.99    6.70
  -1  -2   3  122.09    8.80
  -1  -2   3   85.39    8.10
  -1  -2   3  102.29    6.70
  -1  -2   3   91.59    8.10
   0   2  -3 2201.98   99.59
   0   2  -3 2136.09   99.79
   0   2  -3 2118.69   99.59
   0   2  -3 1949.70   99.39
   0   2  -3 2042.70   99.89
   0   2  -3 2159.08  100.49
   0  -2   3 2100.09   99.89
   0  -2   3 2058.19   99.79
   0  -2   3 1978.00  100.09
   0  -2   3 2242.78   99.59
   0  -2   3 2089.49   99.49
  -1   2  -3   44.20    5.40
  -1   2  -3   57.79    7.50
  -1   2  -3   42.10    6.90
  -1   2  -3   48.60    5.40
  -1   2  -3   38.00    4.40
  -1   2  -3   30.70    7.30
   1  -2   3   40.80    6.90
   1  -2   3   44.80    7.00
   1  -2   3   47.90    5.20
   1  -2   3   51.59    7.30
   1  -2   3   51.09    5.40
  -2   2  -3   93.49    7.30
  -2   2  -3   84.99    9.00
  -2   2  -3   99.49    9.70
  -2   2  -3  104.49    9.80
  -2   2  -3   96.59    7.40
   2  -2   3   89.69    9.30
   2  -2   3   93.69    6.90
   2  -2   3   94.09    7.30
   2  -2   3   91.59    7.00
   2  -2   3   86.99    8.80
  -3   2  -3 5533.45  251.27
  -3   2  -3 5334.47  250.37
  -3   2  -3 5065.69  251.07
  -3   2  -3 5320.87  249.97
  -3   2  -3 5398.66  249.88
  -3   2  -3 5218.98  250.37
   3  -2   3 5239.88  249.88
   3  -2   3 5222.38  250.97
   3  -2   3 5265.27  250.27
   3  -2   3 5262.97  250.27
   3  -2   3 5298.77  250.07
   3  -2   3 5254.87  249.88
  -4   2  -3  682.43   34.60
  -4   2  -3  636.34   35.20
  -4   2  -3  681.23   33.00
  -4   2  -3  664.13   36.40
  -4   2  -3  699.43   33.20
  -4   2  -3  670.03   34.40
   4  -2   3  669.93   33.10
   4  -2   3  666.43   34.30
   4  -2   3  637.14   32.80
   4  -2   3  661.43   35.70
   4  -2   3  675.13   33.10
  -5   2  -3  234.28   19.00
  -5   2  -3  281.67   16.30
  -5   2  -3  278.67   18.80
  -5   2  -3  220.28   16.80
  -5   2  -3  227.38   23.20
  -5   2  -3  276.67   19.30
  -5   2  -3  280.37   15.70
   5  -2   3  265.47   15.50
   5  -2   3  268.97   15.90
   5  -2   3  242.88   20.70
   5  -2   3  248.68   21.70
   5  -2   3  257.27   18.50
   5  -2   3  281.87   18.20
   5  -2   3  272.97   16.20
  -6   2  -3  497.35   34.00
  -6   2  -3  537.45   30.00
  -6   2  -3  550.24   27.50
  -6   2  -3  508.85   27.30
  -6   2  -3  544.35   30.50
  -6   2  -3  429.66   30.00
   6  -2   3  508.35   26.70
   6  -2   3  524.55   29.80
   6  -2   3  511.25   27.10
   6  -2   3  492.45   31.60
   6  -2   3  522.75   27.50
   6  -2   3  514.65   29.10
   6  -2   3  490.85   33.40
  -7   2  -3  432.56   24.20
  -7   2  -3  343.07   27.70
  -7   2  -3  413.16   28.60
  -7   2  -3  434.36   32.90
  -7   2  -3  424.26   23.70
  -7   2  -3  445.16   28.60
   7  -2   3  425.46   23.80
   7  -2   3  383.36   29.10
   7  -2   3  393.36   29.60
   7  -2   3  381.46   23.20
   7  -2   3  401.86   24.10
   7  -2   3  402.36   26.50
   7  -2   3  424.06   27.40
  -8   2  -3   31.10    7.90
  -8   2  -3   29.40    7.30
  -8   2  -3   34.00   19.20
  -8   2  -3   32.30   11.90
   8  -2   3   52.99   15.00
   8  -2   3   36.00   11.20
   8  -2   3   48.00   10.40
   8  -2   3   25.80    7.50
  -9   2  -3    0.90   13.00
  -9   2  -3   -8.10    8.30
  -9   2  -3    5.50   12.70
  -9   2  -3    3.80   21.00
   9  -2   3   -9.80    7.90
   9  -2   3    7.70   11.50
   9  -2   3   -0.70   12.20
 -10   2  -3    5.40   23.90
 -10   2  -3   -9.90    9.50
 -10   2  -3  -18.90   14.90
  10  -2   3  -12.60    8.70
  10  -2   3    3.60   12.50
  10  -2   3  -16.90   13.80
  10   1  -3   26.00    9.00
  10   1  -3   30.60   13.50
  10   1  -3   31.90   11.30
 -10  -1   3   32.30    9.50
 -10  -1   3   16.90   14.00
 -10  -1   3   49.90   12.50
   9   1  -3   33.70   10.40
   9   1  -3   36.30   10.30
  -9  -1   3    9.90    8.20
  -9  -1   3   20.30    9.40
  -9  -1   3   32.40    7.50
  -9  -1   3   25.50   10.40
  -9  -1   3    6.80   12.00
  -9  -1   3   65.19   26.30
   8   1  -3   39.10    9.00
   8   1  -3   39.20    9.00
   8   1  -3   23.60    7.00
   8   1  -3   37.80    6.10
   8   1  -3   16.30   10.20
   8   1  -3   24.80   14.10
  -8  -1   3   26.70    7.40
  -8  -1   3   27.60   10.90
  -8  -1   3   29.80    6.40
  -8  -1   3   27.20    8.40
   7   1  -3  910.81   45.60
   7   1  -3  909.41   47.20
   7   1  -3  903.21   47.50
   7   1  -3  999.70   47.10
   7   1  -3  917.61   47.80
   7   1  -3  871.01   49.90
   7   1  -3  874.61   45.20
  -7  -1   3  943.01   45.90
  -7  -1   3  895.81   45.40
  -7  -1   3  951.70   48.10
  -7  -1   3  873.31   47.00
  -7  -1   3  895.61   47.10
  -7  -1   3  988.50   55.29
   6   1  -3   19.70    6.60
   6   1  -3   17.60    4.30
   6   1  -3   17.80    6.10
   6   1  -3   14.90   10.40
   6   1  -3    7.40    4.80
   6   1  -3   -1.00    7.40
  -6  -1   3   20.00    4.50
  -6  -1   3  -13.70   15.40
  -6  -1   3   12.30    5.30
  -6  -1   3    4.80    7.40
  -6  -1   3   10.30    5.10
  -6  -1   3   21.70    6.60
   5   1  -3  359.86   19.30
   5   1  -3  357.16   19.00
   5   1  -3  361.96   21.00
   5   1  -3  389.46   23.50
   5   1  -3  364.56   20.10
   5   1  -3  347.77   21.30
   5   1  -3  354.66   20.50
  -5  -1   3  371.36   19.50
  -5  -1   3  329.37   27.20
  -5  -1   3  360.96   20.40
  -5  -1   3  363.96   20.90
  -5  -1   3  351.06   21.60
  -5  -1   3  355.56   19.10
   4   1  -3   65.39   10.50
   4   1  -3   94.49    9.00
   4   1  -3   74.19    9.70
   4   1  -3   73.89    7.80
   4   1  -3   82.09    8.70
   4   1  -3   59.69   12.70
   4   1  -3   84.89    7.30
  -4  -1   3   69.09   10.80
  -4  -1   3   82.59    9.90
  -4  -1   3   86.59    8.70
  -4  -1   3   82.09    7.30
  -4  -1   3   79.79    8.20
  -4  -1   3   70.29   11.10
   3   1  -3 2270.97  109.99
   3   1  -3 2210.28  109.79
   3   1  -3 2371.26  109.89
   3   1  -3 2288.27  110.39
   3   1  -3 2319.17  109.39
   3   1  -3 2359.06  109.49
  -3  -1   3 2215.88  109.39
  -3  -1   3 2310.27  109.99
  -3  -1   3 2360.56  110.69
  -3  -1   3 2450.25  109.49
  -3  -1   3 2301.37  109.89
  -3  -1   3 2238.28  109.79
   2   1  -3 4963.10  235.38
   2   1  -3 4836.62  235.08
   2   1  -3 4834.32  234.88
   2   1  -3 5051.79  235.18
   2   1  -3 4998.70  234.88
   2   1  -3 4946.10  235.38
   2   1  -3 5051.29  234.88
  -2  -1   3 5164.68  234.88
  -2  -1   3 4919.21  235.18
  -2  -1   3 4859.61  234.78
  -2  -1   3 5028.90  235.48
   1   1  -3 1844.92   87.99
   1   1  -3 1778.32   88.29
  -1  -1   3 1919.11   88.09
  -1  -1   3 1816.32   88.29
  -1  -1   3 1885.51   88.19
  -1  -1   3 1929.71   88.09
  -1  -1   3 1817.62   88.29
   0   1  -3  765.92   37.60
   0   1  -3  758.62   37.10
   0   1  -3  796.02   36.70
   0   1  -3  741.03   37.00
   0   1  -3  793.72   36.70
   0   1  -3  802.42   36.80
   0  -1   3  794.02   36.70
   0  -1   3  768.62   36.60
   0  -1   3  713.63   37.30
   0  -1   3  727.43   36.90
   0  -1   3  770.12   37.20
  -1   1  -3 7165.08  347.87
  -1   1  -3 7575.94  348.37
   1  -1   3 7397.86  348.27
   1  -1   3 7311.67  347.67
  -2   1  -3  136.69   12.70
  -2   1  -3  165.38    9.40
  -2   1  -3  174.48   11.10
  -2   1  -3  168.58    9.50
  -2   1  -3  168.58   10.40
  -2   1  -3  174.18    9.50
   2  -1   3  167.88    9.40
   2  -1   3  160.38    9.20
   2  -1   3  171.48   10.40
   2  -1   3  166.38    9.60
   2  -1   3  165.38   10.50
  -3   1  -3 2223.48  104.89
  -3   1  -3 2179.88  103.59
  -3   1  -3 2164.58  104.09
  -3   1  -3 2222.98  103.69
  -3   1  -3 2170.48  104.79
  -3   1  -3 2174.98  104.09
   3  -1   3 2137.69  103.59
   3  -1   3 2162.18  103.59
   3  -1   3 2218.58  104.79
   3  -1   3 2243.68  103.89
   3  -1   3 2126.39  103.99
  -4   1  -3   79.49   10.60
  -4   1  -3   96.99   10.70
  -4   1  -3   63.29   16.60
  -4   1  -3   98.39    8.50
  -4   1  -3  100.39    8.00
  -4   1  -3  104.29   11.30
   4  -1   3   93.99    7.60
   4  -1   3   93.19   10.80
   4  -1   3   70.99   13.70
   4  -1   3   94.29    8.30
   4  -1   3   82.89    8.80
   4  -1   3  106.49   10.20
  -5   1  -3   92.99   13.40
  -5   1  -3   93.99    9.30
  -5   1  -3   90.79    9.90
  -5   1  -3   99.49   12.70
  -5   1  -3   73.89   12.40
  -5   1  -3   77.09   10.60
   5  -1   3   89.29    9.40
   5  -1   3  100.59   11.40
   5  -1   3   86.99   12.50
   5  -1   3  101.59   11.80
   5  -1   3   76.49    9.70
  -6   1  -3 1327.27   65.79
  -6   1  -3 1288.97   62.19
  -6   1  -3 1285.17   63.59
  -6   1  -3 1214.78   62.89
  -6   1  -3 1343.67   62.39
  -6   1  -3 1337.77   63.79
   6  -1   3 1322.77   63.49
   6  -1   3 1269.97   64.49
   6  -1   3 1257.67   62.69
   6  -1   3 1285.87   62.19
   6  -1   3 1237.88   62.09
   6  -1   3 1265.67   63.19
  -7   1  -3  119.29   18.00
  -7   1  -3  110.49   13.40
  -7   1  -3  114.79   12.50
  -7   1  -3  105.09   18.90
  -7   1  -3  114.19   17.00
   7  -1   3  114.19   16.40
   7  -1   3  108.49   12.00
   7  -1   3   81.29   19.50
   7  -1   3   92.39   13.50
   7  -1   3   91.69   12.90
   7  -1   3   83.69   19.80
   7  -1   3   93.59   17.70
  -8   1  -3  215.08   17.90
  -8   1  -3  207.98   17.30
  -8   1  -3  228.68   24.40
  -8   1  -3  203.98   33.80
  -8   1  -3  193.58   18.50
   8  -1   3  249.97   22.10
   8  -1   3  214.38   22.40
   8  -1   3  209.78   24.60
   8  -1   3  216.58   20.10
   8  -1   3  205.38   17.40
  -9   1  -3   -5.70    7.80
  -9   1  -3    5.70    7.60
  -9   1  -3  -13.30   19.50
  -9   1  -3  -15.30   10.80
  -9   1  -3   -5.80   12.50
  -9   1  -3   15.90   12.10
   9  -1   3   -2.20   10.90
   9  -1   3   -9.20   11.10
   9  -1   3   -9.60    7.40
 -10   1  -3  -11.30    8.90
 -10   1  -3   15.90   21.90
 -10   1  -3  -14.00   14.00
  10  -1   3   10.30   13.90
  10  -1   3   -2.80   12.60
  10  -1   3   -7.90    8.10
  10   0  -3   15.60   11.60
  10   0  -3   -4.40   13.70
  10   0  -3    7.20    8.60
 -10   0   3    3.20   14.20
 -10   0   3   13.40   14.50
 -10   0   3    0.00    9.40
   9   0  -3    7.30   10.10
   9   0  -3  -15.60    7.60
   9   0  -3  -17.70   11.90
   9   0  -3    5.00   10.10
  -9   0   3  -10.70    8.00
  -9   0   3   23.50   27.30
  -9   0   3    5.60   10.50
   8   0  -3  458.95   30.50
   8   0  -3  475.85   29.90
   8   0  -3  477.95   30.80
   8   0  -3  470.55   26.80
   8   0  -3  429.16   25.90
  -8   0   3  483.05   30.10
  -8   0   3  448.86   26.30
  -8   0   3  506.75   27.60
  -8   0   3  500.35   31.40
  -8   0   3  413.36   29.80
  -8   0   3  549.45   45.40
   7   0  -3  209.38   23.90
   7   0  -3  211.58   16.10
   7   0  -3  201.48   19.90
   7   0  -3  212.48   15.00
   7   0  -3  250.87   19.50
   7   0  -3  206.58   20.70
  -7   0   3  224.78   15.40
  -7   0   3  222.48   16.80
  -7   0   3  218.88   33.50
  -7   0   3  226.78   21.20
  -7   0   3  184.18   19.40
  -7   0   3  243.88   23.60
   6   0  -3   -1.70   10.00
   6   0  -3   -6.10    7.40
   6   0  -3    0.80    6.60
   6   0  -3   13.80    6.50
   6   0  -3   -2.70    4.70
   6   0  -3    6.30    4.20
  -6   0   3    0.80    7.30
  -6   0   3    4.60    4.50
  -6   0   3   -9.70    9.40
  -6   0   3   -3.00    5.10
  -6   0   3    7.20    6.50
   5   0  -3  105.49   16.30
   5   0  -3  101.49   13.90
   5   0  -3  112.99   10.40
   5   0  -3  130.39   12.60
   5   0  -3  122.99    9.60
   5   0  -3  132.59   13.00
  -5   0   3  115.39   12.10
  -5   0   3  127.29    9.80
  -5   0   3  114.89   14.60
  -5   0   3  120.09   10.50
  -5   0   3  104.79   13.80
  -5   0   3  135.79   12.70
   4   0  -3  370.76   21.30
   4   0  -3  378.66   19.70
   4   0  -3  373.06   21.40
   4   0  -3  409.16   21.40
   4   0  -3  376.76   23.40
   4   0  -3  388.76   20.00
  -4   0   3  384.06   25.40
  -4   0   3  390.26   21.10
  -4   0   3  384.16   19.80
  -4   0   3  397.86   20.10
  -4   0   3  407.66   21.20
  -4   0   3  375.26   21.70
   3   0  -3 1165.48   56.39
   3   0  -3 1188.98   56.49
   3   0  -3 1204.98   57.19
   3   0  -3 1193.68   57.09
   3   0  -3 1126.99   57.79
   3   0  -3 1151.28   56.89
  -3   0   3 1161.58   56.89
  -3   0   3 1184.58   57.19
  -3   0   3 1215.08   56.49
  -3   0   3 1203.58   57.09
  -3   0   3 1206.58   58.49
  -3   0   3 1183.58   56.39
   2   0  -3  213.18   12.40
   2   0  -3  223.68   11.50
   2   0  -3  225.48   12.60
   2   0  -3  227.08   11.60
   2   0  -3  189.28   13.90
   2   0  -3  214.88   11.60
   2   0  -3  243.78   12.60
  -2   0   3  218.88   12.30
  -2   0   3  234.68   12.70
  -2   0   3  210.98   12.60
  -2   0   3  219.18   11.40
  -2   0   3  231.98   11.70
  -2   0   3  180.28   14.90
  -2   0   3  228.68   11.60
   0   0  -3 1166.38   58.39
   0   0  -3 1225.58   58.49
   0   0  -3 1262.67   58.59
   0   0  -3 1217.48   58.19
   0   0  -3 1272.27   58.29
   0   0   3 1279.67   58.29
   0   0   3 1200.58   58.19
   0   0   3 1182.08   58.49
   0   0   3 1236.88   58.59
  -1   0  -3  967.80   46.10
  -1   0  -3  937.31   46.30
  -1   0  -3 1011.70   46.10
  -1   0  -3  934.51   46.40
   1   0   3  974.40   46.50
   1   0   3  953.80   46.10
   1   0   3  967.50   46.80
   1   0   3  945.21   46.40
   1   0   3 1024.10   46.10
  -2   0  -3 5723.43  269.57
  -2   0  -3 5780.22  269.17
  -2   0  -3 5675.53  269.17
  -2   0  -3 5610.74  269.17
   2   0   3 5559.14  269.17
   2   0   3 5944.01  269.57
   2   0   3 5566.64  268.97
  -3   0  -3 3131.69  143.79
  -3   0  -3 2937.31  144.49
  -3   0  -3 3193.08  144.09
  -3   0  -3 2990.90  143.69
  -3   0  -3 2978.40  143.99
  -3   0  -3 2956.20  144.09
   3   0   3 2958.00  143.69
   3   0   3 3103.59  144.59
   3   0   3 2987.80  143.99
   3   0   3 3148.98  144.09
   3   0   3 3018.80  143.69
  -4   0  -3  244.58   15.70
  -4   0  -3  271.87   15.70
  -4   0  -3  234.18   17.70
  -4   0  -3  286.27   14.70
  -4   0  -3  281.57   16.20
  -4   0  -3  269.47   16.80
  -4   0  -3  273.17   14.40
   4   0   3  275.87   15.60
   4   0   3  273.57   14.40
   4   0   3  273.57   15.60
   4   0   3  260.07   17.90
   4   0   3  274.27   14.20
   4   0   3  294.47   15.40
  -5   0  -3  186.18   11.70
  -5   0  -3  155.08   14.50
  -5   0  -3  186.88   14.30
  -5   0  -3  148.79   14.50
  -5   0  -3  176.88   13.70
  -5   0  -3  182.48   11.30
  -5   0  -3  143.49   16.90
   5   0   3  175.68   10.90
   5   0   3  159.78   16.00
   5   0   3  148.19   16.50
   5   0   3  191.28   13.20
   5   0   3  173.18   11.30
   5   0   3  181.88   12.50
  -6   0  -3   51.99    8.30
  -6   0  -3   80.69   13.60
  -6   0  -3   62.79   10.20
  -6   0  -3   70.09    9.60
  -6   0  -3   48.30   11.00
  -6   0  -3   48.90   12.30
   6   0   3   64.79   11.20
   6   0   3   50.69    7.70
   6   0   3   61.59    8.50
   6   0   3   58.39    9.40
   6   0   3   75.09   12.60
   6   0   3   71.59    9.00
  -7   0  -3  142.99   15.10
  -7   0  -3  163.08   19.20
  -7   0  -3  154.18   13.10
  -7   0  -3  142.99   23.10
  -7   0  -3  165.68   17.80
  -7   0  -3  162.98   14.10
   7   0   3  147.19   19.70
   7   0   3  162.48   16.60
   7   0   3  163.68   13.10
   7   0   3  146.99   17.20
   7   0   3  160.08   12.40
   7   0   3  129.69   14.50
  -8   0  -3   32.40   20.10
  -8   0  -3   33.30    6.50
  -8   0  -3   29.80   10.40
  -8   0  -3   37.10   11.10
  -8   0  -3   42.40    9.60
   8   0   3   26.30   12.60
   8   0   3   34.20   19.00
   8   0   3   35.50    9.00
   8   0   3   37.40    9.80
   8   0   3   32.00    6.00
   8   0   3   38.40   14.60
   8   0   3   24.10    6.60
  -9   0  -3   26.40   19.20
  -9   0  -3   24.30   14.50
  -9   0  -3   17.70    7.10
  -9   0  -3    4.90   12.10
  -9   0  -3    3.30    7.50
  -9   0  -3    2.10   10.90
   9   0   3   -0.90   10.40
   9   0   3   26.20   11.30
   9   0   3    8.20   13.60
   9   0   3   12.20    7.10
 -10   0  -3   49.90   14.00
 -10   0  -3   48.00   14.20
 -10   0  -3   45.10    9.40
 -10   0  -3   51.19    9.20
 -10   0  -3   85.59   22.80
  10   0   3   47.50   10.90
  10   0   3   49.10   12.60
  10   0   3   90.99   18.90
 -11   0  -3   -0.30    9.60
 -11   0  -3  -14.50   15.20
  10  -1  -3  -12.80    9.00
  10  -1  -3  -14.70   19.70
  10  -1  -3    4.00   12.30
 -10   1   3  -23.90   14.10
 -10   1   3  -19.00    9.50
   9  -1  -3   -9.70    7.90
   9  -1  -3    5.00   10.80
   9  -1  -3  -18.80   12.50
   9  -1  -3    8.90   10.80
  -9   1   3   -8.40   10.90
  -9   1   3  -20.50   12.40
  -9   1   3    7.60    9.50
  -9   1   3   -6.00    8.30
   8  -1  -3   27.80    9.20
   8  -1  -3    7.70   10.90
   8  -1  -3   -1.40   10.70
   8  -1  -3   22.40   19.50
   8  -1  -3   21.80    6.60
  -8   1   3   19.30    9.20
  -8   1   3   16.80    7.40
  -8   1   3    6.80    9.40
  -8   1   3   12.20   11.10
   7  -1  -3  692.43   40.90
   7  -1  -3  716.03   38.70
   7  -1  -3  661.53   35.70
   7  -1  -3  696.73   36.20
   7  -1  -3  658.03   39.30
   7  -1  -3  671.73   42.10
  -7   1   3  776.02   37.70
  -7   1   3  733.73   36.50
  -7   1   3  726.73   39.20
  -7   1   3  724.53   38.50
  -7   1   3  679.53   35.80
   6  -1  -3 1066.79   54.99
   6  -1  -3 1097.79   53.19
   6  -1  -3 1051.49   56.89
   6  -1  -3 1094.89   55.59
   6  -1  -3 1076.69   54.79
   6  -1  -3 1058.79   52.89
  -6   1   3 1110.49   54.49
  -6   1   3 1147.59   53.99
  -6   1   3  970.90   54.89
  -6   1   3 1060.09   52.99
  -6   1   3 1129.19   53.29
  -6   1   3 1133.99   60.19
  -6   1   3 1146.29   54.99
   5  -1  -3  102.49   10.30
   5  -1  -3  111.09   13.60
   5  -1  -3  118.39   13.00
   5  -1  -3   94.69   14.00
   5  -1  -3  105.39    9.60
  -5   1   3  112.09   10.70
  -5   1   3  123.49   12.90
  -5   1   3  112.09    9.90
  -5   1   3  107.79   14.40
  -5   1   3  101.39   15.00
  -5   1   3   92.29   13.00
   4  -1  -3 4452.15  212.68
   4  -1  -3 4399.56  210.88
   4  -1  -3 4400.86  212.08
   4  -1  -3 4324.67  211.38
   4  -1  -3 4405.56  210.98
   4  -1  -3 4459.75  211.48
  -4   1   3 4580.04  212.78
  -4   1   3 4524.15  211.48
  -4   1   3 4527.25  211.38
  -4   1   3 4472.25  210.98
  -4   1   3 4490.55  210.98
   3  -1  -3 2197.78  108.09
   3  -1  -3 2188.48  107.79
   3  -1  -3 2247.88  107.59
   3  -1  -3 2260.27  107.69
   3  -1  -3 2263.97  108.09
   3  -1  -3 2274.87  108.59
   3  -1  -3 2334.67  109.09
  -3   1   3 2251.67  109.29
  -3   1   3 2305.67  107.69
  -3   1   3 2279.07  108.49
  -3   1   3 2333.47  108.19
  -3   1   3 2288.57  107.69
  -3   1   3 2281.37  108.09
   2  -1  -3  367.96   18.70
   2  -1  -3  325.47   19.70
   2  -1  -3  348.67   18.40
   2  -1  -3  341.17   18.20
   2  -1  -3  357.26   17.50
   2  -1  -3  388.46   17.40
   2  -1  -3  353.96   17.70
  -2   1   3  311.87   19.80
  -2   1   3  352.46   17.50
  -2   1   3  347.77   18.30
  -2   1   3  358.26   17.40
  -2   1   3  350.26   18.10
  -2   1   3  356.56   18.60
   1  -1  -3 1470.55   70.09
   1  -1  -3 1474.45   69.89
   1  -1  -3 1537.45   70.69
   1  -1  -3 1471.65   70.09
   1  -1  -3 1462.05   69.79
   1  -1  -3 1464.15   70.59
   1  -1  -3 1423.66   70.09
  -1   1   3 1514.35   70.19
  -1   1   3 1507.05   70.19
  -1   1   3 1427.96   69.79
  -1   1   3 1482.15   70.59
  -1   1   3 1475.15   69.79
  -1   1   3 1439.06   69.99
   0  -1  -3  931.21   46.90
   0   1   3 1024.20   46.80
   0   1   3  974.70   46.90
  -1  -1  -3   -0.70    2.00
  -1  -1  -3   -5.60    3.00
   1   1   3   -3.20    2.10
   1   1   3   -6.60    3.10
  -2  -1  -3  534.25   26.40
   2   1   3  543.05   26.60
   2   1   3  541.25   26.50
  -3  -1  -3 2690.33  123.89
  -3  -1  -3 2542.65  124.29
  -3  -1  -3 2498.15  124.09
   3   1   3 2723.23  123.99
   3   1   3 2581.84  123.89
   3   1   3 2614.74  124.29
  -4  -1  -3  695.73   33.50
  -4  -1  -3  601.74   32.70
  -4  -1  -3  669.03   31.80
  -4  -1  -3  687.53   32.50
  -4  -1  -3  624.94   32.30
  -4  -1  -3  640.84   33.70
   4   1   3  701.73   32.50
   4   1   3  649.34   32.40
   4   1   3  621.94   31.60
   4   1   3  648.34   33.50
  -5  -1  -3  -10.00    8.80
  -5  -1  -3    4.70    5.60
  -5  -1  -3    9.50    4.90
  -5  -1  -3    2.70    5.20
  -5  -1  -3    7.70    3.40
  -5  -1  -3    7.90    3.70
   5   1   3    2.60    3.30
   5   1   3    6.10    4.50
   5   1   3    6.40    6.00
   5   1   3    7.10    3.00
   5   1   3   -6.60    7.70
  -6  -1  -3  177.48   15.40
  -6  -1  -3  135.49   14.80
  -6  -1  -3  186.18   12.20
  -6  -1  -3  178.98   11.60
  -6  -1  -3  187.98   14.50
  -6  -1  -3  132.69   13.80
   6   1   3  162.38   11.70
   6   1   3  132.79   17.00
   6   1   3  171.68   11.10
  -7  -1  -3   91.69   13.80
  -7  -1  -3  131.29   15.60
  -7  -1  -3  124.39   12.40
  -7  -1  -3  119.29   16.70
  -7  -1  -3  108.69   15.20
  -7  -1  -3  117.99   11.60
   7   1   3  113.59   18.30
   7   1   3  102.39   11.40
   7   1   3   92.19   13.60
   7   1   3   95.19   13.60
   7   1   3  105.29   10.50
  -8  -1  -3 1308.37   65.29
  -8  -1  -3 1215.38   64.59
  -8  -1  -3 1398.46   67.69
  -8  -1  -3 1427.26   63.89
  -8  -1  -3 1279.27   63.49
  -8  -1  -3 1409.36   65.69
   8   1   3 1170.68   65.89
   8   1   3 1247.08   66.69
   8   1   3 1316.07   64.99
   8   1   3 1316.57   64.69
   8   1   3 1244.98   63.29
   8   1   3 1339.57   63.49
   8   1   3 1293.97   64.79
  -9  -1  -3  339.07   22.20
  -9  -1  -3  331.37   21.10
  -9  -1  -3  345.27   27.70
  -9  -1  -3  382.86   32.20
  -9  -1  -3  342.07   26.20
  -9  -1  -3  281.77   23.00
   9   1   3  329.97   23.20
   9   1   3  306.77   24.80
   9   1   3  283.47   26.90
   9   1   3  314.27   21.00
 -10  -1  -3  129.29   27.10
 -10  -1  -3  176.08   18.40
 -10  -1  -3  141.89   18.90
 -10  -1  -3  221.98   34.30
  10   1   3  164.18   19.80
  10   1   3  139.59   22.60
  10   1   3  140.29   17.20
 -11  -1  -3   88.19   11.40
  11   1   3  127.59   19.60
  10  -2  -3   -3.80    9.70
  10  -2  -3   -4.80   15.00
  10  -2  -3    2.60   13.00
 -10   2   3   -0.60   10.10
 -10   2   3  -12.50   15.50
   9  -2  -3    2.90    8.40
   9  -2  -3   20.40   12.60
   9  -2  -3   20.50   12.00
  -9   2   3  -13.10   13.50
  -9   2   3    0.90    9.00
   8  -2  -3  -10.70    7.10
   8  -2  -3    3.20   10.10
   8  -2  -3    0.50    9.70
  -8   2   3  -12.60    8.90
  -8   2   3   -5.10   10.30
  -8   2   3  -18.50   11.20
   7  -2  -3   93.69   18.90
   7  -2  -3   86.29   14.90
   7  -2  -3   87.59   13.90
   7  -2  -3   77.19   11.50
   7  -2  -3  104.49   12.70
   7  -2  -3   93.49   23.70
  -7   2   3   75.39   17.80
  -7   2   3  100.29   12.60
  -7   2   3   99.39   14.50
  -7   2   3   80.49   11.50
  -7   2   3  106.09   18.70
  -7   2   3   94.89   16.40
   6  -2  -3  188.88   23.90
   6  -2  -3  221.38   14.90
   6  -2  -3  212.18   16.00
   6  -2  -3  236.98   21.10
   6  -2  -3  211.48   26.40
   6  -2  -3  214.08   19.60
  -6   2   3  215.18   15.00
  -6   2   3  227.48   16.20
  -6   2   3  233.48   17.80
  -6   2   3  244.08   19.20
  -6   2   3  229.98   20.50
   5  -2  -3  962.40   48.70
   5  -2  -3  944.41   47.50
   5  -2  -3  999.30   50.09
   5  -2  -3  996.60   49.30
   5  -2  -3  991.80   47.90
   5  -2  -3  870.91   47.70
   5  -2  -3  987.60   51.69
  -5   2   3  998.10   47.90
  -5   2   3 1025.10   49.00
  -5   2   3  975.40   47.60
  -5   2   3 1053.39   48.60
  -5   2   3  900.51   49.50
  -5   2   3 1011.00   49.30
   4  -2  -3   83.79    8.70
   4  -2  -3   59.69   15.90
   4  -2  -3   72.49   12.30
   4  -2  -3  107.49   12.30
   4  -2  -3   96.49    8.40
   4  -2  -3  102.89   11.20
   4  -2  -3   81.19    9.20
  -4   2   3   89.89   10.60
  -4   2   3   99.19   11.50
  -4   2   3   80.59   12.70
  -4   2   3   95.49    8.40
  -4   2   3   85.39    9.30
  -4   2   3   91.29   11.50
   3  -2  -3 1224.68   59.89
   3  -2  -3 1283.97   59.99
   3  -2  -3 1224.88   60.19
   3  -2  -3 1247.48   61.99
   3  -2  -3 1286.37   61.29
   3  -2  -3 1256.27   60.69
   3  -2  -3 1207.68   60.49
  -3   2   3 1273.57   60.49
  -3   2   3 1274.47   59.99
  -3   2   3 1267.07   59.89
  -3   2   3 1296.67   60.49
  -3   2   3 1206.88   61.09
   2  -2  -3 5879.91  287.57
   2  -2  -3 5916.71  288.37
   2  -2  -3 5948.21  287.67
   2  -2  -3 6135.99  287.67
   2  -2  -3 6015.30  287.37
  -2   2   3 6065.79  287.57
  -2   2   3 6206.58  287.37
  -2   2   3 6094.29  287.37
  -2   2   3 6020.30  288.17
  -2   2   3 6480.55  287.87
  -2   2   3 6149.78  287.67
   1  -2  -3  316.07   19.40
   1  -2  -3  363.26   18.40
   1  -2  -3  379.36   19.20
  -1   2   3  394.46   18.60
  -1   2   3  360.06   19.00
   0  -2  -3  974.30   48.00
   0  -2  -3 1022.60   48.70
   0  -2  -3 1002.40   48.20
   0   2   3  976.50   48.20
   0   2   3 1028.70   48.10
  -1  -2  -3  438.76   21.60
  -1  -2  -3  429.16   21.90
   1   2   3  439.36   21.60
  -2  -2  -3 2979.20  141.79
  -2  -2  -3 2988.50  141.99
  -2  -2  -3 2986.30  141.79
   2   2   3 2971.20  141.79
   2   2   3 3028.80  141.79
  -3  -2  -3 3472.35  175.28
  -3  -2  -3 3725.13  175.38
  -3  -2  -3 3690.13  175.68
   3   2   3 3901.41  175.58
   3   2   3 3667.43  175.88
   3   2   3 3752.72  175.38
   3   2   3 3710.13  175.68
  -4  -2  -3   91.79   11.90
  -4  -2  -3   89.39    9.30
  -4  -2  -3  100.99    8.40
   4   2   3   93.39   11.50
   4   2   3   93.09   12.10
   4   2   3  103.39    9.20
  -5  -2  -3   16.00    4.80
  -5  -2  -3   27.80    8.80
  -5  -2  -3   13.60    6.80
   5   2   3   27.50    6.40
  -6  -2  -3  701.93   39.70
  -6  -2  -3  843.22   38.10
  -6  -2  -3  775.12   38.90
  -6  -2  -3  785.22   41.40
  -6  -2  -3  714.43   39.40
   6   2   3  810.32   39.10
   6   2   3  790.02   40.60
  -7  -2  -3   96.49   21.60
  -7  -2  -3  150.38   12.80
  -7  -2  -3  141.69   11.90
  -7  -2  -3  115.79   21.00
  -7  -2  -3  158.68   15.60
  -7  -2  -3  109.69   14.60
   7   2   3  130.09   11.60
   7   2   3  148.39   14.30
   7   2   3  156.88   18.50
   7   2   3  146.99   11.30
  -8  -2  -3   -2.10   15.30
  -8  -2  -3   -3.00    9.50
  -8  -2  -3   -6.30    6.70
  -8  -2  -3    0.30    6.20
  -8  -2  -3    4.20   18.90
  -8  -2  -3    3.10    5.80
   8   2   3    3.20    7.30
   8   2   3   -0.90    5.20
   8   2   3    1.00    4.80
   8   2   3    1.90    8.20
  -9  -2  -3  -12.40   11.00
  -9  -2  -3    6.50    6.60
  -9  -2  -3   -4.30    7.10
  -9  -2  -3   10.90   17.00
  -9  -2  -3    4.40    9.80
  -9  -2  -3   41.50   21.30
   9   2   3  -11.40    6.10
   9   2   3    1.20   10.30
 -10  -2  -3   18.60   12.40
 -10  -2  -3   11.70    8.20
 -10  -2  -3   20.90    7.80
 -10  -2  -3   49.99   19.70
  10   2   3   32.30   14.20
  10   2   3   16.40    7.30
 -11  -2  -3   50.59   22.80
 -11  -2  -3    8.80    9.10
  11   2   3   29.30   15.70
  11   2   3    8.50    8.10
   9  -3  -3    9.00   12.90
   9  -3  -3  -14.20   13.90
   9  -3  -3   -7.10    9.10
  -9   3   3   -8.10    9.00
   8  -3  -3  222.18   20.30
   8  -3  -3  229.38   26.60
   8  -3  -3  227.08   24.40
  -8   3   3  239.28   20.80
  -8   3   3  231.48   27.60
   7  -3  -3  102.49   22.00
   7  -3  -3  129.79   13.80
   7  -3  -3  124.09   15.70
   7  -3  -3  118.89   21.10
   7  -3  -3  135.89   27.40
  -7   3   3  113.49   15.90
  -7   3   3  115.49   22.30
  -7   3   3  126.59   20.70
   6  -3  -3  138.89   14.60
   6  -3  -3  158.98   14.60
   6  -3  -3  158.08   13.30
   6  -3  -3  142.19   20.00
   6  -3  -3  153.38   23.50
   6  -3  -3  161.38   20.10
  -6   3   3  178.78   16.30
  -6   3   3  161.08   15.10
  -6   3   3  161.18   18.10
  -6   3   3  161.78   13.40
  -6   3   3  165.58   19.90
   5  -3  -3   41.60    5.70
   5  -3  -3   30.20    5.30
   5  -3  -3   40.30   12.80
   5  -3  -3   39.80    8.50
   5  -3  -3   40.10    7.20
   5  -3  -3   60.59    9.50
   5  -3  -3   58.49   15.40
  -5   3   3   27.10    7.00
  -5   3   3   42.20    8.10
  -5   3   3   37.10    6.00
  -5   3   3   38.90    5.70
   4  -3  -3  170.78   15.50
   4  -3  -3  161.28   13.60
   4  -3  -3  147.69   14.80
   4  -3  -3  162.68   11.20
   4  -3  -3  165.68   12.20
   4  -3  -3  148.19   12.20
  -4   3   3  162.48   11.90
  -4   3   3  174.48   14.20
  -4   3   3  160.48   15.10
  -4   3   3  170.58   11.80
  -4   3   3  148.69   15.00
  -4   3   3  173.88   13.20
   3  -3  -3  215.28   13.50
   3  -3  -3  185.98   17.10
   3  -3  -3  209.78   15.10
   3  -3  -3  208.68   14.10
   3  -3  -3  231.58   15.80
   3  -3  -3  220.28   12.50
   3  -3  -3  228.08   13.00
  -3   3   3  206.38   14.90
  -3   3   3  235.88   14.40
  -3   3   3  231.68   13.90
  -3   3   3  218.58   12.80
  -3   3   3  210.68   15.40
  -3   3   3  225.88   12.60
   2  -3  -3  256.77   18.40
   2  -3  -3  283.37   15.90
   2  -3  -3  290.37   15.40
   2  -3  -3  287.87   16.80
   2  -3  -3  306.37   17.50
   2  -3  -3  286.27   15.00
  -2   3   3  298.07   15.10
  -2   3   3  285.67   15.20
  -2   3   3  305.57   16.10
  -2   3   3  288.37   17.10
   1  -3  -3 2217.18  103.69
   1  -3  -3 2082.49  102.99
   1  -3  -3 2164.88  102.99
  -1   3   3 2255.07  103.09
  -1   3   3 2106.59  103.49
   0  -3  -3  146.49    9.20
   0  -3  -3  157.68   10.20
   0  -3  -3  139.19    8.70
   0   3   3  134.39   10.00
   0   3   3  156.18    9.10
  -1  -3  -3    1.50    3.70
  -1  -3  -3    4.70    1.80
  -1  -3  -3   -5.80    4.30
  -1  -3  -3    2.20    2.40
  -1  -3  -3    4.60    3.10
   1   3   3    4.80    2.10
   1   3   3    3.40    2.40
  -2  -3  -3 1486.45   70.39
  -2  -3  -3 1495.95   70.29
  -2  -3  -3 1453.65   70.49
  -2  -3  -3 1411.96   69.99
   2   3   3 1528.45   70.99
   2   3   3 1478.05   70.29
   2   3   3 1451.55   70.39
  -3  -3  -3 1194.58   55.09
  -3  -3  -3 1085.19   53.09
  -3  -3  -3 1061.39   53.09
  -3  -3  -3 1069.29   53.39
   3   3   3 1113.89   53.19
   3   3   3 1093.89   53.09
  -4  -3  -3 2721.93  131.49
  -4  -3  -3 2694.03  131.49
  -4  -3  -3 2734.53  130.99
   4   3   3 2880.11  131.19
   4   3   3 2750.02  131.79
  -5  -3  -3  318.97   18.80
  -5  -3  -3  315.77   20.70
  -5  -3  -3  298.17   18.60
  -5  -3  -3  322.97   17.90
   5   3   3  313.97   21.20
   5   3   3  332.67   18.40
  -6  -3  -3  737.33   42.60
  -6  -3  -3  854.61   43.90
  -6  -3  -3  895.21   44.50
   6   3   3  853.01   44.80
   6   3   3  887.81   42.40
  -7  -3  -3  990.20   55.49
  -7  -3  -3 1221.98   57.89
  -7  -3  -3 1090.59   55.69
   7   3   3 1165.58   58.09
  -8  -3  -3   24.90   18.80
  -8  -3  -3    8.50   15.00
  -8  -3  -3    4.50    6.80
  -8  -3  -3   -3.00   10.20
   8   3   3    5.80    5.10
   8   3   3   17.20    9.70
  -9  -3  -3    8.30   17.50
  -9  -3  -3   -9.70    6.80
  -9  -3  -3   24.50   22.80
  -9  -3  -3   -4.70   11.70
  -9  -3  -3    6.40    7.70
  -9  -3  -3   -1.70    7.70
   9   3   3   -0.20   10.00
   9   3   3  -13.20   11.10
 -10  -3  -3  275.27   27.90
 -10  -3  -3  296.27   33.40
 -10  -3  -3  211.78   20.10
  10   3   3  241.58   22.60
  10   3   3  208.18   17.90
  10   3   3  210.28   31.50
 -11  -3  -3   43.30   22.00
  11   3   3   17.50   12.70
   9  -4  -3   16.50    9.50
   9  -4  -3   12.40   15.00
   9  -4  -3   27.10   14.30
  -9   4   3    1.40   15.00
  -9   4   3    9.60   10.20
   8  -4  -3   20.70   11.30
   8  -4  -3    4.70    8.80
   8  -4  -3   -3.30   13.20
   8  -4  -3    8.70   11.80
   8  -4  -3    0.30    7.10
  -8   4   3   -0.50    8.60
  -8   4   3   -6.30   13.30
   7  -4  -3  352.86   23.40
   7  -4  -3  331.67   21.80
   7  -4  -3  312.67   22.20
   7  -4  -3  326.37   28.80
   7  -4  -3  329.87   29.00
  -7   4   3  367.96   29.50
  -7   4   3  360.16   23.50
   6  -4  -3  853.91   49.80
   6  -4  -3  727.53   39.60
   6  -4  -3  797.32   43.40
  -6   4   3  719.73   39.70
  -6   4   3  777.12   40.30
  -6   4   3  810.22   43.40
  -6   4   3  761.02   42.30
  -6   4   3  832.12   41.10
   5  -4  -3    2.60    4.90
   5  -4  -3    0.80    7.00
   5  -4  -3   -7.50    8.70
   5  -4  -3   -2.80    5.70
   5  -4  -3    6.50    8.20
   5  -4  -3    5.90   12.40
  -5   4   3   -3.00    7.50
  -5   4   3    5.70    5.50
  -5   4   3   -5.50    5.60
  -5   4   3   -9.30    8.40
  -5   4   3   -2.00    6.70
  -5   4   3    1.10    4.90
   4  -4  -3   -9.80   10.20
   4  -4  -3   -0.70    6.20
   4  -4  -3    1.30    4.30
   4  -4  -3   -3.90    4.90
   4  -4  -3    2.80    6.80
  -4   4   3    3.80    4.80
  -4   4   3   -9.80    7.10
  -4   4   3   -1.60    4.20
  -4   4   3   -2.80    4.80
  -4   4   3    1.00    6.30
  -4   4   3    0.10    5.90
   3  -4  -3  158.28   10.90
   3  -4  -3  185.18   15.20
   3  -4  -3  161.78   13.50
   3  -4  -3  148.59   17.20
   3  -4  -3  164.98   14.90
   3  -4  -3  167.08   11.80
  -3   4   3  191.28   13.10
  -3   4   3  168.38   12.00
  -3   4   3  187.58   15.50
  -3   4   3  163.68   11.70
  -3   4   3  167.08   14.30
  -3   4   3  152.48   16.90
   2  -4  -3 1061.69   50.19
   2  -4  -3 1007.60   48.30
   2  -4  -3  976.30   48.80
   2  -4  -3 1008.20   49.00
   2  -4  -3  999.80   48.20
   2  -4  -3  965.20   48.80
  -2   4   3  962.30   49.70
  -2   4   3 1055.09   49.00
   1  -4  -3  687.03   33.90
   1  -4  -3  715.73   35.00
   1  -4  -3  677.33   34.10
  -1   4   3  699.53   34.00
  -1   4   3  666.23   34.70
   0  -4  -3   30.80    6.80
   0  -4  -3   34.00    6.00
   0  -4  -3   43.40    8.00
   0   4   3   34.20    7.70
   0   4   3   38.30    6.30
  -1  -4  -3   29.30    6.50
  -1  -4  -3   27.30    5.50
  -1  -4  -3   37.80    5.50
  -1  -4  -3   23.90    5.70
  -1  -4  -3   36.30    7.60
  -1  -4  -3   36.70    5.00
   1   4   3   43.40    5.80
  -2  -4  -3  701.73   35.70
  -2  -4  -3  758.62   35.60
  -2  -4  -3  696.83   35.60
  -2  -4  -3  712.33   35.10
  -2  -4  -3  751.62   35.90
   2   4   3  720.73   36.00
   2   4   3  721.63   35.20
   2   4   3  737.83   37.00
  -3  -4  -3  144.19   10.20
  -3  -4  -3  171.58   14.20
  -3  -4  -3  160.98   10.30
  -3  -4  -3  147.29   11.20
   3   4   3  158.18   13.60
   3   4   3  161.98   10.50
   3   4   3  156.68   12.20
   3   4   3  149.59   10.60
  -4  -4  -3   56.49   12.20
  -4  -4  -3   48.20   10.30
  -4  -4  -3   57.79    7.50
   4   4   3   54.79    8.70
   4   4   3   64.29   10.90
  -5  -4  -3  510.95   26.40
  -5  -4  -3  483.95   27.20
  -5  -4  -3  509.25   28.80
   5   4   3  521.15   28.30
   5   4   3  542.05   27.10
   5   4   3  505.55   29.20
  -6  -4  -3   67.39   12.20
  -6  -4  -3   65.99   11.00
  -6  -4  -3   75.09   17.00
   6   4   3   79.99   15.70
   6   4   3   70.59   12.40
   6   4   3   79.99   17.70
  -7  -4  -3   48.20   14.00
  -7  -4  -3   53.09   13.80
   7   4   3   36.40    9.10
  -8  -4  -3 1679.53   78.49
  -8  -4  -3 1410.36   75.99
   8   4   3 1565.44   78.69
   8   4   3 1409.76   76.39
   8   4   3 1657.93   75.89
  -9  -4  -3  112.19   27.30
   9   4   3  100.39   17.90
 -10  -4  -3   11.30   19.90
  10   4   3   16.00   13.40
  10   4   3   -3.10    6.10
 -11  -4  -3  156.08   35.90
  11   4   3  122.79   22.40
   8  -5  -3   -2.50    9.10
   8  -5  -3    5.80   13.00
   8  -5  -3   -9.50   14.00
  -8   5   3  -10.70   14.10
  -8   5   3   -5.80    9.40
   7  -5  -3   -0.50   12.60
   7  -5  -3   16.00    7.80
   7  -5  -3   18.90   11.70
   7  -5  -3   13.90   11.00
   7  -5  -3    5.20    8.00
  -7   5   3    6.60    9.00
  -7   5   3    3.50   12.20
   6  -5  -3  210.38   16.90
   6  -5  -3  211.38   26.90
   6  -5  -3  215.68   18.60
  -6   5   3  205.88   18.90
  -6   5   3  203.98   24.60
  -6   5   3  238.18   19.70
   5  -5  -3  752.32   39.70
   5  -5  -3  671.63   37.70
   5  -5  -3  655.13   41.70
   5  -5  -3  682.43   36.10
   5  -5  -3  669.83   40.40
   5  -5  -3  728.83   36.50
  -5   5   3  663.43   35.80
  -5   5   3  680.63   37.90
  -5   5   3  750.72   37.10
  -5   5   3  739.63   39.50
  -5   5   3  710.83   36.30
   4  -5  -3   99.49   14.90
   4  -5  -3   99.59   12.50
   4  -5  -3   79.59   12.50
   4  -5  -3   87.29   10.40
  -4   5   3   91.59   14.60
  -4   5   3   93.79   15.50
  -4   5   3   77.29   17.00
  -4   5   3   95.09   10.90
  -4   5   3   76.49   12.10
   3  -5  -3  368.56   26.00
   3  -5  -3  448.46   25.10
   3  -5  -3  381.96   22.90
   3  -5  -3  399.16   21.70
   3  -5  -3  392.06   21.00
  -3   5   3  435.56   22.50
  -3   5   3  368.26   23.90
  -3   5   3  383.46   21.50
  -3   5   3  390.36   23.80
  -3   5   3  408.06   21.10
   2  -5  -3  777.92   38.40
   2  -5  -3  834.62   40.90
   2  -5  -3  767.22   39.30
   2  -5  -3  817.82   40.00
  -2   5   3  817.62   39.30
  -2   5   3  768.92   38.50
  -2   5   3  744.13   40.30
   1  -5  -3  691.73   34.60
   1  -5  -3  647.94   33.10
   1  -5  -3  666.23   33.60
  -1   5   3  634.84   34.40
  -1   5   3  687.63   33.30
   0  -5  -3 2717.43  125.99
   0  -5  -3 2532.75  125.69
   0  -5  -3 2797.12  126.49
   0   5   3 2544.95  126.29
   0   5   3 2634.14  125.79
  -1  -5  -3  279.27   15.60
  -1  -5  -3  248.68   15.70
  -1  -5  -3  246.28   17.80
   1   5   3  252.57   14.40
  -2  -5  -3 2573.64  117.39
  -2  -5  -3 2355.06  116.19
  -2  -5  -3 2447.46  116.59
  -2  -5  -3 2342.57  116.49
  -2  -5  -3 2552.44  116.49
  -2  -5  -3 2425.66  116.49
   2   5   3 2417.26  116.59
  -3  -5  -3 2287.57  114.09
  -3  -5  -3 2348.86  114.59
  -3  -5  -3 2397.46  113.99
  -3  -5  -3 2537.65  115.49
  -3  -5  -3 2537.55  114.29
  -3  -5  -3 2351.16  114.29
   3   5   3 2359.66  114.59
   3   5   3 2358.16  114.29
  -4  -5  -3  158.98   15.10
  -4  -5  -3  162.28   15.90
  -4  -5  -3  156.18   11.20
  -4  -5  -3  145.39   16.80
  -4  -5  -3  134.39   12.40
  -4  -5  -3  120.89   12.30
   4   5   3  149.19   16.30
   4   5   3  143.89   11.80
   4   5   3  152.88   14.10
  -5  -5  -3   16.70   10.10
  -5  -5  -3    4.30   14.10
  -5  -5  -3   13.70    6.00
   5   5   3   11.10    6.80
   5   5   3   15.40    8.80
  -6  -5  -3  312.27   23.30
  -6  -5  -3  272.17   19.50
  -6  -5  -3  304.67   23.20
   6   5   3  323.07   19.50
   6   5   3  303.67   22.10
   6   5   3  279.67   23.90
  -7  -5  -3  121.09   24.20
  -7  -5  -3   92.09   21.30
  -7  -5  -3   77.79   14.30
   7   5   3   79.59   16.20
   7   5   3  104.59   18.90
   7   5   3   83.19   14.50
   7   5   3   95.09   21.50
  -8  -5  -3   27.40   16.00
  -8  -5  -3  -11.50   10.90
  -8  -5  -3   12.90   15.40
   8   5   3    5.90    9.90
   8   5   3    8.70   13.60
   8   5   3   -3.90   10.20
  -9  -5  -3  172.08   28.70
  -9  -5  -3  174.58   33.80
   9   5   3  133.09   20.20
 -10  -5  -3   63.29   20.20
  10   5   3   41.20   14.40
 -11  -5  -3   49.30   22.70
  11   5   3   14.10   16.10
   7  -6  -3   -4.80    8.80
   7  -6  -3    0.90   12.10
   7  -6  -3   -8.50   13.00
  -7   6   3   -7.80    8.70
  -7   6   3  -18.80   13.10
  -7   6   3   -7.50    8.60
   6  -6  -3  127.29   22.20
   6  -6  -3  130.89   15.80
   6  -6  -3  123.49   24.30
   6  -6  -3  133.89   24.60
   6  -6  -3  137.79   18.00
  -6   6   3  155.78   24.70
  -6   6   3  139.39   18.80
  -6   6   3  121.09   17.90
   5  -6  -3   34.10   11.80
   5  -6  -3   29.50    9.20
   5  -6  -3   30.90    7.40
   5  -6  -3   18.50   10.30
   5  -6  -3   26.80    6.00
  -5   6   3   34.10    7.20
  -5   6   3   24.30    7.30
   4  -6  -3    3.80    9.10
   4  -6  -3    1.20    5.10
   4  -6  -3    4.90    7.80
   4  -6  -3   -4.10    6.20
   4  -6  -3   -6.90    9.30
   4  -6  -3   12.70   12.60
  -4   6   3    0.70    5.90
  -4   6   3    0.10    7.70
  -4   6   3    2.10    6.00
  -4   6   3   -1.00   10.30
  -4   6   3   -5.20    7.40
  -4   6   3    4.20    5.00
   3  -6  -3  302.37   20.20
   3  -6  -3  314.27   18.80
   3  -6  -3  333.07   19.90
   3  -6  -3  332.87   23.20
   3  -6  -3  375.36   24.10
  -3   6   3  384.46   20.50
  -3   6   3  290.87   22.10
  -3   6   3  311.97   18.70
  -3   6   3  327.87   19.50
   2  -6  -3   22.50    7.00
   2  -6  -3   14.60    4.70
  -2   6   3   17.70    6.20
  -2   6   3   25.70    5.10
   1  -6  -3  230.38   15.40
   1  -6  -3  273.57   18.10
  -1   6   3  256.07   15.80
  -1   6   3  230.48   17.00
   0  -6  -3  371.66   23.30
   0  -6  -3  396.96   22.30
   0  -6  -3  392.56   23.80
   0   6   3  371.86   20.70
  -1  -6  -3  599.04   33.10
  -1  -6  -3  685.83   33.10
  -1  -6  -3  653.43   34.90
  -1  -6  -3  698.03   33.40
  -1  -6  -3  641.04   32.40
   1   6   3  662.33   32.50
   1   6   3  621.84   33.10
  -2  -6  -3  155.18   12.10
  -2  -6  -3  154.28   10.90
  -2  -6  -3  148.59   16.00
  -2  -6  -3  138.59   11.90
  -2  -6  -3  154.88   11.90
   2   6   3  152.78   13.20
  -3  -6  -3  591.84   32.70
  -3  -6  -3  701.33   35.90
  -3  -6  -3  650.33   36.30
  -3  -6  -3  656.13   32.50
  -3  -6  -3  631.14   33.40
   3   6   3  657.03   34.20
   3   6   3  682.83   35.20
  -4  -6  -3 3870.41  181.98
  -4  -6  -3 3950.00  180.58
  -4  -6  -3 3895.91  184.58
  -4  -6  -3 3734.13  180.98
  -4  -6  -3 3637.54  181.58
  -4  -6  -3 3828.12  180.38
   4   6   3 3717.93  181.68
   4   6   3 3743.83  180.58
   4   6   3 3839.52  181.28
  -5  -6  -3  561.04   32.20
  -5  -6  -3  540.75   32.80
  -5  -6  -3  510.45   28.40
  -5  -6  -3  533.85   29.80
  -5  -6  -3  564.64   32.00
   5   6   3  560.04   29.20
   5   6   3  559.54   31.20
   5   6   3  560.34   32.80
  -6  -6  -3  230.48   22.40
  -6  -6  -3  296.67   25.90
  -6  -6  -3  235.88   23.00
  -6  -6  -3  208.38   18.40
   6   6   3  256.07   18.00
   6   6   3  243.98   21.20
  -7  -6  -3  340.57   27.60
  -7  -6  -3  362.26   28.30
  -7  -6  -3  312.37   23.40
   7   6   3  359.96   25.10
   7   6   3  411.86   23.70
   7   6   3  379.56   26.50
   7   6   3  346.27   28.50
  -8  -6  -3   25.00   17.20
  -8  -6  -3    9.70   13.40
  -8  -6  -3   -8.10   12.30
   8   6   3   15.20   10.40
   8   6   3   24.30   18.60
   8   6   3    5.60   11.60
   8   6   3    0.50   11.00
  -9  -6  -3  461.85   38.40
  -9  -6  -3  413.26   34.90
   9   6   3  377.96   28.10
   9   6   3  423.96   32.50
 -10  -6  -3   31.40   23.10
 -10  -6  -3   16.50   21.20
  10   6   3    8.30   13.30
  10   6   3   -9.40   14.60
 -11  -6  -3   73.59   23.50
  11   6   3   18.00   16.50
  11   6   3   45.10   17.40
   7  -7  -3   40.10   10.00
   7  -7  -3   39.30   15.30
   7  -7  -3   30.90   14.50
  -7   7   3   37.90   10.10
   6  -7  -3   17.90    7.80
   6  -7  -3   18.50   13.40
   6  -7  -3   17.20   12.50
   6  -7  -3   10.80    8.40
  -6   7   3    6.60   12.70
  -6   7   3   16.30    8.30
  -6   7   3   11.50    8.50
   5  -7  -3  207.48   25.90
   5  -7  -3  194.08   18.30
   5  -7  -3  177.48   25.00
   5  -7  -3  178.88   21.90
   5  -7  -3  171.18   16.30
  -5   7   3  180.28   18.40
  -5   7   3  171.78   19.30
   4  -7  -3  160.68   15.80
   4  -7  -3  124.89   21.50
   4  -7  -3  139.69   14.00
   4  -7  -3  151.08   18.70
  -4   7   3  129.79   20.40
  -4   7   3  147.59   15.70
   3  -7  -3   39.00    6.60
   3  -7  -3   75.89   18.80
   3  -7  -3   55.49    6.80
   3  -7  -3   48.50    5.90
   3  -7  -3   52.09   10.00
  -3   7   3   58.19    6.60
  -3   7   3   40.90    5.50
  -3   7   3   44.90    6.90
  -3   7   3   38.30    8.30
   2  -7  -3 1601.84   73.69
   2  -7  -3 1372.26   71.49
  -2   7   3 1531.55   71.59
  -2   7   3 1373.46   72.89
   1  -7  -3  641.04   34.00
   1  -7  -3  573.94   31.70
  -1   7   3  634.54   31.90
  -1   7   3  592.44   33.20
   0  -7  -3   98.79   13.70
   0  -7  -3   93.19   10.60
   0  -7  -3   78.59   12.20
   0   7   3   79.29   12.30
   0   7   3  105.59   10.80
  -1  -7  -3   88.49   10.10
  -1  -7  -3   81.89   11.90
  -1  -7  -3   97.69   12.40
  -1  -7  -3   76.99   16.30
   1   7   3   77.39   13.00
  -2  -7  -3   31.20   13.50
  -2  -7  -3   17.40    6.90
  -2  -7  -3   25.70    5.30
  -2  -7  -3   22.50    7.00
  -2  -7  -3   28.60    4.50
   2   7   3   38.10    8.60
  -3  -7  -3  785.92   41.10
  -3  -7  -3  771.32   41.00
  -3  -7  -3  753.32   43.40
  -3  -7  -3  748.13   38.50
  -3  -7  -3  742.53   37.70
  -3  -7  -3  782.12   38.30
  -3  -7  -3  662.23   38.40
   3   7   3  773.72   40.50
   3   7   3  787.02   39.30
  -4  -7  -3  133.39   20.30
  -4  -7  -3  104.89   10.90
  -4  -7  -3  129.39   18.50
  -4  -7  -3  119.49   13.80
  -4  -7  -3  121.79   12.70
  -4  -7  -3  128.69   11.70
   4   7   3  132.79   16.30
  -5  -7  -3  533.35   31.90
  -5  -7  -3  477.95   31.70
  -5  -7  -3  440.06   25.40
  -5  -7  -3  448.06   27.30
  -5  -7  -3  450.35   25.30
  -5  -7  -3  467.55   30.10
   5   7   3  484.35   26.60
   5   7   3  474.45   31.20
   5   7   3  500.55   29.00
  -6  -7  -3  159.88   14.00
  -6  -7  -3  141.19   21.40
  -6  -7  -3  175.38   22.60
  -6  -7  -3  136.39   16.80
   6   7   3  174.48   16.50
   6   7   3  163.08   20.10
   6   7   3  187.08   23.10
  -7  -7  -3   53.29   12.50
  -7  -7  -3   91.09   16.30
   7   7   3   83.19   15.60
   7   7   3   79.29   20.20
  -8  -7  -3  509.85   39.10
  -8  -7  -3  394.26   33.40
   8   7   3  383.76   29.70
   8   7   3  391.36   34.90
   8   7   3  454.95   27.90
   8   7   3  419.16   31.60
  -9  -7  -3   77.39   31.00
   9   7   3   93.39   20.50
   9   7   3  109.19   25.40
 -10  -7  -3   35.70   22.30
 -10  -7  -3    2.20   20.90
  10   7   3    8.30   13.80
  10   7   3   17.30   18.20
 -11  -7  -3   40.00   25.20
  11   7   3   -2.20   16.30
  11   7   3    6.10   15.80
   6  -8  -3   29.20   13.80
   6  -8  -3   37.30    9.80
   6  -8  -3   34.20   15.50
  -6   8   3   27.70   12.10
  -6   8   3   36.40    9.20
   5  -8  -3   40.60   12.90
   5  -8  -3   38.30    8.90
   5  -8  -3   25.00   11.20
   5  -8  -3   52.39   14.00
  -5   8   3   46.40    8.50
  -5   8   3   41.20   12.20
  -5   8   3   36.40    8.90
   4  -8  -3   60.99   10.70
   4  -8  -3   50.39   11.60
   4  -8  -3   57.29    8.40
   4  -8  -3   38.60   10.50
  -4   8   3   56.49    8.30
  -4   8   3   50.69    8.10
   3  -8  -3   14.50   10.20
   3  -8  -3   23.20    7.10
   3  -8  -3   28.70   10.70
  -3   8   3   10.10    6.80
   2  -8  -3    8.40    6.20
   2  -8  -3   12.80    9.10
  -2   8   3    7.00    7.70
  -2   8   3    7.20    6.00
   1  -8  -3 1442.26   74.49
   1  -8  -3 1669.53   76.49
  -1   8   3 1480.75   75.69
  -1   8   3 1525.55   74.39
   0  -8  -3 1584.94   79.19
   0  -8  -3 1813.42   80.69
   0   8   3 1644.74   79.19
   0   8   3 1584.14   79.99
   0   8   3 1550.34   81.19
  -1  -8  -3   18.60    9.10
  -1  -8  -3   21.40    7.90
  -1  -8  -3   27.70    6.00
  -1  -8  -3   33.40    6.60
  -1  -8  -3   16.60    5.30
   1   8   3   27.80    5.70
  -2  -8  -3 1631.24   83.19
  -2  -8  -3 1716.73   80.69
  -2  -8  -3 1600.54   82.39
  -2  -8  -3 1571.64   80.09
  -2  -8  -3 1689.33   80.59
  -2  -8  -3 1697.73   80.49
   2   8   3 1710.83   80.69
  -3  -8  -3 2501.45  115.49
  -3  -8  -3 2231.68  111.49
  -3  -8  -3 2500.75  111.99
  -3  -8  -3 2285.77  113.69
  -3  -8  -3 2270.67  113.79
  -3  -8  -3 2026.50  111.59
   3   8   3 2484.45  112.39
  -4  -8  -3   12.30   14.30
  -4  -8  -3   15.00    9.40
  -4  -8  -3    3.90    5.60
  -4  -8  -3   -0.90    7.10
  -4  -8  -3    5.10    6.50
  -4  -8  -3    7.60    5.20
  -4  -8  -3    7.40    8.80
   4   8   3   17.80   10.70
  -5  -8  -3  207.48   20.90
  -5  -8  -3  204.88   23.00
  -5  -8  -3  187.48   15.50
  -5  -8  -3  199.58   18.00
   5   8   3  227.28   20.70
   5   8   3  192.28   16.40
  -6  -8  -3    7.70   15.60
  -6  -8  -3   35.20   14.50
  -6  -8  -3   12.10   10.90
  -6  -8  -3    7.50   11.50
  -6  -8  -3   -1.00    7.50
  -6  -8  -3    4.80    5.50
   6   8   3    9.10    9.30
   6   8   3   25.20   12.90
  -7  -8  -3  132.49   31.00
   7   8   3  160.78   22.20
   7   8   3  124.59   17.70
  -8  -8  -3   30.80   18.50
  -8  -8  -3   52.09   23.30
   8   8   3   23.90   15.40
   8   8   3   27.30   11.80
  -9  -8  -3   54.89   20.50
  -9  -8  -3   64.69   22.20
   9   8   3   46.50   17.40
   9   8   3   49.80   13.70
 -10  -8  -3   56.59   25.50
 -10  -8  -3   39.80   22.00
  10   8   3   31.30   15.40
  10   8   3   33.30   19.30
   5  -9  -3   87.49   16.60
   5  -9  -3   89.69   11.40
   5  -9  -3  100.39   27.30
  -5   9   3   70.89   10.30
  -5   9   3   80.29   11.00
   4  -9  -3   24.10    9.40
   4  -9  -3   26.00   12.30
  -4   9   3   16.00    8.50
  -4   9   3   27.00    8.10
   3  -9  -3  129.69   17.30
   3  -9  -3   96.69   22.80
  -3   9   3  109.29   17.00
  -3   9   3  115.39   27.30
   2  -9  -3   21.20   14.90
  -2   9   3   17.40    9.00
  -2   9   3   21.00    6.70
   1  -9  -3  118.59   20.30
  -1   9   3  113.09   14.60
  -1   9   3   88.59   17.50
   0  -9  -3  422.46   26.80
   0  -9  -3  387.56   23.60
   0  -9  -3  373.96   23.10
   0  -9  -3  391.96   25.30
   0   9   3  363.06   24.50
  -1  -9  -3 1096.69   52.19
  -1  -9  -3 1175.78   52.69
  -1  -9  -3  957.80   50.69
  -1  -9  -3  975.00   51.19
   1   9   3  937.31   53.49
   1   9   3 1002.00   54.19
  -2  -9  -3   33.90    7.80
  -2  -9  -3   29.70    6.90
  -2  -9  -3   14.00    5.90
  -2  -9  -3   23.70    6.80
  -3  -9  -3  139.29   15.10
  -3  -9  -3  128.39   29.60
  -3  -9  -3  163.88   16.50
  -3  -9  -3  142.59   12.90
  -3  -9  -3  153.98   27.70
  -3  -9  -3  155.58   23.40
   3   9   3  159.28   18.00
   3   9   3  129.89   21.50
  -4  -9  -3  453.25   26.10
  -4  -9  -3  480.85   35.60
  -4  -9  -3  354.06   24.80
  -4  -9  -3  388.96   23.40
  -4  -9  -3  418.06   31.20
  -4  -9  -3  459.35   26.80
   4   9   3  463.55   27.90
  -5  -9  -3   94.59   15.00
  -5  -9  -3   95.09   17.50
  -5  -9  -3   75.99   14.90
   5   9   3  102.09   19.30
  -6  -9  -3   10.60   13.60
  -6  -9  -3   16.50   17.10
  -6  -9  -3   -2.70    6.30
   6   9   3    8.00    9.40
  -7  -9  -3   -0.80    9.90
  -7  -9  -3    3.10   18.50
   7   9   3   -0.10   10.20
   7   9   3    6.90   14.60
  -8  -9  -3  147.09   34.00
  -8  -9  -3   96.99   21.00
   8   9   3   94.59   14.10
   8   9   3  111.79   25.20
  -9  -9  -3  235.18   34.20
  -9  -9  -3  287.67   40.30
   9   9   3  251.47   23.80
   9   9   3  254.67   30.90
 -10  -9  -3   40.00   23.50
 -10  -9  -3   41.40   24.70
  10   9   3   29.70   13.70
  10   9   3    7.70   17.20
  10   9   3   45.50   19.70
   4 -10  -3   18.90   13.00
   4 -10  -3   23.20   10.10
  -4  10   3    9.90    8.70
  -4  10   3    1.90   12.50
   3 -10  -3   24.80   12.50
   2 -10  -3  322.27   28.10
  -1  10   3   36.60    9.50
   0 -10  -3   35.40    9.50
   0  10   3   26.10    8.70
   0  10   3   33.00    8.00
  -1 -10  -3   -7.40    8.50
  -1 -10  -3    8.00    8.30
   1  10   3    0.60    6.40
   1  10   3   -1.70    7.90
  -2 -10  -3   28.20    8.10
  -3 -10  -3  133.49   13.30
  -3 -10  -3  145.29   18.70
   3  10   3  157.48   23.10
   3  10   3  163.78   19.00
  -4 -10  -3    6.10    8.30
  -4 -10  -3    0.30    7.20
   4  10   3   11.30   12.40
   4  10   3    9.20    8.20
  -5 -10  -3  311.27   49.60
  -5 -10  -3  254.47   17.80
  -5 -10  -3  264.97   21.10
  -6 -10  -3   51.89   19.60
   6  10   3   44.30   14.70
  -7 -10  -3  -10.30   19.70
  -7 -10  -3   16.20   20.10
   7  10   3   -2.10   15.30
   7  10   3  -10.60   10.30
  -8 -10  -3   65.99   22.30
  -8 -10  -3   82.79   22.80
   8  10   3   83.39   18.20
   8  10   3   67.09   17.70
  -9 -10  -3   52.59   24.60
  -9 -10  -3   45.20   22.80
   9  10   3   56.19   19.00
   9  10   3   59.49   12.90
   2 -11  -3   93.09   24.50
  -2  11   3   67.39   12.50
   1 -11  -3  459.65   33.20
   0 -11  -3  347.37   31.30
   0  11   3  316.67   31.20
   0  11   3  296.47   25.40
  -1 -11  -3   19.50    9.00
   1  11   3   19.60    7.30
  -2 -11  -3   -1.70    8.40
   2  11   3   -6.80    8.80
  -3 -11  -3   -8.00    8.10
  -3 -11  -3  -20.30   21.90
   3  11   3    1.90   11.70
   3  11   3   -3.70    8.50
  -4 -11  -3  367.36   39.80
   4  11   3  368.46   33.50
   4  11   3  342.27   31.00
  -5 -11  -3  241.88   18.50
  -5 -11  -3  242.28   23.00
  -5 -11  -3  307.77   39.10
   5  11   3  306.07   25.80
  -6 -11  -3   16.20   21.40
   6  11   3   24.10   14.90
  -7 -11  -3   52.69   22.30
  -7 -11  -3   22.20   22.10
   7  11   3   33.80   16.50
  -8 -11  -3   16.10   23.10
  -8 -11  -3   13.80   23.50
   8  11   3   20.80   15.70
   8  11   3    8.30   18.10
   0 -12  -3    7.40   11.10
   0  12   3    3.70   10.70
  -1 -12  -3   21.30   10.20
   1  12   3   -2.20   10.30
   2  12   3   -7.00    9.80
  -3 -12  -3   39.40   24.30
   3  12   3   47.80   14.20
  -4 -12  -3   -9.40   23.90
   4  12   3   24.10   13.80
   4  12   3   -4.20    9.50
  -5 -12  -3  104.39   25.70
   5  12   3  148.09   23.00
  -6 -12  -3   64.59   25.90
   6  12   3   99.19   24.60
  -7 -12  -3  112.19   27.20
   7  12   3  128.59   27.20
   4  13   3   26.30   14.60
   6  12  -4   11.90   18.20
  -6 -12   4   29.40   23.60
   5  12  -4   83.39   18.70
   5  12  -4   60.89   10.20
  -5 -12   4   62.99   22.60
   4  12  -4  106.69   25.30
  -4 -12   4   70.39   21.90
  -4 -12   4   60.89   11.80
   3  12  -4   38.70   16.50
  -3 -12   4   32.00   19.90
  -3 -12   4   64.89   16.00
  -3 -12   4   60.29   11.40
   2  12  -4   21.60   14.80
   2  12  -4   16.20    9.00
  -2 -12   4   -7.50   20.60
  -2 -12   4   33.60   10.20
   1  12  -4    8.40   14.40
   1  12  -4   19.60    8.60
  -1 -12   4   40.30   10.40
  -1 -12   4   53.89   15.90
  -1 -12   4   -0.40   22.00
   0  12  -4   14.20   14.50
   0  12  -4   19.00    9.20
   0 -12   4   26.20   23.80
   8  11  -4   23.50   19.00
  -8 -11   4   21.50   24.80
   7  11  -4  105.99   27.00
  -7 -11   4   93.49   23.90
   6  11  -4  135.49   26.00
  -6 -11   4  122.39   23.20
   5  11  -4   48.10   15.70
   5  11  -4   24.70    8.80
  -5 -11   4    7.30   10.30
  -5 -11   4   10.60   15.20
  -5 -11   4   58.39   21.00
   4  11  -4  545.65   36.50
  -4 -11   4  529.25   34.70
  -4 -11   4  567.84   42.50
  -4 -11   4  642.44   41.10
   3  11  -4  304.77   26.80
   3  11  -4  283.47   23.70
   3  11  -4  299.67   36.50
  -3 -11   4  361.76   26.00
  -3 -11   4  332.17   34.20
   2  11  -4   76.69    9.90
   2  11  -4  106.79   21.40
  -2 -11   4   90.49   20.10
  -2 -11   4  117.69   19.80
   1  11  -4    3.20   13.40
   1  11  -4   22.10    8.00
  -1 -11   4   36.20    9.60
  -1 -11   4    9.90   19.70
  -1 -11   4   47.80   14.60
   0  11  -4   16.00   16.70
   0  11  -4   36.70    8.30
   0  11  -4   -1.70   12.00
   0 -11   4   45.00   15.00
   0 -11   4   38.60    9.60
   0 -11   4   18.90   21.10
  -1  11  -4  128.99   20.60
   1 -11   4  157.38   31.40
   1 -11   4  168.58   21.40
  -2  11  -4   12.10    9.70
   2 -11   4   16.70   10.00
   2 -11   4   16.20   16.00
   9  10  -4  206.78   23.70
   9  10  -4  169.08   32.10
  -9 -10   4  178.88   44.60
   8  10  -4   17.60   17.50
  -8 -10   4   11.00   22.90
   7  10  -4   43.50    8.10
  -7 -10   4   29.50    9.40
  -7 -10   4   24.10   13.90
   6  10  -4   26.50    8.00
  -6 -10   4   34.50   12.40
  -6 -10   4   16.30    9.10
  -6 -10   4   20.80    8.40
   5  10  -4   -9.20    7.50
   5  10  -4   22.20   13.50
  -5 -10   4  -18.60    9.10
  -5 -10   4   -0.70    7.20
  -5 -10   4   15.30   18.40
   4  10  -4   81.59   14.40
  -4 -10   4   50.59   10.20
  -4 -10   4   72.39   18.00
  -4 -10   4   59.59   14.30
   3  10  -4  103.29   10.20
   3  10  -4  132.89   20.40
  -3 -10   4   94.19   15.60
  -3 -10   4   88.49   12.60
  -3 -10   4  126.59   27.30
   2  10  -4  757.52   42.30
   2  10  -4  712.63   37.60
   2  10  -4  688.73   50.19
  -2 -10   4  624.64   40.90
  -2 -10   4  665.23   38.90
  -2 -10   4  740.43   38.80
  -2 -10   4  785.52   43.70
  -2 -10   4  689.63   44.90
   1  10  -4   37.00   12.40
   1  10  -4   11.70   13.30
   1  10  -4   24.30    7.40
  -1 -10   4   36.10   13.40
  -1 -10   4   18.00   18.20
  -1 -10   4   29.40    8.90
   0  10  -4  196.98   19.50
   0 -10   4  133.89   23.70
   0 -10   4  158.18   18.20
  -1  10  -4   73.69   14.20
  -1  10  -4   90.29   19.30
   1 -10   4   61.99    9.50
   1 -10   4   66.49   14.70
  -2  10  -4   36.00   15.90
  -2  10  -4   13.20    8.60
  -2  10  -4    4.00   13.00
   2 -10   4   17.10    8.90
   2 -10   4   19.60   13.80
  -3  10  -4  299.37   43.40
  -3  10  -4  369.86   37.70
  -3  10  -4  285.77   25.30
   3 -10   4  282.77   25.00
   3 -10   4  318.87   32.60
   9   9  -4   94.59   16.90
   9   9  -4   69.49   19.10
  -9  -9   4   77.29   26.10
   8   9  -4  591.84   30.70
   8   9  -4  559.64   38.00
   8   9  -4  525.25   31.70
  -8  -9   4  520.35   33.00
  -8  -9   4  534.15   38.40
  -8  -9   4  555.74   33.40
  -8  -9   4  618.14   46.40
   7   9  -4   63.29    8.20
   7   9  -4   96.29   22.80
  -7  -9   4   44.40   11.30
  -7  -9   4   54.89    9.30
  -7  -9   4   53.59   13.30
  -7  -9   4   62.39   11.10
   6   9  -4    8.60   13.10
  -6  -9   4  -13.90    6.70
  -6  -9   4   -0.70   18.10
  -6  -9   4   -6.80   10.10
   5   9  -4   69.89    8.10
  -5  -9   4   51.29    9.20
  -5  -9   4   50.29    7.50
  -5  -9   4   50.79   10.50
   4   9  -4  170.38   17.30
   4   9  -4  178.18   17.70
  -4  -9   4  138.89   22.70
  -4  -9   4  168.78   15.30
   3   9  -4  166.18   14.20
   3   9  -4  154.38   18.60
   3   9  -4  183.88   20.30
   3   9  -4  172.88   17.00
  -3  -9   4  195.98   24.90
  -3  -9   4  130.99   20.40
  -3  -9   4  154.98   15.40
  -3  -9   4  189.88   25.90
  -3  -9   4  206.48   27.90
   2   9  -4   -1.40    6.40
   2   9  -4   -7.30   12.50
   2   9  -4   -2.40    5.30
   2   9  -4   -5.60    8.10
  -2  -9   4    9.40   15.00
  -2  -9   4  -13.20    9.30
  -2  -9   4  -14.40   14.60
  -2  -9   4    8.40   11.50
   1   9  -4   10.40    6.40
   1   9  -4   -5.00    7.70
   1   9  -4   29.80   11.10
   1   9  -4   -3.50    8.70
  -1  -9   4   11.60    8.20
  -1  -9   4  -10.50   11.70
  -1  -9   4   -0.80   15.90
  -1  -9   4   30.50   12.60
  -1  -9   4   36.20   17.30
   0   9  -4   33.50    7.40
   0  -9   4   41.40    8.10
  -1   9  -4    9.30    7.40
  -1   9  -4   32.50   13.70
   1  -9   4   -8.70    6.80
   1  -9   4   21.80   13.00
   1  -9   4   10.50    7.90
  -2   9  -4  240.38   34.40
  -2   9  -4  175.88   22.00
  -2   9  -4  204.68   19.30
   2  -9   4  164.78   18.60
   2  -9   4  216.48   19.00
   2  -9   4  229.68   27.30
   2  -9   4  138.29   23.60
  -3   9  -4    2.80   12.70
  -3   9  -4   10.80   13.50
   3  -9   4    6.60    8.40
   3  -9   4    1.30   10.30
   3  -9   4   12.40   13.30
   3  -9   4   -8.40   12.00
  -4   9  -4   -1.20    8.90
  -4   9  -4    1.40   14.20
  -4   9  -4    3.20   13.90
   4  -9   4    2.90   13.80
   4  -9   4    5.40    8.70
   4  -9   4   12.80    7.80
  -5   9  -4   24.40   16.60
  -5   9  -4   14.40   15.40
  -5   9  -4   15.90    9.90
   5  -9   4   25.50   15.20
   5  -9   4   14.90    9.50
  10   8  -4   81.19   12.90
  10   8  -4   50.29    9.60
 -10  -8   4   57.29   26.90
 -10  -8   4   97.39   27.40
 -10  -8   4   50.69   10.90
   9   8  -4   71.99    9.30
  -9  -8   4  116.29   26.20
  -9  -8   4   62.79   10.40
  -9  -8   4   68.99   13.10
   8   8  -4    2.90    8.90
   8   8  -4  -11.70    7.30
   8   8  -4   15.80   14.60
  -8  -8   4    4.00   10.30
  -8  -8   4   10.50   22.00
  -8  -8   4  -12.00    8.50
  -8  -8   4    9.80    7.00
   7   8  -4  461.15   31.00
   7   8  -4  517.15   27.00
   7   8  -4  483.25   28.00
   7   8  -4  515.05   32.30
  -7  -8   4  473.05   30.60
  -7  -8   4  431.26   34.70
  -7  -8   4  489.95   29.10
  -7  -8   4  548.05   39.70
  -7  -8   4  488.45   34.20
   6   8  -4  266.87   22.00
   6   8  -4  214.78   18.00
   6   8  -4  265.07   15.50
  -6  -8   4  221.88   21.40
  -6  -8   4  194.88   19.90
  -6  -8   4  297.37   34.80
  -6  -8   4  220.28   16.80
   5   8  -4    4.80    7.40
   5   8  -4   21.40   11.20
   5   8  -4    5.80    5.20
   5   8  -4   -2.90    6.20
  -5  -8   4   18.40   14.80
  -5  -8   4    1.70    5.80
  -5  -8   4  -10.30    7.30
  -5  -8   4  -15.60   10.70
   4   8  -4  682.53   37.70
   4   8  -4  679.53   36.80
   4   8  -4  694.93   36.10
   4   8  -4  653.83   34.80
  -4  -8   4  689.63   35.20
  -4  -8   4  685.63   36.60
  -4  -8   4  706.83   40.90
  -4  -8   4  704.43   39.70
  -4  -8   4  679.53   37.80
   3   8  -4    8.50    6.50
   3   8  -4    9.40    7.10
   3   8  -4    7.20   11.40
   3   8  -4    5.10    4.90
   3   8  -4   -6.20   10.70
  -3  -8   4    8.10    7.50
  -3  -8   4   23.60   12.70
  -3  -8   4   -6.70    8.20
  -3  -8   4    7.90   10.60
  -3  -8   4   -4.60    5.40
   2   8  -4  228.88   22.00
   2   8  -4  244.88   16.70
   2   8  -4  219.18   18.70
   2   8  -4  215.58   15.10
  -2  -8   4  234.78   22.80
  -2  -8   4  226.38   18.00
  -2  -8   4  254.77   22.30
  -2  -8   4  232.58   24.30
  -2  -8   4  185.08   19.90
  -2  -8   4  206.18   16.00
   1   8  -4  666.73   36.40
   1   8  -4  568.54   30.80
   1   8  -4  590.34   33.20
   1   8  -4  594.94   31.70
  -1  -8   4  655.03   36.10
  -1  -8   4  579.54   37.40
  -1  -8   4  594.84   32.30
  -1  -8   4  595.84   31.50
  -1  -8   4  612.44   36.30
  -1  -8   4  551.74   33.80
   0   8  -4  327.67   25.70
   0   8  -4  239.88   17.90
   0   8  -4  229.18   20.30
   0   8  -4  301.67   19.10
   0   8  -4  247.08   21.00
   0  -8   4  322.17   25.30
   0  -8   4  289.47   19.60
   0  -8   4  325.17   25.80
  -1   8  -4 1253.37   68.79
  -1   8  -4 1322.47   68.29
  -1   8  -4 1256.77   66.69
  -1   8  -4 1374.96   67.19
  -1   8  -4 1529.95   70.59
   1  -8   4 1354.16   66.89
   1  -8   4 1487.25   69.89
   1  -8   4 1326.37   68.69
   1  -8   4 1384.36   67.79
   1  -8   4 1429.06   71.49
  -2   8  -4  282.47   24.60
  -2   8  -4  245.18   23.20
  -2   8  -4  342.37   21.30
   2  -8   4  366.16   27.00
   2  -8   4  324.37   21.10
   2  -8   4  277.77   20.20
   2  -8   4  275.97   24.90
  -3   8  -4    5.00    8.70
  -3   8  -4   20.20   12.10
  -3   8  -4    9.00    7.70
   3  -8   4   16.80   19.70
   3  -8   4   13.70    7.50
   3  -8   4   -4.70   17.40
   3  -8   4    3.00    7.00
  -4   8  -4    0.30    8.40
  -4   8  -4   20.30   12.00
  -4   8  -4    7.90   13.20
   4  -8   4   23.20    7.80
   4  -8   4   -5.90   11.30
   4  -8   4   16.40   12.50
   4  -8   4   11.00    8.00
  -5   8  -4   55.39   14.30
  -5   8  -4   33.80    9.70
  -5   8  -4   54.09   15.50
  -5   8  -4   45.60   22.10
   5  -8   4   51.29    9.50
   5  -8   4   48.10   13.90
  -6   8  -4   10.30   10.10
  -6   8  -4   29.00   23.50
  -6   8  -4   31.50   16.50
   6  -8   4   26.70   10.30
   6  -8   4   25.40   14.70
   6  -8   4   56.19   13.40
  10   7  -4   35.50   18.70
  10   7  -4   -4.30   11.40
  10   7  -4  -15.60    8.50
 -10  -7   4   -1.00   24.50
 -10  -7   4  -21.70   14.20
 -10  -7   4  -12.50    9.20
 -10  -7   4   26.00   25.20
   9   7  -4   44.90    8.70
   9   7  -4   66.39   11.50
  -9  -7   4   32.20   13.70
  -9  -7   4   48.00    8.60
  -9  -7   4   66.09   24.10
  -9  -7   4   41.70    9.30
   8   7  -4   54.99    8.10
   8   7  -4   43.60   10.90
  -8  -7   4   40.00   12.80
  -8  -7   4   43.10    8.70
  -8  -7   4   80.09   22.00
  -8  -7   4   52.79    7.40
  -8  -7   4   46.60   10.80
   7   7  -4  255.17   19.40
   7   7  -4  231.48   22.90
   7   7  -4  279.67   18.40
   7   7  -4  302.57   23.90
  -7  -7   4  251.97   20.30
  -7  -7   4  330.57   34.00
  -7  -7   4  250.87   22.00
   6   7  -4   75.19   10.70
   6   7  -4  106.59   21.20
   6   7  -4   76.79   11.00
   6   7  -4   58.79   10.00
   6   7  -4   66.79    7.60
   6   7  -4   75.09   15.90
  -6  -7   4   98.99   17.20
  -6  -7   4   49.80   11.30
  -6  -7   4   57.19    8.10
  -6  -7   4   87.69   11.20
  -6  -7   4   79.59   15.90
   5   7  -4    5.70    6.80
   5   7  -4   17.30   10.30
   5   7  -4   -3.10    7.90
   5   7  -4   -3.10    5.70
   5   7  -4    7.90    5.30
   5   7  -4    7.10    4.50
  -5  -7   4  -10.90    9.60
  -5  -7   4    7.30   14.20
  -5  -7   4   12.60    7.90
  -5  -7   4    2.10    5.00
  -5  -7   4   -2.70    6.40
   4   7  -4   12.50    6.10
   4   7  -4   16.90    8.40
   4   7  -4   22.80    4.80
   4   7  -4   18.20   10.50
   4   7  -4   18.20    6.70
  -4  -7   4   12.30    9.70
  -4  -7   4   15.30    6.70
  -4  -7   4   16.50    8.00
  -4  -7   4   38.60   13.00
   3   7  -4  154.98   20.40
   3   7  -4  133.29   15.00
   3   7  -4  132.39   11.40
  -3  -7   4  129.59   19.50
  -3  -7   4   99.49   16.30
  -3  -7   4  143.79   14.80
  -3  -7   4  155.58   19.70
  -3  -7   4  110.59   14.60
   2   7  -4  599.04   30.70
   2   7  -4  624.64   31.50
   2   7  -4  622.54   34.50
   2   7  -4  614.14   32.50
  -2  -7   4  556.94   33.30
  -2  -7   4  596.54   31.80
  -2  -7   4  626.34   35.30
  -2  -7   4  592.04   34.40
  -2  -7   4  611.64   34.30
   1   7  -4  302.67   23.90
   1   7  -4  296.67   20.30
   1   7  -4  292.07   18.50
   1   7  -4  302.97   17.40
  -1  -7   4  330.17   23.30
  -1  -7   4  299.97   19.10
  -1  -7   4  262.07   24.60
  -1  -7   4  318.47   23.10
  -1  -7   4  276.17   21.20
  -1  -7   4  303.57   18.20
   0   7  -4   99.29   14.80
   0   7  -4  125.69   12.80
   0   7  -4   92.49   10.90
   0   7  -4   85.79   13.30
   0  -7   4  131.49   13.40
   0  -7   4  101.19   11.90
   0  -7   4   88.49   15.90
   0  -7   4  137.19   19.20
  -1   7  -4   23.60    7.90
  -1   7  -4   15.10    7.40
  -1   7  -4   37.10    6.30
  -1   7  -4   22.50    5.20
  -1   7  -4   53.09   10.60
   1  -7   4   44.60    9.80
   1  -7   4   14.80    8.00
   1  -7   4   13.80    8.20
   1  -7   4   34.80    6.50
  -2   7  -4  498.05   27.20
  -2   7  -4  569.44   32.00
  -2   7  -4  474.75   29.50
  -2   7  -4  431.16   26.30
  -2   7  -4  419.56   29.30
   2  -7   4  449.16   36.20
   2  -7   4  471.15   26.60
   2  -7   4  508.45   27.30
   2  -7   4  522.65   33.50
   2  -7   4  543.65   31.20
  -3   7  -4  765.42   40.00
  -3   7  -4  802.82   43.90
  -3   7  -4  850.21   48.60
  -3   7  -4  706.73   39.20
  -3   7  -4  792.72   42.60
  -3   7  -4  686.93   42.70
   3  -7   4  828.32   43.30
   3  -7   4  734.23   38.10
   3  -7   4  834.82   46.00
   3  -7   4  742.33   39.50
   3  -7   4  766.22   42.40
  -4   7  -4   62.89    8.60
  -4   7  -4   67.79   12.60
  -4   7  -4   62.69   19.80
  -4   7  -4   56.99   11.60
   4  -7   4   49.10    7.70
   4  -7   4   60.49    8.40
   4  -7   4   72.29   12.00
   4  -7   4   50.89   10.80
   4  -7   4   77.59   11.20
  -5   7  -4  479.05   35.80
  -5   7  -4  452.85   28.30
  -5   7  -4  480.15   40.20
   5  -7   4  385.06   32.20
   5  -7   4  474.55   42.50
   5  -7   4  438.56   28.00
   5  -7   4  477.35   26.00
  -6   7  -4  116.29   23.90
  -6   7  -4   64.79   10.50
  -6   7  -4   79.69   16.00
   6  -7   4   75.29   10.30
   6  -7   4   74.39   23.10
   6  -7   4   85.99   14.90
  -7   7  -4   -3.30   16.40
  -7   7  -4   -7.70   10.00
  -7   7  -4  -23.40   24.10
   7  -7   4   -7.20   14.60
   7  -7   4   -6.90    9.70
   7  -7   4   14.10   12.10
  10   6  -4   27.00   11.20
  10   6  -4   32.80   12.70
  10   6  -4    3.90   12.50
  10   6  -4   62.19   19.40
 -10  -6   4    8.60    9.30
 -10  -6   4   59.59   26.20
 -10  -6   4   10.10   14.60
 -10  -6   4   51.29   23.50
   9   6  -4   13.00    8.00
   9   6  -4   56.19   15.90
  -9  -6   4   55.29   22.80
  -9  -6   4    7.50   12.80
  -9  -6   4   35.20   22.10
  -9  -6   4   11.80    8.70
   8   6  -4  808.72   42.20
   8   6  -4  794.72   44.50
   8   6  -4  845.62   45.00
  -8  -6   4  854.51   42.70
  -8  -6   4  751.42   41.90
  -8  -6   4  749.53   44.50
  -8  -6   4  903.11   53.49
  -8  -6   4  806.82   47.00
   7   6  -4   -2.00    6.50
   7   6  -4   15.60    7.60
   7   6  -4  -12.60    8.90
   7   6  -4    6.20    5.10
   7   6  -4    5.40   12.30
   7   6  -4   28.20   11.50
  -7  -6   4   -9.80   10.40
  -7  -6   4  -15.50    7.40
  -7  -6   4   14.40   18.60
  -7  -6   4    5.50    8.60
  -7  -6   4    6.10   10.10
   6   6  -4  102.59   18.20
   6   6  -4  144.59   11.80
   6   6  -4  130.19   13.70
   6   6  -4  148.79   15.80
   6   6  -4  172.38   17.00
   6   6  -4  159.98   20.80
  -6  -6   4  123.29   14.80
  -6  -6   4  151.68   12.50
  -6  -6   4  169.28   25.70
  -6  -6   4  154.78   16.50
  -6  -6   4  114.29   12.70
   5   6  -4   10.00    9.30
   5   6  -4   -1.50    6.30
   5   6  -4    1.70    4.10
   5   6  -4    4.10   10.50
   5   6  -4  -10.60    7.60
  -5  -6   4   -1.90    4.60
  -5  -6   4   -4.60    6.60
  -5  -6   4   -8.60   13.20
   4   6  -4   96.39   15.50
   4   6  -4  104.29    9.80
   4   6  -4   81.69   11.70
   4   6  -4  100.89   13.60
   4   6  -4   86.09   15.20
  -4  -6   4  101.19   10.20
  -4  -6   4  100.99   14.40
  -4  -6   4   88.59   12.50
  -4  -6   4  103.79   20.00
  -4  -6   4   72.59   10.00
   3   6  -4 2090.29  108.19
   3   6  -4 2170.08  104.59
  -3  -6   4 2174.28  105.59
  -3  -6   4 2219.48  104.69
  -3  -6   4 2273.37  105.99
  -3  -6   4 2233.08  104.89
  -3  -6   4 2192.98  106.39
   2   6  -4   11.90    6.20
   2   6  -4   13.00    4.20
   2   6  -4   18.20    4.70
   2   6  -4   15.40    7.50
  -2  -6   4    8.80    4.60
  -2  -6   4   11.60    5.10
  -2  -6   4   15.20    7.50
  -2  -6   4    5.70    6.70
   1   6  -4   25.60    6.40
   1   6  -4   33.20    8.00
   1   6  -4   37.50    9.90
   1   6  -4   31.10    4.50
   1   6  -4   30.80    4.90
  -1  -6   4   36.90    5.60
  -1  -6   4   29.40    7.50
  -1  -6   4   28.60    5.00
  -1  -6   4   19.00    7.00
  -1  -6   4   45.00   10.40
   0   6  -4   58.19   11.60
   0   6  -4   58.29    9.10
   0   6  -4   51.09    7.50
   0   6  -4   86.09   16.10
   0   6  -4   79.29   10.50
   0  -6   4   81.49   11.10
   0  -6   4   79.69   16.00
   0  -6   4   75.59   15.70
   0  -6   4   51.19    7.80
   0  -6   4   55.89    9.60
  -1   6  -4   27.60    6.10
  -1   6  -4   22.80    4.90
  -1   6  -4   31.80    5.50
   1  -6   4   34.70    5.70
   1  -6   4   33.90    8.50
   1  -6   4   20.60    5.10
   1  -6   4   18.10    7.60
  -2   6  -4   12.70    6.40
  -2   6  -4   -7.10   15.00
  -2   6  -4   20.60    7.50
  -2   6  -4   20.30    5.10
  -2   6  -4   28.20    5.90
   2  -6   4   43.60   12.60
   2  -6   4   21.80    8.30
   2  -6   4   28.40    5.90
   2  -6   4   22.40    5.20
  -3   6  -4 1766.22   86.59
  -3   6  -4 1888.91   87.99
  -3   6  -4 1854.01   88.49
  -3   6  -4 1766.02   86.39
  -3   6  -4 1559.44   88.39
  -3   6  -4 1964.90   91.19
   3  -6   4 1849.71   90.09
   3  -6   4 1702.53   85.89
   3  -6   4 1764.92   87.79
   3  -6   4 1856.61   88.19
   3  -6   4 1793.42   86.59
   3  -6   4 1799.52   86.49
  -4   6  -4  533.55   37.70
  -4   6  -4  515.25   31.50
  -4   6  -4  543.45   33.30
  -4   6  -4  435.06   31.70
  -4   6  -4  508.75   28.30
  -4   6  -4  477.55   27.50
   4  -6   4  524.15   32.00
   4  -6   4  509.95   26.60
   4  -6   4  500.05   34.90
   4  -6   4  467.55   27.30
   4  -6   4  489.35   30.60
   4  -6   4  515.05   28.00
  -5   6  -4   23.80   12.20
  -5   6  -4   13.90   10.90
  -5   6  -4   24.20   19.20
   5  -6   4   38.60   15.30
   5  -6   4   16.40    7.40
   5  -6   4   12.00   11.40
   5  -6   4   15.90    7.50
   5  -6   4   21.30    8.90
   5  -6   4   10.20   10.30
  -6   6  -4  180.18   26.90
  -6   6  -4  192.48   20.10
  -6   6  -4  201.18   28.50
  -6   6  -4  216.68   33.60
   6  -6   4  202.38   27.50
   6  -6   4  178.98   26.00
   6  -6   4  199.48   19.60
   6  -6   4  213.48   17.80
  -7   6  -4  247.88   36.60
  -7   6  -4  196.48   31.00
  -7   6  -4  219.68   22.70
   7  -6   4  210.78   37.50
   7  -6   4  223.48   22.10
  11   5  -4   53.59   20.80
 -11  -5   4   41.20   23.70
  10   5  -4   43.20   17.30
 -10  -5   4   11.30   14.40
 -10  -5   4   99.19   28.40
 -10  -5   4   46.60   21.40
   9   5  -4   15.70    7.90
   9   5  -4   50.39   15.70
  -9  -5   4   42.70   22.60
  -9  -5   4   33.10    7.10
  -9  -5   4   39.00   19.90
  -9  -5   4   19.90   12.90
  -9  -5   4   10.20    8.60
   8   5  -4   23.30    7.40
   8   5  -4   25.00   10.00
  -8  -5   4   28.00   11.60
  -8  -5   4   18.30    7.70
  -8  -5   4   32.20   19.60
   7   5  -4  337.77   21.40
   7   5  -4  327.77   25.10
   7   5  -4  374.56   24.40
   7   5  -4  337.97   27.00
   7   5  -4  355.66   23.80
   7   5  -4  324.47   20.10
  -7  -5   4  335.17   22.00
  -7  -5   4  416.26   33.80
  -7  -5   4  317.07   26.70
   6   5  -4   56.49   14.10
   6   5  -4   27.70    6.10
   6   5  -4   26.40    8.30
   6   5  -4   25.40    5.00
   6   5  -4   30.80    7.10
  -6  -5   4   40.30    8.00
  -6  -5   4   16.50    6.50
  -6  -5   4   17.60    9.60
  -6  -5   4   35.50    5.50
  -6  -5   4   51.79   16.20
   5   5  -4  400.96   23.70
   5   5  -4  410.86   22.00
   5   5  -4  370.56   20.90
   5   5  -4  386.56   24.30
   5   5  -4  382.86   23.30
   5   5  -4  402.86   25.80
  -5  -5   4  426.86   28.50
  -5  -5   4  390.36   25.60
  -5  -5   4  378.56   23.50
  -5  -5   4  418.36   22.40
  -5  -5   4  401.26   22.00
   4   5  -4   19.60    4.00
   4   5  -4   21.30    5.90
   4   5  -4   37.60   10.50
   4   5  -4   20.60    4.80
   4   5  -4   15.50    6.60
  -4  -5   4   16.20    5.10
  -4  -5   4   17.60    6.00
  -4  -5   4    7.00    7.40
  -4  -5   4   19.60    4.10
  -4  -5   4   28.80   11.40
   3   5  -4  493.65   24.70
   3   5  -4  474.65   25.20
   3   5  -4  476.45   26.30
  -3  -5   4  481.25   25.40
  -3  -5   4  472.15   27.00
  -3  -5   4  515.35   28.80
  -3  -5   4  493.95   24.80
  -3  -5   4  471.15   26.50
   2   5  -4 2068.29   99.09
   2   5  -4 2100.29  100.19
   2   5  -4 2098.99   99.29
   2   5  -4 2016.80  100.19
  -2  -5   4 2111.49   99.29
  -2  -5   4 2095.99   99.99
  -2  -5   4 2078.89  100.39
  -2  -5   4 1963.30   99.89
  -2  -5   4 2187.28   99.19
   1   5  -4 2312.97  111.29
   1   5  -4 2411.06  111.09
   1   5  -4 2368.46  110.39
   1   5  -4 2295.37  110.49
  -1  -5   4 2283.77  111.19
  -1  -5   4 2320.47  111.49
  -1  -5   4 2458.05  110.49
  -1  -5   4 2240.98  111.09
  -1  -5   4 2203.68  111.49
  -1  -5   4 2297.27  110.49
   0   5  -4  186.08   12.70
   0   5  -4  189.98   12.00
   0   5  -4  203.38   13.90
   0   5  -4  186.98   16.40
   0  -5   4  181.28   12.30
   0  -5   4  148.69   15.00
   0  -5   4  179.38   16.70
   0  -5   4  194.28   16.00
   0  -5   4  187.58   13.10
  -1   5  -4 4534.75  220.08
  -1   5  -4 4259.77  220.58
  -1   5  -4 4546.04  219.78
  -1   5  -4 4538.35  219.08
  -1   5  -4 4830.22  219.08
   1  -5   4 4556.54  219.08
   1  -5   4 4939.21  219.18
   1  -5   4 4603.64  219.68
   1  -5   4 4811.62  219.88
  -2   5  -4  249.18   16.00
  -2   5  -4  242.08   18.30
  -2   5  -4  248.98   15.20
  -2   5  -4  235.98   18.10
  -2   5  -4  263.67   19.90
   2  -5   4  251.27   22.00
   2  -5   4  255.87   19.50
   2  -5   4  242.88   15.10
   2  -5   4  252.47   15.90
   2  -5   4  235.18   13.90
   2  -5   4  238.18   18.30
  -3   5  -4  704.93   35.60
  -3   5  -4  633.04   37.60
  -3   5  -4  696.23   35.20
  -3   5  -4  712.13   37.30
  -3   5  -4  717.33   38.40
  -3   5  -4  717.33   42.00
   3  -5   4  678.43   34.60
   3  -5   4  727.73   40.10
   3  -5   4  683.33   35.40
   3  -5   4  701.73   35.10
   3  -5   4  702.73   37.70
   3  -5   4  683.53   37.10
  -4   5  -4   16.70    7.30
  -4   5  -4   25.60   10.00
  -4   5  -4   32.00    9.90
  -4   5  -4   25.90    6.30
  -4   5  -4    7.70   16.10
  -4   5  -4   20.10    5.60
   4  -5   4   17.80    5.40
   4  -5   4   21.40   13.50
   4  -5   4   25.50    7.30
   4  -5   4   27.20    6.10
   4  -5   4   31.20    9.10
  -5   5  -4   51.59   18.30
  -5   5  -4   56.39   10.30
  -5   5  -4   44.90    7.00
  -5   5  -4   51.19    7.70
  -5   5  -4   62.69   11.40
   5  -5   4   47.60    9.80
   5  -5   4   47.60    6.80
   5  -5   4   63.19   15.10
   5  -5   4   90.19   21.50
   5  -5   4   61.09   11.00
   5  -5   4   52.49    7.60
   5  -5   4   59.59    9.20
  -6   5  -4  254.67   27.80
  -6   5  -4  243.38   32.10
  -6   5  -4  235.68   25.80
  -6   5  -4  246.98   20.20
   6  -5   4  234.08   18.90
   6  -5   4  247.58   20.00
   6  -5   4  295.87   28.00
   6  -5   4  218.08   24.70
   6  -5   4  251.47   26.10
  -7   5  -4   12.50    9.00
  -7   5  -4   15.30   14.80
  -7   5  -4   15.70   13.40
  -7   5  -4   26.70   20.90
   7  -5   4   18.90   13.20
   7  -5   4   39.00   11.20
   7  -5   4   18.60    8.50
  -8   5  -4   24.20   10.20
  -8   5  -4   23.40   15.50
  -8   5  -4   44.00   24.50
   8  -5   4   24.10    9.50
   8  -5   4   28.10   17.10
  11   4  -4    0.60   12.70
  11   4  -4   -8.20   14.70
  11   4  -4   22.50   19.50
 -11  -4   4   21.20   22.30
 -11  -4   4  -12.60   16.00
  10   4  -4   -5.70   13.10
  10   4  -4   45.20   17.30
  10   4  -4   -6.60    8.20
 -10  -4   4    0.70    9.10
 -10  -4   4   -6.80   14.00
   9   4  -4   26.30   18.10
   9   4  -4   -6.60    7.90
   9   4  -4  -15.50   11.40
  -9  -4   4  -11.80   12.40
  -9  -4   4   10.20   10.70
  -9  -4   4   26.30   23.90
  -9  -4   4   13.50    6.70
  -9  -4   4  -12.10    8.20
   8   4  -4  273.37   25.20
   8   4  -4  296.77   20.90
   8   4  -4  317.97   23.90
   8   4  -4  361.56   25.10
  -8  -4   4  271.47   37.70
  -8  -4   4  320.17   29.80
  -8  -4   4  304.17   23.90
  -8  -4   4  313.97   26.90
  -8  -4   4  297.47   22.20
  -8  -4   4  304.57   19.50
   7   4  -4  982.40   51.09
   7   4  -4  960.30   52.99
   7   4  -4  941.71   50.39
   7   4  -4  922.61   48.60
   7   4  -4 1012.80   51.39
   7   4  -4 1013.00   49.40
  -7  -4   4 1033.00   49.60
  -7  -4   4 1049.09   55.99
  -7  -4   4  921.11   48.70
  -7  -4   4 1068.89   52.09
   6   4  -4   58.39   13.80
   6   4  -4   41.00    6.30
   6   4  -4   42.00    8.40
   6   4  -4   61.99    9.50
   6   4  -4   75.29   14.00
  -6  -4   4   46.30    9.40
  -6  -4   4   41.40    6.90
   5   4  -4   43.80    5.60
   5   4  -4   69.29   15.70
   5   4  -4   61.99   12.20
   5   4  -4   67.49   12.90
   5   4  -4   70.99    8.80
   5   4  -4   48.30    7.80
  -5  -4   4   39.20    8.30
  -5  -4   4   59.99   10.60
  -5  -4   4   71.19   13.60
   4   4  -4   11.10    3.50
   4   4  -4   13.20    5.30
   4   4  -4    5.70    6.20
   4   4  -4   19.40    7.80
   4   4  -4    5.60    4.30
  -4  -4   4   11.60    5.50
  -4  -4   4   14.80    3.70
  -4  -4   4   10.60    9.80
  -4  -4   4    5.90    4.50
  -4  -4   4    0.30    6.40
   3   4  -4  462.95   26.00
   3   4  -4  457.75   25.40
   3   4  -4  493.25   27.20
   3   4  -4  481.05   24.00
   3   4  -4  474.85   24.40
  -3  -4   4  477.55   24.10
  -3  -4   4  467.15   24.50
  -3  -4   4  443.66   25.30
  -3  -4   4  521.25   27.50
  -3  -4   4  467.55   26.10
   2   4  -4   53.69    5.60
   2   4  -4   64.79    8.40
   2   4  -4   65.79   12.30
   2   4  -4   52.99    6.00
  -2  -4   4   58.49    8.40
  -2  -4   4   61.59    7.50
  -2  -4   4   57.29    6.70
  -2  -4   4   73.39   12.20
  -2  -4   4   54.39    6.20
   1   4  -4 1909.41   94.19
   1   4  -4 1986.20   93.59
   1   4  -4 2046.70   93.49
   1   4  -4 1992.70   93.99
  -1  -4   4 1945.41   94.19
  -1  -4   4 2015.90   94.29
  -1  -4   4 1943.91   93.49
  -1  -4   4 1824.92   94.29
  -1  -4   4 1875.41   93.99
  -1  -4   4 2093.39   93.59
   0   4  -4  285.67   15.60
   0   4  -4  286.27   17.30
   0   4  -4  296.07   15.90
   0   4  -4  286.67   17.90
   0  -4   4  298.27   16.00
   0  -4   4  271.57   17.70
   0  -4   4  288.87   15.80
   0  -4   4  286.07   17.70
  -1   4  -4  766.22   38.60
  -1   4  -4  789.62   38.10
  -1   4  -4  674.23   38.90
  -1   4  -4  747.53   38.50
  -1   4  -4  766.22   37.10
  -1   4  -4  729.33   40.40
   1  -4   4  759.92   38.40
   1  -4   4  780.72   38.40
   1  -4   4  723.93   39.80
   1  -4   4  772.02   37.10
   1  -4   4  798.12   37.10
  -2   4  -4 2272.77  106.79
  -2   4  -4 2059.49  107.39
  -2   4  -4 2217.08  106.09
  -2   4  -4 2213.58  106.99
  -2   4  -4 2389.76  108.69
  -2   4  -4 2276.27  106.09
   2  -4   4 2241.48  106.89
   2  -4   4 2241.38  106.09
   2  -4   4 2284.57  108.19
   2  -4   4 2222.38  106.09
   2  -4   4 2205.78  106.79
   2  -4   4 2096.09  105.79
  -3   4  -4 2319.67  108.09
  -3   4  -4 2260.77  108.09
  -3   4  -4 2125.59  110.99
  -3   4  -4 2458.15  111.09
  -3   4  -4 2266.07  109.09
  -3   4  -4 2288.97  108.99
   3  -4   4 2239.08  108.89
   3  -4   4 2273.17  107.89
   3  -4   4 2246.48  107.99
   3  -4   4 2225.38  108.79
   3  -4   4 2287.37  110.39
   3  -4   4 2190.08  110.29
  -4   4  -4   53.79    8.90
  -4   4  -4   28.30   15.00
  -4   4  -4   65.99   10.50
  -4   4  -4   83.29   11.80
  -4   4  -4   56.49    9.30
  -4   4  -4   51.29   14.40
   4  -4   4   48.80    8.20
   4  -4   4   63.99   10.20
   4  -4   4   39.30   12.80
   4  -4   4   68.09   11.30
   4  -4   4   55.79    8.90
   4  -4   4   59.39   10.00
  -5   4  -4   86.69   12.10
  -5   4  -4   60.39   17.50
  -5   4  -4   89.09   13.50
  -5   4  -4   83.09   17.40
  -5   4  -4   97.29   19.20
   5  -4   4   84.19   12.20
   5  -4   4   87.39   13.10
   5  -4   4   88.69   16.70
   5  -4   4   98.29   18.40
   5  -4   4   77.09   14.70
   5  -4   4   81.69   11.30
   5  -4   4   63.89   13.30
  -6   4  -4    7.00    6.60
  -6   4  -4    5.20    8.30
  -6   4  -4    6.50   10.10
  -6   4  -4    2.70   10.90
   6  -4   4    2.20    6.00
   6  -4   4    1.50    8.50
   6  -4   4    6.40    9.00
   6  -4   4    0.00   15.30
   6  -4   4   -1.90   10.30
   6  -4   4    7.10    6.80
   6  -4   4   18.60   13.40
  -7   4  -4  255.27   29.00
  -7   4  -4  240.28   21.10
  -7   4  -4  257.57   34.80
  -7   4  -4  265.37   27.20
   7  -4   4  254.87   27.00
   7  -4   4  230.98   28.10
   7  -4   4  249.28   21.00
   7  -4   4  314.97   29.00
  -8   4  -4  106.59   16.00
  -8   4  -4   86.99   16.30
  -8   4  -4   89.19   10.90
   8  -4   4   97.19   15.30
   8  -4   4  129.59   18.90
  -9   4  -4  -23.80   16.10
  -9   4  -4  -13.80   10.10
  -9   4  -4   40.60   27.00
   9  -4   4    4.40   12.10
   9  -4   4   -8.00    9.50
   9  -4   4  -20.60   15.10
  11   3  -4   91.69   21.50
  10   3  -4   11.00   10.00
  10   3  -4   32.20   22.60
 -10  -3   4   21.90   14.60
   9   3  -4   27.60   15.20
   9   3  -4    3.70    8.50
  -9  -3   4   -0.20    7.90
  -9  -3   4   27.80   26.20
  -9  -3   4    9.40    6.80
  -9  -3   4   13.00   10.80
   8   3  -4   82.89   15.00
   8   3  -4  114.79   16.40
   8   3  -4   90.29   12.10
   8   3  -4  120.99   14.30
   8   3  -4  133.89   18.50
  -8  -3   4   89.89   13.10
  -8  -3   4   69.29   40.40
  -8  -3   4  122.39   13.30
  -8  -3   4   98.69   15.20
  -8  -3   4  123.19   19.50
   7   3  -4  366.26   23.70
   7   3  -4  396.46   22.50
   7   3  -4  367.56   21.20
   7   3  -4  374.26   24.30
   7   3  -4  418.56   25.00
   7   3  -4  336.47   28.50
   7   3  -4  367.16   25.70
  -7  -3   4  389.26   21.50
  -7  -3   4  401.56   26.70
  -7  -3   4  411.26   23.00
  -7  -3   4  389.16   34.00
  -7  -3   4  332.17   22.70
   6   3  -4 1276.07   63.69
   6   3  -4 1308.47   62.29
   6   3  -4 1141.69   65.59
   6   3  -4 1304.27   60.89
   6   3  -4 1221.78   60.49
   6   3  -4 1219.28   61.79
  -6  -3   4 1337.97   62.69
  -6  -3   4 1338.07   60.99
  -6  -3   4 1231.08   60.49
  -6  -3   4 1105.99   61.19
  -6  -3   4 1233.78   61.69
  -6  -3   4 1300.57   65.19
   5   3  -4  319.17   23.90
   5   3  -4  295.17   17.20
   5   3  -4  274.77   19.50
   5   3  -4  278.67   17.10
   5   3  -4  296.07   18.60
   5   3  -4  270.77   18.40
  -5  -3   4  308.57   17.40
  -5  -3   4  287.47   24.30
  -5  -3   4  294.87   20.30
  -5  -3   4  277.97   16.30
   4   3  -4  338.77   17.90
   4   3  -4  341.87   18.40
   4   3  -4  331.27   20.30
   4   3  -4  317.07   21.20
   4   3  -4  333.47   19.70
  -4  -3   4  334.17   20.90
  -4  -3   4  351.06   18.60
  -4  -3   4  348.57   19.80
  -4  -3   4  334.27   23.20
   3   3  -4 4377.26  204.88
   3   3  -4 4082.89  204.68
   3   3  -4 4258.97  204.28
   3   3  -4 4157.78  204.78
   3   3  -4 4295.97  205.08
   3   3  -4 4520.45  204.48
  -3  -3   4 4331.47  204.38
  -3  -3   4 4374.06  204.88
  -3  -3   4 4230.48  204.78
  -3  -3   4 4543.85  204.48
  -3  -3   4 4324.97  205.28
   2   3  -4    0.10    2.90
   2   3  -4    0.10    4.20
  -2  -3   4   -2.40    4.50
  -2  -3   4   -1.20    3.40
  -2  -3   4    1.90    2.90
  -2  -3   4    9.80    6.60
  -2  -3   4   -5.10    4.40
   1   3  -4    3.10    3.40
   1   3  -4    0.30    4.20
   1   3  -4    3.80    2.90
   1   3  -4   -5.70    3.90
   1   3  -4   -5.30    2.90
  -1  -3   4   -3.10    2.90
  -1  -3   4   -4.20    4.30
  -1  -3   4   -1.80    2.90
   0   3  -4   39.00    5.00
   0   3  -4   56.19    6.50
   0   3  -4   36.30    4.90
   0   3  -4   45.90    6.30
   0   3  -4   57.89    9.20
   0  -3   4   55.09    8.70
   0  -3   4   35.20    5.40
   0  -3   4   42.60    6.40
   0  -3   4   52.69    6.30
   0  -3   4   42.00   10.00
  -1   3  -4   12.20    3.30
  -1   3  -4   14.30    3.30
  -1   3  -4   18.10    5.10
  -1   3  -4   12.10    3.40
  -1   3  -4    9.70    4.50
   1  -3   4   17.10    4.90
   1  -3   4   13.30    3.30
   1  -3   4   12.10    7.90
   1  -3   4    6.60    4.70
   1  -3   4    7.70    3.10
  -2   3  -4  743.93   34.90
  -2   3  -4  634.54   37.80
  -2   3  -4  701.83   38.30
  -2   3  -4  723.63   36.20
  -2   3  -4  727.93   35.90
  -2   3  -4  729.63   34.90
   2  -3   4  727.93   35.90
   2  -3   4  722.33   36.00
   2  -3   4  712.43   34.90
   2  -3   4  720.73   37.70
   2  -3   4  666.53   34.60
  -3   3  -4 1030.60   47.70
  -3   3  -4 1027.90   49.10
  -3   3  -4  865.91   48.80
  -3   3  -4 1013.90   48.70
  -3   3  -4  896.91   49.20
  -3   3  -4 1008.20   51.19
   3  -3   4  902.81   50.39
   3  -3   4  998.80   47.50
   3  -3   4 1004.70   47.60
   3  -3   4  961.10   50.29
   3  -3   4 1028.40   48.80
   3  -3   4 1006.00   47.60
  -4   3  -4  392.46   21.40
  -4   3  -4  378.06   28.50
  -4   3  -4  380.56   21.00
  -4   3  -4  366.76   24.10
  -4   3  -4  396.36   24.30
  -4   3  -4  393.76   23.80
   4  -3   4  400.66   21.00
   4  -3   4  357.46   25.40
   4  -3   4  379.56   21.20
   4  -3   4  381.06   23.30
   4  -3   4  396.06   23.80
   4  -3   4  371.36   20.70
  -5   3  -4   12.10    5.80
  -5   3  -4   11.50    5.40
  -5   3  -4    7.60    6.80
  -5   3  -4   -9.00   14.40
  -5   3  -4   14.60    9.00
  -5   3  -4   11.50    8.20
   5  -3   4   11.70    4.80
   5  -3   4   26.90    7.50
   5  -3   4   14.70    5.60
   5  -3   4   15.80    7.60
   5  -3   4   13.30    8.40
   5  -3   4    0.70   12.50
  -6   3  -4  134.49   19.70
  -6   3  -4  113.59   19.00
  -6   3  -4  141.29   15.10
  -6   3  -4  128.99   14.20
  -6   3  -4  147.89   21.00
   6  -3   4  142.29   14.70
   6  -3   4  129.99   13.40
   6  -3   4  136.19   14.40
   6  -3   4  147.39   18.10
   6  -3   4  143.09   19.80
   6  -3   4  117.99   16.40
  -7   3  -4  142.99   30.00
  -7   3  -4  198.78   18.40
  -7   3  -4  204.68   25.00
  -7   3  -4  202.78   17.50
   7  -3   4  199.58   17.70
   7  -3   4  188.88   22.10
   7  -3   4  204.68   23.80
   7  -3   4  204.98   17.90
   7  -3   4  241.28   25.10
  -8   3  -4   56.79    9.30
  -8   3  -4   81.99   21.80
  -8   3  -4   64.79   13.70
  -8   3  -4   64.59   14.00
   8  -3   4   77.69   16.60
   8  -3   4   65.29   13.20
   8  -3   4   69.39    9.30
  -9   3  -4   34.70   19.40
  -9   3  -4   67.79   24.20
  -9   3  -4   30.40    9.80
   9  -3   4   54.89   12.60
   9  -3   4   42.60   14.50
   9  -3   4   29.30    9.30
  10   2  -4   91.59   22.10
  10   2  -4   59.79   14.40
  10   2  -4   62.89    9.80
 -10  -2   4   66.79   14.90
 -10  -2   4   71.39   10.50
   9   2  -4   17.20    9.20
   9   2  -4   34.20   14.30
   9   2  -4   -4.70    9.20
  -9  -2   4    6.80    8.70
  -9  -2   4   24.20   10.60
  -9  -2   4   52.69   24.00
  -9  -2   4   -2.50    8.40
   8   2  -4    6.00    7.90
   8   2  -4  -11.80    6.60
   8   2  -4   21.40   12.00
   8   2  -4    5.10    5.70
   8   2  -4    2.80    8.40
  -8  -2   4    3.90   11.40
  -8  -2   4    1.40    7.30
  -8  -2   4    1.70    5.80
  -8  -2   4  -18.90   30.20
   7   2  -4  253.97   22.70
   7   2  -4  279.97   20.80
   7   2  -4  237.58   24.80
   7   2  -4  311.27   20.60
   7   2  -4  276.07   17.10
   7   2  -4  272.17   18.60
  -7  -2   4  279.57   21.90
  -7  -2   4  277.57   23.80
  -7  -2   4  280.47   17.40
  -7  -2   4  279.37   19.10
  -7  -2   4  246.08   34.60
   6   2  -4    0.40    5.10
   6   2  -4    3.40    5.50
   6   2  -4    8.60    6.40
   6   2  -4    2.80    7.60
   6   2  -4   14.50    8.10
   6   2  -4   -6.10   10.30
   6   2  -4   11.60    4.40
  -6  -2   4    3.50    5.40
  -6  -2   4  -21.70   15.00
  -6  -2   4   12.60    7.70
  -6  -2   4   13.40    5.90
  -6  -2   4   -1.80    7.90
  -6  -2   4    0.50    5.20
   5   2  -4 1595.24   72.69
   5   2  -4 1419.86   73.19
   5   2  -4 1550.74   73.59
   5   2  -4 1486.45   72.49
   5   2  -4 1509.45   74.49
   5   2  -4 1443.56   73.19
  -5  -2   4 1627.54   72.79
  -5  -2   4 1491.25   73.29
  -5  -2   4 1577.24   73.79
  -5  -2   4 1465.85   72.39
  -5  -2   4 1559.84   75.69
  -5  -2   4 1436.46   73.19
   4   2  -4   66.59    8.20
   4   2  -4   56.99    6.90
   4   2  -4   67.79   10.80
   4   2  -4   57.39   11.70
  -4  -2   4   68.49   10.70
  -4  -2   4   58.39   11.90
  -4  -2   4   73.29    7.40
  -4  -2   4   61.59    8.50
   3   2  -4 2253.87  104.19
   3   2  -4 2103.09  104.59
   3   2  -4 2142.09  104.69
   3   2  -4 2201.88  104.09
   3   2  -4 2116.99  104.89
   3   2  -4 2212.38  104.69
  -3  -2   4 2138.29  105.19
  -3  -2   4 2324.87  104.19
  -3  -2   4 2201.68  104.59
  -3  -2   4 2218.28  104.69
   2   2  -4 4188.88  191.68
   2   2  -4 4065.99  191.48
   2   2  -4 4115.79  191.08
   2   2  -4 3838.92  191.28
   2   2  -4 3961.70  190.98
  -2  -2   4 4018.10  191.38
  -2  -2   4 4009.80  191.18
  -2  -2   4 4165.58  191.08
  -2  -2   4 4070.59  190.98
  -2  -2   4 4047.29  191.58
  -2  -2   4 3912.81  191.28
   1   2  -4 1912.41   91.29
   1   2  -4 1975.90   90.89
   1   2  -4 1907.61   90.79
   1   2  -4 1893.81   91.19
  -1  -2   4 1894.51   90.79
  -1  -2   4 1872.11   91.19
  -1  -2   4 1869.71   91.19
  -1  -2   4 1963.70   90.79
   0   2  -4   -2.50    2.60
   0   2  -4   -1.70    4.00
   0   2  -4   -2.80    3.00
   0   2  -4    0.70    2.40
   0   2  -4   -4.50    3.60
   0  -2   4    0.80    3.60
   0  -2   4   -5.30    2.50
   0  -2   4   -2.70    5.30
   0  -2   4   -0.30    2.40
  -1   2  -4 2803.52  138.39
  -1   2  -4 2822.22  137.89
  -1   2  -4 2851.21  137.99
  -1   2  -4 3025.90  139.19
  -1   2  -4 3086.89  137.99
  -1   2  -4 2959.10  138.39
   1  -2   4 2872.41  138.29
   1  -2   4 3084.39  138.09
   1  -2   4 3027.50  138.59
   1  -2   4 2869.41  137.89
   1  -2   4 2651.63  137.99
   1  -2   4 2888.21  138.99
  -2   2  -4  160.18   12.50
  -2   2  -4  152.28   11.80
  -2   2  -4  157.18   10.20
  -2   2  -4  160.98    9.70
  -2   2  -4  157.48   10.30
   2  -2   4  157.98    9.90
   2  -2   4  162.28   10.00
   2  -2   4  168.68   12.10
   2  -2   4  153.48   11.80
   2  -2   4  133.09    9.90
   2  -2   4  131.79   14.70
  -3   2  -4 1094.19   51.39
  -3   2  -4 1073.49   52.19
  -3   2  -4 1073.49   53.99
  -3   2  -4 1086.19   51.49
  -3   2  -4 1079.19   52.49
  -3   2  -4  985.80   52.99
   3  -2   4 1077.69   51.59
   3  -2   4 1066.79   52.19
   3  -2   4 1065.49   51.39
   3  -2   4 1069.89   51.29
   3  -2   4 1032.10   53.49
   3  -2   4 1089.79   52.29
  -4   2  -4  220.68   16.80
  -4   2  -4  206.98   16.00
  -4   2  -4  213.18   13.60
  -4   2  -4  159.18   20.00
  -4   2  -4  174.68   16.50
  -4   2  -4  207.38   13.00
   4  -2   4  192.98   21.70
   4  -2   4  201.08   15.20
   4  -2   4  207.58   15.90
   4  -2   4  207.18   12.70
   4  -2   4  206.68   13.20
   4  -2   4  195.08   13.30
  -5   2  -4   -3.00    6.50
  -5   2  -4   10.40    4.80
  -5   2  -4   11.70    7.90
  -5   2  -4    4.70    5.40
  -5   2  -4    7.20    7.10
   5  -2   4    9.40    6.50
   5  -2   4   -9.40   10.70
   5  -2   4    3.20    4.20
   5  -2   4    2.30    5.00
   5  -2   4    1.50    6.50
   5  -2   4    5.70    7.30
  -6   2  -4  483.25   26.20
  -6   2  -4  489.05   28.90
  -6   2  -4  494.95   29.70
  -6   2  -4  455.75   33.10
  -6   2  -4  476.85   25.60
   6  -2   4  473.65   26.20
   6  -2   4  446.96   30.50
   6  -2   4  472.75   28.80
   6  -2   4  468.25   25.80
   6  -2   4  455.05   27.80
   6  -2   4  449.86   25.30
  -7   2  -4   -2.20   10.50
  -7   2  -4    3.00   14.80
  -7   2  -4   -3.60    6.10
  -7   2  -4   -2.90    8.10
   7  -2   4   -6.70   10.00
   7  -2   4    8.60    8.80
   7  -2   4    8.20    9.60
   7  -2   4    3.70    5.80
   7  -2   4   -3.50    6.60
  -8   2  -4    0.70    7.90
  -8   2  -4  -15.50   14.20
  -8   2  -4   10.50   11.60
  -8   2  -4   14.00    7.60
  -8   2  -4    1.40   18.70
  -8   2  -4   -8.30   11.20
   8  -2   4    9.90    9.60
   8  -2   4    0.30   11.10
   8  -2   4   20.50   13.50
   8  -2   4   -1.00    7.40
  -9   2  -4  -13.00   12.60
  -9   2  -4   -6.30   13.80
  -9   2  -4    8.70   21.50
  -9   2  -4   13.20    8.90
   9  -2   4   12.70   11.70
   9  -2   4    2.60    8.50
   9  -2   4    3.20   12.70
 -10   2  -4  -18.10   15.80
 -10   2  -4   29.30   24.10
 -10   2  -4  -12.10   10.10
  10  -2   4  -10.30    9.40
  10  -2   4    7.70   14.50
  10  -2   4  -17.20   15.20
  10   1  -4   88.19   23.60
  10   1  -4  105.59   18.40
  10   1  -4   72.29   14.50
 -10  -1   4   78.89   10.90
 -10  -1   4   80.99   15.30
   9   1  -4    2.90   18.30
   9   1  -4   17.30   11.90
   9   1  -4  -10.00    7.70
  -9  -1   4   -7.10    8.30
  -9  -1   4   -4.70    9.80
  -9  -1   4   15.10   10.80
  -9  -1   4  -16.20   12.00
  -9  -1   4   48.10   27.70
   8   1  -4  433.06   28.40
   8   1  -4  428.76   30.30
   8   1  -4  425.66   25.40
   8   1  -4  418.76   24.50
   8   1  -4  425.46   27.80
  -8  -1   4  390.86   27.70
  -8  -1   4  518.55   41.60
  -8  -1   4  399.56   31.00
  -8  -1   4  406.56   24.70
  -8  -1   4  448.26   30.60
  -8  -1   4  436.66   29.00
   7   1  -4 1231.88   61.39
   7   1  -4 1186.18   60.59
   7   1  -4 1116.89   62.89
   7   1  -4 1171.28   61.19
   7   1  -4 1131.19   58.99
   7   1  -4 1232.18   59.39
  -7  -1   4 1278.27   61.59
  -7  -1   4 1393.76   67.49
  -7  -1   4 1279.17   59.69
  -7  -1   4 1127.29   60.69
  -7  -1   4 1265.27   66.79
  -7  -1   4 1145.59   58.99
   6   1  -4  263.17   18.80
   6   1  -4  242.38   15.40
   6   1  -4  273.87   17.90
   6   1  -4  244.98   16.40
   6   1  -4  230.28   20.00
   6   1  -4  265.67   18.50
   6   1  -4  228.38   22.60
  -6  -1   4  203.48   29.10
  -6  -1   4  244.18   17.80
  -6  -1   4  259.07   20.80
  -6  -1   4  261.27   16.90
  -6  -1   4  266.17   19.10
  -6  -1   4  264.07   15.70
   5   1  -4   41.70    5.20
   5   1  -4   45.80   10.10
   5   1  -4   42.60    7.30
   5   1  -4   56.39   10.20
   5   1  -4   60.99   11.00
  -5  -1   4   26.40   14.20
  -5  -1   4   60.39    8.40
  -5  -1   4   39.80    7.40
  -5  -1   4   41.60    5.30
  -5  -1   4   35.10    7.10
   4   1  -4 1204.28   59.39
   4   1  -4 1181.88   59.29
   4   1  -4 1204.78   58.39
   4   1  -4 1235.28   58.59
   4   1  -4 1164.78   59.09
  -4  -1   4 1288.87   61.49
  -4  -1   4 1258.97   58.69
  -4  -1   4 1228.58   59.49
  -4  -1   4 1199.98   59.19
  -4  -1   4 1221.18   59.39
   3   1  -4   28.90    4.60
   3   1  -4   27.30    5.10
   3   1  -4   26.50    6.50
   3   1  -4   29.30    3.20
   3   1  -4   25.30    3.50
  -3  -1   4   27.10    3.70
  -3  -1   4   25.00    3.10
  -3  -1   4   29.00    5.20
  -3  -1   4   11.10    8.40
   2   1  -4  112.39    7.60
   2   1  -4  123.19    9.70
   2   1  -4  104.99    9.60
   2   1  -4  106.29    9.40
   2   1  -4  103.59   10.00
   2   1  -4  106.99    7.90
  -2  -1   4   98.09    8.20
  -2  -1   4  112.29    9.60
  -2  -1   4  106.39    7.90
  -2  -1   4  122.39    9.30
   1   1  -4 3380.16  160.98
   1   1  -4 3333.27  161.28
   1   1  -4 3631.14  161.48
  -1  -1   4 3475.45  161.28
  -1  -1   4 3340.57  161.28
  -1  -1   4 3427.36  160.98
  -1  -1   4 3102.99  161.68
  -1  -1   4 3533.75  161.08
   0   1  -4   33.40    5.00
   0   1  -4   26.00    3.00
   0   1  -4   23.30    3.70
   0   1  -4   30.10    5.40
   0   1  -4   26.30    3.90
   0  -1   4   22.70    4.10
   0  -1   4   28.60    3.70
   0  -1   4   24.90    2.90
   0  -1   4   27.70    2.70
  -1   1  -4 1164.28   53.59
  -1   1  -4 1094.99   53.59
  -1   1  -4 1123.49   53.49
  -1   1  -4 1108.59   54.09
  -1   1  -4 1118.89   53.99
   1  -1   4 1091.79   53.69
   1  -1   4 1162.28   53.59
   1  -1   4 1112.39   54.69
   1  -1   4 1122.79   53.49
   1  -1   4 1171.08   54.19
   1  -1   4 1061.89   53.79
  -2   1  -4  163.98    9.70
  -2   1  -4  147.59   10.90
  -2   1  -4  166.18    9.50
  -2   1  -4  145.79    9.30
  -2   1  -4  164.18   11.40
   2  -1   4  151.68   10.90
   2  -1   4  153.18    9.40
   2  -1   4  154.08   10.90
   2  -1   4  162.88    9.40
   2  -1   4  134.09    9.60
  -3   1  -4   47.90    7.10
  -3   1  -4   62.49    7.10
  -3   1  -4   51.89    6.80
  -3   1  -4   51.09    9.30
   3  -1   4   37.30    8.40
   3  -1   4   56.59    6.30
   3  -1   4   59.39    6.90
   3  -1   4   53.39    9.60
   3  -1   4   41.10    5.70
   3  -1   4   69.89    8.80
  -4   1  -4 2216.18  101.49
  -4   1  -4 2163.78  103.19
  -4   1  -4 2116.79  101.39
  -4   1  -4 2169.98  102.19
  -4   1  -4 2132.09  102.09
  -4   1  -4 1888.51  102.89
   4  -1   4 2079.49  101.39
   4  -1   4 2080.89  101.89
   4  -1   4 2151.18  101.39
   4  -1   4 2174.58  102.09
   4  -1   4 2175.58  101.79
   4  -1   4 2226.88  103.19
  -5   1  -4  111.19   13.70
  -5   1  -4  109.39   15.20
  -5   1  -4  115.19   10.20
  -5   1  -4   83.49   13.90
  -5   1  -4   98.69   12.60
  -5   1  -4  111.59   11.20
  -5   1  -4  103.69   13.60
   5  -1   4  107.49   13.90
   5  -1   4  112.29    9.50
   5  -1   4   96.29   11.40
   5  -1   4   99.09   10.60
   5  -1   4  100.99   21.90
   5  -1   4   89.89   16.50
  -6   1  -4  101.19   13.10
  -6   1  -4  102.29   15.50
  -6   1  -4  112.99   16.30
  -6   1  -4   99.79   17.50
  -6   1  -4  102.49   11.70
   6  -1   4   92.89   12.10
   6  -1   4  103.49   16.20
   6  -1   4   89.29   12.80
   6  -1   4  104.59   14.90
   6  -1   4   97.09   18.30
   6  -1   4  105.79   10.80
  -7   1  -4  815.82   43.30
  -7   1  -4  860.91   41.10
  -7   1  -4  739.93   41.70
  -7   1  -4  837.72   43.70
  -7   1  -4  830.12   46.80
  -7   1  -4  744.23   40.80
   7  -1   4  839.52   40.70
   7  -1   4  765.12   40.30
   7  -1   4  750.52   44.60
   7  -1   4  831.22   42.90
   7  -1   4  798.12   42.50
   7  -1   4  822.32   41.40
  -8   1  -4  188.98   29.50
  -8   1  -4  171.18   18.20
  -8   1  -4  158.98   18.60
  -8   1  -4  189.98   16.90
  -8   1  -4  188.28   25.20
   8  -1   4  187.68   22.30
   8  -1   4  192.68   17.20
   8  -1   4  214.28   18.00
  -9   1  -4   -6.70   12.70
  -9   1  -4    8.70   12.40
  -9   1  -4    3.80    7.90
  -9   1  -4    7.30   19.90
  -9   1  -4   -3.20   12.50
  -9   1  -4   -2.70    8.50
   9  -1   4   14.00   11.20
   9  -1   4   10.10   17.80
   9  -1   4   -1.80   11.50
   9  -1   4    4.00    7.80
 -10   1  -4    9.00   14.70
 -10   1  -4   44.60   23.30
 -10   1  -4   23.10    9.70
  10  -1   4   16.80    9.10
  10   0  -4   25.40   12.10
  10   0  -4    9.80    9.30
 -10   0   4   12.60    9.90
 -10   0   4   10.90   10.80
 -10   0   4   -5.60   14.70
   9   0  -4   82.69   22.10
   9   0  -4   69.49    9.40
   9   0  -4   73.99   13.40
  -9   0   4  121.09   23.20
  -9   0   4   75.59    9.70
  -9   0   4   78.89   13.80
   8   0  -4   10.10    8.70
   8   0  -4    0.20    6.20
   8   0  -4    4.60    8.80
  -8   0   4  -15.40   10.70
  -8   0   4    6.10    6.60
  -8   0   4   -5.40    8.40
  -8   0   4    3.50    9.30
  -8   0   4   -5.10   24.20
   7   0  -4  467.35   26.40
   7   0  -4  502.45   28.90
   7   0  -4  440.16   25.60
   7   0  -4  458.15   30.30
   7   0  -4  491.55   30.20
   7   0  -4  424.36   32.70
  -7   0   4  456.95   25.80
  -7   0   4  507.25   29.30
  -7   0   4  519.05   30.40
  -7   0   4  426.06   28.80
  -7   0   4  491.15   27.00
  -7   0   4  545.15   41.50
   6   0  -4 1729.03   87.59
   6   0  -4 1729.13   90.29
   6   0  -4 1896.91   89.19
   6   0  -4 1812.82   88.69
   6   0  -4 1861.01   87.89
   6   0  -4 1773.02   89.39
  -6   0   4 1900.61   89.19
  -6   0   4 1820.92   88.79
  -6   0   4 2021.80   93.09
  -6   0   4 1755.82   89.19
  -6   0   4 1782.62   87.69
  -6   0   4 1882.11   87.99
   5   0  -4   14.70    6.00
   5   0  -4    9.10    5.50
   5   0  -4    4.20    6.60
   5   0  -4    7.70    4.50
   5   0  -4   10.40    4.00
  -5   0   4   13.90    7.30
  -5   0   4   13.90    6.00
  -5   0   4    6.90    6.90
  -5   0   4    5.90    4.60
  -5   0   4    6.50    5.10
   4   0  -4 1650.33   77.29
   4   0  -4 1551.94   77.79
   4   0  -4 1634.94   78.09
   4   0  -4 1597.54   77.09
   4   0  -4 1519.95   79.39
   4   0  -4 1634.74   78.39
  -4   0   4 1720.13   80.09
  -4   0   4 1597.94   79.09
  -4   0   4 1586.34   77.79
  -4   0   4 1674.23   77.29
  -4   0   4 1639.24   78.09
  -4   0   4 1593.14   77.09
   3   0  -4 1109.69   52.29
   3   0  -4 1077.49   51.29
   3   0  -4 1047.10   51.19
   3   0  -4 1062.79   51.99
   3   0  -4 1015.00   52.59
   3   0  -4 1022.70   51.79
  -3   0   4 1030.20   51.09
  -3   0   4 1073.79   51.89
  -3   0   4 1083.89   52.19
  -3   0   4 1105.49   53.49
  -3   0   4 1032.20   51.79
  -3   0   4 1111.79   51.39
  -3   0   4 1103.89   51.29
   2   0  -4  698.03   34.30
   2   0  -4  709.23   34.80
   2   0  -4  661.73   34.60
   2   0  -4  703.73   34.00
   2   0  -4  752.52   35.30
   2   0  -4  713.83   34.10
  -2   0   4  732.53   34.40
  -2   0   4  673.83   35.00
  -2   0   4  681.83   33.90
  -2   0   4  723.93   34.10
   1   0  -4 1747.33   79.99
   1   0  -4 1672.13   79.29
   1   0  -4 1652.83   79.29
   1   0  -4 1645.44   79.29
   1   0  -4 1683.13   78.99
   1   0  -4 1643.34   78.89
  -1   0   4 1622.54   79.19
  -1   0   4 1684.63   78.89
  -1   0   4 1592.84   79.19
  -1   0   4 1651.03   79.29
  -1   0   4 1696.13   78.89
   0   0  -4   13.60    2.60
   0   0  -4   11.50    2.20
   0   0  -4   19.80    2.40
   0   0  -4   12.20    3.10
   0   0   4   13.10    3.20
   0   0   4   15.60    2.70
   0   0   4   14.20    2.20
   0   0   4   17.60    3.20
   0   0   4   14.30    3.00
  -1   0  -4  243.18   12.40
  -1   0  -4  226.38   13.00
  -1   0  -4  243.98   13.40
  -1   0  -4  245.08   12.50
   1   0   4  249.38   12.50
   1   0   4  237.48   13.50
   1   0   4  224.98   13.10
  -2   0  -4 1491.45   67.09
  -2   0  -4 1366.46   67.29
  -2   0  -4 1409.96   66.99
  -2   0  -4 1429.36   67.49
  -2   0  -4 1372.46   68.09
   2   0   4 1347.97   67.29
   2   0   4 1406.16   66.99
   2   0   4 1464.05   67.09
   2   0   4 1402.26   68.09
   2   0   4 1401.66   67.59
  -3   0  -4 2413.26  113.19
  -3   0  -4 2337.67  113.29
  -3   0  -4 2353.26  112.89
  -3   0  -4 2401.96  112.89
  -3   0  -4 2339.47  113.29
  -3   0  -4 2375.76  113.99
   3   0   4 2397.86  113.29
   3   0   4 2373.86  112.89
   3   0   4 2374.96  113.19
   3   0   4 2473.75  113.99
   3   0   4 2340.97  112.79
  -4   0  -4   46.50   12.70
  -4   0  -4   60.79    9.70
  -4   0  -4   48.00    9.80
  -4   0  -4   59.19    7.30
  -4   0  -4   58.59   11.00
  -4   0  -4   42.10    4.70
  -4   0  -4   49.70   11.00
   4   0   4   56.49    8.80
   4   0   4   63.99    9.00
   4   0   4   42.80    5.80
   4   0   4   48.10    7.40
   4   0   4   65.69    9.30
   4   0   4   54.79    6.50
  -5   0  -4   44.80    7.00
  -5   0  -4   62.89    8.30
  -5   0  -4   59.39   11.30
  -5   0  -4   47.70    8.50
  -5   0  -4   37.50    6.70
  -5   0  -4   58.99    9.40
  -5   0  -4   49.60   11.20
   5   0   4   45.40    5.00
   5   0   4   55.19   10.00
   5   0   4   44.00    6.60
   5   0   4   46.90    7.60
   5   0   4   49.80    6.20
  -6   0  -4  120.59   12.10
  -6   0  -4  123.99   14.60
  -6   0  -4   83.79   20.00
  -6   0  -4   86.89   22.20
  -6   0  -4  116.29   11.00
  -6   0  -4  124.29   16.20
   6   0   4  104.69   20.70
   6   0   4  123.69   14.00
   6   0   4  106.99   11.10
   6   0   4  113.29   10.30
   6   0   4   88.49   12.70
   6   0   4   84.09   17.70
  -7   0  -4  187.48   25.50
  -7   0  -4  175.48   17.40
  -7   0  -4  246.78   20.20
  -7   0  -4  233.78   21.10
  -7   0  -4  233.78   15.60
  -7   0  -4  235.88   16.60
   7   0   4  206.58   22.50
   7   0   4  233.18   18.70
   7   0   4  212.98   17.20
   7   0   4  210.88   15.60
   7   0   4  214.68   15.10
   7   0   4  209.78   19.30
  -8   0  -4  607.14   32.60
  -8   0  -4  633.34   33.00
  -8   0  -4  645.84   40.50
  -8   0  -4  544.75   34.20
  -8   0  -4  647.54   36.10
   8   0   4  608.84   35.00
   8   0   4  602.34   32.40
   8   0   4  605.04   35.10
  -9   0  -4  121.89   19.40
  -9   0  -4  183.68   31.90
  -9   0  -4  157.38   25.40
  -9   0  -4  158.58   18.30
  -9   0  -4  184.18   24.90
  -9   0  -4  161.88   17.40
   9   0   4  151.58   22.00
   9   0   4  128.99   23.30
   9   0   4  166.28   18.80
   9   0   4  156.98   17.10
 -10   0  -4   25.40   10.30
 -10   0  -4   14.90   14.10
 -10   0  -4   35.60   22.10
 -10   0  -4    6.40    9.10
  10   0   4   13.50   11.90
  10   0   4    8.10    8.30
  10   0   4   37.60   14.20
  10  -1  -4   37.50    9.70
  10  -1  -4   25.30   15.10
  10  -1  -4   36.00   13.10
 -10   1   4   35.90   10.60
 -10   1   4   24.90   15.10
 -10   1   4   37.70   11.20
   9  -1  -4    0.40   15.30
   9  -1  -4   27.40   11.50
   9  -1  -4   20.30   11.30
   9  -1  -4    8.90    8.40
  -9   1   4    3.50    9.00
  -9   1   4   -5.80   13.50
  -9   1   4   17.20   10.10
   8  -1  -4   20.30    9.40
   8  -1  -4   -2.00    7.30
   8  -1  -4   15.70    9.90
   8  -1  -4   -8.60   11.00
  -8   1   4   -3.10    9.80
  -8   1   4   -6.20   11.30
  -8   1   4   14.30   10.00
   7  -1  -4  100.69   14.10
   7  -1  -4  120.69   12.50
   7  -1  -4  100.29   23.10
   7  -1  -4  118.99   26.20
   7  -1  -4  112.59   19.70
   7  -1  -4   82.49   11.70
  -7   1   4  139.59   18.00
  -7   1   4  116.89   12.90
  -7   1   4  104.99   14.80
  -7   1   4  100.29   17.30
  -7   1   4  111.69   20.10
  -7   1   4   78.19   17.70
   6  -1  -4    0.60    7.60
   6  -1  -4    2.50    5.40
   6  -1  -4   20.60    9.30
   6  -1  -4  -10.20   11.90
   6  -1  -4    5.00    8.50
   6  -1  -4   11.00    4.70
  -6   1   4   10.10    6.40
  -6   1   4   -1.20    5.80
  -6   1   4    7.50    4.80
  -6   1   4   14.10    8.40
  -6   1   4   17.00    7.30
   5  -1  -4 2048.59   96.49
   5  -1  -4 2010.00   98.09
   5  -1  -4 1973.40   96.29
   5  -1  -4 2006.90   97.39
   5  -1  -4 1968.00   97.09
   5  -1  -4 1962.40   98.79
  -5   1   4 2071.89   96.59
  -5   1   4 2132.39  100.29
  -5   1   4 1926.61   97.99
  -5   1   4 2083.59   97.49
  -5   1   4 2016.40   96.29
  -5   1   4 2029.00   97.09
   4  -1  -4  857.71   42.50
   4  -1  -4  869.71   43.80
   4  -1  -4  863.41   43.40
   4  -1  -4  904.81   44.30
   4  -1  -4  900.61   42.70
   4  -1  -4  836.52   45.20
   4  -1  -4  863.11   42.40
  -4   1   4  892.21   43.80
  -4   1   4  904.21   43.40
  -4   1   4  893.91   42.70
  -4   1   4  848.32   46.80
  -4   1   4  858.11   43.90
  -4   1   4  871.51   42.40
   3  -1  -4 2907.61  137.69
   3  -1  -4 2841.52  136.49
   3  -1  -4 2901.31  137.09
   3  -1  -4 2844.22  136.99
   3  -1  -4 2870.31  136.79
   3  -1  -4 2926.91  136.59
   3  -1  -4 2892.61  137.89
  -3   1   4 2894.81  138.19
  -3   1   4 2808.22  137.49
  -3   1   4 2942.01  136.59
  -3   1   4 2870.41  136.99
  -3   1   4 2774.62  136.89
  -3   1   4 2982.30  137.29
   2  -1  -4 1847.22   88.19
   2  -1  -4 1845.62   87.69
   2  -1  -4 1828.02   87.69
   2  -1  -4 1863.91   87.99
   2  -1  -4 1780.62   88.09
   2  -1  -4 1895.31   88.79
  -2   1   4 1850.21   87.69
  -2   1   4 1889.31   88.09
  -2   1   4 1820.92   88.99
  -2   1   4 1908.41   88.69
  -2   1   4 1798.92   87.99
  -2   1   4 1868.71   88.19
  -2   1   4 1819.82   87.69
   1  -1  -4  149.59   10.40
   1  -1  -4  127.89    7.80
   1  -1  -4  120.89    8.90
   1  -1  -4  131.99    7.90
   1  -1  -4  125.59    9.30
   1  -1  -4  131.89    8.60
  -1   1   4  122.99    7.60
  -1   1   4  131.79    8.80
  -1   1   4  134.09    9.10
  -1   1   4  122.79    8.40
   0  -1  -4 3050.99  150.08
   0   1   4 3147.39  150.18
   0   1   4 3300.67  150.08
  -1  -1  -4   79.49    7.50
  -1  -1  -4   90.99    7.10
   1   1   4   88.19    7.70
  -2  -1  -4 4004.60  188.38
   2   1   4 4093.69  188.48
   2   1   4 3829.72  188.38
  -3  -1  -4 3776.92  179.58
   3   1   4 3861.41  179.98
   3   1   4 3781.02  179.68
   3   1   4 3731.13  179.58
  -4  -1  -4  544.75   31.80
   4   1   4  672.83   30.80
   4   1   4  602.84   30.70
  -5  -1  -4   28.70    3.90
  -5  -1  -4   23.90    4.40
  -5  -1  -4   22.40    5.80
  -5  -1  -4   19.40    9.60
  -5  -1  -4   22.90    7.60
   5   1   4   25.80    9.40
   5   1   4   25.20    4.00
   5   1   4   40.10    6.80
   5   1   4   16.10    4.60
  -6  -1  -4  548.15   27.80
  -6  -1  -4  595.64   30.30
  -6  -1  -4  511.25   32.20
  -6  -1  -4  596.04   28.30
  -6  -1  -4  508.55   29.50
  -6  -1  -4  488.85   30.80
  -6  -1  -4  544.95   29.20
   6   1   4  547.65   31.70
   6   1   4  564.44   29.20
   6   1   4  543.05   27.80
   6   1   4  561.94   27.60
  -7  -1  -4   87.49   11.00
  -7  -1  -4   51.79   10.70
  -7  -1  -4   49.40   14.50
  -7  -1  -4   96.89   15.20
  -7  -1  -4   76.79   12.30
   7   1   4   69.19   14.10
   7   1   4   68.89   10.10
   7   1   4   62.89   13.10
   7   1   4   61.89   10.80
   7   1   4   70.89   10.00
  -8  -1  -4  308.37   19.50
  -8  -1  -4  261.77   21.70
  -8  -1  -4  337.87   23.40
  -8  -1  -4  319.27   29.40
   8   1   4  289.67   19.00
   8   1   4  276.97   18.40
   8   1   4  327.07   34.30
  -9  -1  -4   69.69   19.50
  -9  -1  -4   36.60   12.30
  -9  -1  -4   36.90    7.40
  -9  -1  -4   25.90    7.90
  -9  -1  -4   30.60   12.60
   9   1   4   46.30   10.70
   9   1   4   24.00    7.10
   9   1   4   28.70   10.00
 -10  -1  -4   26.00    9.30
 -10  -1  -4    8.80   13.50
 -10  -1  -4   39.40   21.20
 -10  -1  -4    5.40    8.90
  10   1   4   24.70   11.80
 -11  -1  -4   -1.50    9.60
 -11  -1  -4  -20.70   14.80
 -11  -1  -4   19.00   23.70
  11   1   4   27.60   15.50
  11   1   4   -2.60   11.40
   9  -2  -4    5.00   12.60
   9  -2  -4    8.70   11.90
   9  -2  -4  -17.00    8.60
   9  -2  -4  -22.80   13.40
  -9   2   4    5.40   10.20
  -9   2   4   -9.10    8.90
   8  -2  -4   46.20    8.40
   8  -2  -4   50.29   13.00
   8  -2  -4   60.09   10.80
  -8   2   4  107.29   20.30
  -8   2   4   61.99    9.10
  -8   2   4   51.69   12.80
   7  -2  -4   67.39   11.40
   7  -2  -4   58.49    9.90
   7  -2  -4   97.19   12.50
   7  -2  -4   67.69   15.30
  -7   2   4   69.19    8.30
  -7   2   4   65.99   18.20
  -7   2   4   72.29   11.60
  -7   2   4  108.49   17.50
  -7   2   4   98.59   18.10
   6  -2  -4  437.66   24.40
   6  -2  -4  429.96   28.00
   6  -2  -4  430.56   23.90
   6  -2  -4  443.86   28.70
   6  -2  -4  393.16   30.60
  -6   2   4  459.15   27.70
  -6   2   4  455.65   26.30
  -6   2   4  363.26   26.80
  -6   2   4  489.85   26.40
  -6   2   4  443.96   24.50
  -6   2   4  433.96   23.80
   5  -2  -4   11.50   11.10
   5  -2  -4   26.10    5.20
   5  -2  -4   31.10    7.80
   5  -2  -4   26.20    7.40
  -5   2   4   31.00    5.30
  -5   2   4   32.50    7.80
  -5   2   4   17.40    6.70
  -5   2   4   19.10    6.20
   4  -2  -4  111.49   10.10
   4  -2  -4   91.89    9.50
   4  -2  -4  110.19   13.70
   4  -2  -4  116.59   12.30
   4  -2  -4  115.59    9.30
   4  -2  -4  120.09   13.90
  -4   2   4  114.79   14.00
  -4   2   4  124.49   12.00
  -4   2   4  107.99   10.30
  -4   2   4   88.19   14.90
  -4   2   4   93.19   12.50
   3  -2  -4  368.66   19.90
   3  -2  -4  374.06   20.70
   3  -2  -4  398.56   21.90
   3  -2  -4  398.46   19.80
   3  -2  -4  320.67   29.40
   3  -2  -4  395.16   21.00
   3  -2  -4  381.26   19.40
  -3   2   4  391.66   19.70
  -3   2   4  378.36   20.80
  -3   2   4  374.66   21.50
  -3   2   4  391.16   19.40
  -3   2   4  366.16   20.60
  -3   2   4  379.26   22.20
   2  -2  -4 2459.35  116.09
   2  -2  -4 2444.66  116.99
   2  -2  -4 2432.86  116.89
   2  -2  -4 2450.75  116.19
   2  -2  -4 2482.95  115.79
   2  -2  -4 2404.16  115.69
   2  -2  -4 2374.86  116.09
  -2   2   4 2410.26  115.99
  -2   2   4 2537.35  116.29
  -2   2   4 2490.75  115.79
  -2   2   4 2398.56  116.79
  -2   2   4 2403.06  115.69
   1  -2  -4 1784.72   83.49
   1  -2  -4 1687.83   82.69
  -1   2   4 1673.23   82.69
  -1   2   4 1879.01   82.89
  -1   2   4 1639.34   83.29
   0  -2  -4   78.99    7.00
   0  -2  -4   87.09    9.10
   0   2   4   87.79    7.20
   0   2   4   79.39    7.40
  -1  -2  -4  238.38   13.90
  -1  -2  -4  240.88   13.30
   1   2   4  254.37   13.60
  -2  -2  -4    1.50    2.60
  -2  -2  -4   -4.60    4.40
   2   2   4    0.60    3.00
   2   2   4   -0.90    4.50
  -3  -2  -4  361.36   19.20
  -3  -2  -4  370.96   19.20
  -3  -2  -4  367.26   20.00
   3   2   4  368.76   19.70
   3   2   4  365.96   20.40
   3   2   4  379.26   19.60
  -4  -2  -4 5013.70  228.38
  -4  -2  -4 4349.16  228.78
  -4  -2  -4 4858.11  228.28
   4   2   4 4828.82  228.28
   4   2   4 5045.70  228.08
   4   2   4 4754.62  227.88
  -5  -2  -4  819.82   42.60
  -5  -2  -4  855.91   40.70
  -5  -2  -4  768.12   41.20
   5   2   4  788.42   42.70
   5   2   4  809.42   42.10
   5   2   4  873.61   41.00
  -6  -2  -4  284.97   20.40
  -6  -2  -4  317.47   24.20
  -6  -2  -4  302.57   20.10
   6   2   4  338.47   22.90
   6   2   4  356.56   19.90
  -7  -2  -4  603.14   35.20
  -7  -2  -4  707.23   33.60
  -7  -2  -4  652.33   38.90
   7   2   4  660.43   37.30
   7   2   4  637.14   32.80
   7   2   4  676.93   34.90
  -8  -2  -4  342.27   24.80
  -8  -2  -4  387.76   22.00
  -8  -2  -4  412.16   22.60
  -8  -2  -4  359.26   36.70
   8   2   4  394.86   28.40
   8   2   4  352.46   27.80
   8   2   4  393.36   21.50
   8   2   4  361.26   21.50
  -9  -2  -4   86.79   21.30
  -9  -2  -4  109.59   22.80
  -9  -2  -4   99.79   15.80
  -9  -2  -4  128.49   14.90
  -9  -2  -4  143.49   20.60
  -9  -2  -4  123.39   27.20
   9   2   4  120.09   17.50
   9   2   4  100.39   13.80
 -10  -2  -4   17.80    9.10
 -10  -2  -4   34.40   19.90
 -10  -2  -4    5.10    8.20
  10   2   4   15.90   11.30
 -11  -2  -4   -8.70    9.30
 -11  -2  -4   25.90   23.10
  11   2   4   -9.50    8.00
  11   2   4    6.50   12.70
  11   2   4   -2.40   14.90
   9  -3  -4   40.10   14.70
   9  -3  -4   38.20   13.60
   9  -3  -4   36.20    9.60
  -9   3   4   34.20   10.20
  -9   3   4   53.59   10.70
  -9   3   4   39.60   15.20
   8  -3  -4   -0.60    8.20
   8  -3  -4    3.00   10.70
   8  -3  -4    5.30   11.20
  -8   3   4  -13.50    8.20
  -8   3   4  -18.90   12.40
  -8   3   4    0.80    8.80
   7  -3  -4  247.58   18.80
   7  -3  -4  276.97   26.30
   7  -3  -4  257.97   37.30
   7  -3  -4  247.48   19.90
   7  -3  -4  249.58   25.90
  -7   3   4  257.67   25.70
  -7   3   4  253.77   23.60
  -7   3   4  336.27   27.30
  -7   3   4  275.27   20.40
   6  -3  -4  335.47   20.90
   6  -3  -4  300.47   20.60
   6  -3  -4  323.77   26.60
   6  -3  -4  294.37   32.10
   6  -3  -4  356.06   28.20
   6  -3  -4  357.76   26.20
   6  -3  -4  308.37   19.90
  -6   3   4  333.57   21.10
  -6   3   4  385.96   22.90
  -6   3   4  330.27   23.60
  -6   3   4  338.27   25.10
  -6   3   4  298.67   19.80
   5  -3  -4  178.08   13.00
   5  -3  -4  177.38   18.80
   5  -3  -4  168.68   14.00
   5  -3  -4  156.38   18.10
   5  -3  -4  173.68   16.30
   5  -3  -4  131.69   21.50
  -5   3   4  170.88   12.70
  -5   3   4  164.78   18.10
  -5   3   4  131.99   16.80
  -5   3   4  190.28   16.40
  -5   3   4  172.08   16.20
  -5   3   4  167.88   14.00
   4  -3  -4  478.65   31.90
   4  -3  -4  546.75   27.30
   4  -3  -4  496.25   27.50
   4  -3  -4  537.45   26.90
   4  -3  -4  502.45   28.30
   4  -3  -4  572.54   30.40
   4  -3  -4  514.75   29.30
  -4   3   4  526.35   26.70
  -4   3   4  548.95   29.20
  -4   3   4  487.75   29.40
  -4   3   4  551.64   28.40
  -4   3   4  534.75   27.20
  -4   3   4  547.35   28.50
   3  -3  -4   -9.30    8.40
   3  -3  -4    4.40    5.80
   3  -3  -4   10.00    5.40
   3  -3  -4   10.40    3.40
   3  -3  -4   10.40    5.00
   3  -3  -4    9.60    3.90
   3  -3  -4    6.40    3.70
  -3   3   4    5.50    4.80
  -3   3   4   12.00    3.30
  -3   3   4    8.30    3.90
  -3   3   4    5.30    4.10
  -3   3   4   11.40    4.70
   2  -3  -4 3633.84  171.48
   2  -3  -4 3461.95  171.98
   2  -3  -4 3725.63  172.48
   2  -3  -4 3723.53  171.08
   2  -3  -4 3595.34  170.98
   2  -3  -4 3518.25  172.38
   2  -3  -4 3577.54  171.38
  -2   3   4 3577.14  171.38
  -2   3   4 3813.92  171.68
  -2   3   4 3457.85  172.18
  -2   3   4 3671.73  171.08
   1  -3  -4 1051.99   53.49
   1  -3  -4 1094.19   53.59
   1  -3  -4 1158.78   54.59
  -1   3   4 1080.19   54.39
  -1   3   4 1165.98   53.69
   0  -3  -4   87.39    7.90
   0  -3  -4   84.19    7.20
   0  -3  -4   96.79    9.50
   0   3   4   94.79    8.20
   0   3   4   88.79    8.40
  -1  -3  -4  393.76   20.80
  -1  -3  -4  359.56   19.50
  -1  -3  -4  359.76   20.10
  -1  -3  -4  381.96   19.50
  -1  -3  -4  366.36   18.90
   1   3   4  388.56   19.10
   1   3   4  387.06   19.70
  -2  -3  -4 1275.77   61.09
  -2  -3  -4 1237.18   61.29
  -2  -3  -4 1286.37   61.29
   2   3   4 1245.78   61.29
   2   3   4 1305.67   61.19
  -3  -3  -4  364.96   19.70
  -3  -3  -4  362.46   20.30
  -3  -3  -4  375.26   19.70
   3   3   4  371.86   19.90
   3   3   4  391.26   19.90
  -4  -3  -4   -1.80    6.20
  -4  -3  -4   -2.20    4.70
  -4  -3  -4   -0.30    3.30
  -4  -3  -4   -5.50    7.70
   4   3   4   -6.60    5.40
   4   3   4   -4.00    3.80
  -5  -3  -4  433.16   23.10
  -5  -3  -4  415.46   23.90
  -5  -3  -4  428.16   25.70
   5   3   4  443.06   23.80
  -6  -3  -4  653.43   34.90
  -6  -3  -4  586.34   34.80
  -6  -3  -4  701.63   37.10
   6   3   4  663.73   37.30
   6   3   4  706.43   34.60
  -7  -3  -4    5.40    9.80
  -7  -3  -4    4.80    7.50
  -7  -3  -4   20.30   13.80
   7   3   4   11.50    8.70
   7   3   4   13.30    8.50
  -8  -3  -4  105.89   19.80
  -8  -3  -4   86.29   12.60
  -8  -3  -4   70.39   15.10
   8   3   4   58.49   11.10
  -9  -3  -4   44.80    9.00
   9   3   4   38.30   15.30
 -10  -3  -4   21.10   19.30
 -10  -3  -4   17.40   10.10
  10   3   4    8.60   12.00
 -11  -3  -4   -7.40    8.80
 -11  -3  -4   26.80   21.90
  11   3   4  -10.50   14.60
  11   3   4    9.40   15.50
   8  -4  -4  -15.50   13.40
   8  -4  -4    0.70   12.30
   8  -4  -4   -5.80    8.70
  -8   4   4   -3.10    8.80
  -8   4   4   11.30    9.30
  -8   4   4  -18.20   13.70
   7  -4  -4   22.40   11.30
   7  -4  -4    1.60    7.70
   7  -4  -4    4.00   12.10
   7  -4  -4   12.40    7.00
   7  -4  -4   11.80    6.60
  -7   4   4    7.10    7.90
  -7   4   4    0.80   11.90
  -7   4   4   22.20    8.40
   6  -4  -4   63.79   12.00
   6  -4  -4   79.19   13.00
   6  -4  -4   78.09   13.50
   6  -4  -4   55.49   11.60
   6  -4  -4   55.29    7.80
  -6   4   4   56.49   10.30
  -6   4   4   49.40    7.80
  -6   4   4   61.69   11.40
   5  -4  -4  326.37   24.30
   5  -4  -4  281.77   21.30
   5  -4  -4  288.17   23.90
   5  -4  -4  301.97   18.50
   5  -4  -4  321.77   26.70
   5  -4  -4  290.67   19.20
   5  -4  -4  299.87   19.20
  -5   4   4  309.47   23.10
  -5   4   4  331.87   20.80
  -5   4   4  299.87   19.20
  -5   4   4  305.17   21.50
  -5   4   4  289.67   18.20
  -5   4   4  246.68   22.10
   4  -4  -4  343.87   20.00
   4  -4  -4  374.86   23.70
   4  -4  -4  352.36   19.70
   4  -4  -4  340.97   21.40
   4  -4  -4  314.47   25.00
   4  -4  -4  303.97   22.80
   4  -4  -4  311.97   19.00
  -4   4   4  338.57   19.60
  -4   4   4  367.86   21.00
  -4   4   4  336.57   22.50
  -4   4   4  337.77   21.30
  -4   4   4  308.27   22.20
  -4   4   4  342.37   18.90
   3  -4  -4  102.69   14.40
   3  -4  -4   83.39   12.00
   3  -4  -4   74.69   12.00
   3  -4  -4   70.59   13.20
   3  -4  -4   86.29    8.70
   3  -4  -4   76.49   14.30
   3  -4  -4   83.09   10.10
  -3   4   4   86.79    8.80
  -3   4   4   75.99   12.70
  -3   4   4   83.69   11.30
  -3   4   4   75.89    9.70
  -3   4   4   88.29   11.60
   2  -4  -4    3.40    7.70
   2  -4  -4    3.80    3.80
   2  -4  -4    9.20    3.30
   2  -4  -4    5.60    5.40
   2  -4  -4    9.10    5.40
  -2   4   4   10.80    4.20
  -2   4   4    4.30    3.40
  -2   4   4    5.40    4.70
   1  -4  -4 1743.63   84.89
   1  -4  -4 1770.62   85.09
   1  -4  -4 1842.82   85.99
  -1   4   4 1851.91   84.99
  -1   4   4 1662.93   85.99
   0  -4  -4 4779.32  220.38
   0  -4  -4 4299.47  219.88
   0   4   4 4832.72  219.78
  -1  -4  -4   26.30    3.20
  -1  -4  -4   28.20    7.20
  -1  -4  -4   34.40    8.70
  -1  -4  -4   32.50    7.40
  -1  -4  -4   25.80    6.50
   1   4   4   29.90    3.60
  -2  -4  -4 2895.81  133.79
  -2  -4  -4 2871.41  133.99
  -2  -4  -4 2738.33  133.79
  -2  -4  -4 2850.91  134.29
   2   4   4 2774.82  133.69
   2   4   4 2740.83  133.39
  -3  -4  -4 2779.32  136.79
  -3  -4  -4 2781.72  136.79
  -3  -4  -4 2966.20  137.19
  -3  -4  -4 2930.71  136.29
   3   4   4 2840.72  136.29
   3   4   4 2867.11  136.49
   3   4   4 2894.31  137.09
  -4  -4  -4   24.00    8.40
  -4  -4  -4   21.60    7.20
  -4  -4  -4   16.90    5.10
  -4  -4  -4   16.70    3.90
   4   4   4   15.30    3.90
   4   4   4   14.60    5.60
   4   4   4   23.90    6.30
  -5  -4  -4  348.67   19.80
  -5  -4  -4  327.67   21.60
   5   4   4  331.17   19.80
   5   4   4  309.47   22.80
  -6  -4  -4   94.99   16.00
  -6  -4  -4  130.19   12.10
  -6  -4  -4  116.19   18.90
  -6  -4  -4  102.49   13.90
   6   4   4  110.09   14.10
  -7  -4  -4   18.00    6.20
  -7  -4  -4   47.40   13.90
  -7  -4  -4   31.70   10.20
   7   4   4   42.80   10.20
   7   4   4   24.30    9.20
  -8  -4  -4   65.99   14.50
  -8  -4  -4   73.59   12.70
   8   4   4  102.79   19.70
   8   4   4   61.39   11.30
  -9  -4  -4   19.80   18.10
   9   4   4   22.10   12.70
   9   4   4   -1.00   15.00
 -10  -4  -4   91.49   21.70
  10   4   4   66.49   15.30
 -11  -4  -4   18.50   22.50
  11   4   4   16.90   14.70
   8  -5  -4  -12.10   14.40
   8  -5  -4   -8.10    9.20
   8  -5  -4   -2.40   13.40
  -8   5   4  -13.00    9.20
  -8   5   4  -21.00   14.00
  -8   5   4  -12.00    9.60
   7  -5  -4    7.00   11.80
   7  -5  -4  -15.90   13.00
   7  -5  -4   -2.50    8.20
   7  -5  -4    9.50    8.30
  -7   5   4   -1.40   12.60
  -7   5   4   -2.90    9.20
  -7   5   4    9.90    8.50
   6  -5  -4  970.60   54.79
   6  -5  -4 1156.48   54.79
   6  -5  -4 1048.70   53.99
   6  -5  -4  987.40   59.99
   6  -5  -4 1157.18   57.99
   6  -5  -4 1021.70   59.09
  -6   5   4 1103.69   54.69
  -6   5   4 1171.78   57.89
  -6   5   4 1176.88   55.79
   5  -5  -4   67.99   13.80
   5  -5  -4   87.29   14.20
   5  -5  -4   72.49   10.20
   5  -5  -4   81.39   14.90
   5  -5  -4  113.89   17.50
   5  -5  -4  102.09   20.80
  -5   5   4  101.69   14.20
  -5   5   4   83.69   14.10
  -5   5   4  114.89   16.10
   4  -5  -4   46.10    8.00
   4  -5  -4   39.20    6.30
   4  -5  -4   44.90    6.50
   4  -5  -4   80.99   19.00
   4  -5  -4   72.99   17.30
   4  -5  -4   46.80    8.50
  -4   5   4   48.50    7.90
  -4   5   4   44.00    8.20
  -4   5   4   39.60    5.40
  -4   5   4   47.70    6.30
  -4   5   4   72.99   13.90
   3  -5  -4   99.69   13.50
   3  -5  -4  105.09   11.70
   3  -5  -4  137.99   16.50
   3  -5  -4  113.89   12.60
   3  -5  -4   74.29   16.10
   3  -5  -4   91.19   17.70
   3  -5  -4  106.59   10.30
  -3   5   4  127.19   13.50
  -3   5   4  101.39   11.20
  -3   5   4  109.19   14.70
  -3   5   4  120.39   10.30
   2  -5  -4  299.87   19.90
   2  -5  -4  249.97   16.70
   2  -5  -4  271.27   17.00
  -2   5   4  254.57   18.40
  -2   5   4  289.57   17.30
   1  -5  -4  679.43   33.80
   1  -5  -4  649.64   34.00
   1  -5  -4  638.14   34.80
  -1   5   4  598.14   33.50
  -1   5   4  651.73   32.60
   0  -5  -4  502.65   26.30
   0  -5  -4  521.15   27.40
   0  -5  -4  472.95   25.70
   0   5   4  524.85   26.10
  -1  -5  -4 2049.59   95.69
  -1  -5  -4 2009.70   94.79
  -1  -5  -4 1929.21   95.09
  -1  -5  -4 2020.40   95.29
  -1  -5  -4 1987.40   94.59
  -1  -5  -4 1877.71   94.39
   1   5   4 1987.90   94.59
  -2  -5  -4  633.94   31.50
  -2  -5  -4  649.74   31.50
  -2  -5  -4  607.84   31.70
  -2  -5  -4  533.95   31.00
  -2  -5  -4  661.23   31.90
   2   5   4  627.74   30.80
  -3  -5  -4  472.05   25.10
  -3  -5  -4  460.95   25.10
   3   5   4  443.26   24.80
   3   5   4  480.85   27.40
  -4  -5  -4 3007.30  145.89
  -4  -5  -4 3101.39  146.69
  -4  -5  -4 3150.98  145.49
  -4  -5  -4 2907.91  145.39
   4   5   4 3031.60  145.39
   4   5   4 3146.89  145.69
   4   5   4 3043.20  146.59
  -5  -5  -4   58.99   12.20
   5   5   4   71.19   16.80
   5   5   4   78.89   12.50
  -6  -5  -4   38.40    9.90
  -6  -5  -4   31.20    7.10
  -6  -5  -4   56.09   12.70
  -6  -5  -4   51.09   11.10
  -7  -5  -4    1.50   13.80
  -7  -5  -4    5.50    5.90
  -7  -5  -4   11.10   10.20
   7   5   4   15.70   10.50
   7   5   4    4.80    9.20
  -8  -5  -4   46.00   13.00
  -8  -5  -4   23.00   10.50
   8   5   4   51.79   14.00
   8   5   4   35.80   11.10
  -9  -5  -4  337.27   32.70
   9   5   4  337.57   25.20
   9   5   4  275.87   32.70
 -10  -5  -4   80.39   21.40
  10   5   4   54.59   13.90
 -11  -5  -4   28.10   23.20
  11   5   4    7.80   15.40
  11   5   4   -9.10   15.80
   7  -6  -4   -7.10   14.00
   7  -6  -4   -3.40    9.00
   7  -6  -4    0.80   12.80
  -7   6   4   -4.20    9.30
  -7   6   4   -6.80    8.80
   6  -6  -4    8.80    6.90
   6  -6  -4    8.00   11.40
   6  -6  -4   -0.50   12.60
   6  -6  -4    3.70    8.20
  -6   6   4   -4.10    8.00
  -6   6   4   -1.70    8.30
   5  -6  -4  452.75   29.80
   5  -6  -4  457.75   26.70
   5  -6  -4  445.06   33.90
   5  -6  -4  513.05   32.80
   5  -6  -4  509.75   27.90
  -5   6   4  488.05   27.80
  -5   6   4  474.15   29.30
   4  -6  -4  801.02   49.30
   4  -6  -4  845.82   45.80
   4  -6  -4  867.21   53.59
   4  -6  -4  891.91   46.00
   4  -6  -4  899.91   44.30
   4  -6  -4  943.31   47.00
  -4   6   4  966.50   46.10
  -4   6   4  925.81   44.90
  -4   6   4  867.11   44.40
  -4   6   4  915.11   47.80
   3  -6  -4  281.17   19.20
   3  -6  -4  319.57   23.10
   3  -6  -4  276.27   23.70
   3  -6  -4  292.47   18.30
   3  -6  -4  268.47   16.90
  -3   6   4  270.87   17.90
  -3   6   4  248.18   21.30
  -3   6   4  323.47   19.70
   2  -6  -4 1704.23   81.79
   2  -6  -4 1818.92   83.39
   2  -6  -4 1599.04   81.59
  -2   6   4 1523.65   82.59
  -2   6   4 1796.02   81.79
   1  -6  -4  299.77   20.10
   1  -6  -4  272.07   17.30
   1  -6  -4  284.27   17.90
  -1   6   4  300.97   17.90
  -1   6   4  258.27   18.90
   0  -6  -4   52.39    9.20
   0  -6  -4   43.30    7.00
   0  -6  -4   53.69   10.60
   0  -6  -4   67.19   12.20
   0   6   4   53.99   11.30
   0   6   4   70.19    9.90
  -1  -6  -4    7.90    6.20
  -1  -6  -4   12.30    5.10
  -1  -6  -4   13.10    7.50
   1   6   4   16.20    4.00
  -2  -6  -4  236.98   15.50
  -2  -6  -4  235.38   15.30
  -2  -6  -4  214.78   14.00
  -2  -6  -4  227.08   15.10
   2   6   4  232.18   14.40
  -3  -6  -4  588.74   33.20
  -3  -6  -4  635.04   32.30
  -3  -6  -4  639.44   33.40
  -3  -6  -4  673.63   33.10
  -3  -6  -4  654.53   33.30
  -3  -6  -4  689.43   36.10
  -4  -6  -4    1.30    6.20
  -4  -6  -4    7.30    4.60
  -4  -6  -4    1.00   10.40
  -4  -6  -4   10.90    7.30
  -4  -6  -4    7.60    3.90
  -4  -6  -4    4.10    5.20
   4   6   4    2.90    9.50
   4   6   4   -3.00    7.20
  -5  -6  -4  423.66   23.90
  -5  -6  -4  414.46   25.40
  -5  -6  -4  445.36   27.80
  -5  -6  -4  427.96   29.20
  -5  -6  -4  445.76   24.00
   5   6   4  442.86   24.80
   5   6   4  438.36   29.10
   5   6   4  454.05   27.40
  -6  -6  -4   77.79   20.10
  -6  -6  -4  109.49   12.80
  -6  -6  -4  112.49   19.90
  -6  -6  -4   85.59   14.80
   6   6   4  126.49   19.00
   6   6   4  132.59   15.00
   6   6   4  102.99   21.30
  -7  -6  -4   -8.10    7.40
  -7  -6  -4   -1.40   14.50
   7   6   4   -1.30    9.50
  -8  -6  -4  319.17   30.40
   8   6   4  279.87   31.00
   8   6   4  320.17   31.40
  -9  -6  -4   28.30   19.20
  -9  -6  -4   10.10   19.40
   9   6   4   -5.80   12.60
   9   6   4   13.00   12.70
 -10  -6  -4  157.08   32.80
  10   6   4  120.19   23.90
 -11  -6  -4   82.69   23.90
  11   6   4   35.70   17.60
   6  -7  -4   -3.50    8.90
   6  -7  -4   -0.30   12.40
   6  -7  -4   -8.50   13.20
  -6   7   4   -7.80    8.60
  -6   7   4   -1.20    8.70
   5  -7  -4   28.70   12.20
   5  -7  -4   34.30   11.20
   5  -7  -4   29.60    7.20
   5  -7  -4   30.10   11.90
   5  -7  -4   36.20    8.50
  -5   7   4   35.90    8.10
  -5   7   4   28.80    8.30
   4  -7  -4  323.27   26.10
   4  -7  -4  273.87   27.50
   4  -7  -4  324.67   21.00
   4  -7  -4  272.07   19.10
  -4   7   4  274.67   22.20
  -4   7   4  292.37   20.30
   3  -7  -4  191.28   17.50
   3  -7  -4  234.98   22.50
   3  -7  -4  175.08   17.50
   3  -7  -4  180.38   22.90
  -3   7   4  201.78   14.40
  -3   7   4  195.38   18.60
  -3   7   4  162.48   20.10
   2  -7  -4  155.98   15.40
   2  -7  -4  177.08   19.20
   2  -7  -4  125.79   15.20
  -2   7   4  135.99   17.30
  -2   7   4  171.38   15.30
   1  -7  -4  760.22   40.30
   1  -7  -4  852.21   42.60
   1  -7  -4  785.92   40.80
  -1   7   4  847.32   40.60
  -1   7   4  723.33   41.50
   0  -7  -4 2646.04  123.89
   0  -7  -4 2493.95  123.49
   0  -7  -4 2782.92  124.69
   0  -7  -4 2507.35  124.79
   0   7   4 2404.96  125.59
   0   7   4 2670.93  123.69
  -1  -7  -4  111.79   13.40
  -1  -7  -4   91.09   12.50
  -1  -7  -4   80.29   10.60
  -1  -7  -4   74.79   12.00
   1   7   4   95.39   11.20
  -2  -7  -4  203.58   19.80
  -2  -7  -4  210.88   13.90
  -2  -7  -4  188.68   14.90
  -2  -7  -4  201.18   15.60
  -2  -7  -4  224.28   15.70
  -2  -7  -4  173.88   15.00
  -3  -7  -4   48.30   11.30
  -3  -7  -4   41.90    8.10
  -3  -7  -4   53.59   11.80
  -3  -7  -4   44.30   14.40
  -3  -7  -4   56.39    9.70
  -3  -7  -4   34.10    8.10
  -3  -7  -4   52.89    9.20
  -4  -7  -4  834.72   43.20
  -4  -7  -4  876.91   46.60
  -4  -7  -4  872.71   47.50
  -4  -7  -4  914.61   47.40
  -4  -7  -4  858.31   44.50
  -4  -7  -4  849.72   44.30
   4   7   4  906.61   45.50
  -5  -7  -4  943.01   49.40
  -5  -7  -4 1030.10   50.19
  -5  -7  -4 1003.20   52.99
  -5  -7  -4  974.00   50.99
  -5  -7  -4 1012.70   54.09
  -5  -7  -4  952.50   49.80
   5   7   4 1026.60   53.59
   5   7   4 1058.09   50.69
   5   7   4 1060.89   52.09
  -6  -7  -4    5.90    7.30
  -6  -7  -4    0.90   10.70
  -6  -7  -4   17.20   13.90
  -6  -7  -4    9.40    8.50
   6   7   4    8.30    9.20
   6   7   4   15.50    9.50
   6   7   4   17.60   12.40
  -7  -7  -4  214.38   24.50
  -7  -7  -4  147.09   19.50
  -7  -7  -4  138.39   24.90
   7   7   4  182.48   27.00
   7   7   4  209.88   18.50
  -8  -7  -4  286.97   30.20
  -9  -7  -4   17.60   19.30
   9   7   4    0.40   13.20
   9   7   4   18.10   13.80
 -10  -7  -4   27.10   22.20
 -10  -7  -4   37.70   22.40
  10   7   4   30.60   14.50
 -11  -7  -4  177.18   38.20
   6  -8  -4  307.77   33.90
   6  -8  -4  293.97   24.70
   6  -8  -4  259.07   33.10
  -6   8   4  265.37   25.50
  -6   8   4  262.47   26.10
   5  -8  -4    6.70    8.80
   5  -8  -4   12.30   13.60
   5  -8  -4    9.10   12.30
  -5   8   4    5.20    8.50
  -5   8   4    9.00    8.70
   4  -8  -4   -0.70    6.80
   4  -8  -4  -10.90   16.30
   4  -8  -4    2.90   11.30
   4  -8  -4  -12.70    7.80
  -4   8   4   -6.00    7.40
  -4   8   4    4.70    7.90
   3  -8  -4    4.90   10.50
  -3   8   4    2.60    7.20
   2  -8  -4   12.90    9.30
  -2   8   4    8.60    6.50
  -2   8   4    4.90    7.90
   1  -8  -4   -5.00    8.10
   1  -8  -4    6.50    5.90
   1  -8  -4    0.50    6.10
  -1   8   4   -3.70    6.80
  -1   8   4    9.10    5.80
   0  -8  -4   40.30    6.90
   0  -8  -4   73.79   12.40
   0  -8  -4   47.90    8.40
   0  -8  -4   42.80    8.70
   0   8   4   45.20    7.70
  -1  -8  -4   -0.60    7.70
  -1  -8  -4    4.60    4.90
  -1  -8  -4    8.80    9.40
  -1  -8  -4   11.70    6.70
  -1  -8  -4    1.10    5.80
  -2  -8  -4    6.10    7.70
  -2  -8  -4   16.50    6.30
  -2  -8  -4   12.20    8.00
  -2  -8  -4   16.70    5.90
  -2  -8  -4   11.10    5.10
  -3  -8  -4   27.00    9.30
  -3  -8  -4   23.10    6.00
  -3  -8  -4   24.40    5.20
  -3  -8  -4   17.20    9.20
  -3  -8  -4   17.00    8.30
  -3  -8  -4   12.40   16.70
   3   8   4   19.80   10.60
  -4  -8  -4  197.18   24.40
  -4  -8  -4  217.88   23.30
  -4  -8  -4  219.78   18.20
  -4  -8  -4  238.68   17.60
  -4  -8  -4  209.78   15.70
  -4  -8  -4  265.77   26.70
  -4  -8  -4  183.98   16.70
   4   8   4  243.18   20.40
  -5  -8  -4   68.09   13.60
  -5  -8  -4   41.70    8.50
  -5  -8  -4   62.09   15.40
  -5  -8  -4   62.19   11.70
  -5  -8  -4   57.19    8.80
   5   8   4   87.49   18.40
  -6  -8  -4  531.85   31.50
  -6  -8  -4  540.45   33.90
  -6  -8  -4  655.13   38.90
  -6  -8  -4  535.35   37.10
  -6  -8  -4  597.54   36.60
   6   8   4  637.84   35.70
   6   8   4  619.34   33.20
   6   8   4  603.74   38.70
   7   8   4   60.59   11.60
   7   8   4   73.49   15.40
   7   8   4   45.30   12.30
  -8  -8  -4  141.59   28.20
   8   8   4  126.99   21.50
   8   8   4  125.09   30.40
   8   8   4  136.59   25.60
  -9  -8  -4  432.36   37.90
  -9  -8  -4  496.55   41.20
   9   8   4  415.36   30.70
 -10  -8  -4   19.50   22.30
 -10  -8  -4   40.20   24.90
  10   8   4   16.10   14.20
  10   8   4   -4.50   16.20
   5  -9  -4  123.29   29.20
   5  -9  -4  154.78   21.70
  -5   9   4  129.69   22.20
  -5   9   4  101.89   12.70
   4  -9  -4  201.18   21.00
   4  -9  -4  171.18   27.40
  -4   9   4  167.08   20.50
  -4   9   4  191.18   21.60
   3  -9  -4    1.70   11.30
  -3   9   4   -0.40    7.60
   2  -9  -4   55.99   11.60
  -2   9   4   51.29    7.90
   1  -9  -4   70.69   19.60
  -1   9   4   40.50    7.50
  -1   9   4   46.40    9.00
   0  -9  -4  279.37   18.00
   0  -9  -4  245.28   21.80
   0   9   4  210.18   20.00
   0   9   4  215.58   18.30
  -1  -9  -4    7.60    7.50
  -1  -9  -4   -5.10    8.90
  -1  -9  -4   -0.40    6.50
  -2  -9  -4   -6.80    8.90
  -2  -9  -4   -0.70    6.80
  -2  -9  -4   -1.30    6.50
  -3  -9  -4  328.97   34.80
  -3  -9  -4  341.87   22.70
  -3  -9  -4  388.56   23.90
  -3  -9  -4  318.97   22.40
  -3  -9  -4  394.66   23.90
   3   9   4  411.56   25.10
  -4  -9  -4    3.50    8.40
  -4  -9  -4    1.20    5.90
  -4  -9  -4   11.40   16.90
  -4  -9  -4   15.20    7.90
  -4  -9  -4    7.30   10.70
  -4  -9  -4    7.30    6.60
   4   9   4   12.50   11.70
  -5  -9  -4  227.68   18.90
  -5  -9  -4  190.28   20.30
  -5  -9  -4  196.98   16.40
  -5  -9  -4  248.88   30.40
  -5  -9  -4  189.38   32.30
   5   9   4  229.28   22.60
  -6  -9  -4    1.70    9.10
  -6  -9  -4    2.50   16.50
   6   9   4    9.60   13.60
  -7  -9  -4  105.69   22.70
  -7  -9  -4  109.09   26.30
   7   9   4  100.29   18.40
   7   9   4  107.19   23.20
   7   9   4   67.79   14.50
  -8  -9  -4   13.10   19.60
  -8  -9  -4   -1.80   19.10
   8   9   4   -2.60   13.30
   8   9   4   10.60   16.30
   8   9   4   -0.30   12.50
  -9  -9  -4   91.09   24.20
  -9  -9  -4   65.39   22.20
   9   9   4   70.89   15.00
   9   9   4   79.89   19.40
 -10  -9  -4  234.18   37.90
 -10  -9  -4  327.27   43.80
  10   9   4  242.08   42.90
  10   9   4  256.27   26.40
   3 -10  -4   37.40   12.80
  -3  10   4   45.00    9.00
   2 -10  -4   26.80   11.30
  -2  10   4   22.70    8.20
   1 -10  -4  225.98   19.80
   0 -10  -4   28.30   10.10
   0  10   4   26.70    8.40
  -1 -10  -4  308.87   20.50
  -1 -10  -4  302.17   24.50
  -2 -10  -4  278.57   20.00
  -2 -10  -4  316.17   23.00
  -3 -10  -4  205.18   17.50
   3  10   4  259.07   21.80
   3  10   4  214.78   25.00
  -4 -10  -4  564.34   32.30
  -4 -10  -4  537.15   32.60
  -4 -10  -4  491.15   29.50
   4  10   4  591.34   33.50
  -5 -10  -4  796.12   41.10
  -5 -10  -4  718.83   39.10
   5  10   4  751.52   49.30
  -6 -10  -4   10.40    7.40
  -6 -10  -4    4.60   19.40
  -6 -10  -4    1.90    9.60
   6  10   4   16.80   14.90
  -7 -10  -4  104.69   21.00
  -7 -10  -4  101.69   21.50
   7  10   4  114.59   24.90
  -8 -10  -4  102.79   23.40
  -8 -10  -4  107.09   22.00
   8  10   4  116.09   19.10
   8  10   4  104.89   19.30
  -9 -10  -4   45.50   22.60
  -9 -10  -4   41.10   24.10
   9  10   4   52.09   19.40
   9  10   4   45.00   14.10
   9  10   4   22.70   17.30
   2 -11  -4    8.00   12.20
   1 -11  -4   91.19   23.20
  -1  11   4   55.49   11.20
   0 -11  -4   -2.70   10.60
  -2 -11  -4   69.39   14.20
  -3 -11  -4   81.59   14.20
  -3 -11  -4   65.19   23.30
   3  11   4   95.39   19.60
  -4 -11  -4  -21.40   21.50
  -4 -11  -4  -11.70    8.80
   4  11   4   -3.00    8.70
  -5 -11  -4  370.76   40.40
  -5 -11  -4  287.37   21.90
   5  11   4  373.46   28.10
  -6 -11  -4  369.96   26.00
  -6 -11  -4  485.35   42.50
   6  11   4  454.75   32.40
  -7 -11  -4   47.00   21.60
  -7 -11  -4   54.89   22.00
   7  11   4   51.09   17.20
  -8 -11  -4    5.50   22.10
  -8 -11  -4   11.90   22.80
   8  11   4   23.90   18.20
   0 -12  -4  225.88   27.70
   0  12   4  248.88   33.10
  -1 -12  -4  161.08   24.30
  -2 -12  -4    9.20   10.00
   2  12   4   -2.20    9.90
  -3 -12  -4   82.69   24.80
  -4 -12  -4  -24.30   23.20
   4  12   4   21.20   13.90
  -5 -12  -4   17.60   23.60
  -6 -12  -4    1.30   23.90
   6  12   4   16.30   15.60
  -7 -12  -4  113.09   25.60
  -7 -12  -4  102.09   24.90
   7  12   4  147.49   27.40
   5  12  -5   55.19   10.90
   5  12  -5   89.89   18.70
  -5 -12   5   45.70   12.50
  -5 -12   5   62.09   24.00
   4  12  -5  113.19   25.40
  -4 -12   5   82.49   22.90
  -4 -12   5  143.79   23.80
   3  12  -5   83.99   17.70
  -3 -12   5   59.49   21.50
   2  12  -5   16.00    9.40
   2  12  -5   32.50   15.70
  -2 -12   5   22.90   20.20
   1  12  -5   35.80   12.00
  -1 -12   5   55.99   11.10
   7  11  -5   36.30    9.80
  -7 -11   5   28.90   11.20
  -7 -11   5   49.50   24.00
   6  11  -5   -3.80    9.00
   6  11  -5   18.20   16.10
  -6 -11   5  -18.10   15.80
  -6 -11   5  -22.60   10.40
  -6 -11   5   11.30   22.40
   5  11  -5  -15.80    9.10
   5  11  -5   15.30   15.60
  -5 -11   5   -3.40   15.70
  -5 -11   5   -9.70   20.40
   4  11  -5   60.99   10.10
   4  11  -5   52.49   15.50
  -4 -11   5   50.49   19.80
  -4 -11   5   61.69   16.00
  -4 -11   5   58.59   11.50
   3  11  -5   33.40   15.30
  -3 -11   5   64.09   15.80
  -3 -11   5   47.60   10.90
  -3 -11   5   23.20   18.60
  -3 -11   5    3.70   12.60
   2  11  -5   68.39   16.00
   2  11  -5   52.09    9.50
  -2 -11   5   60.99   18.80
   1  11  -5    8.00    8.20
   1  11  -5   -0.80   14.60
  -1 -11   5   19.00   15.20
  -1 -11   5  -22.10   13.50
  -1 -11   5  -23.00   18.40
   0  11  -5   31.60    8.80
   0  11  -5    3.20   15.10
   0 -11   5   14.60   20.40
   0 -11   5   32.10    9.80
   0 -11   5   52.19   16.10
  -1  11  -5    6.90    9.20
   1 -11   5   34.60   16.10
   1 -11   5   21.40    9.90
   8  10  -5  197.18   28.90
   8  10  -5  159.78   21.00
  -8 -10   5  211.98   39.70
  -8 -10   5  152.08   22.60
   7  10  -5   -0.50    8.50
   7  10  -5   12.70   15.80
  -7 -10   5  -11.80    9.80
  -7 -10   5  -22.00   14.50
  -7 -10   5   11.80   22.20
   6  10  -5   35.30    8.80
  -6 -10   5   20.20    8.80
  -6 -10   5   65.99   20.90
  -6 -10   5   10.30   14.90
  -6 -10   5   16.50    9.90
   5  10  -5    1.90   13.60
  -5 -10   5  -16.60   14.60
  -5 -10   5  -12.50   11.90
  -5 -10   5   -7.50   17.60
   4  10  -5   82.19   15.20
   4  10  -5   83.49   10.00
  -4 -10   5   83.09   15.30
  -4 -10   5   78.39   11.20
  -4 -10   5   77.89   18.60
   3  10  -5  489.05   33.40
   3  10  -5  515.65   31.30
  -3 -10   5  517.05   37.60
  -3 -10   5  603.04   32.30
  -3 -10   5  462.25   34.10
  -3 -10   5  473.05   29.70
   2  10  -5   92.79   16.20
   2  10  -5   76.39    9.40
  -2 -10   5   83.59   17.90
  -2 -10   5  126.29   19.00
   1  10  -5   40.40    7.80
   1  10  -5   60.79   13.20
  -1 -10   5   38.40    9.40
  -1 -10   5   19.20   17.40
  -1 -10   5   -7.50   21.90
  -1 -10   5   55.89   14.20
   0  10  -5   47.20    8.60
   0  10  -5   31.10    8.50
   0 -10   5   56.39    9.30
   0 -10   5   48.90   19.30
  -1  10  -5   11.70    8.70
  -1  10  -5   40.00   14.50
   1 -10   5   23.60   14.80
   1 -10   5   17.40    9.20
  -2  10  -5    6.70   13.60
  -2  10  -5   32.20    9.20
  -2  10  -5   61.89   17.40
   2 -10   5   32.40    9.40
   2 -10   5   33.00   15.00
  -3  10  -5   18.40    9.40
  -3  10  -5    4.90   14.80
  -3  10  -5   35.60   17.70
   3 -10   5   19.80   15.40
   3 -10   5   19.00   10.10
   9   9  -5  -11.10    8.80
   9   9  -5   15.60   17.70
   9   9  -5   11.40   10.40
  -9  -9   5  -25.00   15.00
  -9  -9   5   22.40   25.80
   8   9  -5   20.70    9.10
   8   9  -5   17.50   16.30
  -8  -9   5   12.70   23.80
   7   9  -5  182.88   19.00
   7   9  -5  202.48   24.30
  -7  -9   5  171.28   20.90
  -7  -9   5  232.68   35.40
  -7  -9   5  151.98   28.60
   6   9  -5  125.39   20.70
   6   9  -5   92.29    9.80
  -6  -9   5   91.49   15.50
  -6  -9   5   74.89   12.20
  -6  -9   5   78.69   10.40
  -6  -9   5  138.79   31.80
   5   9  -5    1.20   12.20
   5   9  -5   -6.80    7.50
  -5  -9   5   -9.50   16.60
  -5  -9   5  -14.60   10.10
  -5  -9   5  -17.50   13.20
  -5  -9   5  -14.00    6.90
   4   9  -5   49.50    8.70
   4   9  -5   58.79   13.50
  -4  -9   5   28.00   10.40
  -4  -9   5   51.39   16.80
  -4  -9   5   42.30    9.40
  -4  -9   5   26.90    7.20
  -4  -9   5   46.50   13.30
   3   9  -5  -10.30   19.80
  -3  -9   5   11.60    8.80
   2   9  -5  989.40   50.99
   2   9  -5  927.21   46.90
  -2  -9   5  852.51   49.40
  -2  -9   5  936.01   46.80
  -2  -9   5  965.50   47.60
  -2  -9   5  853.51   55.09
   1   9  -5  511.45   28.90
   1   9  -5  607.14   35.20
  -1  -9   5  541.05   30.30
  -1  -9   5  470.75   32.80
  -1  -9   5  495.45   29.10
  -1  -9   5  424.96   46.50
   0   9  -5  245.68   21.90
   0   9  -5  304.07   20.20
   0  -9   5  205.88   26.90
   0  -9   5  247.28   19.90
   0  -9   5  324.87   21.40
  -1   9  -5  469.55   33.00
  -1   9  -5  577.44   31.20
   1  -9   5  649.64   37.80
   1  -9   5  591.14   31.40
   1  -9   5  463.55   30.70
   1  -9   5  486.35   35.50
  -2   9  -5  518.85   38.10
  -2   9  -5  422.26   29.80
  -2   9  -5  482.95   41.60
   2  -9   5  358.36   33.70
   2  -9   5  512.05   36.10
   2  -9   5  449.46   28.60
  -3   9  -5   26.30    9.10
  -3   9  -5   26.40   15.80
   3  -9   5  -10.30   19.10
   3  -9   5   28.30    8.90
   3  -9   5   19.80   14.00
  -4   9  -5   20.40   14.80
  -4   9  -5   33.40   15.80
  -4   9  -5   20.70    9.70
   4  -9   5   25.10    9.50
   4  -9   5   34.50   14.90
   9   8  -5  -12.30   11.20
   9   8  -5  -16.20    8.60
   9   8  -5   19.40   16.60
   9   8  -5   -3.00   10.10
  -9  -8   5   12.00   24.90
   8   8  -5   66.29   14.30
   8   8  -5   46.30   11.90
   8   8  -5   50.69    9.00
  -8  -8   5   44.20    9.90
  -8  -8   5   40.60   14.10
   7   8  -5  341.97   21.80
   7   8  -5  351.96   24.00
   7   8  -5  363.36   28.00
  -7  -8   5  349.96   31.50
  -7  -8   5  425.86   38.20
  -7  -8   5  344.77   23.00
  -7  -8   5  361.96   25.20
  -7  -8   5  401.56   27.90
   6   8  -5    5.70   12.00
   6   8  -5    4.00    6.70
  -6  -8   5  -14.80    8.00
  -6  -8   5   -0.40    6.30
  -6  -8   5   15.70   18.40
  -6  -8   5   -4.90    9.40
   5   8  -5   -6.30   11.60
  -5  -8   5  -12.90    6.30
  -5  -8   5   -6.70   22.40
  -5  -8   5  -14.20    9.20
   4   8  -5  387.36   24.00
   4   8  -5  413.16   28.80
   4   8  -5  409.96   26.90
   4   8  -5  443.06   26.10
  -4  -8   5  464.45   32.60
  -4  -8   5  398.86   28.10
  -4  -8   5  443.16   31.40
  -4  -8   5  476.65   27.90
   3   8  -5   14.20    8.10
   3   8  -5    8.80   12.30
   3   8  -5   19.60    5.50
  -3  -8   5    3.10    8.90
  -3  -8   5    6.60   10.10
  -3  -8   5   23.60   11.60
  -3  -8   5   30.00   13.40
  -3  -8   5   18.30    8.00
   2   8  -5   86.19   13.40
   2   8  -5   48.40    8.90
   2   8  -5   72.79   11.10
   2   8  -5   52.19    6.30
  -2  -8   5   34.90    9.70
  -2  -8   5   87.69   20.80
  -2  -8   5   47.30    7.70
  -2  -8   5   61.89    8.00
   1   8  -5   47.20    6.80
   1   8  -5   44.00    9.00
   1   8  -5   36.40    6.90
   1   8  -5   35.40    6.10
  -1  -8   5   30.50    6.90
  -1  -8   5   27.80    9.70
  -1  -8   5   57.29    7.70
  -1  -8   5   55.29   11.40
  -1  -8   5   60.49   14.70
   0   8  -5  137.29   17.00
   0   8  -5  147.29   15.20
   0   8  -5  174.48   19.10
   0   8  -5  210.98   16.00
   0  -8   5  186.68   24.30
   0  -8   5  162.98   15.70
   0  -8   5  206.48   21.20
  -1   8  -5   74.09   16.20
  -1   8  -5  107.59   19.10
   1  -8   5   97.89   14.10
   1  -8   5   74.39   11.10
  -2   8  -5  762.62   45.90
  -2   8  -5  853.91   43.60
  -2   8  -5  812.02   46.30
   2  -8   5  887.51   43.60
   2  -8   5  963.70   48.10
   2  -8   5  762.62   43.20
  -3   8  -5  326.67   31.10
   3  -8   5  251.67   27.00
   3  -8   5  265.87   26.90
   3  -8   5  298.67   22.00
  -4   8  -5   77.49   10.10
  -4   8  -5   88.29   15.00
   4  -8   5   97.29   14.80
   4  -8   5  100.29   17.60
   4  -8   5   57.69   13.80
  -5   8  -5   15.80   14.10
  -5   8  -5  -18.70   22.20
  -5   8  -5   -8.10    8.90
  -5   8  -5    2.20   15.20
   5  -8   5   -3.70    9.00
   5  -8   5   -0.40   14.00
  10   7  -5   -4.60   11.80
  10   7  -5   29.50   18.70
  10   7  -5  -12.30    9.20
 -10  -7   5  -12.70   10.40
 -10  -7   5  -17.80   15.30
 -10  -7   5  -11.30   25.30
   9   7  -5  -13.00    8.50
   9   7  -5   20.60   15.80
  -9  -7   5   -0.40   23.50
  -9  -7   5   10.20    8.40
  -9  -7   5  -17.50    9.50
   8   7  -5   56.39    8.80
   8   7  -5   46.30   11.90
  -8  -7   5   89.69   23.40
  -8  -7   5   44.50    9.40
  -8  -7   5   43.80   13.50
   7   7  -5    7.80    7.50
   7   7  -5    0.00   10.80
  -7  -7   5   -2.20   12.60
  -7  -7   5   21.70    6.50
  -7  -7   5   41.40   20.40
  -7  -7   5    6.90    8.00
  -7  -7   5   21.90    9.70
   6   7  -5  787.52   39.00
   6   7  -5  686.43   39.90
   6   7  -5  768.62   43.80
   6   7  -5  727.43   40.60
   6   7  -5  763.52   41.60
  -6  -7   5  737.73   40.80
  -6  -7   5  703.43   43.80
  -6  -7   5  719.63   38.20
  -6  -7   5  847.42   49.60
  -6  -7   5  758.52   43.10
   5   7  -5  174.58   13.40
   5   7  -5  141.19   19.50
   5   7  -5  147.39   15.30
   5   7  -5  154.38   18.50
   5   7  -5  153.98   17.90
  -5  -7   5  161.98   18.40
  -5  -7   5  155.28   16.40
  -5  -7   5  188.58   26.30
  -5  -7   5  114.09   22.30
   4   7  -5   87.59   19.60
   4   7  -5  133.69   12.60
   4   7  -5  127.09   16.10
   4   7  -5  128.69   15.10
  -4  -7   5  133.29   18.00
  -4  -7   5  160.38   23.00
  -4  -7   5  139.39   21.50
  -4  -7   5  133.89   15.80
  -4  -7   5  144.79   13.20
   3   7  -5 1101.39   56.59
   3   7  -5 1073.09   55.09
  -3  -7   5 1138.69   55.49
  -3  -7   5 1192.28   58.29
  -3  -7   5 1125.89   58.49
  -3  -7   5 1227.18   56.19
  -3  -7   5 1055.89   56.99
   2   7  -5  199.88   18.40
   2   7  -5  212.38   22.40
   2   7  -5  194.98   14.80
   2   7  -5  207.18   16.20
  -2  -7   5  224.98   21.90
  -2  -7   5  164.78   19.50
  -2  -7   5  197.18   15.50
  -2  -7   5  218.68   16.80
  -2  -7   5  241.88   21.40
  -2  -7   5  242.78   20.80
   1   7  -5  137.99   22.50
   1   7  -5  145.39   12.80
   1   7  -5  167.98   14.20
   1   7  -5  148.49   17.20
   1   7  -5  166.08   21.00
  -1  -7   5  118.39   17.80
  -1  -7   5  158.58   20.40
  -1  -7   5  167.18   15.40
  -1  -7   5  186.18   20.70
  -1  -7   5  186.78   20.00
  -1  -7   5  137.59   19.10
   0   7  -5  587.14   31.30
   0   7  -5  541.85   32.30
   0   7  -5  628.54   35.70
   0   7  -5  580.94   33.20
   0   7  -5  572.44   30.80
   0  -7   5  611.14   35.30
   0  -7   5  601.54   31.70
   0  -7   5  577.14   33.70
   0  -7   5  607.44   31.20
   0  -7   5  635.34   35.50
  -1   7  -5   72.29    9.70
  -1   7  -5   93.09   12.00
  -1   7  -5   73.59   14.50
   1  -7   5   75.99   12.10
   1  -7   5   71.49   10.60
  -2   7  -5   26.40    9.10
  -2   7  -5   39.10    7.20
   2  -7   5   50.79   11.00
   2  -7   5   41.70    7.20
   2  -7   5   21.50    6.50
  -3   7  -5    2.80    9.90
  -3   7  -5   -4.10    8.00
  -3   7  -5   20.10    7.20
   3  -7   5   26.10   11.20
   3  -7   5   -3.80    9.70
   3  -7   5   -2.30    6.40
   3  -7   5   17.60    7.50
   3  -7   5    6.40    6.20
  -4   7  -5  291.97   28.40
  -4   7  -5  326.07   30.40
  -4   7  -5  349.17   34.80
  -4   7  -5  290.87   22.90
   4  -7   5  321.97   28.90
   4  -7   5  306.97   22.40
   4  -7   5  323.57   19.00
   4  -7   5  264.67   27.40
  -5   7  -5   -7.40    8.30
  -5   7  -5  -17.70   21.60
  -5   7  -5   -7.70   13.90
   5  -7   5    1.30   23.60
   5  -7   5  -16.50   12.20
   5  -7   5    7.90    9.30
   5  -7   5   -5.20    8.20
  -6   7  -5   81.19   11.20
  -6   7  -5  136.49   26.10
   6  -7   5   87.09   10.90
   6  -7   5   89.09   15.20
  10   6  -5  177.78   29.70
 -10  -6   5  130.99   25.70
   9   6  -5   -2.50    8.40
   9   6  -5  -12.10   11.80
  -9  -6   5   -1.60    9.00
  -9  -6   5    9.60   16.20
  -9  -6   5  -20.80   13.60
  -9  -6   5   -3.50    8.40
  -9  -6   5   28.00   23.20
  -9  -6   5   -7.20   22.00
   8   6  -5   22.60   11.30
   8   6  -5   25.00    7.80
  -8  -6   5   35.80   10.80
  -8  -6   5   15.90   12.40
  -8  -6   5   34.10    7.30
  -8  -6   5   22.40    8.50
  -8  -6   5   54.89   21.60
   7   6  -5  178.98   19.20
   7   6  -5  127.59   21.20
   7   6  -5  174.18   17.00
  -7  -6   5  153.98   20.20
  -7  -6   5  110.69   23.60
  -7  -6   5  149.09   17.40
  -7  -6   5  167.58   14.60
  -7  -6   5  194.68   37.90
   6   6  -5    9.50    7.60
   6   6  -5   10.20   11.90
   6   6  -5   -3.60    6.20
   6   6  -5    8.50    4.90
   6   6  -5   10.00   10.70
  -6  -6   5   10.90   16.90
  -6  -6   5   -8.80    6.80
  -6  -6   5    7.90    5.40
  -6  -6   5    1.70    8.00
   5   6  -5  664.23   36.70
   5   6  -5  611.94   34.50
   5   6  -5  620.84   35.80
   5   6  -5  620.04   35.20
   5   6  -5  661.33   33.10
   5   6  -5  606.04   32.20
  -5  -6   5  619.74   36.50
  -5  -6   5  592.04   34.30
  -5  -6   5  647.14   33.50
  -5  -6   5  621.14   32.60
  -5  -6   5  709.23   39.60
   4   6  -5   66.39    7.30
   4   6  -5   70.89   14.60
   4   6  -5   82.89   10.20
   4   6  -5   67.49    9.80
  -4  -6   5   73.69   10.40
  -4  -6   5   86.99   21.50
  -4  -6   5   72.89   10.50
  -4  -6   5   56.99    7.60
  -4  -6   5   76.19   15.20
   3   6  -5  208.08   14.20
   3   6  -5  202.88   16.90
  -3  -6   5  188.78   18.00
  -3  -6   5  236.18   16.10
  -3  -6   5  207.98   14.40
  -3  -6   5  182.78   22.00
  -3  -6   5  231.88   20.10
   2   6  -5 2354.16  112.19
   2   6  -5 2363.16  116.09
   2   6  -5 2408.46  112.49
   2   6  -5 2448.66  113.79
  -2  -6   5 2373.96  112.49
  -2  -6   5 2207.08  113.79
  -2  -6   5 2361.66  113.79
  -2  -6   5 2468.65  112.39
  -2  -6   5 2267.57  113.29
  -2  -6   5 2278.77  113.39
   1   6  -5  869.61   42.90
   1   6  -5  885.31   44.00
   1   6  -5  848.12   43.20
   1   6  -5  853.61   45.50
  -1  -6   5  867.71   43.50
  -1  -6   5  906.21   45.60
  -1  -6   5  895.21   43.20
  -1  -6   5  866.61   45.60
  -1  -6   5  811.02   44.80
  -1  -6   5  884.01   45.20
   0   6  -5  300.77   22.90
   0   6  -5  290.27   19.10
   0   6  -5  293.27   17.60
   0   6  -5  298.97   18.20
   0  -6   5  287.47   18.60
   0  -6   5  248.98   21.20
   0  -6   5  321.47   22.50
   0  -6   5  304.07   18.40
   0  -6   5  325.77   22.70
  -1   6  -5   63.89    9.30
  -1   6  -5   89.29   12.10
  -1   6  -5   63.09   11.00
   1  -6   5   53.49    6.60
   1  -6   5   93.99   12.70
   1  -6   5   90.19   18.30
  -2   6  -5   -1.70    8.00
  -2   6  -5    0.90    6.70
  -2   6  -5    4.80    6.10
  -2   6  -5   -2.90    5.20
  -2   6  -5    9.80    9.90
   2  -6   5    4.60    6.20
   2  -6   5   29.90   12.60
   2  -6   5   -4.90    5.20
   2  -6   5    4.30    9.30
  -3   6  -5  277.57   20.70
  -3   6  -5  254.97   18.00
  -3   6  -5  283.77   22.50
  -3   6  -5  324.37   25.00
  -3   6  -5  237.08   30.30
   3  -6   5  310.97   24.30
   3  -6   5  231.88   16.20
   3  -6   5  243.18   18.00
   3  -6   5  273.17   24.20
   3  -6   5  296.07   19.00
  -4   6  -5   49.60   10.80
  -4   6  -5   41.90    7.40
  -4   6  -5   62.39   20.10
  -4   6  -5   68.69   12.20
  -4   6  -5   56.59    8.00
  -4   6  -5   37.20    9.20
   4  -6   5   49.99    7.20
   4  -6   5   52.79   10.70
   4  -6   5   58.59   10.50
   4  -6   5   58.39   11.20
  -5   6  -5   48.10   11.90
  -5   6  -5   48.90    8.60
  -5   6  -5   52.79   13.10
  -5   6  -5   72.29   20.80
   5  -6   5   49.20    8.50
   5  -6   5   43.10   11.50
   5  -6   5   49.70   12.10
   5  -6   5   73.49   13.40
  -6   6  -5   14.70    9.00
  -6   6  -5   12.10   13.90
  -6   6  -5   18.80   22.00
  -6   6  -5    9.90   14.10
   6  -6   5   12.90    8.60
   6  -6   5   12.80   12.90
   6  -6   5   26.70   10.70
  -7   6  -5   38.90   23.90
  -7   6  -5   24.60    9.80
  -7   6  -5   15.90   15.80
   7  -6   5   22.90   20.00
   7  -6   5   26.30    9.70
  10   5  -5   71.89   14.80
  10   5  -5   66.49   10.40
 -10  -5   5   66.29   10.70
 -10  -5   5   71.59   16.00
   9   5  -5    8.20   11.90
   9   5  -5   35.20   15.70
   9   5  -5    7.70   11.90
  -9  -5   5    2.30    9.00
  -9  -5   5    6.30   13.40
  -9  -5   5   44.40   24.10
   8   5  -5  386.46   24.50
  -8  -5   5  377.96   25.10
  -8  -5   5  333.57   28.20
  -8  -5   5  406.36   38.60
   7   5  -5  492.95   30.00
   7   5  -5  484.15   26.70
   7   5  -5  488.75   33.10
   7   5  -5  530.25   30.30
   7   5  -5  513.35   28.20
   7   5  -5  491.05   31.50
  -7  -5   5  496.65   27.40
  -7  -5   5  445.76   35.10
  -7  -5   5  477.15   36.50
  -7  -5   5  527.15   32.70
   6   5  -5   79.89   10.80
   6   5  -5   84.99   15.20
   6   5  -5   67.89    7.50
   6   5  -5   63.09   10.60
  -6  -5   5   60.69   11.20
  -6  -5   5   58.99    8.00
  -6  -5   5  115.99   25.90
  -6  -5   5   85.09   16.10
  -6  -5   5   93.19   11.20
   5   5  -5   65.79    7.20
   5   5  -5  100.69   17.70
   5   5  -5   76.09    9.90
   5   5  -5   66.59   14.30
   5   5  -5   58.69    9.60
   5   5  -5   84.59   15.80
  -5  -5   5   51.39    9.80
  -5  -5   5   87.89    9.90
  -5  -5   5  106.89   22.80
  -5  -5   5   71.69   14.30
  -5  -5   5   63.79    7.40
   4   5  -5  514.65   26.60
   4   5  -5  515.45   27.50
   4   5  -5  520.85   30.80
   4   5  -5  519.85   29.50
  -4  -5   5  515.55   26.70
  -4  -5   5  478.35   28.70
  -4  -5   5  561.54   32.80
  -4  -5   5  504.25   30.20
  -4  -5   5  535.75   27.70
   3   5  -5   44.40    5.80
   3   5  -5   41.20    6.60
   3   5  -5   38.20    4.80
  -3  -5   5   31.90    6.90
  -3  -5   5   35.20    5.00
  -3  -5   5   49.80   11.30
  -3  -5   5   37.70    5.90
  -3  -5   5   35.50    7.90
   2   5  -5   65.49   12.40
   2   5  -5   77.09   15.70
   2   5  -5   65.09   10.70
   2   5  -5   65.49    7.40
  -2  -5   5   73.09    9.60
  -2  -5   5   86.59   14.90
  -2  -5   5   86.99   14.30
  -2  -5   5   61.09    8.10
  -2  -5   5   69.79   15.50
  -2  -5   5   90.19   11.10
   1   5  -5  984.00   46.90
   1   5  -5  947.01   48.40
   1   5  -5  959.50   47.00
   1   5  -5  977.80   48.10
  -1  -5   5  966.70   52.59
  -1  -5   5  905.61   48.10
  -1  -5   5  957.90   48.40
  -1  -5   5  991.50   46.90
  -1  -5   5  957.30   47.00
  -1  -5   5  936.81   48.10
   0   5  -5 1107.99   52.39
   0   5  -5 1060.49   52.79
   0   5  -5 1026.90   51.29
   0   5  -5 1050.99   52.99
   0  -5   5 1108.69   51.39
   0  -5   5 1059.19   52.69
   0  -5   5 1079.39   52.79
   0  -5   5 1042.90   51.39
   0  -5   5  945.71   53.79
  -1   5  -5  200.18   17.10
  -1   5  -5  232.68   19.90
  -1   5  -5  216.98   14.90
  -1   5  -5  219.88   14.30
  -1   5  -5  206.78   16.30
   1  -5   5  219.78   14.40
   1  -5   5  222.38   20.50
   1  -5   5  217.58   15.30
   1  -5   5  209.88   18.90
   1  -5   5  198.18   18.40
  -2   5  -5 1521.05   72.59
  -2   5  -5 1326.37   69.99
  -2   5  -5 1447.56   69.49
  -2   5  -5 1420.86   68.19
  -2   5  -5 1413.06   70.09
  -2   5  -5 1434.06   68.39
   2  -5   5 1415.16   68.39
   2  -5   5 1442.86   68.19
   2  -5   5 1415.16   69.79
   2  -5   5 1466.85   71.29
   2  -5   5 1239.68   67.59
   2  -5   5 1410.16   69.59
  -3   5  -5   -2.40    5.20
  -3   5  -5   15.20    9.40
  -3   5  -5   -4.10    7.80
  -3   5  -5    5.70    5.80
   3  -5   5   10.10    6.00
   3  -5   5   -1.40    9.90
   3  -5   5   10.00    8.80
   3  -5   5   -2.70    5.10
   3  -5   5   20.90   12.80
  -4   5  -5    9.30    9.40
  -4   5  -5   18.70   10.10
  -4   5  -5   -3.10    7.30
  -4   5  -5   11.40    6.50
  -4   5  -5   -6.70   16.40
  -4   5  -5    5.70    5.90
   4  -5   5   16.40   13.60
   4  -5   5   19.00    6.40
   4  -5   5    6.00    7.30
   4  -5   5   24.00    9.60
   4  -5   5    8.50    5.70
   4  -5   5    7.60    8.90
  -5   5  -5  109.89   23.40
  -5   5  -5  103.09   20.20
  -5   5  -5  101.89   14.80
  -5   5  -5  105.99   21.10
  -5   5  -5   73.89   13.80
   5  -5   5  123.79   15.40
   5  -5   5   83.69   14.30
   5  -5   5  118.09   21.30
   5  -5   5   69.29   11.20
   5  -5   5   97.19   13.40
  -6   5  -5   14.10   11.80
  -6   5  -5   15.20   12.80
  -6   5  -5   15.70    8.20
  -6   5  -5   13.60   20.30
   6  -5   5   19.50    7.90
   6  -5   5   24.20   11.90
   6  -5   5    3.70   11.30
   6  -5   5   16.40   10.30
  -7   5  -5  422.16   39.70
  -7   5  -5  375.96   35.10
  -7   5  -5  386.36   34.60
  -7   5  -5  377.26   27.40
   7  -5   5  442.66   26.50
   7  -5   5  405.96   33.20
   7  -5   5  395.76   26.80
  -8   5  -5   72.79   25.00
  -8   5  -5   32.10   16.40
  -8   5  -5   37.90   10.90
   8  -5   5   43.20   10.30
   8  -5   5   48.70   15.90
  10   4  -5  -12.60    9.00
  10   4  -5   30.60   18.40
  10   4  -5  -18.50   13.50
  10   4  -5   13.50   10.00
 -10  -4   5   -7.60    9.80
 -10  -4   5   -9.30   14.90
   9   4  -5  263.47   27.20
   9   4  -5  214.68   26.10
   9   4  -5  231.08   27.30
  -9  -4   5  252.97   21.90
  -9  -4   5  248.28   29.50
   8   4  -5   -7.00    7.40
   8   4  -5   23.60   12.80
   8   4  -5   17.30    9.10
   8   4  -5  -11.00   10.50
  -8  -4   5   -5.70    7.70
  -8  -4   5  -10.20   11.60
  -8  -4   5   -6.70   21.10
  -8  -4   5    7.50    6.10
   7   4  -5  196.68   24.90
   7   4  -5  225.88   18.30
   7   4  -5  233.38   16.30
   7   4  -5  255.27   20.60
   7   4  -5  279.07   20.70
   7   4  -5  223.88   23.00
  -7  -4   5  216.38   24.10
  -7  -4   5  262.27   30.90
  -7  -4   5  231.98   18.90
   6   4  -5 2520.15  125.19
   6   4  -5 2590.04  125.49
   6   4  -5 2453.35  126.19
   6   4  -5 2397.76  125.29
   6   4  -5 2721.83  124.59
   6   4  -5 2393.86  124.09
  -6  -4   5 2751.92  127.69
  -6  -4   5 2781.82  129.09
  -6  -4   5 2677.43  125.79
  -6  -4   5 2770.32  124.69
   5   4  -5  222.58   18.90
   5   4  -5  185.18   13.40
   5   4  -5  185.88   14.80
   5   4  -5  178.48   18.50
   5   4  -5  187.88   18.00
  -5  -4   5  203.48   17.10
  -5  -4   5  211.28   13.60
  -5  -4   5  195.08   19.80
  -5  -4   5  220.08   23.60
  -5  -4   5  191.88   15.30
   4   4  -5    5.10    4.30
   4   4  -5    0.90    5.90
   4   4  -5   13.10    8.30
   4   4  -5  -10.30    6.70
   4   4  -5    0.80    4.80
  -4  -4   5   -5.70    7.10
  -4  -4   5   -4.10    4.90
  -4  -4   5    0.90    5.90
  -4  -4   5    4.10    3.90
  -4  -4   5    9.30   11.30
   3   4  -5 1086.99   52.89
   3   4  -5 1098.69   53.19
   3   4  -5 1106.09   55.19
   3   4  -5 1079.39   54.49
  -3  -4   5 1037.30   53.89
  -3  -4   5 1114.29   52.99
  -3  -4   5 1101.29   53.29
  -3  -4   5 1084.59   54.49
  -3  -4   5 1145.49   55.29
   2   4  -5    8.30    3.80
   2   4  -5    5.30    6.90
   2   4  -5    5.20    5.30
   2   4  -5    3.80    4.60
  -2  -4   5    9.50    4.50
  -2  -4   5    6.50    5.80
  -2  -4   5    2.90    8.40
  -2  -4   5    9.60    6.40
   1   4  -5 1597.84   77.69
   1   4  -5 1625.24   76.79
   1   4  -5 1640.54   77.49
   1   4  -5 1668.83   76.69
  -1  -4   5 1510.95   77.79
  -1  -4   5 1584.84   77.49
  -1  -4   5 1614.44   77.59
  -1  -4   5 1579.04   76.69
   0   4  -5    3.40    3.60
   0   4  -5    4.40    6.10
   0   4  -5   -4.20    3.60
   0   4  -5   -2.60    5.40
   0   4  -5    4.00    3.40
   0  -4   5   10.90    8.10
   0  -4   5    6.40    5.80
   0  -4   5    0.20    4.00
  -1   4  -5  322.77   20.00
  -1   4  -5  285.47   20.00
  -1   4  -5  321.77   16.80
  -1   4  -5  296.47   24.20
  -1   4  -5  335.17   18.20
  -1   4  -5  326.67   18.00
  -1   4  -5  335.07   21.30
   1  -4   5  312.37   20.30
   1  -4   5  326.57   18.00
   1  -4   5  333.57   18.30
   1  -4   5  333.37   22.30
   1  -4   5  340.07   20.80
  -2   4  -5  207.88   17.50
  -2   4  -5  246.28   15.60
  -2   4  -5  235.18   17.90
  -2   4  -5  238.08   15.20
  -2   4  -5  278.97   19.40
   2  -4   5  239.28   16.50
   2  -4   5  263.17   18.80
   2  -4   5  244.78   20.90
   2  -4   5  228.18   18.70
   2  -4   5  244.68   15.50
  -3   4  -5  -18.20   13.70
  -3   4  -5   -2.90    7.60
  -3   4  -5   10.40    5.40
  -3   4  -5   11.00    8.20
  -3   4  -5    4.80    6.10
  -3   4  -5   -0.70    5.60
   3  -4   5    9.00    5.20
   3  -4   5   -4.10    7.00
   3  -4   5    4.90    6.00
   3  -4   5    3.20    4.60
   3  -4   5    4.80    7.90
   3  -4   5   14.20   11.60
  -4   4  -5  377.26   25.90
  -4   4  -5  404.46   23.20
  -4   4  -5  406.56   27.50
  -4   4  -5  375.86   31.00
  -4   4  -5  392.66   22.60
  -4   4  -5  376.36   26.20
   4  -4   5  399.76   22.90
   4  -4   5  404.16   28.50
   4  -4   5  399.96   22.50
   4  -4   5  402.26   26.00
   4  -4   5  432.16   22.40
   4  -4   5  386.06   26.20
  -5   4  -5  178.38   15.80
  -5   4  -5  150.78   20.30
  -5   4  -5  177.98   22.30
  -5   4  -5  155.98   20.50
  -5   4  -5  121.69   19.00
  -5   4  -5  147.49   14.80
   5  -4   5  168.48   14.60
   5  -4   5  137.99   14.00
   5  -4   5  166.28   20.40
   5  -4   5  130.79   22.70
   5  -4   5  156.78   19.60
   5  -4   5  163.88   15.30
  -6   4  -5    3.60    7.40
  -6   4  -5    0.50    6.80
  -6   4  -5    1.30   11.60
  -6   4  -5    2.40   10.80
   6  -4   5   -3.80    9.80
   6  -4   5   -2.60   10.70
   6  -4   5    1.70    9.60
   6  -4   5    3.00    6.90
  -7   4  -5   41.30   22.00
  -7   4  -5   24.70   19.60
  -7   4  -5   40.30    8.90
  -7   4  -5   33.40   12.80
   7  -4   5   34.00    8.40
   7  -4   5   45.30   12.50
   7  -4   5   36.80   12.60
  -8   4  -5   56.29   15.80
  -8   4  -5   68.99   24.50
  -8   4  -5   50.69   10.00
   8  -4   5   56.89   10.00
   8  -4   5   49.70   14.50
   8  -4   5   79.09   13.20
  10   3  -5   54.69   17.60
   9   3  -5  -16.20   12.30
   9   3  -5    9.30    8.60
   9   3  -5   25.80   14.80
   9   3  -5   -6.00    8.20
  -9  -3   5    7.00    8.60
  -9  -3   5   13.50   10.90
  -9  -3   5   -0.90    8.60
  -9  -3   5   48.10   27.30
  -9  -3   5   -5.80   20.20
   8   3  -5   20.10    8.30
   8   3  -5   -3.40   10.80
   8   3  -5   24.60    9.00
   8   3  -5    2.40    7.40
   8   3  -5   44.60   12.80
  -8  -3   5   19.50    7.60
  -8  -3   5   25.40    6.40
  -8  -3   5    4.70    7.90
  -8  -3   5   16.20   23.60
  -8  -3   5    0.20   11.70
  -8  -3   5   22.70    9.60
   7   3  -5  201.78   14.60
   7   3  -5  201.98   17.50
   7   3  -5  155.58   24.00
   7   3  -5  172.78   21.50
   7   3  -5  216.58   19.60
   7   3  -5  200.58   16.80
   7   3  -5  242.28   19.00
  -7  -3   5  194.48   17.80
  -7  -3   5  183.98   31.20
  -7  -3   5  196.18   15.10
  -7  -3   5  176.68   22.60
  -7  -3   5  200.28   17.70
   6   3  -5   10.70    7.10
   6   3  -5    3.70    5.60
   6   3  -5   -3.10    8.20
   6   3  -5    7.00    4.70
   6   3  -5  -12.70   10.30
   6   3  -5    2.10    9.10
   6   3  -5   -3.40    6.00
  -6  -3   5    0.30    6.30
  -6  -3   5    0.60    8.70
  -6  -3   5    8.30    4.90
  -6  -3   5  -18.40   14.90
   5   3  -5  965.50   48.90
   5   3  -5  874.71   47.40
   5   3  -5  952.20   49.50
   5   3  -5  928.81   46.70
   5   3  -5  993.30   47.10
   5   3  -5  921.01   48.10
  -5  -3   5  974.30   48.20
  -5  -3   5  973.40   49.00
  -5  -3   5  998.60   47.30
  -5  -3   5  993.10   51.39
   4   3  -5  481.05   24.30
   4   3  -5  425.76   26.40
   4   3  -5  447.66   26.20
   4   3  -5  464.05   26.40
   4   3  -5  439.16   23.60
  -4  -3   5  470.95   24.30
  -4  -3   5  442.06   26.70
  -4  -3   5  476.65   23.80
  -4  -3   5  471.95   28.50
  -4  -3   5  459.65   25.40
   3   3  -5   41.70    4.90
   3   3  -5   65.29   11.70
   3   3  -5   46.80    6.10
   3   3  -5   49.00    7.50
   3   3  -5   40.70    6.80
  -3  -3   5   41.60    6.80
  -3  -3   5   40.90    5.00
  -3  -3   5   47.10   10.40
  -3  -3   5   55.89   10.00
  -3  -3   5   40.60    5.40
   2   3  -5 2189.48  107.59
   2   3  -5 2285.77  107.09
  -2  -3   5 2203.48  107.69
  -2  -3   5 2275.47  107.19
  -2  -3   5 2276.87  107.09
  -2  -3   5 2216.88  107.69
  -2  -3   5 2311.77  107.29
   1   3  -5  243.68   13.60
   1   3  -5  255.17   16.30
   1   3  -5  252.57   14.20
   1   3  -5  225.58   15.50
   1   3  -5  261.17   14.10
  -1  -3   5  246.98   14.00
  -1  -3   5  236.08   13.90
  -1  -3   5  262.87   16.20
  -1  -3   5  226.88   16.10
  -1  -3   5  227.98   15.90
   0   3  -5  232.58   12.90
   0   3  -5  225.68   12.10
   0   3  -5  203.98   14.80
   0   3  -5  219.98   15.60
   0   3  -5  218.68   12.90
   0  -3   5  217.28   13.00
   0  -3   5  206.78   15.70
   0  -3   5  230.48   13.00
   0  -3   5  219.28   14.90
   0  -3   5  187.48   15.20
  -1   3  -5  574.54   29.40
  -1   3  -5  587.94   28.10
  -1   3  -5  555.64   28.10
  -1   3  -5  565.54   27.60
  -1   3  -5  557.34   29.70
  -1   3  -5  532.05   31.80
   1  -3   5  574.34   29.60
   1  -3   5  590.54   28.20
   1  -3   5  557.64   30.70
   1  -3   5  484.45   27.80
   1  -3   5  569.34   28.10
   1  -3   5  572.74   29.40
  -2   3  -5  449.56   22.40
  -2   3  -5  435.76   24.60
  -2   3  -5  466.05   24.10
  -2   3  -5  441.86   23.00
  -2   3  -5  403.36   27.90
  -2   3  -5  444.56   25.10
   2  -3   5  447.06   25.00
   2  -3   5  445.46   22.90
   2  -3   5  454.85   22.90
   2  -3   5  461.45   26.70
   2  -3   5  386.86   22.50
  -3   3  -5 2393.06  127.09
  -3   3  -5 2555.94  125.09
  -3   3  -5 2658.63  125.09
  -3   3  -5 2749.02  124.29
  -3   3  -5 2674.53  126.59
  -3   3  -5 2633.54  124.29
   3  -3   5 2614.84  124.99
   3  -3   5 2537.85  124.19
   3  -3   5 2644.84  125.09
   3  -3   5 2533.95  124.19
   3  -3   5 2691.83  124.69
   3  -3   5 2634.14  126.19
  -4   3  -5  226.68   15.20
  -4   3  -5  171.98   25.10
  -4   3  -5  197.28   18.50
  -4   3  -5  240.28   15.90
  -4   3  -5  230.78   19.00
  -4   3  -5  264.17   20.80
   4  -3   5  241.28   19.10
   4  -3   5  246.68   15.50
   4  -3   5  231.88   18.80
   4  -3   5  229.48   15.20
   4  -3   5  191.98   21.20
   4  -3   5  223.38   15.10
  -5   3  -5  187.18   15.50
  -5   3  -5  199.08   21.20
  -5   3  -5  181.18   14.70
  -5   3  -5  132.59   26.20
  -5   3  -5  162.38   18.80
  -5   3  -5  171.08   19.80
   5  -3   5  159.28   13.70
   5  -3   5  183.68   14.90
   5  -3   5  171.38   18.40
   5  -3   5  186.88   14.90
   5  -3   5  174.68   19.50
   5  -3   5  161.68   22.00
  -6   3  -5   36.00   10.40
  -6   3  -5   30.30    8.90
  -6   3  -5   45.50    8.30
  -6   3  -5   41.50    6.90
  -6   3  -5   45.60   11.10
  -6   3  -5   26.40   27.20
   6  -3   5   44.40    9.50
   6  -3   5   41.20    7.10
   6  -3   5   42.40   10.40
   6  -3   5   38.70    6.40
   6  -3   5   39.70   15.10
  -7   3  -5   12.10    7.40
  -7   3  -5  -19.20   18.60
  -7   3  -5   23.30   17.10
  -7   3  -5   14.30   17.70
  -7   3  -5    4.20   12.00
  -7   3  -5   15.50    7.80
   7  -3   5   19.90   21.60
   7  -3   5   17.30   11.10
   7  -3   5   15.30    7.40
  -8   3  -5  220.28   29.50
  -8   3  -5  195.48   20.40
  -8   3  -5  157.38   21.20
  -8   3  -5  214.18   34.20
  -8   3  -5  233.18   29.70
   8  -3   5  205.18   19.90
   8  -3   5  207.28   25.70
   8  -3   5  190.58   20.10
  -9   3  -5   20.90    9.90
  -9   3  -5   27.20   16.30
  -9   3  -5   62.79   24.60
   9  -3   5   29.10    9.60
   9  -3   5   13.50   14.30
   9  -3   5   49.70   12.90
  10   2  -5   82.59   15.20
  10   2  -5  112.89   19.40
  10   2  -5  100.59   22.50
 -10  -2   5   89.59   16.10
 -10  -2   5   81.09   11.30
   9   2  -5   -0.60    8.90
   9   2  -5  -14.80    7.70
  -9  -2   5  -13.50    8.60
  -9  -2   5   -6.00    9.00
  -9  -2   5   20.00   10.90
  -9  -2   5  -11.60   13.90
   8   2  -5  153.88   19.30
   8   2  -5  135.99   19.10
   8   2  -5   96.89   16.30
   8   2  -5  100.99   13.50
  -8  -2   5   97.19   13.70
  -8  -2   5  148.89   20.40
  -8  -2   5  102.09   17.30
  -8  -2   5  153.98   38.10
  -8  -2   5  109.29   16.80
  -8  -2   5  124.89   14.50
   7   2  -5  224.78   23.10
   7   2  -5  281.27   20.20
   7   2  -5  214.78   24.50
   7   2  -5  254.27   16.70
   7   2  -5  251.17   18.70
   7   2  -5  247.28   21.10
  -7  -2   5  245.18   24.10
  -7  -2   5  270.17   19.80
  -7  -2   5  269.17   22.90
  -7  -2   5  282.07   35.70
  -7  -2   5  256.27   17.00
  -7  -2   5  239.48   19.30
   6   2  -5  343.57   22.30
   6   2  -5  307.47   23.40
   6   2  -5  311.47   18.70
   6   2  -5  342.97   21.10
   6   2  -5  311.67   21.00
   6   2  -5  316.27   20.00
  -6  -2   5  316.97   18.80
  -6  -2   5  323.47   21.00
  -6  -2   5  354.16   20.40
  -6  -2   5  324.77   22.10
  -6  -2   5  312.67   24.00
   5   2  -5  108.49   15.70
   5   2  -5   68.79   14.10
   5   2  -5   95.09   17.60
   5   2  -5  104.09   12.10
   5   2  -5   87.39   11.30
   5   2  -5   88.49   14.80
   5   2  -5  104.59   10.70
  -5  -2   5   90.99   15.70
  -5  -2   5  103.99   12.00
  -5  -2   5  119.49   14.50
  -5  -2   5   83.39   15.20
   4   2  -5  481.55   27.00
   4   2  -5  505.05   25.80
   4   2  -5  528.05   27.00
   4   2  -5  498.15   28.40
   4   2  -5  486.25   25.40
   4   2  -5  497.95   27.80
  -4  -2   5  516.55   26.00
  -4  -2   5  493.85   28.00
  -4  -2   5  494.35   30.10
   3   2  -5  453.65   24.90
   3   2  -5  458.15   25.40
   3   2  -5  496.25   24.90
   3   2  -5  458.25   25.30
   3   2  -5  475.55   23.80
   3   2  -5  470.35   23.40
  -3  -2   5  458.65   24.70
  -3  -2   5  452.85   26.80
  -3  -2   5  451.05   25.20
  -3  -2   5  420.46   24.60
  -3  -2   5  480.35   23.80
   2   2  -5  491.55   24.60
   2   2  -5  492.65   24.30
   2   2  -5  468.95   25.30
  -2  -2   5  499.75   24.60
  -2  -2   5  499.65   25.00
  -2  -2   5  456.85   25.20
  -2  -2   5  486.45   24.30
  -2  -2   5  486.85   25.80
   1   2  -5  688.33   34.80
   1   2  -5  719.63   33.80
   1   2  -5  685.93   33.60
   1   2  -5  670.43   34.40
  -1  -2   5  700.53   33.70
  -1  -2   5  704.03   34.30
  -1  -2   5  653.93   34.40
  -1  -2   5  688.83   33.70
  -1  -2   5  684.33   34.70
   0   2  -5   49.80   10.00
   0   2  -5   47.30    7.10
   0   2  -5   56.09    6.50
   0   2  -5   70.19    7.10
   0   2  -5   50.79    5.60
   0  -2   5   61.99    9.00
   0  -2   5   51.29    7.00
   0  -2   5   55.69    7.00
   0  -2   5   69.59   10.90
   0  -2   5   51.39    6.00
  -1   2  -5 2764.22  134.59
  -1   2  -5 2781.12  135.09
  -1   2  -5 2790.22  134.59
  -1   2  -5 2987.00  134.69
  -1   2  -5 2963.00  136.09
  -1   2  -5 2727.43  135.09
   1  -2   5 2748.82  134.59
   1  -2   5 3023.40  134.79
   1  -2   5 2957.90  135.39
   1  -2   5 2761.62  134.79
   1  -2   5 2720.73  134.99
   1  -2   5 2830.82  135.69
  -2   2  -5   70.79    8.30
  -2   2  -5   62.39    8.30
  -2   2  -5   79.79   11.60
  -2   2  -5   54.79    7.20
  -2   2  -5   53.09   10.70
   2  -2   5   64.19    7.90
   2  -2   5   70.19    8.20
   2  -2   5   56.79   11.40
   2  -2   5   71.99   11.30
   2  -2   5   52.49   15.60
  -3   2  -5  228.28   13.10
  -3   2  -5  171.58   15.80
  -3   2  -5  238.58   16.70
  -3   2  -5  214.88   15.70
  -3   2  -5  221.68   13.50
  -3   2  -5  211.18   13.40
   3  -2   5  208.68   12.80
   3  -2   5  211.58   13.10
   3  -2   5  198.18   15.10
   3  -2   5  215.88   15.90
   3  -2   5  181.68   13.40
   3  -2   5  177.28   18.20
  -4   2  -5 1385.86   67.29
  -4   2  -5 1438.26   66.19
  -4   2  -5 1407.26   69.29
  -4   2  -5 1200.88   67.89
  -4   2  -5 1388.76   67.39
   4  -2   5 1393.26   66.29
   4  -2   5 1334.87   68.39
   4  -2   5 1383.16   65.99
   4  -2   5 1378.46   66.99
   4  -2   5 1386.66   65.99
  -5   2  -5 1086.69   51.29
  -5   2  -5 1082.39   53.19
  -5   2  -5 1088.39   55.59
  -5   2  -5 1031.80   50.99
  -5   2  -5 1040.20   52.89
  -5   2  -5  908.01   53.29
   5  -2   5 1063.79   51.39
   5  -2   5 1022.80   52.29
   5  -2   5 1030.80   54.29
   5  -2   5 1049.79   50.99
   5  -2   5  987.00   50.69
   5  -2   5 1074.59   52.69
  -6   2  -5   20.40    9.20
  -6   2  -5    6.70   11.00
  -6   2  -5   17.10    6.70
  -6   2  -5    1.40   15.90
  -6   2  -5   21.30    6.00
  -6   2  -5   11.20    8.00
  -6   2  -5   25.10   10.10
   6  -2   5   19.00   13.40
   6  -2   5   33.30    8.70
   6  -2   5   13.70    5.20
   6  -2   5   19.50    9.10
   6  -2   5   18.40    6.30
   6  -2   5   15.40    8.10
  -7   2  -5  710.23   40.30
  -7   2  -5  657.13   35.70
  -7   2  -5  596.04   37.30
  -7   2  -5  686.83   36.10
  -7   2  -5  644.74   43.40
   7  -2   5  687.93   35.70
   7  -2   5  692.13   39.10
   7  -2   5  686.33   38.80
   7  -2   5  695.33   36.30
  -8   2  -5   93.09   14.60
  -8   2  -5  116.29   22.30
  -8   2  -5  132.39   26.00
  -8   2  -5  127.79   17.30
  -8   2  -5   85.29   10.30
  -8   2  -5   97.59   14.70
   8  -2   5  127.19   16.80
   8  -2   5   84.59   13.30
   8  -2   5  127.19   17.50
  -9   2  -5   -1.40   22.00
  -9   2  -5   -4.60    9.00
  -9   2  -5    5.80   14.60
   9  -2   5   -1.00   12.80
   9  -2   5    9.20   11.60
   9  -2   5    4.70    8.60
  10   1  -5   30.00    9.50
  10   1  -5   42.70   12.20
 -10  -1   5   42.70   10.50
 -10  -1   5   32.00   14.90
   9   1  -5  160.08   22.80
   9   1  -5  177.48   19.20
   9   1  -5  162.08   26.50
  -9  -1   5  177.28   20.60
  -9  -1   5  174.28   27.60
  -9  -1   5  212.48   25.30
   8   1  -5    0.60    9.10
   8   1  -5  -16.20    8.10
   8   1  -5   15.40    8.60
  -8  -1   5   11.40    9.60
  -8  -1   5   -7.50    7.60
  -8  -1   5   -4.60    8.20
  -8  -1   5    2.20   23.10
   7   1  -5  129.49   20.80
   7   1  -5  145.69   13.50
   7   1  -5  116.09   22.70
   7   1  -5  160.58   17.80
   7   1  -5  140.29   15.60
   7   1  -5  173.48   18.30
  -7  -1   5  139.89   16.00
  -7  -1   5  140.19   16.80
  -7  -1   5  166.98   19.40
  -7  -1   5  164.08   32.60
  -7  -1   5  157.68   13.90
  -7  -1   5  136.29   21.80
   6   1  -5  459.45   27.80
   6   1  -5  481.45   26.20
   6   1  -5  468.25   25.40
   6   1  -5  464.15   29.30
   6   1  -5  518.65   28.10
   6   1  -5  435.16   30.80
  -6  -1   5  477.55   37.70
  -6  -1   5  469.95   25.50
  -6  -1   5  494.15   27.70
  -6  -1   5  503.55   26.60
  -6  -1   5  485.25   29.40
   5   1  -5   99.49   17.40
   5   1  -5  134.19   13.50
   5   1  -5  110.29   11.90
   5   1  -5  127.79   11.30
   5   1  -5  102.69   13.30
   5   1  -5  112.39   14.00
   5   1  -5   90.89   15.50
  -5  -1   5  115.39   10.30
  -5  -1   5  106.59   12.10
  -5  -1   5  107.39   17.10
  -5  -1   5  124.49   14.10
  -5  -1   5  121.79   13.50
  -5  -1   5   94.19   16.10
   4   1  -5  456.25   22.80
   4   1  -5  436.46   22.30
   4   1  -5  435.06   24.70
   4   1  -5  416.76   23.90
   4   1  -5  449.95   24.20
   4   1  -5  415.56   25.40
  -4  -1   5  425.46   29.00
  -4  -1   5  449.06   22.90
  -4  -1   5  415.66   22.10
  -4  -1   5  426.76   24.60
   3   1  -5    8.00    7.00
   3   1  -5    5.30    3.10
   3   1  -5    1.50    5.50
   3   1  -5   14.10    4.50
   3   1  -5    2.00    3.60
   3   1  -5    6.40    4.80
   3   1  -5    6.30    3.30
  -3  -1   5   14.70    4.90
  -3  -1   5   -2.20    3.70
  -3  -1   5    0.00    5.70
   2   1  -5  770.22   39.60
   2   1  -5  797.22   39.80
   2   1  -5  795.92   38.80
   2   1  -5  827.52   39.00
   2   1  -5  859.31   40.40
  -2  -1   5  801.72   39.30
  -2  -1   5  791.22   39.70
  -2  -1   5  817.42   39.00
  -2  -1   5  795.92   38.80
  -2  -1   5  763.92   39.40
   1   1  -5 5162.28  239.18
   1   1  -5 4986.50  239.58
  -1  -1   5 5163.28  239.58
  -1  -1   5 5067.79  239.58
  -1  -1   5 5056.59  239.18
  -1  -1   5 4665.83  240.78
  -1  -1   5 5308.87  239.28
   0   1  -5   47.30    6.20
   0   1  -5   38.50    3.90
   0   1  -5   34.40    4.90
   0   1  -5   37.50    4.80
   0  -1   5   44.30    4.80
   0  -1   5   42.00    3.80
   0  -1   5   38.40    3.50
   0  -1   5   38.30    5.20
   0  -1   5   56.09    7.70
  -1   1  -5  207.78   13.50
  -1   1  -5  213.88   12.20
  -1   1  -5  214.18   12.10
  -1   1  -5  220.98   11.90
  -1   1  -5  192.48   13.50
   1  -1   5  190.58   13.80
   1  -1   5  216.88   11.80
   1  -1   5  221.68   13.50
   1  -1   5  219.28   12.20
   1  -1   5  200.28   13.20
  -2   1  -5    5.30    4.80
  -2   1  -5   17.20    3.20
  -2   1  -5   16.10    4.90
  -2   1  -5   12.70    3.60
  -2   1  -5   14.30    4.00
   2  -1   5    8.40    3.30
   2  -1   5    8.00    4.50
   2  -1   5    0.50    7.60
   2  -1   5   16.50    4.60
   2  -1   5    8.10    4.80
   2  -1   5   14.10    3.30
  -3   1  -5    5.90    5.20
  -3   1  -5   17.30    5.90
  -3   1  -5    8.00    3.80
  -3   1  -5    5.90    3.80
  -3   1  -5    3.30    4.80
   3  -1   5    8.60    3.60
   3  -1   5    6.40    4.90
   3  -1   5    0.80    5.30
   3  -1   5    3.90    3.30
   3  -1   5   -6.70    8.30
   3  -1   5   10.50    5.30
  -4   1  -5  806.02   41.80
  -4   1  -5  831.42   40.50
  -4   1  -5  831.32   42.20
  -4   1  -5  818.12   43.80
  -4   1  -5  812.62   40.90
  -4   1  -5  843.92   40.60
   4  -1   5  824.62   41.00
   4  -1   5  893.61   46.90
   4  -1   5  713.73   43.00
   4  -1   5  798.42   40.40
   4  -1   5  878.11   41.80
   4  -1   5  853.81   45.00
  -5   1  -5  737.73   42.20
  -5   1  -5  793.92   40.00
  -5   1  -5  751.52   37.70
  -5   1  -5  786.92   37.90
  -5   1  -5  750.82   39.30
   5  -1   5  721.53   41.20
   5  -1   5  754.92   37.60
   5  -1   5  726.93   37.30
   5  -1   5  767.02   38.50
   5  -1   5  774.72   39.30
   5  -1   5  742.23   38.80
  -6   1  -5  236.58   17.00
  -6   1  -5  197.98   25.60
  -6   1  -5  211.28   18.90
  -6   1  -5  240.98   20.00
  -6   1  -5  261.77   21.80
  -6   1  -5  236.58   16.00
   6  -1   5  235.08   19.60
   6  -1   5  221.38   23.10
   6  -1   5  225.58   18.90
   6  -1   5  224.98   15.40
   6  -1   5  232.38   17.50
   6  -1   5  235.98   16.20
  -7   1  -5   49.50    6.90
  -7   1  -5   86.29   18.70
  -7   1  -5   31.10    9.00
  -7   1  -5   55.39   11.40
  -7   1  -5   40.60   11.90
   7  -1   5   63.39   10.60
   7  -1   5   49.20    9.10
   7  -1   5   52.49   17.30
   7  -1   5   42.50    6.30
   7  -1   5   53.89    9.90
   7  -1   5   48.90    7.20
  -8   1  -5   68.89   13.40
  -8   1  -5   65.49   13.30
  -8   1  -5  108.39   23.50
  -8   1  -5   98.59   20.20
  -8   1  -5  110.19   15.60
  -8   1  -5   62.59    9.30
   8  -1   5   69.29   11.70
   8  -1   5   63.79    8.60
  -9   1  -5  267.87   22.20
  -9   1  -5  268.97   30.80
  -9   1  -5  309.47   36.00
  -9   1  -5  210.48   22.80
   9  -1   5  278.37   21.70
   9  -1   5  246.68   26.20
   9  -1   5  272.77   22.40
 -10   1  -5   28.80   23.70
 -10   1  -5  -17.10   10.00
 -10   1  -5  -22.10   15.50
  10  -1   5   -0.40    9.00
  10  -1   5    7.20   12.50
  10   0  -5   23.60   14.70
  10   0  -5   59.59   13.20
  10   0  -5   35.40   10.10
 -10   0   5   38.40   15.80
 -10   0   5   48.50   10.60
 -10   0   5   59.59   12.00
   9   0  -5   22.90   13.40
  -9   0   5   13.20    9.80
  -9   0   5   -9.20    8.70
  -9   0   5   43.70   29.00
   8   0  -5   12.90    9.00
  -8   0   5    5.30   24.80
  -8   0   5    9.50   10.00
   7   0  -5   72.99   14.40
   7   0  -5   61.79   11.30
   7   0  -5   63.19    7.70
   7   0  -5   96.29   12.00
  -7   0   5  100.79   12.60
  -7   0   5   65.39    8.20
  -7   0   5   69.49   11.10
  -7   0   5   67.29   16.30
  -7   0   5  107.79   18.20
   6   0  -5  727.33   37.80
   6   0  -5  765.72   40.80
   6   0  -5  770.42   38.50
   6   0  -5  729.33   42.60
   6   0  -5  743.63   39.80
   6   0  -5  747.43   40.70
  -6   0   5  717.83   37.90
  -6   0   5  783.92   41.00
  -6   0   5  788.02   38.70
  -6   0   5  694.53   40.10
  -6   0   5  767.32   39.90
  -6   0   5  849.52   47.90
   5   0  -5 1275.27   64.99
   5   0  -5 1237.98   63.39
   5   0  -5 1310.47   62.59
   5   0  -5 1251.77   62.29
   5   0  -5 1334.67   63.99
   5   0  -5 1301.97   64.19
  -5   0   5 1344.57   64.09
  -5   0   5 1160.78   65.09
  -5   0   5 1240.78   62.29
  -5   0   5 1399.66   67.49
  -5   0   5 1351.36   62.69
  -5   0   5 1297.47   63.49
   4   0  -5    4.80    4.40
   4   0  -5    0.30    8.20
   4   0  -5   14.20    5.10
   4   0  -5    9.80    5.30
   4   0  -5    5.30    6.30
  -4   0   5    3.50    4.50
  -4   0   5    9.40    5.40
  -4   0   5   13.60    3.50
  -4   0   5   10.20    5.20
  -4   0   5    5.80    6.40
   3   0  -5  164.38   13.50
   3   0  -5  208.38   11.80
   3   0  -5  200.98   15.40
   3   0  -5  174.28   14.50
   3   0  -5  184.68   12.00
   3   0  -5  192.28   11.50
  -3   0   5  162.68   18.10
  -3   0   5  176.78   14.10
  -3   0   5  222.58   12.20
  -3   0   5  190.98   11.90
  -3   0   5  183.88   11.20
   2   0  -5   94.79    7.70
   2   0  -5   86.89   10.60
   2   0  -5  105.39    8.40
   2   0  -5   93.79    8.20
   2   0  -5   87.09    9.80
  -2   0   5  114.19    9.80
  -2   0   5   94.49    8.20
  -2   0   5  108.89    8.80
   1   0  -5  679.33   33.10
   1   0  -5  619.24   31.80
   1   0  -5  652.93   31.20
   1   0  -5  623.24   31.10
   1   0  -5  661.93   32.10
   1   0  -5  633.34   31.70
  -1   0   5  652.03   31.20
  -1   0   5  641.54   32.00
  -1   0   5  609.34   31.60
  -1   0   5  648.14   31.10
  -1   0   5  625.44   31.70
   0   0  -5 4792.12  230.68
   0   0  -5 4828.02  230.38
   0   0  -5 5148.08  230.48
   0   0  -5 4721.73  230.68
   0   0  -5 5352.86  230.98
   0   0   5 4617.14  230.58
   0   0   5 4905.41  230.38
   0   0   5 4756.42  230.78
   0   0   5 4733.33  230.28
  -1   0  -5 3063.19  144.79
  -1   0  -5 3204.88  145.29
  -1   0  -5 2884.61  145.09
  -1   0  -5 3123.49  144.79
   1   0   5 3067.89  145.39
   1   0   5 3175.98  144.89
   1   0   5 2871.81  144.69
   1   0   5 3065.49  145.29
  -2   0  -5  912.71   45.40
  -2   0  -5  940.41   45.00
  -2   0  -5  935.81   45.70
  -2   0  -5  967.80   45.10
   2   0   5  925.21   44.90
   2   0   5  987.20   45.10
   2   0   5  926.31   45.70
   2   0   5  884.81   45.40
  -3   0  -5 4719.73  223.68
  -3   0  -5 4760.12  222.58
  -3   0  -5 4716.83  223.08
  -3   0  -5 4517.45  222.98
  -3   0  -5 4723.53  222.58
  -3   0  -5 4766.42  222.98
   3   0   5 4719.13  223.18
   3   0   5 4707.03  223.18
   3   0   5 4568.94  222.48
   3   0   5 4985.50  223.88
   3   0   5 4573.74  222.98
  -4   0  -5   98.89   12.20
  -4   0  -5  125.19   12.20
  -4   0  -5  124.79    9.80
  -4   0  -5  116.69   10.60
  -4   0  -5  129.39   10.20
   4   0   5   97.69   12.10
   4   0   5  124.99    9.70
   4   0   5  117.89    9.30
   4   0   5  123.59   11.40
  -5   0  -5  110.79   13.00
  -5   0  -5   68.89   18.10
  -5   0  -5   95.09    9.90
  -5   0  -5  102.79   15.20
  -5   0  -5   99.19   10.90
  -5   0  -5   70.09   13.10
   5   0   5   77.49   11.90
   5   0   5   78.29    9.90
   5   0   5   80.19   12.60
   5   0   5   89.29    9.00
   5   0   5  103.59   12.10
  -6   0  -5   40.30    6.30
  -6   0  -5   42.50    9.10
  -6   0  -5   36.60    8.00
  -6   0  -5   29.70   10.30
  -6   0  -5   62.19   10.40
  -6   0  -5   19.10   13.90
   6   0   5   35.60    7.70
   6   0   5   38.20    8.60
   6   0   5   35.70    5.60
   6   0   5   39.30   12.60
  -7   0  -5    5.40    8.50
  -7   0  -5    9.40    5.80
  -7   0  -5  -11.90   10.50
  -7   0  -5   -2.20    6.40
   7   0   5    5.00    7.50
   7   0   5    3.60    5.90
   7   0   5    2.30    8.60
   7   0   5  -12.80   13.20
   7   0   5    6.50    5.00
   7   0   5   -7.70    8.60
  -8   0  -5  199.68   29.70
  -8   0  -5  215.38   17.10
  -8   0  -5  197.98   18.60
  -8   0  -5  239.48   23.30
  -8   0  -5  213.78   25.10
  -8   0  -5  173.78   20.10
   8   0   5  193.58   17.40
   8   0   5  196.38   21.30
   8   0   5  206.38   19.40
  -9   0  -5   33.90   13.60
  -9   0  -5   14.10   13.20
  -9   0  -5   21.40   19.70
  -9   0  -5   16.10    8.70
  -9   0  -5   28.40    8.20
   9   0   5   40.00   13.00
   9   0   5    8.10    7.70
   9   0   5   19.00   10.90
 -10   0  -5   -7.80   15.00
 -10   0  -5   33.80   22.10
 -10   0  -5    1.30    9.40
  10   0   5   25.90   13.10
  10   0   5   -4.70    8.80
 -10   1   5   31.30   16.00
 -10   1   5   37.80   10.80
   9  -1  -5   51.79   12.60
   9  -1  -5   33.00   12.10
   9  -1  -5   26.40    8.90
   9  -1  -5   18.50   13.60
  -9   1   5   25.20    9.40
  -9   1   5   26.20   14.20
  -9   1   5   44.40   11.20
   8  -1  -5    7.50    9.60
   8  -1  -5    1.90   10.90
  -8   1   5    1.50   11.70
  -8   1   5  -14.20    7.80
  -8   1   5    5.60    9.40
   7  -1  -5  -13.40   10.30
   7  -1  -5   14.40    9.20
   7  -1  -5   10.60    5.60
   7  -1  -5   13.80   12.20
  -7   1   5   -1.00    8.20
  -7   1   5   -8.70   10.00
  -7   1   5   12.40    6.70
  -7   1   5    4.50    8.10
  -7   1   5    8.50    8.90
  -7   1   5   -8.50    6.80
   6  -1  -5 2106.79  100.49
   6  -1  -5 2019.40  101.09
   6  -1  -5 2102.89   98.99
   6  -1  -5 1977.30   98.69
   6  -1  -5 1891.11  100.69
   6  -1  -5 1943.41  101.69
  -6   1   5 2275.27  104.59
  -6   1   5 2243.78  100.09
  -6   1   5 1847.82  100.49
  -6   1   5 2082.19   99.89
  -6   1   5 2178.78  100.49
  -6   1   5 2010.30   98.79
  -6   1   5 2146.79   99.09
   5  -1  -5 1122.29   55.29
   5  -1  -5 1043.60   56.99
   5  -1  -5 1156.28   53.99
   5  -1  -5 1096.19   54.79
   5  -1  -5 1067.49   53.49
   5  -1  -5 1091.19   56.09
  -5   1   5 1078.79   53.59
  -5   1   5 1113.09   54.79
  -5   1   5 1002.60   55.39
  -5   1   5 1148.29   55.39
  -5   1   5 1180.38   59.99
  -5   1   5 1139.49   53.99
   4  -1  -5   16.50    5.60
   4  -1  -5    8.10    3.90
   4  -1  -5    8.40    4.30
   4  -1  -5    9.40    6.40
   4  -1  -5    7.50    9.00
   4  -1  -5   13.50    5.80
  -4   1   5   -2.60   12.00
  -4   1   5   15.20    5.60
  -4   1   5    7.50    4.40
  -4   1   5   10.20    6.70
  -4   1   5   13.30    5.80
  -4   1   5    9.60    3.80
   3  -1  -5 1697.63   81.49
   3  -1  -5 1731.13   81.29
   3  -1  -5 1655.13   82.69
   3  -1  -5 1675.23   81.09
   3  -1  -5 1643.84   81.69
   3  -1  -5 1766.82   82.79
   3  -1  -5 1707.73   81.89
  -3   1   5 1781.82   81.69
  -3   1   5 1744.43   82.09
  -3   1   5 1685.13   81.59
  -3   1   5 1678.03   82.49
  -3   1   5 1631.64   81.09
  -3   1   5 1746.33   81.29
  -3   1   5 1685.93   83.39
   2  -1  -5  456.75   22.70
   2  -1  -5  414.86   23.50
   2  -1  -5  448.86   23.90
   2  -1  -5  507.75   24.80
   2  -1  -5  450.85   22.50
   2  -1  -5  474.05   23.10
  -2   1   5  394.56   22.70
  -2   1   5  481.65   23.30
  -2   1   5  420.86   23.50
  -2   1   5  450.85   22.60
   1  -1  -5  331.17   17.70
   1  -1  -5  363.86   19.80
   1  -1  -5  310.57   17.00
   1  -1  -5  326.27   17.10
   1  -1  -5  303.37   17.90
  -1   1   5  338.57   18.10
  -1   1   5  330.87   17.10
  -1   1   5  344.97   18.00
  -1   1   5  349.07   17.00
   0  -1  -5    5.70    3.00
   0   1   5    3.90    3.40
  -1  -1  -5 2549.54  118.59
  -1  -1  -5 2437.26  118.39
   1   1   5 2476.55  118.49
  -2  -1  -5  199.78   12.60
   2   1   5  190.08   12.60
   2   1   5  213.88   13.10
  -3  -1  -5  654.73   35.40
   3   1   5  705.53   35.30
   3   1   5  694.93   34.10
   3   1   5  679.83   34.40
  -4  -1  -5 2353.66  111.09
  -4  -1  -5 2263.37  111.89
   4   1   5 2335.87  111.89
   4   1   5 2365.46  111.19
   4   1   5 2308.17  111.19
  -5  -1  -5  960.80   50.79
  -5  -1  -5  933.21   50.89
  -5  -1  -5  994.60   48.80
   5   1   5  983.60   49.00
   5   1   5 1046.80   49.10
   5   1   5 1012.20   51.09
  -6  -1  -5  532.05   32.00
  -6  -1  -5  570.44   35.00
  -6  -1  -5  583.14   29.90
  -6  -1  -5  653.03   30.50
   6   1   5  601.24   29.90
   6   1   5  573.04   29.60
   6   1   5  574.74   34.00
   6   1   5  573.94   31.40
   6   1   5  616.54   31.50
  -7  -1  -5   -2.00    7.10
  -7  -1  -5   14.20    5.50
  -7  -1  -5  -21.00   14.20
  -7  -1  -5   -8.40   10.00
  -7  -1  -5    6.90    6.20
   7   1   5   11.90    4.80
   7   1   5    0.10    6.20
   7   1   5    3.10    8.70
   7   1   5    3.70    5.40
   7   1   5   -0.80   12.70
  -8  -1  -5   90.09   13.80
  -8  -1  -5   78.69   18.00
  -8  -1  -5   57.19    8.30
  -8  -1  -5   60.29   13.30
   8   1   5   77.99   12.30
   8   1   5   75.89   13.40
  -9  -1  -5  192.68   20.00
  -9  -1  -5  205.38   26.00
  -9  -1  -5  192.58   18.90
  -9  -1  -5  252.97   32.30
   9   1   5  208.28   18.10
   9   1   5  211.38   21.20
 -10  -1  -5   30.30   14.00
 -10  -1  -5   31.40    9.60
  10   1   5   30.00    8.60
   9  -2  -5   55.79    9.60
   9  -2  -5   48.20   13.60
   9  -2  -5   38.60   14.80
  -9   2   5   46.90   14.70
  -9   2   5   44.20   11.70
  -9   2   5   44.90   10.00
   8  -2  -5  -13.70   12.00
   8  -2  -5   14.00   11.60
   8  -2  -5   -9.70    8.00
   8  -2  -5   14.60   10.50
  -8   2   5    9.10    9.50
  -8   2   5  -16.40   12.30
  -8   2   5   -6.10    8.00
   7  -2  -5    8.00   10.10
   7  -2  -5   -0.20    5.80
  -7   2   5   -7.30    7.00
  -7   2   5   -5.50   10.10
  -7   2   5   -4.80    9.40
   6  -2  -5   63.39   11.20
   6  -2  -5   58.19   13.90
   6  -2  -5   53.69    7.00
   6  -2  -5   46.20   13.10
  -6   2   5   52.89    6.40
  -6   2   5   45.80    8.80
  -6   2   5   56.29   10.00
  -6   2   5   60.79    7.20
  -6   2   5   51.69    8.40
  -6   2   5   81.69   16.20
   5  -2  -5  595.34   31.30
   5  -2  -5  483.75   34.30
   5  -2  -5  514.15   29.40
   5  -2  -5  591.14   29.70
   5  -2  -5  576.54   29.20
   5  -2  -5  586.74   32.40
   5  -2  -5  593.64   33.20
  -5   2   5  613.04   32.40
  -5   2   5  502.85   31.90
  -5   2   5  585.74   31.70
  -5   2   5  555.24   29.20
  -5   2   5  596.04   31.10
  -5   2   5  599.24   29.80
   4  -2  -5 1417.86   82.69
   4  -2  -5 1588.94   76.69
   4  -2  -5 1525.85   74.39
   4  -2  -5 1601.04   74.59
   4  -2  -5 1504.05   74.79
   4  -2  -5 1602.34   75.79
   4  -2  -5 1530.35   75.29
  -4   2   5 1573.34   75.19
  -4   2   5 1596.44   74.59
  -4   2   5 1626.34   75.69
  -4   2   5 1671.33   75.59
  -4   2   5 1422.06   75.99
  -4   2   5 1535.25   74.39
   3  -2  -5  172.98   17.40
   3  -2  -5  205.38   12.60
   3  -2  -5  211.48   15.60
   3  -2  -5  175.78   13.60
   3  -2  -5  202.88   14.20
   3  -2  -5  181.28   14.80
   3  -2  -5  188.38   11.80
  -3   2   5  189.98   14.30
  -3   2   5  183.98   15.20
  -3   2   5  208.08   14.70
  -3   2   5  209.48   13.70
  -3   2   5  200.98   11.70
  -3   2   5  195.28   12.50
   2  -2  -5  267.07   15.20
   2  -2  -5  273.37   18.70
   2  -2  -5  310.17   17.90
   2  -2  -5  252.27   14.80
   2  -2  -5  291.57   15.60
   2  -2  -5  265.97   16.80
  -2   2   5  262.27   15.00
  -2   2   5  253.07   14.60
  -2   2   5  277.77   17.50
  -2   2   5  306.47   16.50
  -2   2   5  292.37   16.40
  -2   2   5  265.77   16.50
   1  -2  -5 2692.23  132.89
   1  -2  -5 2790.42  133.79
  -1   2   5 2962.00  133.09
  -1   2   5 2737.33  132.99
   0  -2  -5  176.18   13.40
   0  -2  -5  157.78   11.10
   0   2   5  187.28   11.20
   0   2   5  170.38   11.70
  -1  -2  -5   50.99    8.10
  -1  -2  -5   53.99    7.30
   1   2   5   48.90    8.30
  -2  -2  -5  203.98   13.10
  -2  -2  -5  211.58   12.80
   2   2   5  192.68   13.10
   2   2   5  212.08   13.50
  -3  -2  -5   70.89    9.70
   3   2   5   70.59   10.10
   3   2   5   58.99    9.10
  -4  -2  -5  344.37   22.40
  -4  -2  -5  368.86   20.30
  -4  -2  -5  370.96   21.60
   4   2   5  375.26   21.40
   4   2   5  385.56   21.00
   4   2   5  384.86   23.20
  -5  -2  -5  785.62   41.20
  -5  -2  -5  802.42   40.40
  -5  -2  -5  780.02   42.30
   5   2   5  800.12   40.50
   5   2   5  866.81   41.00
  -6  -2  -5   21.40   12.20
  -6  -2  -5    9.30    6.70
  -6  -2  -5    6.30    9.30
   6   2   5   10.10    5.60
   6   2   5   21.90    8.50
   6   2   5    9.90    7.90
   6   2   5   21.40   11.60
  -7  -2  -5  166.48   17.90
  -7  -2  -5  199.08   23.10
   7   2   5  206.78   17.30
   7   2   5  218.68   22.00
   7   2   5  176.48   23.30
  -8  -2  -5  364.86   27.10
  -8  -2  -5  424.86   32.00
   8   2   5  448.26   26.60
   8   2   5  423.26   23.20
  -9  -2  -5  113.29   20.00
  -9  -2  -5   95.19   16.80
  -9  -2  -5  127.59   15.70
   9   2   5   96.79   14.40
   9   2   5   91.09   18.90
 -10  -2  -5   47.30    9.50
  10   2   5   27.50   13.60
  10   2   5   41.40    8.00
   9  -3  -5   -2.90   14.60
   9  -3  -5    3.90    9.70
   9  -3  -5   -4.00   13.30
  -9   3   5   -7.80    9.60
  -9   3   5  -19.80   14.70
  -9   3   5    2.90   10.90
   8  -3  -5   10.90   13.40
   8  -3  -5   12.60   12.20
   8  -3  -5    7.20    8.20
   8  -3  -5   -1.40   13.40
  -8   3   5    2.00    8.40
  -8   3   5    4.00    9.80
  -8   3   5   -9.90   12.70
   7  -3  -5  100.09   17.20
   7  -3  -5  121.59   24.10
   7  -3  -5   76.69   13.50
   7  -3  -5  102.29   14.30
   7  -3  -5   76.79    9.20
  -7   3   5   76.79   12.90
  -7   3   5   80.79    9.30
   6  -3  -5    1.30    5.10
   6  -3  -5   -6.50    5.30
   6  -3  -5   17.10   13.50
   6  -3  -5   -1.70    9.50
   6  -3  -5    8.60   13.70
  -6   3   5   -2.70    8.80
  -6   3   5   -5.40    8.30
  -6   3   5    4.90    7.50
  -6   3   5  -11.50    6.20
   5  -3  -5  148.99   13.30
   5  -3  -5  144.69   14.00
   5  -3  -5  119.99   18.70
   5  -3  -5  135.59   21.60
   5  -3  -5  160.38   19.30
   5  -3  -5  157.08   12.50
   5  -3  -5  165.28   16.50
  -5   3   5  135.29   17.30
  -5   3   5  153.48   12.70
  -5   3   5  138.99   17.00
  -5   3   5  151.38   18.20
  -5   3   5  147.39   14.00
  -5   3   5  161.08   15.90
   4  -3  -5  342.77   19.10
   4  -3  -5  338.37   22.80
   4  -3  -5  353.36   21.30
   4  -3  -5  369.36   23.90
   4  -3  -5  353.36   19.80
   4  -3  -5  294.37   25.30
  -4   3   5  346.77   19.00
  -4   3   5  344.57   21.90
  -4   3   5  311.07   22.40
  -4   3   5  357.36   19.80
  -4   3   5  357.06   22.40
  -4   3   5  356.66   20.90
   3  -3  -5  570.24   29.40
   3  -3  -5  593.44   28.90
   3  -3  -5  560.14   29.80
   3  -3  -5  541.95   32.60
   3  -3  -5  558.94   28.40
   3  -3  -5  592.04   31.60
  -3   3   5  580.84   28.80
  -3   3   5  537.85   30.90
  -3   3   5  579.64   28.40
  -3   3   5  594.84   30.20
   2  -3  -5   50.29    8.40
   2  -3  -5   51.69    8.70
   2  -3  -5   50.59   11.80
   2  -3  -5   53.29    6.70
   2  -3  -5   46.70    8.00
  -2   3   5   54.19    6.50
  -2   3   5   56.19   11.20
  -2   3   5   57.69    9.80
   1  -3  -5 2296.47  111.19
   1  -3  -5 2224.38  110.19
  -1   3   5 2410.36  110.29
   0  -3  -5 4403.86  221.18
   0  -3  -5 4797.42  222.28
   0   3   5 4549.44  221.48
   0   3   5 4936.11  221.48
  -1  -3  -5 2500.65  117.49
  -1  -3  -5 2380.66  116.19
  -1  -3  -5 2390.76  117.39
  -1  -3  -5 2323.47  116.99
   1   3   5 2559.94  116.39
   1   3   5 2524.45  116.69
  -2  -3  -5    7.40    3.30
  -2  -3  -5    4.60    5.90
   2   3   5    8.00    3.60
  -3  -3  -5  671.83   34.40
  -3  -3  -5  679.13   35.00
  -3  -3  -5  689.13   34.60
   3   3   5  694.13   34.70
   3   3   5  722.93   34.80
   3   3   5  675.43   35.70
  -4  -3  -5  733.63   38.00
  -4  -3  -5  649.74   37.60
  -4  -3  -5  735.63   37.40
   4   3   5  756.42   37.00
   4   3   5  769.82   37.20
   4   3   5  753.62   38.50
  -5  -3  -5  918.71   46.30
  -5  -3  -5  857.21   45.10
  -5  -3  -5  856.41   44.30
   5   3   5  913.11   44.90
   5   3   5  878.31   46.50
   5   3   5  920.31   47.10
   5   3   5  903.71   44.70
  -6  -3  -5   34.40    8.20
  -6  -3  -5   14.10   12.50
  -6  -3  -5   15.90    9.10
   6   3   5   33.50   11.70
   6   3   5    2.30    8.00
   6   3   5   19.50    8.80
  -7  -3  -5   29.80   11.00
  -7  -3  -5   15.10    7.20
  -7  -3  -5   48.40   14.90
   7   3   5   23.70    9.20
  -8  -3  -5  947.71   53.19
  -8  -3  -5  825.02   47.60
   8   3   5  971.10   47.20
   8   3   5  860.51   50.79
  -9  -3  -5   75.69   18.80
   9   3   5   57.29   12.00
 -10  -3  -5   13.30   19.60
  10   3   5    9.00   12.20
 -11  -3  -5   41.40   22.90
  11   3   5   12.40   13.70
  11   3   5   -9.00   15.00
   8  -4  -5   87.09   15.20
   8  -4  -5  118.79   18.90
   8  -4  -5   53.29   14.30
  -8   4   5  121.79   22.80
  -8   4   5   80.79   15.40
  -8   4   5   68.49   10.50
   7  -4  -5   36.30   12.70
   7  -4  -5   16.20    6.70
   7  -4  -5   51.69   17.60
   7  -4  -5   20.60   12.80
   7  -4  -5   26.20    7.20
   7  -4  -5   26.00    8.30
  -7   4   5   29.50    8.20
  -7   4   5   31.10    9.20
   6  -4  -5  294.17   20.70
   6  -4  -5  313.37   25.50
   6  -4  -5  308.97   22.20
   6  -4  -5  365.86   28.70
   6  -4  -5  330.77   21.50
   6  -4  -5  306.27   29.30
  -6   4   5  391.06   24.50
  -6   4   5  324.47   22.20
  -6   4   5  333.87   27.00
   5  -4  -5  285.57   20.20
   5  -4  -5  302.77   25.80
   5  -4  -5  334.57   26.50
   5  -4  -5  276.17   19.20
   5  -4  -5  276.27   21.70
   5  -4  -5  270.47   24.00
   5  -4  -5  275.87   24.90
  -5   4   5  286.07   23.10
  -5   4   5  271.37   21.10
  -5   4   5  279.67   18.10
  -5   4   5  275.77   19.30
  -5   4   5  316.67   21.20
   4  -4  -5   49.50    6.30
   4  -4  -5   41.90    9.00
   4  -4  -5   63.29   13.90
   4  -4  -5   63.99   17.10
   4  -4  -5   61.59   12.50
   4  -4  -5   48.60    6.30
   4  -4  -5   34.90    6.00
  -4   4   5   66.89    9.60
  -4   4   5   40.70    7.80
  -4   4   5   63.49   12.90
  -4   4   5   47.10    6.00
  -4   4   5   42.90    6.80
   3  -4  -5   28.30    5.10
   3  -4  -5   36.90    4.40
   3  -4  -5   38.80    7.70
   3  -4  -5   33.90    5.30
   3  -4  -5   31.00    7.60
   3  -4  -5   30.50   10.30
  -3   4   5   31.00    5.90
  -3   4   5   33.50    4.30
  -3   4   5   34.10    6.90
  -3   4   5   37.50    5.00
  -3   4   5   30.20    6.60
   2  -4  -5  230.18   19.30
   2  -4  -5  293.87   19.10
  -2   4   5  252.97   18.20
  -2   4   5  286.97   17.00
   1  -4  -5   -2.30    3.80
   1  -4  -5   -5.00    3.70
   1  -4  -5    1.60    5.30
  -1   4   5    4.80    4.20
  -1   4   5    2.60    4.70
   0  -4  -5    0.10    3.50
   0  -4  -5    2.60    4.80
   0  -4  -5   -0.50    3.20
   0   4   5    3.20    3.80
  -1  -4  -5  775.92   38.60
  -1  -4  -5  769.42   39.20
  -1  -4  -5  753.02   38.60
  -1  -4  -5  822.32   39.90
   1   4   5  788.12   38.40
   1   4   5  776.22   38.90
  -2  -4  -5   38.30    7.00
  -2  -4  -5   44.30    6.60
  -2  -4  -5   44.00    8.40
  -2  -4  -5   29.80    7.40
   2   4   5   51.29    9.40
  -3  -4  -5   44.50   10.20
  -3  -4  -5   64.79    9.10
  -3  -4  -5   53.49   10.10
   3   4   5   74.19   14.40
   3   4   5   49.80   10.40
   3   4   5   73.29   10.20
  -4  -4  -5  599.34   33.60
  -4  -4  -5  632.54   32.50
  -4  -4  -5  605.64   31.70
   4   4   5  649.54   32.10
   4   4   5  632.14   32.30
   4   4   5  596.64   33.70
  -5  -4  -5   -3.10    8.40
  -5  -4  -5   -4.40    6.00
   5   4   5  -11.60    8.20
   5   4   5   -1.20    6.80
   5   4   5   -1.80    4.90
  -6  -4  -5 1299.87   67.99
  -6  -4  -5 1435.46   69.99
  -6  -4  -5 1342.57   68.79
   6   4   5 1386.16   70.39
   6   4   5 1500.85   68.69
  -7  -4  -5   -3.00   14.20
  -7  -4  -5   -7.90   10.30
  -7  -4  -5   -6.90    6.40
   7   4   5    1.60   10.20
   7   4   5   -3.10    9.10
  -8  -4  -5  168.38   28.10
   8   4   5  128.29   25.70
   8   4   5  175.38   19.10
  -9  -4  -5  535.55   38.50
   9   4   5  519.15   32.10
   9   4   5  460.45   37.40
 -10  -4  -5  103.09   21.50
  10   4   5  105.79   21.60
 -11  -4  -5   28.60   22.00
  11   4   5   20.70   13.60
   8  -5  -5   19.60   14.60
   8  -5  -5   33.00   10.20
   8  -5  -5   18.60   15.10
  -8   5   5   24.40   10.80
  -8   5   5    8.00    9.80
   7  -5  -5   46.90   13.20
   7  -5  -5   58.39    9.60
   7  -5  -5   48.60   13.80
   7  -5  -5   64.69   14.10
  -7   5   5   51.29   10.20
  -7   5   5   53.09   14.10
   6  -5  -5   50.79    7.60
   6  -5  -5   60.49   11.10
   6  -5  -5   45.20   12.50
   6  -5  -5   56.29    8.70
   6  -5  -5   53.19   12.70
   6  -5  -5   44.00   12.60
  -6   5   5   57.69    9.30
  -6   5   5   54.19    8.50
   5  -5  -5  945.31   50.99
   5  -5  -5 1036.70   50.49
   5  -5  -5  953.80   50.09
   5  -5  -5  965.50   51.99
   5  -5  -5 1003.60   54.69
   5  -5  -5 1093.09   53.89
  -5   5   5  996.80   52.29
  -5   5   5 1063.09   53.09
  -5   5   5  981.80   50.29
   4  -5  -5  949.80   53.39
   4  -5  -5  951.90   50.29
   4  -5  -5  963.40   50.59
   4  -5  -5 1044.00   53.29
   4  -5  -5 1057.99   49.70
  -4   5   5 1033.80   51.69
  -4   5   5  989.50   49.50
  -4   5   5 1074.59   50.89
  -4   5   5  938.31   49.00
   3  -5  -5   28.40    5.80
   3  -5  -5   34.10    6.90
   3  -5  -5   32.50    4.90
   3  -5  -5   37.20    5.80
   3  -5  -5   45.60   11.20
   3  -5  -5   60.09   16.70
  -3   5   5   37.60    6.30
  -3   5   5   27.80    7.20
  -3   5   5   28.40    4.60
   2  -5  -5  100.39   12.20
   2  -5  -5  116.79   15.90
   2  -5  -5   88.49   16.10
  -2   5   5  116.39   13.10
  -2   5   5   88.19   14.20
   1  -5  -5  179.68   15.90
   1  -5  -5  161.18   12.70
   1  -5  -5  161.98   13.10
  -1   5   5  178.18   13.60
  -1   5   5  155.78   15.20
   0  -5  -5  942.61   46.90
   0  -5  -5  866.11   46.40
   0   5   5  955.60   45.50
  -1  -5  -5  507.55   26.20
  -1  -5  -5  541.65   27.80
  -1  -5  -5  524.55   26.70
  -1  -5  -5  453.05   25.60
  -1  -5  -5  485.45   27.10
   1   5   5  495.35   26.10
  -2  -5  -5   52.49    8.20
  -2  -5  -5   73.99    9.80
  -2  -5  -5   84.89   11.70
  -2  -5  -5   62.09    9.00
   2   5   5   71.69    9.20
  -3  -5  -5  110.19   10.90
  -3  -5  -5   78.99   12.00
  -3  -5  -5   87.69   13.10
   3   5   5  104.49   11.60
  -4  -5  -5  268.87   22.30
  -4  -5  -5  310.27   18.10
  -4  -5  -5  296.87   22.70
  -4  -5  -5  287.87   19.50
   4   5   5  302.47   18.60
   4   5   5  306.77   22.90
   4   5   5  294.47   19.10
  -5  -5  -5  358.66   23.20
  -5  -5  -5  364.56   21.70
  -5  -5  -5  389.46   21.90
   5   5   5  396.16   22.10
   5   5   5  368.66   26.40
   5   5   5  397.86   23.00
  -6  -5  -5   29.80    8.40
  -6  -5  -5   22.00   10.40
  -6  -5  -5   28.50   13.40
   6   5   5   28.90    9.60
  -7  -5  -5   53.19   11.80
  -7  -5  -5   29.70   11.30
   7   5   5   36.50   10.20
  -8  -5  -5   -8.40    6.90
  -8  -5  -5  -13.00   16.60
   8   5   5   -7.50   11.10
   8   5   5   10.20   11.70
  -9  -5  -5   32.50   18.60
   9   5   5   18.30   13.00
   9   5   5    1.40   12.50
 -10  -5  -5  371.76   36.70
  10   5   5  255.47   36.50
  10   5   5  298.97   27.40
 -11  -5  -5   66.89   23.40
  11   5   5   45.80   15.20
   7  -6  -5    3.20    9.40
   7  -6  -5   11.80   13.60
   7  -6  -5   -3.20   14.60
  -7   6   5    8.00    9.40
  -7   6   5    3.90   10.10
   6  -6  -5    6.60    8.50
   6  -6  -5   16.20   12.90
   6  -6  -5    3.50   13.30
   6  -6  -5   16.60    7.60
  -6   6   5    1.40    9.10
  -6   6   5   -2.10    8.10
  -6   6   5   -2.00   11.80
   5  -6  -5   63.09   12.70
   5  -6  -5   93.89   18.70
   5  -6  -5   95.49   14.10
   5  -6  -5   64.99    8.70
   5  -6  -5   57.39   12.60
  -5   6   5   60.19    8.20
  -5   6   5   55.49    9.00
   4  -6  -5   88.59   12.50
   4  -6  -5   66.19    8.30
   4  -6  -5   88.89   21.30
   4  -6  -5   99.49   16.90
   4  -6  -5  100.79   21.20
  -4   6   5   57.29    9.00
  -4   6   5   88.49   13.80
   3  -6  -5  357.66   20.40
   3  -6  -5  362.56   25.40
   3  -6  -5  285.07   25.90
   3  -6  -5  304.97   21.40
  -3   6   5  315.87   18.50
  -3   6   5  331.07   22.10
   2  -6  -5   -0.30    7.40
   2  -6  -5   -4.00    9.70
   2  -6  -5    4.00    5.20
  -2   6   5    2.70    5.60
  -2   6   5   -2.10    6.30
   1  -6  -5  359.96   22.80
   1  -6  -5  338.57   20.10
   1  -6  -5  290.97   19.50
  -1   6   5  356.26   20.30
  -1   6   5  290.47   21.70
   0  -6  -5  353.46   20.80
   0  -6  -5  391.06   23.30
   0  -6  -5  365.06   21.60
   0   6   5  379.96   21.50
  -1  -6  -5   76.09   11.70
  -1  -6  -5   93.89   10.10
  -1  -6  -5  103.39   13.50
  -1  -6  -5   82.59   13.80
   1   6   5  108.39   11.10
  -2  -6  -5  852.51   44.60
  -2  -6  -5  927.91   44.80
  -2  -6  -5  830.62   43.20
  -2  -6  -5  882.91   43.90
  -2  -6  -5  891.41   44.00
   2   6   5  886.81   43.50
  -3  -6  -5   77.09   12.20
  -3  -6  -5   93.49   13.00
  -3  -6  -5  103.69   17.90
  -3  -6  -5   71.89   13.20
  -4  -6  -5 1362.26   67.49
  -4  -6  -5 1285.27   65.09
  -4  -6  -5 1347.87   65.69
  -4  -6  -5 1312.97   65.59
   4   6   5 1341.67   67.39
   4   6   5 1346.37   65.59
  -5  -6  -5 1088.49   56.39
  -5  -6  -5 1077.19   57.19
  -5  -6  -5 1170.28   56.49
   5   6   5 1157.18   59.39
   5   6   5 1219.68   57.09
  -6  -6  -5   54.29    9.60
  -6  -6  -5   63.79   13.90
  -6  -6  -5   47.70   11.40
   6   6   5   34.30    9.50
   6   6   5   59.59   11.10
  -7  -6  -5   11.70   15.40
  -7  -6  -5   -5.70    9.70
  -7  -6  -5  -10.10   11.60
  -7  -6  -5   -7.60    8.00
   7   6   5   -1.50   10.00
   7   6   5   12.20   11.40
  -8  -6  -5  190.58   28.50
   8   6   5  226.38   21.90
  -9  -6  -5   70.39   20.10
   9   6   5   69.29   14.10
 -10  -6  -5   43.20   21.80
  10   6   5   22.50   14.90
   6  -7  -5   62.59   10.30
   6  -7  -5   57.99   14.40
  -6   7   5   56.29   10.60
  -6   7   5   47.20    9.90
   5  -7  -5   16.30    8.60
   5  -7  -5   27.10    7.70
   5  -7  -5   13.20   12.60
   5  -7  -5   11.80   12.80
  -5   7   5   12.20    7.90
  -5   7   5   10.50    8.70
   4  -7  -5  291.07   20.30
   4  -7  -5  236.78   18.40
   4  -7  -5  255.27   27.20
  -4   7   5  245.78   19.50
  -4   7   5  278.67   22.20
   3  -7  -5   -7.90    9.60
  -3   7   5   -1.30    7.00
   2  -7  -5   27.30    6.00
   2  -7  -5   34.40    9.20
   2  -7  -5   23.90    6.50
  -2   7   5   22.80    7.80
  -2   7   5   36.50    7.10
   1  -7  -5  174.18   15.20
   1  -7  -5  189.38   16.40
   1  -7  -5  190.78   19.60
  -1   7   5  167.48   17.80
  -1   7   5  216.78   16.20
   0  -7  -5    1.20    6.80
   0  -7  -5    4.20    4.80
   0  -7  -5   -1.30    7.20
   0  -7  -5    6.10    5.30
   0   7   5    9.80    5.40
  -1  -7  -5  544.45   29.80
  -1  -7  -5  502.95   32.60
  -1  -7  -5  508.05   28.90
  -1  -7  -5  592.54   31.00
  -1  -7  -5  570.94   30.10
   1   7   5  577.94   29.30
  -2  -7  -5   97.29   13.30
  -2  -7  -5   86.69   13.70
  -2  -7  -5   94.29   11.20
  -2  -7  -5  121.49   14.60
   2   7   5  115.49   12.10
  -3  -7  -5   31.90    6.50
  -3  -7  -5   27.50    4.90
  -3  -7  -5   33.60    9.30
  -3  -7  -5   34.00    9.70
  -3  -7  -5   29.00    5.80
  -4  -7  -5   14.10    8.30
  -4  -7  -5    7.00    8.30
  -4  -7  -5   14.20    5.50
  -4  -7  -5   15.80    6.10
  -4  -7  -5   12.60    9.50
  -4  -7  -5    9.60    4.40
  -5  -7  -5  297.37   20.10
  -5  -7  -5  323.97   20.90
  -5  -7  -5  295.37   21.80
   5   7   5  333.67   27.50
   5   7   5  337.97   22.10
  -6  -7  -5  854.51   48.00
  -6  -7  -5  887.71   49.30
   6   7   5 1069.89   49.70
   6   7   5  996.30   52.99
  -7  -7  -5  241.48   25.70
  -7  -7  -5  180.08   17.80
   7   7   5  208.58   21.00
   7   7   5  219.48   28.70
  -8  -7  -5  387.66   33.20
   8   7   5  349.47   34.90
   8   7   5  374.96   26.80
  -9  -7  -5  166.98   32.20
   9   7   5  179.88   22.70
 -10  -7  -5   25.00   21.60
  10   7   5   -0.90   14.90
  10   7   5   22.20   14.50
   5  -8  -5  134.89   20.00
   5  -8  -5  132.79   28.30
  -5   8   5  146.69   21.80
  -5   8   5  123.89   19.50
   4  -8  -5   54.99   13.30
  -4   8   5   54.99    9.20
   3  -8  -5  239.48   26.40
  -3   8   5  248.88   21.60
   2  -8  -5  132.19   21.50
  -2   8   5   90.89   17.10
   1  -8  -5   10.50    8.60
  -1   8   5    6.70    7.70
  -1   8   5   -1.60    6.30
   0  -8  -5 1713.23   90.89
   0  -8  -5 2013.90   92.69
   0  -8  -5 1865.91   91.49
   0  -8  -5 1890.71   91.39
   0   8   5 1912.71   91.49
  -1  -8  -5 1562.64   75.69
  -1  -8  -5 1398.16   75.09
  -1  -8  -5 1651.43   76.69
  -1  -8  -5 1536.35   75.59
   1   8   5 1567.74   75.29
  -2  -8  -5  150.28   15.10
  -2  -8  -5  193.58   16.60
  -2  -8  -5  175.38   15.90
  -2  -8  -5  211.08   17.70
  -2  -8  -5  216.38   17.00
  -3  -8  -5   39.40    5.80
  -3  -8  -5   62.59   13.70
  -3  -8  -5   59.49   17.10
  -3  -8  -5   36.00    9.30
  -4  -8  -5  124.09   15.10
  -4  -8  -5   96.99   15.80
  -4  -8  -5   98.09   14.00
  -4  -8  -5  108.39   12.50
  -5  -8  -5   42.10    9.00
  -5  -8  -5   51.99    7.40
  -5  -8  -5   68.09   16.50
  -5  -8  -5   66.79   10.10
  -5  -8  -5   69.99   12.00
  -6  -8  -5   24.90    9.20
  -6  -8  -5   11.50   14.70
  -6  -8  -5   16.50    6.70
  -6  -8  -5   -1.50    9.20
   6   8   5   31.10   11.70
   6   8   5   15.00   11.30
  -7  -8  -5   76.69   15.10
   7   8   5   56.89   13.80
  -8  -8  -5   26.40   18.50
   8   8   5    8.10   13.00
   8   8   5    6.20   13.10
  -9  -8  -5   44.90   21.20
   9   8   5   17.10   13.60
   9   8   5    1.30   14.80
 -10  -8  -5  218.68   37.60
  10   8   5  179.58   26.20
   4  -9  -5    4.90   13.20
  -4   9   5    3.90    9.00
   3  -9  -5  118.59   25.90
  -3   9   5  122.59   19.70
   2  -9  -5  106.69   23.40
  -2   9   5  110.69   17.90
   1  -9  -5  166.88   24.00
  -1   9   5  166.38   18.10
  -1   9   5  175.38   30.00
   0  -9  -5    1.40    8.60
  -1  -9  -5  319.27   21.50
  -1  -9  -5  330.47   24.50
  -2  -9  -5  477.45   29.70
  -2  -9  -5  467.85   28.20
  -2  -9  -5  532.55   30.00
  -3  -9  -5    8.90   18.60
  -3  -9  -5   11.00    7.70
  -3  -9  -5   27.30   10.60
  -3  -9  -5   24.50    7.30
  -3  -9  -5   26.30    7.30
  -3  -9  -5   18.90    9.60
  -4  -9  -5  829.62   41.60
  -4  -9  -5  746.33   41.70
  -4  -9  -5  720.43   40.40
  -4  -9  -5  819.62   47.90
  -5  -9  -5  255.57   19.40
  -5  -9  -5  302.77   21.40
  -5  -9  -5  230.38   19.60
  -5  -9  -5  329.97   32.10
  -5  -9  -5  262.17   23.10
  -6  -9  -5    1.40    7.30
  -6  -9  -5   -5.70   10.10
  -6  -9  -5    1.40    7.00
  -7  -9  -5   30.00   17.80
   7   9   5   12.80   13.70
   7   9   5   12.30   13.50
  -8  -9  -5    7.60   19.70
   8   9   5    3.20   13.20
   8   9   5   -2.50   16.70
  -9  -9  -5   79.79   21.90
   9   9   5   65.69   16.30
   9   9   5   43.00   16.80
   3 -10  -5   32.20   13.40
  -3  10   5   28.50    9.40
   2 -10  -5    3.70   12.10
  -2  10   5   -2.70    8.10
   1 -10  -5   59.99   12.30
  -1  10   5   56.29    8.80
  -2 -10  -5  100.89   19.30
  -2 -10  -5  124.09   15.20
  -3 -10  -5  199.18   41.30
  -3 -10  -5  257.37   19.80
  -3 -10  -5  286.07   22.10
  -3 -10  -5  274.77   22.00
  -4 -10  -5  134.39   19.80
  -4 -10  -5  125.09   15.40
  -5 -10  -5  114.39   15.80
  -5 -10  -5  151.98   21.40
  -6 -10  -5  297.67   23.80
  -6 -10  -5  306.57   36.20
  -6 -10  -5  267.67   21.60
  -7 -10  -5   -9.30   18.80
  -8 -10  -5   17.30   21.70
  -8 -10  -5    8.30   20.50
   8  10   5    4.50   13.20
  -9 -10  -5   19.50   22.20
   9  10   5    9.40   17.80
   9  10   5   28.90   14.40
   1 -11  -5   33.70   13.00
   0 -11  -5  348.97   30.40
  -1 -11  -5  184.48   18.10
  -2 -11  -5    0.40    9.50
  -2 -11  -5   34.30   10.60
  -3 -11  -5   -0.70   21.50
  -3 -11  -5   24.80   10.50
  -4 -11  -5    7.30   10.00
  -4 -11  -5  -11.00   21.20
  -5 -11  -5   62.99   11.70
  -5 -11  -5   61.49   21.60
  -6 -11  -5    7.60   20.60
  -7 -11  -5   34.50   21.70
  -8 -11  -5   26.80   22.90
  -1 -12  -5  259.87   29.20
  -2 -12  -5  133.39   35.30
   2  12   5  131.19   28.10
  -3 -12  -5    4.10   23.50
  -4 -12  -5   37.60   24.40
  -5 -12  -5  -23.60   22.80
  -6 -12  -5  196.08   40.50
   6  11  -6  222.78   23.00
   6  11  -6  232.38   28.40
  -6 -11   6  162.08   25.60
  -6 -11   6  180.28   39.00
  -6 -11   6  248.38   35.60
   5  11  -6   56.99   11.00
   5  11  -6   73.09   17.20
  -5 -11   6   60.29   21.10
  -5 -11   6   67.99   17.70
  -5 -11   6   52.79   12.40
   4  11  -6   86.49   17.20
  -4 -11   6   77.99   12.20
  -4 -11   6   70.39   21.00
   3  11  -6  166.28   25.80
  -3 -11   6  173.18   31.60
   2  11  -6   59.19   10.20
   2  11  -6   76.69   17.30
   2  11  -6   86.99   17.50
  -2 -11   6   67.69   19.40
   1  11  -6   13.00   13.50
   1  11  -6   11.00    9.90
  -1 -11   6   29.10   10.00
  -1 -11   6   -2.80   17.80
  -1 -11   6   35.10   16.10
   0  11  -6   57.69    9.70
   0 -11   6   52.89   20.20
  -8 -10   6   -2.50   11.10
   7  10  -6   56.99   10.40
  -7 -10   6   43.30   11.50
  -7 -10   6   85.39   24.00
   6  10  -6   57.39   10.20
   6  10  -6   57.99   14.10
   6  10  -6   96.49   22.90
  -6 -10   6   84.09   21.70
  -6 -10   6   51.59   11.10
  -6 -10   6   66.39   16.50
   5  10  -6   23.70    9.40
   5  10  -6   32.80   14.90
  -5 -10   6   21.50   16.00
  -5 -10   6   22.70   19.50
  -5 -10   6    0.50    8.50
  -5 -10   6    5.80   10.70
   4  10  -6   98.49   23.20
   4  10  -6  151.28   20.40
  -4 -10   6  151.08   29.90
  -4 -10   6   89.59   12.00
  -4 -10   6   96.79   20.30
   3  10  -6   -2.00   15.40
  -3 -10   6  -16.40    8.20
  -3 -10   6  -10.20   16.80
  -3 -10   6   -8.30   12.90
  -3 -10   6   34.90   10.30
   2  10  -6  798.22   45.80
   2  10  -6  714.23   39.50
  -2 -10   6  811.62   45.90
  -2 -10   6  642.24   45.10
  -2 -10   6  787.72   40.50
  -2 -10   6  647.84   39.70
  -2 -10   6  679.83   43.90
   1  10  -6  518.15   30.20
   1  10  -6  575.44   37.00
  -1 -10   6  500.95   37.40
  -1 -10   6  442.76   46.00
  -1 -10   6  545.85   31.80
  -1 -10   6  450.05   31.70
   0  10  -6  192.38   30.50
   0 -10   6  160.68   21.20
   0 -10   6  166.48   31.20
  -1  10  -6   27.60   15.50
  -1  10  -6   10.70    8.70
   1 -10   6    8.90   18.50
   1 -10   6   21.90   15.30
   1 -10   6   11.00    9.60
  -2  10  -6   41.40   10.00
  -2  10  -6   66.39   16.30
   2 -10   6   57.79   10.70
   2 -10   6   43.60   16.60
   8   9  -6   51.39   10.10
   8   9  -6   62.79   17.50
  -8  -9   6   59.19   26.10
   7   9  -6  242.08   21.70
   7   9  -6  229.28   26.40
  -7  -9   6  219.08   23.70
  -7  -9   6  228.58   20.90
  -7  -9   6  270.27   37.80
  -7  -9   6  220.08   31.60
   6   9  -6  139.49   18.80
   6   9  -6  140.59   22.40
  -6  -9   6  108.19   16.30
  -6  -9   6  119.39   17.20
  -6  -9   6  101.39   11.90
  -6  -9   6  158.38   33.80
   5   9  -6  -10.70   13.30
   5   9  -6  -16.90    8.10
  -5  -9   6  -14.20    9.40
  -5  -9   6  -13.80   13.70
  -5  -9   6   -5.10   17.90
  -5  -9   6  -11.20    7.60
   4   9  -6   41.10    9.00
   4   9  -6   51.59   15.30
  -4  -9   6   35.80   10.10
  -4  -9   6   41.60   14.20
  -4  -9   6   41.10   16.70
  -3  -9   6    4.50    9.10
  -3  -9   6   11.20   13.40
  -3  -9   6   -2.10   15.40
   2   9  -6    6.20    7.40
   2   9  -6    9.00   12.30
  -2  -9   6   18.60    8.70
  -2  -9   6   28.90   12.60
  -2  -9   6    3.00   19.30
   1   9  -6   46.70    7.60
  -1  -9   6   23.20    8.00
   0   9  -6  282.67   19.50
   0   9  -6  201.78   20.80
   0  -9   6  251.07   28.30
   0  -9   6  189.38   20.40
  -1   9  -6   51.29   13.90
   1  -9   6   37.60    9.30
   1  -9   6   57.99   14.40
  -2   9  -6  306.37   24.20
  -2   9  -6  383.76   35.70
   2  -9   6  324.27   33.80
   2  -9   6  294.07   24.40
  -3   9  -6   29.60    9.70
  -3   9  -6   48.00   17.00
   3  -9   6   32.10    9.70
   3  -9   6   37.90   15.70
  -4   9  -6   19.40   17.70
  -4   9  -6    4.10    9.70
   4  -9   6    4.20   15.30
   4  -9   6    6.70    9.70
   9   8  -6   12.60    9.50
   9   8  -6   23.10   23.50
  -9  -8   6   12.00   15.70
  -9  -8   6   25.10   10.80
   8   8  -6  -12.60    9.50
   8   8  -6   14.20   15.00
  -8  -8   6  -13.00   23.40
  -8  -8   6  -16.60    9.80
  -8  -8   6  -23.70   14.00
  -8  -8   6   12.90    8.10
   7   8  -6   26.80    8.60
   7   8  -6   55.89   14.40
  -7  -8   6   25.10    9.20
  -7  -8   6   38.60    7.90
  -7  -8   6   19.80   14.00
  -7  -8   6   65.79   22.70
   6   8  -6  653.83   35.10
   6   8  -6  596.64   37.40
   6   8  -6  644.34   39.00
  -6  -8   6  574.44   39.30
  -6  -8   6  689.23   45.00
  -6  -8   6  637.34   40.70
  -6  -8   6  636.24   36.00
   5   8  -6   19.10   11.00
   5   8  -6   26.80    8.10
  -5  -8   6   28.50    7.10
  -5  -8   6   25.90    8.80
   4   8  -6   -1.80   11.10
   4   8  -6    3.90    8.70
   4   8  -6   13.10    7.80
  -4  -8   6   -1.60    6.80
  -4  -8   6    1.10   12.60
  -4  -8   6   21.60   15.20
  -4  -8   6   25.30   12.60
  -4  -8   6   13.30    8.60
   3   8  -6  127.19   16.20
   3   8  -6  101.29   19.20
  -3  -8   6  163.98   25.30
  -3  -8   6  171.48   18.40
  -3  -8   6  128.39   23.60
  -3  -8   6  105.99   14.80
   2   8  -6    0.40    8.30
   2   8  -6   -2.00    6.90
   2   8  -6    0.10    8.70
   2   8  -6    3.10   11.10
  -2  -8   6  -15.00   10.40
  -2  -8   6    5.30   13.20
  -2  -8   6  -10.80    6.50
  -2  -8   6   22.30   11.10
  -2  -8   6   10.10   10.10
   1   8  -6  441.96   25.80
   1   8  -6  494.05   31.70
   1   8  -6  370.86   31.50
   1   8  -6  416.36   28.80
  -1  -8   6  512.95   32.10
  -1  -8   6  438.86   26.00
  -1  -8   6  397.06   29.60
  -1  -8   6  451.85   31.30
  -1  -8   6  474.15   27.70
   0   8  -6   23.80   11.90
   0   8  -6    6.70    6.60
   0   8  -6   -3.50    9.70
   0   8  -6   -3.00    6.80
   0  -8   6   -6.30   14.20
   0  -8   6   16.10   12.00
   0  -8   6  -10.80    6.80
   0  -8   6   12.00    7.50
  -1   8  -6   -5.80   10.20
  -1   8  -6   38.20   12.10
  -1   8  -6   16.60    7.50
   1  -8   6   33.90   12.60
   1  -8   6   17.70    7.80
   2  -8   6   58.39   13.70
   2  -8   6   32.70    8.50
   2  -8   6   10.60    9.60
  -3   8  -6   13.20    8.50
  -3   8  -6   30.70   15.10
   3  -8   6   23.00    8.60
   3  -8   6   13.30   17.80
  -4   8  -6  109.39   17.30
  -4   8  -6  121.49   20.30
   4  -8   6   98.09   16.00
   4  -8   6  138.49   12.50
   4  -8   6  112.59   20.10
  -5   8  -6  -13.10    9.70
  -5   8  -6   12.10   27.90
   5  -8   6   32.30    9.70
   5  -8   6   -7.40    9.70
   5  -8   6  -12.50   14.90
   9   7  -6  -12.80    9.10
   9   7  -6   24.30   16.80
  -9  -7   6  -23.20   14.70
  -9  -7   6   23.80   24.60
  -9  -7   6   -8.10   10.20
   8   7  -6   30.50    9.20
   8   7  -6   65.79   15.00
   8   7  -6   15.00   12.50
  -8  -7   6    7.20   14.00
  -8  -7   6   42.80    8.20
  -8  -7   6   40.80   23.60
  -8  -7   6   10.40    9.90
   7   7  -6   44.80    8.30
   7   7  -6   76.59   19.30
   7   7  -6   39.70   12.40
  -7  -7   6   46.70    7.30
  -7  -7   6   28.60    9.10
  -7  -7   6   20.20   13.10
  -7  -7   6   49.00   10.40
  -7  -7   6   48.20   22.30
   6   7  -6   -1.60   11.90
   6   7  -6  -10.10    7.50
   6   7  -6    4.50   15.10
  -6  -7   6    3.00    6.30
  -6  -7   6  -13.50    7.90
  -6  -7   6   -2.10   19.40
  -6  -7   6   12.30    9.60
   5   7  -6  293.47   22.10
   5   7  -6  295.57   23.20
   5   7  -6  273.97   24.70
   5   7  -6  277.97   20.50
  -5  -7   6  343.97   31.50
  -5  -7   6  282.87   19.10
  -5  -7   6  229.58   29.70
  -5  -7   6  307.37   27.10
   4   7  -6  338.17   24.60
   4   7  -6  367.66   27.90
   4   7  -6  408.86   23.70
   4   7  -6  356.16   21.80
  -4  -7   6  416.66   30.60
  -4  -7   6  384.96   24.20
  -4  -7   6  310.97   29.80
  -4  -7   6  366.26   22.10
  -4  -7   6  408.46   38.40
   3   7  -6   25.20    8.30
   3   7  -6   28.30    5.80
  -3  -7   6   37.40   11.30
  -3  -7   6   33.30   14.30
  -3  -7   6   41.00    7.90
  -3  -7   6   28.70   11.50
  -3  -7   6   20.90    6.30
  -3  -7   6   37.90   12.80
   2   7  -6 1411.76   71.39
   2   7  -6 1546.25   74.29
   2   7  -6 1504.75   71.89
   2   7  -6 1459.65   72.99
  -2  -7   6 1407.46   74.19
  -2  -7   6 1542.45   72.09
  -2  -7   6 1474.15   71.69
  -2  -7   6 1445.66   73.79
  -2  -7   6 1471.05   73.79
   1   7  -6  499.65   29.70
   1   7  -6  519.85   29.20
   1   7  -6  534.75   33.40
   1   7  -6  528.05   31.70
   1   7  -6  522.55   28.70
  -1  -7   6  484.25   32.10
  -1  -7   6  559.54   33.50
  -1  -7   6  564.14   30.00
  -1  -7   6  520.35   29.20
  -1  -7   6  597.94   33.50
  -1  -7   6  590.64   33.00
   0   7  -6   22.30    6.20
   0   7  -6    7.70    8.70
   0   7  -6   27.60   10.60
   0   7  -6   13.90    5.90
   0   7  -6   15.80    6.50
   0  -7   6    4.20    6.30
   0  -7   6   22.70   10.60
   0  -7   6   21.20    7.10
   0  -7   6   18.30   12.80
  -1   7  -6   32.00    6.60
  -1   7  -6   39.70    7.90
  -1   7  -6   36.60    9.40
   1  -7   6   26.60    6.90
   1  -7   6   10.70   18.10
  -2   7  -6   -7.50    7.20
  -2   7  -6    1.20    8.40
  -2   7  -6   15.60    7.20
  -2   7  -6   -0.70    9.40
   2  -7   6  -13.80    6.40
   2  -7   6  -15.80    9.70
   2  -7   6   23.30   11.70
   2  -7   6   15.40   11.00
  -3   7  -6  673.53   47.10
  -3   7  -6  854.71   46.00
  -3   7  -6  704.53   43.40
   3  -7   6  703.63   44.00
   3  -7   6  780.72   40.30
   3  -7   6  831.12   45.10
  -4   7  -6  187.68   33.80
  -4   7  -6  154.28   27.00
  -4   7  -6  203.38   19.90
  -4   7  -6  226.68   29.50
   4  -7   6  212.98   19.80
   4  -7   6  243.88   27.50
   4  -7   6  190.38   14.90
   4  -7   6  134.89   26.20
  -5   7  -6   37.60   23.30
  -5   7  -6   43.30   16.00
  -5   7  -6   23.60    9.20
   5  -7   6   39.70    9.20
  -6   7  -6  -14.60   24.60
  -6   7  -6   -9.10    9.50
  -6   7  -6   -0.30   16.10
   6  -7   6   -5.20   14.60
   6  -7   6   -8.30    9.60
  10   6  -6  247.88   25.50
  10   6  -6  269.27   33.70
  10   6  -6  368.86   33.70
 -10  -6   6  283.37   27.10
 -10  -6   6  289.67   35.20
 -10  -6   6  342.47   39.10
   9   6  -6   -9.90   13.00
   9   6  -6    1.60    9.30
  -9  -6   6   55.29   24.40
  -9  -6   6  -10.40   14.10
  -9  -6   6    8.90   10.10
   8   6  -6    9.80   12.00
   8   6  -6   55.09   14.30
   8   6  -6   24.40    8.60
  -8  -6   6   49.99   22.20
  -8  -6   6   36.10    7.60
  -8  -6   6   32.00   11.70
  -8  -6   6   15.30    9.10
   7   6  -6  211.68   24.50
   7   6  -6  205.88   19.30
   7   6  -6  231.48   21.60
  -7  -6   6  193.98   19.80
  -7  -6   6  200.18   16.80
  -7  -6   6  242.58   34.70
  -7  -6   6  201.98   21.80
  -7  -6   6  163.18   29.30
   6   6  -6   11.20    8.00
   6   6  -6  -11.70    6.90
   6   6  -6    5.40   13.00
   6   6  -6   12.80    8.50
  -6  -6   6   -8.30   18.90
  -6  -6   6    6.80    8.50
  -6  -6   6   -6.90   10.80
  -6  -6   6    5.60    5.80
   5   6  -6  262.47   23.90
   5   6  -6  289.87   21.70
   5   6  -6  267.97   17.50
   5   6  -6  306.67   24.80
   5   6  -6  262.97   19.30
  -5  -6   6  251.07   30.90
  -5  -6   6  284.47   18.10
  -5  -6   6  319.87   29.30
  -5  -6   6  271.97   19.80
  -5  -6   6  264.77   24.80
   4   6  -6   81.79   11.30
   4   6  -6   92.49   16.40
   4   6  -6   94.49   14.20
   4   6  -6   95.39   11.70
  -4  -6   6   96.29   21.10
  -4  -6   6  102.79   19.80
  -4  -6   6  103.19   23.20
  -4  -6   6  101.99   14.90
  -4  -6   6  102.89   12.10
   3   6  -6   41.90    5.80
   3   6  -6   42.30    7.90
  -3  -6   6   60.29   12.00
  -3  -6   6   82.69   13.80
  -3  -6   6   56.49   13.10
  -3  -6   6   44.30    6.20
  -3  -6   6   44.20    9.20
  -3  -6   6   48.40    9.60
   2   6  -6   59.49   10.30
   2   6  -6   38.90    5.70
   2   6  -6   42.30    6.40
   2   6  -6   39.20    8.10
  -2  -6   6   56.09   12.10
  -2  -6   6   35.90    6.10
  -2  -6   6   32.30   11.30
  -2  -6   6   63.19   12.00
   1   6  -6  142.29   13.70
   1   6  -6  157.48   14.50
   1   6  -6  203.38   19.30
   1   6  -6  145.99   17.30
  -1  -6   6  206.08   19.20
  -1  -6   6  144.29   14.10
  -1  -6   6  193.48   18.90
  -1  -6   6  177.08   15.20
  -1  -6   6  170.48   19.70
   0   6  -6   80.19   12.00
   0   6  -6   63.99   13.20
   0   6  -6   55.19    6.30
   0   6  -6   60.79   10.30
   0   6  -6   45.30    8.80
   0  -6   6   33.30    9.10
   0  -6   6   86.09   13.10
   0  -6   6   50.49    6.60
  -1   6  -6  778.82   39.40
  -1   6  -6  782.42   41.30
  -1   6  -6  755.02   39.00
  -1   6  -6  834.92   42.90
  -1   6  -6  654.93   40.50
   1  -6   6  788.22   39.40
   1  -6   6  790.12   39.70
   1  -6   6  766.82   43.10
   1  -6   6  808.52   42.80
   1  -6   6  783.02   41.80
  -2   6  -6   23.50   11.10
  -2   6  -6    8.50    6.40
  -2   6  -6   -5.10    8.50
  -2   6  -6   -6.30    6.80
  -2   6  -6   -3.10    5.60
   2  -6   6   -8.50    5.50
   2  -6   6   10.90    6.70
   2  -6   6   -5.40    5.90
   2  -6   6   12.10   10.30
  -3   6  -6   -9.10    9.50
  -3   6  -6    7.30    6.90
  -3   6  -6    8.00   11.00
   3  -6   6   -3.90    6.40
   3  -6   6   -9.30    6.10
   3  -6   6    9.40    7.10
   3  -6   6    5.50   10.90
  -4   6  -6  305.67   27.50
  -4   6  -6  341.37   22.70
  -4   6  -6  356.36   35.30
  -4   6  -6  363.36   29.50
   4  -6   6  296.37   27.70
   4  -6   6  372.56   28.60
   4  -6   6  351.46   22.70
   4  -6   6  293.77   19.80
  -5   6  -6  416.86   34.00
  -5   6  -6  452.15   39.10
  -5   6  -6  378.26   26.20
  -5   6  -6  387.96   31.70
   5  -6   6  343.17   34.80
   5  -6   6  396.66   23.90
   5  -6   6  394.16   26.10
   5  -6   6  418.96   32.30
  -6   6  -6  125.49   24.80
  -6   6  -6   72.99   10.70
  -6   6  -6   78.79   15.70
   6  -6   6  124.99   27.40
   6  -6   6  111.69   18.80
  -7   6  -6  174.58   32.60
  -7   6  -6  214.48   39.90
  -7   6  -6  133.79   22.40
   7  -6   6  163.28   21.40
   7  -6   6  130.29   23.30
  10   5  -6   42.20   19.00
   9   5  -6   55.39    9.50
   9   5  -6   62.39   13.80
  -9  -5   6   62.09   10.40
  -9  -5   6   61.89   15.00
  -9  -5   6   63.39   14.90
   8   5  -6  -11.70    9.20
   8   5  -6   10.30   13.20
  -8  -5   6  -11.60   10.60
  -8  -5   6   -7.60    8.60
  -8  -5   6    0.90   21.00
  -8  -5   6  -10.60    7.30
   7   5  -6   27.00   10.70
   7   5  -6   30.90    7.80
   7   5  -6   47.70    9.00
   7   5  -6   52.69   15.40
  -7  -5   6   20.20    8.10
  -7  -5   6   36.10    6.80
  -7  -5   6   43.30   22.80
  -7  -5   6   24.00   11.80
  -7  -5   6   42.60   15.00
   6   5  -6  483.85   26.90
   6   5  -6  476.35   31.20
   6   5  -6  446.56   25.20
   6   5  -6  451.35   29.10
   6   5  -6  470.45   28.40
   6   5  -6  459.85   30.80
  -6  -5   6  466.75   32.00
  -6  -5   6  438.26   28.70
  -6  -5   6  491.85   27.30
  -6  -5   6  441.06   25.50
  -6  -5   6  528.25   36.40
   5   5  -6   -8.60    7.20
   5   5  -6    1.60   10.50
   5   5  -6   -9.80    4.60
  -5  -5   6   -6.80   15.70
   4   5  -6   35.80    9.20
   4   5  -6   43.30    6.70
   4   5  -6   49.60    5.60
   4   5  -6   48.40    8.00
   4   5  -6   76.29   17.30
  -4  -5   6   32.70    6.80
  -4  -5   6   70.99   14.10
  -4  -5   6   50.69    5.90
  -4  -5   6   44.60    9.80
   3   5  -6   13.90    5.70
   3   5  -6    8.90    4.70
   3   5  -6   13.50    7.10
  -3  -5   6    3.40   12.10
  -3  -5   6   11.20    7.60
  -3  -5   6   10.10    8.10
  -3  -5   6   16.10    8.50
  -3  -5   6   14.20    6.10
   2   5  -6   76.39    7.30
   2   5  -6  100.59   11.10
   2   5  -6   65.29    8.90
  -2  -5   6   95.79   12.60
  -2  -5   6   78.99   16.20
   1   5  -6 4540.25  212.18
   1   5  -6 4463.15  212.98
   1   5  -6 4662.33  212.88
   1   5  -6 4641.14  212.08
  -1  -5   6 4428.76  212.88
  -1  -5   6 4459.75  212.08
  -1  -5   6 4112.29  213.08
   0   5  -6  105.29   15.90
   0   5  -6  107.99   11.80
   0   5  -6  118.89   12.20
   0   5  -6  141.59   18.20
   0  -5   6  100.49   11.90
   0  -5   6  133.29   12.70
   0  -5   6   94.69   10.40
  -1   5  -6  289.47   23.00
  -1   5  -6  264.17   17.30
  -1   5  -6  284.47   17.90
  -1   5  -6  270.37   19.90
  -1   5  -6  239.58   20.50
   1  -5   6  332.37   23.00
   1  -5   6  286.17   22.40
   1  -5   6  280.57   18.20
   1  -5   6  272.47   17.60
   1  -5   6  249.88   21.30
  -2   5  -6  114.09   13.00
  -2   5  -6   88.99   17.70
  -2   5  -6   74.29   12.00
  -2   5  -6   96.89   14.70
  -2   5  -6   89.29   16.40
   2  -5   6   76.89    9.70
   2  -5   6   67.79   16.80
   2  -5   6   80.59   11.70
   2  -5   6  118.09   13.40
  -3   5  -6   29.90   12.00
  -3   5  -6   25.70    7.80
  -3   5  -6   34.50    6.60
  -3   5  -6   24.10   17.00
  -3   5  -6   28.40    6.20
   3  -5   6   39.30   10.20
   3  -5   6   42.30    6.90
   3  -5   6   22.30    6.10
   3  -5   6   13.60    9.20
  -4   5  -6  218.68   24.80
  -4   5  -6  188.28   16.70
  -4   5  -6  189.18   22.10
  -4   5  -6  218.98   17.40
   4  -5   6  180.38   22.20
   4  -5   6  217.38   17.50
   4  -5   6  214.18   23.40
   4  -5   6  179.58   16.70
   4  -5   6  202.48   15.10
  -5   5  -6  182.08   25.40
  -5   5  -6  172.08   17.80
  -5   5  -6  165.78   24.10
  -5   5  -6  147.89   29.90
  -5   5  -6  126.09   17.10
   5  -5   6  154.98   15.60
   5  -5   6  160.38   23.80
   5  -5   6  170.58   26.60
   5  -5   6  102.49   22.90
  -6   5  -6   19.20   13.00
  -6   5  -6   27.50    8.80
  -6   5  -6   48.90   21.20
  -6   5  -6   44.60   24.90
   6  -5   6   39.40   12.80
   6  -5   6   30.30    8.50
   6  -5   6   48.00   10.90
  -7   5  -6   15.70   15.70
  -7   5  -6   -2.00    9.30
  -7   5  -6   37.40   23.30
  -7   5  -6   10.00   15.10
   7  -5   6   26.80   11.80
   7  -5   6   -2.90   13.60
   7  -5   6    0.60    9.10
  10   4  -6  143.79   29.20
   9   4  -6   42.70    9.80
   9   4  -6   46.10   13.80
   9   4  -6   50.09    9.60
  -9  -4   6   47.30   14.40
  -9  -4   6   41.50   10.00
   8   4  -6   66.69   14.00
   8   4  -6   85.29   26.00
  -8  -4   6   94.49   23.30
   7   4  -6   56.49    8.50
   7   4  -6   45.10    7.80
   7   4  -6   35.80   11.00
   7   4  -6   42.20   13.60
  -7  -4   6   52.19   29.80
  -7  -4   6   52.49   10.10
  -7  -4   6   36.40   11.40
   6   4  -6   74.09   11.00
   6   4  -6   42.20    7.40
   6   4  -6   82.39   16.60
   6   4  -6   51.99   11.70
   6   4  -6   53.59   12.00
   6   4  -6   39.00   10.30
  -6  -4   6   44.80    6.40
  -6  -4   6   38.70   10.70
  -6  -4   6   40.60    7.60
  -6  -4   6   49.90    8.90
  -6  -4   6   71.19   17.00
   5   4  -6  823.62   43.10
   5   4  -6  920.71   44.10
   5   4  -6  849.32   46.10
   5   4  -6  891.01   46.30
   5   4  -6  837.22   44.90
  -5  -4   6  886.01   46.60
  -5  -4   6  835.62   43.30
  -5  -4   6  831.62   44.90
  -5  -4   6  966.80   49.20
  -5  -4   6  913.21   44.20
   4   4  -6   54.49    5.40
   4   4  -6   42.90    6.30
   4   4  -6   52.19    7.40
   4   4  -6   41.40    8.50
  -4  -4   6   46.90    8.90
  -4  -4   6   46.10   12.20
  -4  -4   6   59.39    9.30
  -4  -4   6   44.30    6.30
   3   4  -6  103.79   13.90
   3   4  -6  108.79   10.70
   3   4  -6   79.99   16.10
   3   4  -6  100.69   11.90
   3   4  -6  106.99   13.80
  -3  -4   6  103.39   12.20
  -3  -4   6  125.19   12.60
  -3  -4   6   78.99   17.80
  -3  -4   6   97.59   18.90
  -3  -4   6  106.49   16.30
  -3  -4   6  114.69   10.90
   2   4  -6  313.67   20.90
   2   4  -6  331.77   18.30
   2   4  -6  294.97   23.30
  -2  -4   6  326.87   21.20
  -2  -4   6  327.07   21.60
  -2  -4   6  340.27   18.40
  -2  -4   6  345.57   19.10
  -2  -4   6  318.07   21.00
   1   4  -6  117.89    9.60
   1   4  -6  125.49   11.50
   1   4  -6  110.69   13.80
   1   4  -6  124.39   10.90
   1   4  -6  134.09   15.20
  -1  -4   6  135.69   11.10
  -1  -4   6  137.79   15.00
  -1  -4   6  116.39   11.00
  -1  -4   6  144.49   14.70
  -1  -4   6   82.19   18.40
   0   4  -6 1267.07   60.99
   0   4  -6 1247.88   60.49
   0   4  -6 1274.77   60.99
   0   4  -6 1277.07   62.09
   0   4  -6 1280.67   62.49
   0  -4   6 1253.27   62.09
   0  -4   6 1259.37   60.99
   0  -4   6 1384.56   61.29
   0  -4   6 1150.58   62.99
   0  -4   6 1216.78   64.69
  -1   4  -6 1569.14   77.59
  -1   4  -6 1602.14   78.19
  -1   4  -6 1649.83   79.19
  -1   4  -6 1704.93   81.39
  -1   4  -6 1576.34   79.39
  -1   4  -6 1671.33   78.19
   1  -4   6 1580.64   78.09
   1  -4   6 1562.44   79.99
   1  -4   6 1628.24   79.39
   1  -4   6 1614.74   79.19
   1  -4   6 1727.03   78.29
  -2   4  -6  240.28   19.00
  -2   4  -6  255.67   14.70
  -2   4  -6  236.98   19.20
  -2   4  -6  260.87   16.50
  -2   4  -6  202.18   25.20
  -2   4  -6  289.47   21.50
  -2   4  -6  260.07   23.80
   2  -4   6  207.68   14.90
   2  -4   6  257.57   16.60
   2  -4   6  264.47   20.70
   2  -4   6  240.08   20.30
   2  -4   6  260.47   16.20
  -3   4  -6 1688.13   82.19
  -3   4  -6 1679.43   80.59
  -3   4  -6 1733.83   80.59
  -3   4  -6 1807.62   84.69
  -3   4  -6 1461.05   82.29
   3  -4   6 1719.83   82.09
   3  -4   6 1643.34   82.99
   3  -4   6 1714.03   81.89
   3  -4   6 1672.03   80.49
   3  -4   6 1583.24   80.19
   3  -4   6 1667.23   80.49
  -4   4  -6  351.86   26.10
  -4   4  -6  316.27   20.10
  -4   4  -6  271.67   23.30
  -4   4  -6  310.37   24.40
  -4   4  -6  303.37   30.30
  -4   4  -6  323.17   20.40
   4  -4   6  334.27   24.70
   4  -4   6  320.07   19.10
   4  -4   6  335.17   26.00
   4  -4   6  301.27   23.80
   4  -4   6  311.67   20.10
   4  -4   6  294.27   19.70
  -5   4  -6  -12.10   20.10
  -5   4  -6    1.50   10.60
  -5   4  -6    9.10    6.80
  -5   4  -6   11.20   11.40
  -5   4  -6    7.60   10.20
   5  -4   6    6.20    7.50
   5  -4   6   10.10   10.30
   5  -4   6    2.40    9.60
   5  -4   6   13.60    6.70
   5  -4   6   19.70    8.80
  -6   4  -6    8.40   13.20
  -6   4  -6    2.20    7.80
  -6   4  -6   -2.30   11.50
  -6   4  -6  -16.90   18.70
  -6   4  -6    6.80    7.80
   6  -4   6   -2.40    7.40
   6  -4   6    3.90    9.70
   6  -4   6    0.10   10.90
  -7   4  -6    1.20    8.50
  -7   4  -6    5.20   13.70
  -7   4  -6   -4.60   14.50
  -7   4  -6    3.50   21.20
  -7   4  -6   11.00   14.00
   7  -4   6    5.30   11.40
   7  -4   6   -4.10   12.20
   7  -4   6   -0.70    8.20
  -8   4  -6   12.40   17.90
  -8   4  -6   16.70    9.60
  -8   4  -6   31.70   24.30
   8  -4   6   16.90   13.90
   8  -4   6   21.50    9.30
   8  -4   6   48.30   14.00
  10   3  -6   93.49   22.10
  10   3  -6   73.59   11.10
  10   3  -6   75.39   16.30
 -10  -3   6   87.89   16.80
 -10  -3   6   91.89   11.80
   8   3  -6   15.60    9.50
   8   3  -6  -12.90    7.80
   8   3  -6    8.40    8.50
   8   3  -6   20.30   13.10
   8   3  -6  -16.40   11.50
  -8  -3   6   -7.40   11.80
  -8  -3   6    7.40   24.90
  -8  -3   6   -8.70    8.10
   7   3  -6   22.70    7.50
   7   3  -6   31.90    7.60
   7   3  -6   17.70   12.90
   7   3  -6   20.20   10.70
   7   3  -6   29.10    6.00
   7   3  -6   39.50    8.80
  -7  -3   6   12.20   11.00
  -7  -3   6   36.70   20.50
  -7  -3   6   26.30    6.00
  -7  -3   6   20.90    8.10
   6   3  -6  383.66   22.40
   6   3  -6  361.36   20.80
   6   3  -6  348.37   24.00
   6   3  -6  373.16   24.30
   6   3  -6  336.97   26.70
   6   3  -6  349.77   22.90
   6   3  -6  353.66   25.40
  -6  -3   6  390.56   23.00
  -6  -3   6  378.46   26.60
  -6  -3   6  370.96   32.50
   5   3  -6 1287.77   65.49
   5   3  -6 1273.97   66.69
   5   3  -6 1333.67   67.09
   5   3  -6 1331.67   67.99
   5   3  -6 1395.76   65.99
   5   3  -6 1398.26   67.69
  -5  -3   6 1327.27   66.89
  -5  -3   6 1428.56   66.09
  -5  -3   6 1392.06   67.69
  -5  -3   6 1328.97   65.69
  -5  -3   6 1429.86   69.79
   4   3  -6   -3.90    7.80
   4   3  -6   -0.90    4.00
   4   3  -6   -8.60    5.10
   4   3  -6    2.50    8.20
  -4  -3   6  -10.60    7.70
  -4  -3   6   -8.80   11.70
  -4  -3   6   -0.80    6.10
  -4  -3   6   -7.80    5.20
  -4  -3   6   -2.00    4.10
   3   3  -6  225.18   18.50
   3   3  -6  247.48   14.70
   3   3  -6  238.88   17.00
   3   3  -6  276.27   18.00
   3   3  -6  237.68   15.50
  -3  -3   6  244.98   15.60
  -3  -3   6  253.47   14.60
  -3  -3   6  237.48   15.60
  -3  -3   6  237.58   18.50
   2   3  -6  325.17   18.60
   2   3  -6  347.37   18.20
   2   3  -6  326.87   20.30
  -2  -3   6  323.17   18.10
  -2  -3   6  310.47   21.20
  -2  -3   6  344.37   19.20
  -2  -3   6  338.07   18.70
  -2  -3   6  337.17   21.00
   1   3  -6  135.79   10.00
   1   3  -6   94.89   12.40
   1   3  -6  119.59   13.90
   1   3  -6  122.29   10.60
  -1  -3   6  129.89   10.60
  -1  -3   6  130.69   14.00
  -1  -3   6  110.49   10.10
  -1  -3   6  105.69   14.40
   0   3  -6  304.57   16.60
   0   3  -6  316.37   19.80
   0   3  -6  289.37   19.60
   0   3  -6  323.97   17.30
   0   3  -6  290.77   19.40
   0  -3   6  307.57   17.30
   0  -3   6  321.97   20.60
   0  -3   6  305.07   19.20
   0  -3   6  304.57   17.30
  -1   3  -6 1225.68   62.69
  -1   3  -6 1275.97   62.69
  -1   3  -6 1295.37   64.59
  -1   3  -6 1260.47   61.39
  -1   3  -6 1275.67   61.69
   1  -3   6 1255.87   61.59
   1  -3   6 1304.87   62.99
   1  -3   6 1252.77   63.49
   1  -3   6 1365.76   61.79
   1  -3   6 1284.37   62.69
  -2   3  -6  128.69   11.70
  -2   3  -6  116.69   14.80
  -2   3  -6  149.99   16.50
  -2   3  -6  130.89   11.70
  -2   3  -6  113.09   10.20
  -2   3  -6  117.89   15.30
   2  -3   6  147.79   15.60
   2  -3   6  122.69   11.20
   2  -3   6   97.39   15.00
   2  -3   6  159.58   18.90
   2  -3   6  131.69   11.50
  -3   3  -6  277.77   26.30
  -3   3  -6  328.77   18.70
  -3   3  -6  313.87   17.90
  -3   3  -6  311.77   21.70
  -3   3  -6  348.97   22.30
  -3   3  -6  275.37   21.50
  -3   3  -6  321.17   18.90
   3  -3   6  343.97   22.00
   3  -3   6  342.67   24.00
   3  -3   6  305.77   18.40
   3  -3   6  320.57   18.80
   3  -3   6  281.67   18.20
   3  -3   6  315.07   21.70
  -4   3  -6 1401.66   66.39
  -4   3  -6 1388.96   68.19
  -4   3  -6 1162.58   68.29
  -4   3  -6 1412.56   70.59
  -4   3  -6 1483.75   69.39
  -4   3  -6 1378.46   67.99
   4  -3   6 1401.36   67.89
   4  -3   6 1367.96   66.19
   4  -3   6 1347.77   68.99
   4  -3   6 1338.27   67.89
   4  -3   6 1347.47   66.29
   4  -3   6 1351.76   66.29
  -5   3  -6  753.42   38.50
  -5   3  -6  795.72   45.80
  -5   3  -6  828.22   48.10
  -5   3  -6  624.64   41.30
  -5   3  -6  731.93   41.60
  -5   3  -6  782.82   38.80
   5  -3   6  735.73   43.00
   5  -3   6  710.63   40.70
   5  -3   6  701.43   38.20
   5  -3   6  752.82   38.30
   5  -3   6  784.92   41.00
   5  -3   6  782.72   38.50
  -6   3  -6    9.70   18.60
  -6   3  -6   20.70    7.50
  -6   3  -6   28.80   11.10
  -6   3  -6   32.00   11.90
  -6   3  -6   26.60    7.10
   6  -3   6   19.70   10.10
   6  -3   6   26.80    7.10
   6  -3   6   39.90   10.10
  -7   3  -6   62.29   15.20
  -7   3  -6   60.49   21.80
  -7   3  -6   50.79   20.40
  -7   3  -6   53.89    9.40
  -7   3  -6   63.59   13.90
  -7   3  -6   58.69    9.10
   7  -3   6   66.39    8.80
   7  -3   6   93.49   17.00
   7  -3   6   67.39   12.20
  -8   3  -6  -11.10   22.60
  -8   3  -6    0.40   14.70
  -8   3  -6  -10.20    8.90
   8  -3   6    0.00   12.60
   8  -3   6   15.70   12.40
   8  -3   6   -5.90    8.30
  -9   3  -6   93.49   17.90
  -9   3  -6   82.59   11.90
   9  -3   6   84.79   11.00
   9  -3   6  109.39   23.10
   9   2  -6  218.88   21.50
   9   2  -6  231.48   26.30
   9   2  -6  192.48   29.30
  -9  -2   6  259.17   26.40
  -9  -2   6  236.08   22.80
   8   2  -6    4.70    9.10
   8   2  -6   -9.80    7.70
   8   2  -6   15.40    9.40
   8   2  -6    8.00   12.80
   8   2  -6  -18.90   11.50
  -8  -2   6  -13.30    7.80
  -8  -2   6   -0.50    8.40
  -8  -2   6  -13.60   11.80
  -8  -2   6    7.10    9.90
  -8  -2   6   29.50   25.50
   7   2  -6   19.10   10.50
   7   2  -6   -7.60   12.80
   7   2  -6   -2.50    6.80
   7   2  -6   13.40    8.60
   7   2  -6   11.50    7.80
   7   2  -6   -9.00   10.20
   7   2  -6   12.80    5.60
  -7  -2   6   10.10    7.30
  -7  -2   6   -5.40    7.30
  -7  -2   6    9.20    5.60
  -7  -2   6   -3.70   10.50
  -7  -2   6  -12.00   22.10
   6   2  -6  168.08   16.60
   6   2  -6  131.89   20.80
   6   2  -6  141.79   15.50
   6   2  -6  128.99   20.10
   6   2  -6  183.58   16.80
   6   2  -6  170.98   13.20
  -6  -2   6  122.99   30.90
  -6  -2   6  172.68   13.40
  -6  -2   6  168.68   16.00
  -6  -2   6  143.89   20.40
   5   2  -6  681.63   37.10
   5   2  -6  645.34   37.90
   5   2  -6  674.93   36.00
   5   2  -6  668.13   36.00
   5   2  -6  667.53   34.10
   5   2  -6  701.53   34.80
  -5  -2   6  687.73   37.10
  -5  -2   6  667.83   41.60
  -5  -2   6  698.33   34.90
   4   2  -6 1201.78   59.49
   4   2  -6 1227.08   61.09
   4   2  -6 1274.27   59.79
   4   2  -6 1220.08   60.89
   4   2  -6 1204.88   60.69
   4   2  -6 1219.58   61.29
  -4  -2   6 1237.88   61.19
  -4  -2   6 1202.88   60.49
  -4  -2   6 1267.07   62.69
  -4  -2   6 1227.78   59.59
  -4  -2   6 1265.77   59.79
   3   2  -6  332.47   18.10
   3   2  -6  324.47   17.30
   3   2  -6  295.97   19.30
   3   2  -6  311.17   20.30
  -3  -2   6  324.67   17.20
  -3  -2   6  309.87   19.60
  -3  -2   6  320.07   18.10
  -3  -2   6  313.57   20.30
   2   2  -6  926.61   47.80
   2   2  -6  966.30   47.00
   2   2  -6 1005.40   47.20
  -2  -2   6  969.00   48.20
  -2  -2   6  948.21   46.90
  -2  -2   6  983.60   47.20
  -2  -2   6  987.70   47.60
   1   2  -6 4289.17  202.38
   1   2  -6 4403.96  201.78
   1   2  -6 4152.48  202.18
  -1  -2   6 4258.57  202.18
  -1  -2   6 4164.98  202.18
  -1  -2   6 4449.55  201.78
  -1  -2   6 4185.98  201.68
  -1  -2   6 4172.88  203.08
   0   2  -6   -0.70    3.80
   0   2  -6   -7.90    5.20
   0   2  -6   -1.10    5.20
   0   2  -6    2.50    3.70
   0  -2   6    1.90    3.70
   0  -2   6   11.50    4.60
   0  -2   6    6.10    5.40
   0  -2   6   -3.10    3.60
  -1   2  -6    2.50    3.50
  -1   2  -6   -5.60    3.80
  -1   2  -6    1.60    5.40
  -1   2  -6    0.40    4.60
   1  -2   6   -6.30    3.60
   1  -2   6    3.00    3.60
   1  -2   6   -0.60    5.50
  -2   2  -6  214.18   13.20
  -2   2  -6  245.08   17.30
  -2   2  -6  229.88   14.20
  -2   2  -6  226.58   13.90
  -2   2  -6  204.38   16.30
   2  -2   6  230.88   13.90
   2  -2   6  220.98   13.80
   2  -2   6  211.68   18.70
   2  -2   6  214.88   16.40
   2  -2   6  234.98   16.40
   2  -2   6  185.58   13.90
  -3   2  -6    7.20    4.60
  -3   2  -6   13.30    7.10
  -3   2  -6   -0.80    4.70
  -3   2  -6   -5.30    6.50
  -3   2  -6   -1.20    5.50
   3  -2   6    5.60    4.60
   3  -2   6   -4.90    4.00
   3  -2   6   12.90    7.00
   3  -2   6    4.10   10.40
  -4   2  -6  358.96   26.30
  -4   2  -6  443.36   23.80
  -4   2  -6  401.46   30.70
  -4   2  -6  484.35   27.10
  -4   2  -6  435.16   26.30
  -4   2  -6  464.85   23.80
   4  -2   6  432.76   25.70
   4  -2   6  394.56   23.60
   4  -2   6  437.16   23.40
   4  -2   6  429.56   28.00
   4  -2   6  470.05   26.10
   4  -2   6  417.46   23.30
  -5   2  -6  163.18   14.50
  -5   2  -6  138.59   13.70
  -5   2  -6  141.99   18.70
  -5   2  -6  180.18   20.80
  -5   2  -6  127.79   17.90
   5  -2   6  123.49   20.90
   5  -2   6  117.99   14.50
   5  -2   6  139.19   13.00
   5  -2   6  150.08   13.70
   5  -2   6  136.79   17.00
   5  -2   6  150.38   17.90
  -6   2  -6   11.20    6.50
  -6   2  -6    5.00   10.90
  -6   2  -6   -7.70   10.80
  -6   2  -6    4.70    8.30
  -6   2  -6    1.70    9.70
  -6   2  -6   -1.70   25.80
   6  -2   6   -0.70    9.20
   6  -2   6    2.20    6.40
   6  -2   6    0.20    5.70
   6  -2   6   15.00    9.20
   6  -2   6    8.20   14.20
   6  -2   6    6.90    8.60
  -7   2  -6   -3.60    7.40
  -7   2  -6  -11.30    7.70
  -7   2  -6  -14.20   12.40
  -7   2  -6   -9.80   13.20
  -7   2  -6  -18.60   18.50
  -7   2  -6   -6.80   15.00
   7  -2   6  -15.30   10.30
   7  -2   6    8.50   15.60
   7  -2   6  -14.00    7.10
  -8   2  -6   76.99   16.00
  -8   2  -6   72.69   10.00
  -8   2  -6   90.89   15.10
  -8   2  -6   79.59   10.20
  -8   2  -6   96.59   22.50
   8  -2   6  121.39   23.40
   8  -2   6   77.89    9.50
  -9   2  -6   14.40    9.90
  -9   2  -6   38.60   23.20
  -9   2  -6   17.20   15.90
   9  -2   6   38.90   14.50
   9  -2   6   16.90    9.00
   9  -2   6   12.10   13.20
  10   1  -6  113.89   25.10
  10   1  -6  144.29   20.70
  10   1  -6   94.89   16.90
 -10  -1   6  105.09   17.50
 -10  -1   6  137.79   22.40
   9   1  -6  110.89   18.40
   9   1  -6   62.09   23.20
   9   1  -6  101.09   24.20
  -9  -1   6  126.19   20.10
  -9  -1   6   88.19   15.10
   8   1  -6   41.30    8.10
   8   1  -6   41.70   11.40
   8   1  -6   35.50   12.50
  -8  -1   6   41.00   12.50
  -8  -1   6   35.60    9.80
  -8  -1   6   37.70    8.70
   7   1  -6  119.89   22.30
   7   1  -6  166.68   19.10
   7   1  -6  151.08   13.90
   7   1  -6  145.79   19.10
   7   1  -6  117.19   23.40
   7   1  -6  136.09   19.90
  -7  -1   6  134.89   22.50
  -7  -1   6  139.79   16.70
  -7  -1   6  133.39   18.30
  -7  -1   6  158.88   19.40
  -7  -1   6  148.89   14.10
  -7  -1   6  162.08   29.90
   6   1  -6  140.59   16.70
   6   1  -6  113.99   16.30
   6   1  -6   88.39   19.10
   6   1  -6   86.39   19.70
   6   1  -6  134.59   15.30
   6   1  -6  128.19   12.00
   6   1  -6   88.59   14.20
  -6  -1   6   91.09   19.20
  -6  -1   6  107.79   17.10
  -6  -1   6  138.89   21.30
  -6  -1   6  121.59   12.10
  -6  -1   6  105.89   16.00
  -6  -1   6   96.39   14.30
   5   1  -6  237.58   22.00
   5   1  -6  247.48   16.90
   5   1  -6  241.28   21.40
   5   1  -6  264.57   15.50
   5   1  -6  232.08   20.20
  -5  -1   6  248.88   15.40
  -5  -1   6  254.27   17.00
  -5  -1   6  232.18   20.70
   4   1  -6   -5.40    4.60
   4   1  -6    1.70    3.90
   4   1  -6    3.00    6.00
   4   1  -6    5.70    5.70
   4   1  -6    0.60    8.60
  -4  -1   6   -6.90    7.00
  -4  -1   6   -7.00    4.60
   3   1  -6  849.81   44.20
   3   1  -6  910.51   43.40
   3   1  -6  937.21   45.10
   3   1  -6  862.31   43.20
   3   1  -6  890.41   44.70
  -3  -1   6  873.61   43.60
  -3  -1   6  897.81   43.10
  -3  -1   6  874.81   44.60
  -3  -1   6  905.61   43.40
  -3  -1   6  854.31   44.00
   2   1  -6   -1.00    3.80
   2   1  -6    0.30    4.90
   2   1  -6    2.00    3.10
   2   1  -6    4.20    5.20
   2   1  -6   -5.70    5.50
  -2  -1   6   -4.60    4.10
  -2  -1   6   -0.70    3.80
  -2  -1   6    0.80    3.10
  -2  -1   6    1.10    5.20
  -2  -1   6   -3.10    5.30
   1   1  -6 2173.08  108.09
   1   1  -6 2285.57  107.59
   1   1  -6 2309.67  107.59
  -1  -1   6 2295.07  107.59
  -1  -1   6 2264.17  107.59
  -1  -1   6 2251.47  108.19
  -1  -1   6 2260.77  108.09
   0   1  -6 2248.08  112.89
   0   1  -6 2525.55  112.79
   0   1  -6 2384.76  112.39
   0   1  -6 2326.07  112.89
   0   1  -6 2411.16  112.39
   0  -1   6 2338.37  112.89
   0  -1   6 2446.76  112.49
   0  -1   6 2315.67  112.89
   0  -1   6 2278.27  112.29
  -1   1  -6  534.95   26.00
  -1   1  -6  505.95   25.80
  -1   1  -6  480.05   26.90
  -1   1  -6  513.55   25.70
  -1   1  -6  497.65   27.10
   1  -1   6  524.35   25.80
   1  -1   6  486.85   26.40
   1  -1   6  504.15   25.50
   1  -1   6  540.85   26.90
   1  -1   6  516.25   27.50
  -2   1  -6   88.99    8.60
  -2   1  -6   64.89   11.20
  -2   1  -6   88.19   12.30
  -2   1  -6   76.09    8.40
  -2   1  -6   55.09    7.00
  -2   1  -6   58.69    9.20
   2  -1   6   74.89   11.50
   2  -1   6   54.39   11.50
   2  -1   6   82.49    8.30
   2  -1   6   73.49   10.90
   2  -1   6   68.09    8.70
   2  -1   6   56.59    9.30
  -3   1  -6  981.90   48.50
  -3   1  -6 1013.10   47.40
  -3   1  -6  943.81   48.40
  -3   1  -6  924.51   50.29
  -3   1  -6  956.30   47.50
  -3   1  -6  998.10   47.40
   3  -1   6 1001.00   48.30
   3  -1   6  931.91   47.60
   3  -1   6 1035.80   49.20
   3  -1   6  932.01   48.20
   3  -1   6  938.51   49.70
   3  -1   6 1002.40   47.30
  -4   1  -6    8.40    6.80
  -4   1  -6    8.70    5.00
  -4   1  -6    1.50    4.80
  -4   1  -6   10.90    7.80
  -4   1  -6    2.40    6.90
   4  -1   6    0.30    7.00
   4  -1   6    9.90    6.20
   4  -1   6   -8.40   10.90
   4  -1   6    8.30    4.60
   4  -1   6    6.00    4.20
  -5   1  -6  441.56   32.20
  -5   1  -6  526.65   29.90
  -5   1  -6  514.75   26.60
  -5   1  -6  545.25   30.90
  -5   1  -6  486.95   28.80
   5  -1   6  469.25   25.80
   5  -1   6  486.25   27.30
   5  -1   6  477.95   28.30
   5  -1   6  459.95   31.00
   5  -1   6  490.45   26.00
  -6   1  -6   38.30    9.20
  -6   1  -6   38.00    6.40
  -6   1  -6   21.00   11.80
  -6   1  -6   43.20   10.50
  -6   1  -6   24.90   15.60
  -6   1  -6   28.50    6.70
  -6   1  -6   18.20    8.00
   6  -1   6   28.20    5.60
   6  -1   6   27.90   13.80
   6  -1   6   33.80    6.20
   6  -1   6   39.60    9.40
   6  -1   6   34.30    8.70
  -7   1  -6   10.30   10.30
  -7   1  -6   -2.50    7.30
  -7   1  -6  -15.00   12.60
  -7   1  -6  -16.40   17.10
  -7   1  -6   14.20    6.70
  -7   1  -6    0.50   16.00
   7  -1   6    1.20    6.60
   7  -1   6    1.10    9.40
  -8   1  -6  222.78   28.30
  -8   1  -6  247.88   26.40
  -8   1  -6  197.68   19.60
  -8   1  -6  234.68   31.50
  -8   1  -6  180.48   20.30
   8  -1   6  176.48   18.70
   8  -1   6  196.48   23.60
   8  -1   6  227.98   20.60
  -9   1  -6    2.30   21.20
  -9   1  -6   13.00   10.60
  -9   1  -6   -9.80    9.30
  -9   1  -6   -4.60   15.00
   9  -1   6   -0.50    8.20
   9  -1   6    9.00   13.20
   9  -1   6   -7.00   11.50
   9  -1   6    9.00   10.00
   9   0  -6   56.09    9.50
   9   0  -6   48.60   14.50
   9   0  -6   55.19   13.00
  -9   0   6   49.90   14.50
  -9   0   6   53.29   11.50
  -9   0   6   59.69   10.20
   8   0  -6  229.68   25.70
   8   0  -6  231.98   19.70
   8   0  -6  256.17   22.80
   8   0  -6  213.58   26.40
  -8   0   6  222.68   26.80
  -8   0   6  249.78   21.00
   7   0  -6  -10.40   10.80
   7   0  -6   -5.80    6.90
   7   0  -6   15.80    5.80
   7   0  -6   15.00    9.10
   7   0  -6   15.70    8.30
  -7   0   6   -7.50   10.30
  -7   0   6   12.50   32.70
  -7   0   6   11.00    9.00
  -7   0   6   -1.10    8.30
  -7   0   6    2.20    7.00
   6   0  -6   57.79    7.40
   6   0  -6   75.79   15.60
   6   0  -6   78.59   13.00
   6   0  -6   50.79   10.40
   6   0  -6   72.69   11.20
  -6   0   6   54.99    8.90
  -6   0   6   52.59    7.50
  -6   0   6   71.99   15.90
  -6   0   6   56.99   10.40
  -6   0   6   65.79   11.10
   5   0  -6  847.22   43.80
   5   0  -6  876.01   41.90
   5   0  -6  864.01   43.90
   5   0  -6  828.02   45.10
   5   0  -6  781.52   42.70
   5   0  -6  790.52   41.50
  -5   0   6  865.71   43.80
  -5   0   6  907.31   48.80
  -5   0   6  779.12   41.10
  -5   0   6  797.82   42.80
  -5   0   6  857.61   41.80
  -5   0   6  798.22   43.40
   4   0  -6   83.49   10.50
   4   0  -6   57.09   12.70
   4   0  -6   67.39    9.00
   4   0  -6   61.39    6.20
   4   0  -6   78.79   16.00
   4   0  -6   60.89    8.20
  -4   0   6   62.09    8.40
  -4   0   6   59.59   14.00
  -4   0   6   70.89    8.80
  -4   0   6   58.49   10.30
   3   0  -6   85.69   13.10
   3   0  -6   74.79    9.30
   3   0  -6   83.09    9.60
   3   0  -6  106.79   13.10
   3   0  -6   90.29    8.60
   3   0  -6   86.59   12.20
  -3   0   6   82.19   10.00
  -3   0   6   84.19    9.40
  -3   0   6   74.79   12.70
   2   0  -6  382.36   20.80
   2   0  -6  410.76   21.30
   2   0  -6  400.66   21.50
   2   0  -6  449.86   23.80
   2   0  -6  389.26   22.40
   2   0  -6  403.26   23.00
  -2   0   6  417.06   22.00
  -2   0   6  405.96   21.10
  -2   0   6  388.36   21.90
  -2   0   6  415.06   20.80
   1   0  -6  390.96   19.50
   1   0  -6  359.56   19.20
   1   0  -6  387.56   20.20
   1   0  -6  354.66   20.40
   1   0  -6  397.96   22.60
   1   0  -6  378.56   21.10
  -1   0   6  374.36   20.80
  -1   0   6  373.76   19.20
  -1   0   6  350.36   21.20
  -1   0   6  386.76   19.40
  -1   0   6  374.76   20.40
   0   0  -6  116.29   12.70
   0   0  -6  135.09    9.40
   0   0  -6  148.89   11.00
   0   0  -6  125.69   11.10
   0   0   6  146.49   11.20
   0   0   6  151.58    9.40
   0   0   6  131.29   11.60
  -1   0  -6 3588.94  175.98
  -1   0  -6 3796.12  175.58
  -1   0  -6 3911.01  176.18
  -1   0  -6 3762.42  175.58
   1   0   6 3486.15  175.48
   1   0   6 3703.63  176.18
  -2   0  -6  120.99    9.20
  -2   0  -6  100.09    9.80
   2   0   6   88.99   10.60
   2   0   6  129.79   11.60
   2   0   6  104.09    9.30
   2   0   6  117.09    8.60
  -3   0  -6   81.89    9.40
  -3   0  -6  112.59   12.50
  -3   0  -6   69.69   11.40
  -3   0  -6   87.09    9.20
   3   0   6   99.39   11.40
   3   0   6   76.69   10.10
   3   0   6   93.89    8.50
   3   0   6   86.49   11.90
  -4   0  -6  352.26   18.40
  -4   0  -6  322.17   18.40
  -4   0  -6  342.47   21.40
  -4   0  -6  287.37   20.10
   4   0   6  326.87   17.90
   4   0   6  322.87   17.90
   4   0   6  315.97   19.30
   4   0   6  313.37   20.40
  -5   0  -6    8.10    6.80
  -5   0  -6   30.80    8.30
  -5   0  -6    9.80    7.10
  -5   0  -6   20.10    5.10
  -5   0  -6   16.90    5.40
   5   0   6    7.40    6.40
   5   0   6   18.80    4.90
   5   0   6   16.30    8.40
   5   0   6   21.30    4.40
   5   0   6   12.30   12.00
  -6   0  -6  316.27   23.70
  -6   0  -6  353.16   20.20
  -6   0  -6  358.06   22.80
  -6   0  -6  302.37   27.90
  -6   0  -6  394.06   25.00
  -6   0  -6  355.46   20.80
   6   0   6  302.07   23.20
   6   0   6  345.97   22.00
   6   0   6  329.17   26.40
   6   0   6  333.57   19.90
   6   0   6  343.57   19.40
  -7   0  -6   13.30    9.40
  -7   0  -6   15.50    6.30
  -7   0  -6   -5.90    8.20
  -7   0  -6  -19.50   27.40
   7   0   6   15.30   11.80
   7   0   6    5.60    7.80
   7   0   6   14.00    5.60
   7   0   6   12.20    6.10
  -8   0  -6  113.29   22.40
  -8   0  -6   84.39   10.00
  -8   0  -6  125.69   16.20
  -8   0  -6   87.79   14.10
  -8   0  -6  129.79   28.50
   8   0   6   98.69   15.30
   8   0   6  112.69   17.60
   8   0   6  125.99   19.00
  -9   0  -6  325.07   34.80
  -9   0  -6  298.77   23.10
  -9   0  -6  251.57   23.00
   9   0   6  242.08   21.20
   9   0   6  266.77   23.60
 -10   0  -6   78.29   24.30
  10   0   6   99.69   21.30
   9  -1  -6   37.70   14.50
   9  -1  -6   39.70    9.70
   9  -1  -6   47.80   13.40
  -9   1   6   41.40   14.70
  -9   1   6   45.40   10.00
  -9   1   6   57.29   12.00
   8  -1  -6   -4.40   11.40
   8  -1  -6  -11.10    7.90
   8  -1  -6   22.50   10.10
  -8   1   6   -5.40    8.00
  -8   1   6  -18.60   12.10
  -8   1   6   -0.80   10.20
   7  -1  -6  205.78   21.40
   7  -1  -6  190.98   15.60
   7  -1  -6  204.18   23.30
   7  -1  -6  159.88   17.10
  -7   1   6  170.48   18.00
  -7   1   6  145.59   23.80
  -7   1   6  174.58   21.50
  -7   1   6  205.58   21.60
   6  -1  -6  111.59   21.20
   6  -1  -6  106.59   19.00
   6  -1  -6  123.59   16.80
   6  -1  -6   94.19   14.00
   6  -1  -6  118.39   12.10
   6  -1  -6   76.89   11.70
  -6   1   6   93.69   14.20
  -6   1   6   84.09   11.30
  -6   1   6   88.99   17.00
  -6   1   6  128.69   17.20
  -6   1   6  133.69   17.60
  -6   1   6  112.79   12.50
   5  -1  -6 1669.63   83.99
   5  -1  -6 1608.24   85.39
   5  -1  -6 1765.42   83.29
   5  -1  -6 1780.42   84.59
   5  -1  -6 1748.43   85.39
  -5   1   6 1821.72   84.19
  -5   1   6 1796.62   83.29
  -5   1   6 1591.94   82.79
  -5   1   6 1683.63   83.89
  -5   1   6 1820.52   84.59
  -5   1   6 1593.34   84.79
  -5   1   6 1859.11   88.09
   4  -1  -6 1796.12   91.89
   4  -1  -6 1749.72   86.49
   4  -1  -6 1892.81   88.39
   4  -1  -6 1716.43   86.19
   4  -1  -6 1700.13   86.89
   4  -1  -6 1884.61   86.49
   4  -1  -6 1879.41   87.49
  -4   1   6 1724.83   87.89
  -4   1   6 1858.41   86.39
  -4   1   6 1861.71   87.49
  -4   1   6 1731.33   86.09
  -4   1   6 1913.31   89.89
  -4   1   6 1730.43   86.89
   3  -1  -6  103.09    9.10
   3  -1  -6  105.99    9.80
   3  -1  -6  126.19   14.00
   3  -1  -6   89.79   10.10
   3  -1  -6   92.99   12.10
   3  -1  -6   93.59   12.90
  -3   1   6   90.79   14.40
  -3   1   6  120.39   11.20
  -3   1   6  102.69    9.80
  -3   1   6   92.09    9.90
   2  -1  -6  240.78   14.00
   2  -1  -6  268.57   17.40
   2  -1  -6  233.28   15.50
   2  -1  -6  237.08   13.60
   2  -1  -6  228.68   16.00
   2  -1  -6  222.28   15.60
  -2   1   6  255.17   15.20
  -2   1   6  230.38   15.40
  -2   1   6  238.18   15.40
  -2   1   6  235.48   13.80
  -2   1   6  248.28   15.10
   1  -1  -6 1245.98   61.19
   1  -1  -6 1353.06   62.59
   1  -1  -6 1214.18   60.39
   1  -1  -6 1228.28   61.09
   1  -1  -6 1279.87   60.49
  -1   1   6 1214.88   60.39
  -1   1   6 1293.37   61.29
  -1   1   6 1254.97   60.39
  -1   1   6 1288.67   61.09
   0  -1  -6  776.02   45.90
   0   1   6 1001.10   44.10
  -1  -1  -6  715.23   36.40
   1   1   6  744.63   36.70
  -2  -1  -6   94.29   10.10
   2   1   6   73.39   10.00
   2   1   6  103.79   10.90
   3   1   6   77.59   11.70
   3   1   6   74.09    8.60
  -4  -1  -6  587.74   34.30
   4   1   6  621.64   32.40
   4   1   6  639.64   32.10
   4   1   6  620.34   34.10
  -5  -1  -6  362.36   23.60
  -5  -1  -6  384.26   21.60
  -5  -1  -6  338.27   26.60
   5   1   6  385.56   22.90
   5   1   6  380.26   25.60
   5   1   6  386.46   22.40
  -6  -1  -6  425.56   31.30
  -6  -1  -6  384.86   28.00
  -6  -1  -6  424.96   27.50
  -6  -1  -6  484.95   25.00
   6   1   6  484.55   26.90
   6   1   6  460.35   24.00
   6   1   6  442.26   24.10
   6   1   6  462.45   29.70
   6   1   6  513.35   26.90
  -7  -1  -6    6.60    7.80
  -7  -1  -6   23.80    6.00
  -7  -1  -6   17.90    6.70
  -7  -1  -6    7.30   16.50
  -7  -1  -6   15.20   12.00
  -7  -1  -6   24.80    8.20
   7   1   6   16.50   14.10
   7   1   6   18.90    7.30
   7   1   6   36.60   10.50
   7   1   6   17.60    5.70
   7   1   6   25.00    5.20
  -8  -1  -6   -0.90    7.30
  -8  -1  -6  -11.20   17.40
  -8  -1  -6    8.40    6.70
   8   1   6   -7.60    7.70
   8   1   6    3.00    6.20
   8   1   6   -0.50   11.00
  -9  -1  -6   -4.00   20.00
  -9  -1  -6    6.00    8.20
  -9  -1  -6    4.00   12.90
  -9  -1  -6   -0.80    8.10
   9   1   6    6.00   13.30
   9   1   6   -4.80    7.00
 -10  -1  -6  129.89   20.30
 -10  -1  -6  142.99   29.80
  10   1   6  187.48   22.20
  10   1   6  123.59   18.10
   9  -2  -6   16.20   13.50
   9  -2  -6   -2.60    9.50
   9  -2  -6    7.60   14.50
  -9   2   6   23.00   11.90
  -9   2   6    7.30   15.10
  -9   2   6    7.70    9.60
   8  -2  -6   -2.60    8.10
   8  -2  -6   10.50   12.40
   8  -2  -6   -4.90   12.70
   8  -2  -6   22.90   11.10
  -8   2   6   -0.20   10.30
  -8   2   6   -8.30    8.30
  -8   2   6  -14.90   12.70
   7  -2  -6   70.59    8.60
   7  -2  -6   49.30   13.40
   7  -2  -6   76.79   18.40
   7  -2  -6  102.59   13.80
  -7   2   6   64.79   12.30
  -7   2   6   71.39   10.40
  -7   2   6   80.19    8.90
   6  -2  -6   14.80    4.90
   6  -2  -6   10.50    5.40
   6  -2  -6   15.70   12.40
   6  -2  -6   20.00   12.80
   6  -2  -6   -1.60    6.50
  -6   2   6   11.30    8.40
  -6   2   6    9.80    8.00
  -6   2   6   -6.20    6.60
  -6   2   6   -8.10    9.50
   5  -2  -6  236.48   23.40
   5  -2  -6  272.77   19.60
   5  -2  -6  250.77   21.90
   5  -2  -6  269.57   17.60
   5  -2  -6  242.38   16.40
   5  -2  -6  262.87   22.30
   5  -2  -6  260.57   22.70
  -5   2   6  257.17   17.60
  -5   2   6  271.57   21.30
  -5   2   6  250.47   20.60
  -5   2   6  230.98   20.30
  -5   2   6  265.07   19.10
  -5   2   6  255.77   16.20
   4  -2  -6   32.60    7.50
   4  -2  -6   18.40   10.60
   4  -2  -6   35.00    5.90
   4  -2  -6   29.80    8.00
   4  -2  -6   31.30    5.50
   4  -2  -6   19.80    5.10
  -4   2   6   51.69    8.90
  -4   2   6   28.40    5.40
  -4   2   6   21.60    6.90
  -4   2   6   25.40    6.60
  -4   2   6   34.70    7.60
   3  -2  -6 1378.86   64.69
   3  -2  -6 1351.06   63.59
   3  -2  -6 1332.07   62.39
   3  -2  -6 1255.97   64.39
   3  -2  -6 1283.77   62.79
   3  -2  -6 1247.48   62.99
   3  -2  -6 1256.37   62.19
  -3   2   6 1363.96   63.39
  -3   2   6 1224.98   64.19
  -3   2   6 1229.98   62.09
  -3   2   6 1328.17   62.39
   2  -2  -6  105.49   13.30
   2  -2  -6   92.49    9.70
   2  -2  -6   87.69    9.10
   2  -2  -6   92.49    8.20
  -2   2   6   91.19    8.90
  -2   2   6   93.39   11.10
  -2   2   6   98.89   10.80
  -2   2   6   88.39    7.90
   1  -2  -6  796.12   40.10
   1  -2  -6  723.73   38.40
  -1   2   6  775.82   38.90
  -1   2   6  815.02   38.90
   0  -2  -6 1753.32   86.69
   0  -2  -6 1812.32   87.99
   0   2   6 1793.02   86.89
   0   2   6 1874.81   86.59
  -1  -2  -6   18.70    3.90
   1   2   6   16.00    4.40
  -2  -2  -6 1006.10   50.29
  -2  -2  -6 1010.70   50.49
   2   2   6 1068.29   50.69
  -3  -2  -6   47.00    7.30
   3   2   6   33.30    5.80
   3   2   6   55.89    8.40
  -4  -2  -6  940.71   47.80
  -4  -2  -6  970.20   48.90
   4   2   6  989.60   48.60
   4   2   6  977.70   48.20
  -5  -2  -6 1511.55   76.49
  -5  -2  -6 1515.95   76.89
  -5  -2  -6 1528.65   75.69
   5   2   6 1638.84   76.09
   5   2   6 1605.34   75.99
  -6  -2  -6  916.11   47.20
  -6  -2  -6  829.72   45.30
  -6  -2  -6  777.82   44.00
   6   2   6  894.71   46.70
   6   2   6  880.71   44.50
   6   2   6  940.71   45.00
  -7  -2  -6  112.39   23.50
   7   2   6  129.89   15.90
   7   2   6  126.49   17.70
   7   2   6  122.99   22.40
  -8  -2  -6  139.29   19.70
   8   2   6  124.79   18.60
  -9  -2  -6    4.00   19.40
  -9  -2  -6    5.50    7.80
  -9  -2  -6   -1.70    7.90
   9   2   6    7.70   12.00
 -10  -2  -6   44.10   22.00
 -10  -2  -6   13.30    9.00
  10   2   6   -0.50   13.40
   8  -3  -6  172.58   19.60
   8  -3  -6  150.28   27.80
   8  -3  -6  130.79   29.50
  -8   3   6  146.49   27.30
  -8   3   6  137.79   20.60
  -8   3   6  185.88   24.40
   7  -3  -6  -18.60   11.70
   7  -3  -6    1.90    6.50
   7  -3  -6    3.50   11.60
   7  -3  -6   -9.50    7.60
  -7   3   6   -9.80    8.80
  -7   3   6  -15.10   11.50
  -7   3   6  -11.50    7.60
   6  -3  -6  129.89   13.60
   6  -3  -6   85.89   15.40
   6  -3  -6  117.29   20.40
   6  -3  -6  102.39   13.20
  -6   3   6  149.88   19.40
  -6   3   6   91.69    9.30
  -6   3   6   95.49   12.20
   5  -3  -6  179.28   21.60
   5  -3  -6  172.18   20.50
   5  -3  -6  101.29   19.70
   5  -3  -6  116.09   14.30
   5  -3  -6  148.29   17.40
   5  -3  -6  146.39   13.40
  -5   3   6  127.79   14.50
  -5   3   6  127.19   16.80
  -5   3   6  169.28   17.90
  -5   3   6  133.69   12.90
  -5   3   6  120.19   19.10
  -5   3   6  124.39   17.70
   4  -3  -6  544.75   34.80
   4  -3  -6  621.14   30.40
   4  -3  -6  582.84   31.50
   4  -3  -6  596.94   34.40
   4  -3  -6  547.75   33.20
   4  -3  -6  596.34   33.00
   4  -3  -6  552.44   30.60
  -4   3   6  578.74   29.60
  -4   3   6  608.84   30.30
  -4   3   6  657.73   35.40
  -4   3   6  609.24   32.30
  -4   3   6  513.15   32.80
   3  -3  -6   22.70    4.90
   3  -3  -6   17.20    4.50
   3  -3  -6   27.90    4.10
   3  -3  -6   23.50    7.00
   3  -3  -6   22.90   12.90
  -3   3   6    9.00    5.80
  -3   3   6   20.70    3.90
  -3   3   6   22.50    6.60
  -3   3   6   18.30    6.40
  -3   3   6   21.90    4.70
   2  -3  -6   13.00    6.20
  -2   3   6    4.50    4.70
  -2   3   6    7.90    3.90
   1  -3  -6 1043.10   53.39
   1  -3  -6 1142.29   55.09
  -1   3   6 1130.49   53.59
  -1   3   6 1062.89   53.69
   0  -3  -6  367.26   22.00
   0  -3  -6  338.87   19.60
   0   3   6  342.17   20.30
   0   3   6  373.26   19.70
  -1  -3  -6  638.04   34.80
  -1  -3  -6  633.64   32.90
  -1  -3  -6  658.43   33.50
   1   3   6  663.73   33.40
   1   3   6  673.33   32.70
  -2  -3  -6    5.40    6.60
  -2  -3  -6    4.60    3.90
   2   3   6    6.70    4.50
  -3  -3  -6   26.80    7.90
  -3  -3  -6   22.90    4.70
  -3  -3  -6   40.60    8.30
   3   3   6   33.10    7.80
   3   3   6   20.00    5.20
  -4  -3  -6  104.99   11.10
  -4  -3  -6  105.39   13.40
   4   3   6  100.59   12.90
   4   3   6   94.99   13.30
  -5  -3  -6   27.40   11.40
  -5  -3  -6   23.70    7.10
  -5  -3  -6   29.40    9.50
   5   3   6   44.90    9.90
   5   3   6   29.20    7.60
   5   3   6   13.50    6.30
   5   3   6   45.40   11.40
  -6  -3  -6  315.27   20.20
  -6  -3  -6  307.07   21.70
  -6  -3  -6  313.37   25.10
   6   3   6  314.77   21.70
   6   3   6  281.37   24.50
   6   3   6  342.27   21.90
   6   3   6  335.37   25.40
  -7  -3  -6  295.37   26.00
   7   3   6  245.38   26.40
   7   3   6  272.07   25.00
   7   3   6  281.17   21.50
  -8  -3  -6  160.48   26.10
   8   3   6  182.98   20.50
  -9  -3  -6  155.18   29.70
   9   3   6  185.58   21.40
   9   3   6  142.09   27.90
 -10  -3  -6   13.90   20.80
  10   3   6    8.50   12.80
   8  -4  -6   80.29   15.60
   8  -4  -6   74.69   10.70
   8  -4  -6   62.69   15.80
  -8   4   6   67.69   12.20
  -8   4   6   71.29   10.40
   7  -4  -6  105.69   16.90
   7  -4  -6   66.89   14.20
   7  -4  -6   69.09    9.40
   7  -4  -6  101.89   27.40
  -7   4   6   63.09   10.70
  -7   4   6   60.29   10.40
   6  -4  -6   -0.40    6.10
   6  -4  -6    3.50   10.90
   6  -4  -6  -16.20    7.40
   6  -4  -6    0.30    9.70
   6  -4  -6    1.00    6.20
  -6   4   6    3.50    8.10
   5  -4  -6  303.57   22.00
   5  -4  -6  343.57   21.70
   5  -4  -6  326.97   22.00
   5  -4  -6  376.86   28.80
   5  -4  -6  316.17   24.50
   5  -4  -6  392.66   28.10
  -5   4   6  317.27   21.70
  -5   4   6  324.47   26.10
  -5   4   6  372.46   24.20
   4  -4  -6  521.35   30.30
   4  -4  -6  480.95   28.70
   4  -4  -6  436.16   25.50
   4  -4  -6  452.55   25.40
   4  -4  -6  494.45   30.70
  -4   4   6  430.56   24.20
  -4   4   6  448.46   25.00
  -4   4   6  423.86   25.90
  -4   4   6  388.96   28.10
  -4   4   6  468.25   27.00
   3  -4  -6   82.39   12.30
   3  -4  -6   81.19   18.70
   3  -4  -6  122.89   13.60
   3  -4  -6  105.39   12.00
   3  -4  -6  120.39   17.10
   3  -4  -6  112.69    9.90
  -3   4   6  115.69   11.50
  -3   4   6  122.49    9.80
  -3   4   6  100.59   14.40
  -3   4   6   99.39   15.40
   2  -4  -6  373.06   23.20
   2  -4  -6  307.37   22.80
   2  -4  -6  335.97   19.80
  -2   4   6  339.37   22.10
  -2   4   6  348.47   20.70
   1  -4  -6  169.18   13.20
   1  -4  -6  164.88   16.40
  -1   4   6  198.38   14.30
   0  -4  -6 2495.05  115.89
   0  -4  -6 2239.78  114.89
   0   4   6 2358.06  114.79
   0   4   6 2492.65  114.59
  -1  -4  -6 2073.09   99.69
  -1  -4  -6 2143.29  100.79
  -1  -4  -6 1966.70   99.19
  -1  -4  -6 2087.89  100.59
   1   4   6 2041.10   99.79
   1   4   6 2158.38   99.49
  -2  -4  -6   20.60    7.20
  -2  -4  -6   17.70    4.40
  -2  -4  -6   22.20    9.40
  -2  -4  -6    8.70    6.50
   2   4   6   18.70    4.90
  -3  -4  -6  130.79   15.10
  -3  -4  -6  126.59   13.50
  -3  -4  -6  152.38   12.30
   3   4   6  158.58   13.90
  -4  -4  -6  457.05   26.60
  -4  -4  -6  467.25   25.60
  -4  -4  -6  460.25   25.80
   4   4   6  491.75   26.30
   4   4   6  469.85   26.60
  -5  -4  -6   34.60    9.60
  -5  -4  -6   30.90    7.80
   5   4   6   23.00    6.40
   5   4   6   38.60    9.00
  -6  -4  -6   -3.80   12.90
  -6  -4  -6   -2.00   10.20
  -6  -4  -6    2.70    8.30
   6   4   6   -5.50    8.80
  -7  -4  -6   70.19   16.80
  -7  -4  -6   44.40    8.60
   7   4   6   48.60   10.70
  -8  -4  -6   51.39   17.40
   8   4   6   64.49   13.00
  -9  -4  -6   28.10   18.50
   9   4   6   -0.60   12.30
   9   4   6   19.50   13.80
 -10  -4  -6  140.09   31.50
  10   4   6  157.58   24.20
   7  -5  -6    2.50    9.00
   7  -5  -6   -6.20   13.90
   7  -5  -6    2.60   13.90
  -7   5   6   -9.40   13.50
  -7   5   6   -3.60   13.70
  -7   5   6  -17.40   10.10
   6  -5  -6   12.80   12.40
   6  -5  -6   12.90    6.80
   6  -5  -6    4.60    8.20
   6  -5  -6    7.00   12.70
  -6   5   6   -0.20   11.80
  -6   5   6    4.70    8.90
  -6   5   6    6.90    7.80
   5  -5  -6   55.79    8.30
   5  -5  -6   61.89   10.10
   5  -5  -6   63.69   12.30
   5  -5  -6   76.99   15.10
   5  -5  -6   82.19   23.00
   5  -5  -6   53.79    7.00
  -5   5   6   61.39    7.90
  -5   5   6   59.39    9.10
  -5   5   6   60.69   11.50
   4  -5  -6   16.10    9.70
   4  -5  -6   18.10    5.40
   4  -5  -6   16.20    6.10
  -4   5   6   14.50    6.20
  -4   5   6   18.90    5.20
  -4   5   6   23.20    9.40
   3  -5  -6  463.75   26.30
   3  -5  -6  450.05   29.80
   3  -5  -6  526.45   30.60
  -3   5   6  438.66   24.30
  -3   5   6  507.55   27.40
  -3   5   6  469.45   25.10
  -3   5   6  405.26   28.50
   2  -5  -6  178.98   18.20
   2  -5  -6  143.09   18.40
   2  -5  -6  157.28   14.10
  -2   5   6  162.68   15.40
  -2   5   6  147.89   16.50
   1  -5  -6  126.49   15.90
   1  -5  -6  107.49   12.20
  -1   5   6  102.49   13.30
   0  -5  -6    3.50    6.10
   0  -5  -6    3.30    4.40
   0  -5  -6    2.70    4.00
   0   5   6    6.60    4.90
  -1  -5  -6  541.75   28.80
  -1  -5  -6  542.95   29.60
  -1  -5  -6  515.85   28.00
  -1  -5  -6  522.65   29.60
  -1  -5  -6  572.24   30.70
   1   5   6  583.94   28.70
  -2  -5  -6 2396.36  118.29
  -2  -5  -6 2332.07  117.19
  -2  -5  -6 2460.55  117.79
  -2  -5  -6 2538.15  118.79
  -2  -5  -6 2507.05  117.99
   2   5   6 2510.85  117.49
   2   5   6 2477.05  117.99
  -3  -5  -6  462.75   27.20
  -3  -5  -6  494.85   26.10
  -3  -5  -6  451.15   28.30
   3   5   6  522.65   27.00
  -4  -5  -6  673.83   34.20
  -4  -5  -6  621.04   34.90
  -4  -5  -6  629.34   34.50
   4   5   6  694.73   34.70
   4   5   6  666.83   35.10
  -5  -5  -6  429.76   25.00
  -5  -5  -6  408.36   24.70
  -5  -5  -6  405.66   26.50
   5   5   6  481.65   25.70
   5   5   6  458.45   26.40
  -6  -5  -6   31.00    9.10
  -6  -5  -6   28.00   11.10
  -6  -5  -6   28.10   13.60
   6   5   6    7.50    8.80
   6   5   6   38.40   10.70
   6   5   6   19.90    6.50
  -7  -5  -6   16.30   10.60
  -7  -5  -6    6.30   14.80
   7   5   6  -11.10    9.90
  -8  -5  -6    0.30   17.40
  -8  -5  -6   -9.80    7.90
   8   5   6  -10.60   11.60
   8   5   6    6.60   13.10
  -9  -5  -6   48.30   19.50
   9   5   6   26.90   13.70
   9   5   6   15.60   22.50
 -10  -5  -6   66.19   21.40
  10   5   6   57.29   17.10
   6  -6  -6    8.40   13.50
   6  -6  -6   -4.90    8.90
  -6   6   6   -5.90    8.20
  -6   6   6    0.10    9.30
   5  -6  -6   33.20   12.50
   5  -6  -6   30.10   12.20
   5  -6  -6   34.20    8.50
   5  -6  -6   38.70    6.90
   5  -6  -6   52.09   14.00
  -5   6   6   31.80    7.80
  -5   6   6   35.90    8.90
   4  -6  -6  767.22   38.40
   4  -6  -6  728.33   43.30
   4  -6  -6  669.13   37.00
  -4   6   6  715.33   37.80
  -4   6   6  757.42   39.90
   3  -6  -6  123.69   26.40
   3  -6  -6  102.59   15.00
  -3   6   6   86.39   20.80
  -3   6   6  136.79   17.30
   2  -6  -6   18.30   10.70
   2  -6  -6    6.20    5.50
   2  -6  -6   15.70    8.30
  -2   6   6    5.20    7.10
  -2   6   6    9.60    6.40
   1  -6  -6  352.06   24.20
   1  -6  -6  327.57   21.40
  -1   6   6  367.06   21.90
   0  -6  -6  173.78   17.20
   0  -6  -6  143.79   14.00
   0  -6  -6  138.99   13.20
   0   6   6  163.18   14.60
  -1  -6  -6  497.45   27.20
  -1  -6  -6  490.15   28.10
  -1  -6  -6  464.35   26.40
  -1  -6  -6  445.06   25.50
   1   6   6  509.25   26.50
  -2  -6  -6  145.29   15.70
  -2  -6  -6  133.69   11.70
  -2  -6  -6  110.49   15.20
  -2  -6  -6  136.69   13.70
  -2  -6  -6  127.79   13.20
   2   6   6  155.08   12.80
  -3  -6  -6  547.65   29.30
  -3  -6  -6  515.75   27.80
  -3  -6  -6  480.15   26.40
  -3  -6  -6  519.45   28.30
  -3  -6  -6  474.35   28.70
  -4  -6  -6  118.09   15.10
  -4  -6  -6  131.09   13.80
  -4  -6  -6  121.89   16.20
  -5  -6  -6  316.17   23.80
  -5  -6  -6  365.46   22.60
   5   6   6  375.46   24.40
   5   6   6  387.76   23.60
   5   6   6  366.06   28.50
  -6  -6  -6 1161.78   64.39
  -6  -6  -6 1189.18   63.59
  -6  -6  -6 1227.78   63.19
   6   6   6 1393.06   63.69
   6   6   6 1288.27   66.79
   6   6   6 1419.96   64.69
  -7  -6  -6  185.78   25.00
   7   6   6  151.98   21.70
  -8  -6  -6   -2.00    8.10
  -8  -6  -6   -4.70   17.30
   8   6   6    8.10   13.20
   8   6   6  -10.90   11.20
  -9  -6  -6   21.70   19.90
   9   6   6    5.80   20.40
   9   6   6   37.00   14.60
 -10  -6  -6   77.59   22.40
  10   6   6   58.49   16.40
   6  -7  -6   -7.00    9.90
   6  -7  -6    3.70   14.80
  -6   7   6   -7.70    9.50
  -6   7   6    2.10   10.00
   5  -7  -6    6.30   12.90
   5  -7  -6   -1.10    8.90
  -5   7   6   -6.30    9.00
  -5   7   6  -11.30    8.10
   4  -7  -6    5.20    6.20
   4  -7  -6   -2.30    7.80
   4  -7  -6    0.70   11.40
  -4   7   6    5.50    8.20
   3  -7  -6  513.95   34.40
  -3   7   6  494.55   30.60
   2  -7  -6 1004.00   56.49
  -2   7   6 1005.00   56.19
  -2   7   6 1200.18   54.59
   1  -7  -6  392.76   26.60
   1  -7  -6  349.17   23.30
  -1   7   6  369.86   25.10
   0  -7  -6 1380.26   68.49
   0  -7  -6 1353.96   68.39
   0  -7  -6 1235.28   67.79
   0  -7  -6 1485.95   69.99
   0   7   6 1498.75   68.59
  -1  -7  -6  852.91   43.10
  -1  -7  -6  806.52   41.80
  -1  -7  -6  786.62   41.60
  -1  -7  -6  743.63   41.00
   1   7   6  856.11   41.60
  -2  -7  -6   10.90    9.30
  -2  -7  -6    6.00    7.90
  -2  -7  -6   19.40    6.90
  -2  -7  -6   16.80   10.10
  -2  -7  -6   12.00    5.60
  -2  -7  -6   17.30    4.90
   2   7   6   16.40    5.30
  -3  -7  -6    2.60    5.50
  -3  -7  -6  -10.50    9.10
  -3  -7  -6   -6.00    9.40
  -3  -7  -6    3.10    4.60
  -3  -7  -6    8.80    6.80
  -4  -7  -6  153.98   15.60
  -4  -7  -6  138.69   16.20
  -4  -7  -6  137.99   16.60
  -4  -7  -6  172.68   16.90
  -5  -7  -6  259.97   21.10
  -5  -7  -6  281.27   20.90
  -5  -7  -6  229.38   19.00
  -5  -7  -6  278.37   19.70
   5   7   6  235.28   27.40
  -6  -7  -6  138.79   16.20
  -6  -7  -6  118.59   21.30
  -6  -7  -6  101.59   16.10
   6   7   6  145.39   26.30
   6   7   6  134.09   19.00
   7   7   6    6.60   12.50
   7   7   6   16.90   14.40
  -8  -7  -6   21.70   18.00
   8   7   6    4.60   13.70
   8   7   6   -0.70   12.20
  -9  -7  -6   31.00   20.20
   9   7   6   30.70   13.80
   9   7   6    6.30   14.20
 -10  -7  -6   42.80   22.50
  10   7   6   47.10   15.70
  10   7   6   16.80   15.70
   5  -8  -6    9.50   10.00
   5  -8  -6   19.60   14.80
  -5   8   6   17.40   10.00
   4  -8  -6    4.10   12.70
  -4   8   6   -6.20    8.80
   3  -8  -6  -10.80   11.10
  -3   8   6   -5.30    8.10
   2  -8  -6   98.29   22.30
  -2   8   6  100.49   17.90
  -1   8   6   12.80    8.30
  -1   8   6    1.00    7.00
  -1  -8  -6  317.67   20.90
  -1  -8  -6  310.87   23.10
  -1  -8  -6  261.07   19.50
  -1  -8  -6  286.07   21.40
  -2  -8  -6 1080.29   51.39
  -2  -8  -6  941.21   50.09
  -2  -8  -6  974.60   50.19
  -2  -8  -6  885.01   49.40
   2   8   6 1050.99   49.90
  -3  -8  -6   88.59   15.40
  -3  -8  -6   96.09   15.40
  -3  -8  -6   77.39   13.00
  -3  -8  -6  100.89   15.40
  -3  -8  -6  113.99   16.80
  -4  -8  -6    2.70    6.60
  -4  -8  -6    6.50    9.50
  -4  -8  -6   12.10    7.40
  -4  -8  -6   -5.00   10.60
  -4  -8  -6    6.70    5.30
  -5  -8  -6   50.09   11.10
  -5  -8  -6   39.20    7.50
  -5  -8  -6   28.80    5.70
  -5  -8  -6   52.39   12.90
  -6  -8  -6   43.50   11.00
  -6  -8  -6   32.60    7.60
   6   8   6   36.30   15.30
  -7  -8  -6  283.77   29.50
   7   8   6  269.97   24.30
   7   8   6  261.77   32.70
  -8  -8  -6   20.40   19.50
   8   8   6   13.70   13.40
  -9  -8  -6   77.59   22.00
   9   8   6   53.89   15.30
   9   8   6   28.60   16.10
   4  -9  -6  234.28   32.50
  -4   9   6  240.88   25.30
   3  -9  -6   -4.80   12.60
  -3   9   6   -3.60    8.50
   2  -9  -6    2.30   11.30
  -2   9   6    5.10    8.10
   1  -9  -6  205.88   24.40
  -1   9   6  193.58   20.20
   0  -9  -6   48.00   16.50
   0   9   6   48.80    8.00
  -1  -9  -6   46.10    9.70
   1   9   6   45.40    7.70
  -2  -9  -6  230.18   21.50
  -2  -9  -6  222.38   19.00
  -3  -9  -6  303.07   22.40
  -3  -9  -6  288.17   22.80
  -3  -9  -6  302.07   32.50
  -3  -9  -6  347.57   24.00
  -4  -9  -6   12.00   10.70
  -4  -9  -6    5.80    7.80
  -4  -9  -6    5.80    7.60
  -5  -9  -6   15.20   10.50
  -5  -9  -6    7.50    7.60
  -5  -9  -6    4.40    7.40
  -6  -9  -6  125.89   19.10
  -7  -9  -6   23.20    8.20
   8   9   6   65.39   15.60
  -9  -9  -6   59.19   23.30
   9   9   6    7.90   16.60
   9   9   6   22.90   15.80
   2 -10  -6  178.48   28.10
  -2  10   6  163.68   22.00
   1 -10  -6   -3.40   11.30
  -1  10   6    0.30    8.20
   0 -10  -6   33.50   10.80
   0  10   6   37.60    8.60
  -1 -10  -6   -5.60   15.50
  -2 -10  -6  166.38   22.10
  -2 -10  -6  200.18   18.60
  -3 -10  -6  352.76   25.90
  -3 -10  -6  369.86   25.10
  -3 -10  -6  326.77   45.00
  -3 -10  -6  383.96   27.00
  -4 -10  -6   35.20   11.30
  -4 -10  -6   39.40   13.60
  -4 -10  -6   26.50    8.90
   0 -11  -6    4.00   11.70
  -1 -11  -6   46.10   11.80
  -2 -11  -6   36.70   13.20
  -3 -11  -6  113.39   22.70
  -3 -11  -6  101.39   21.60
  -4 -11  -6   70.69   21.70
  -5 -11  -6   -9.80   20.30
  -3 -12  -6    7.60   17.20
   5  11  -7   67.69   11.20
  -5 -11   7   61.79   12.80
  -5 -11   7   75.19   18.50
  -5 -11   7   52.19   22.20
   4  11  -7   70.49   18.50
  -4 -11   7   57.29   20.80
  -4 -11   7   73.49   18.00
  -4 -11   7   73.89   12.40
   3  11  -7   24.50   17.60
  -3 -11   7   11.30   19.20
  -3 -11   7   52.99   11.50
  -2 -11   7  237.68   34.50
  -2 -11   7  219.98   25.20
  -1 -11   7  207.28   35.00
  -1 -11   7  174.08   23.30
   7  10  -7   60.79   11.20
  -7 -10   7   62.49   17.40
  -7 -10   7   32.70   12.10
  -7 -10   7   66.89   24.20
   6  10  -7  -19.00   18.70
   6  10  -7    1.90    9.60
   6  10  -7    4.60   16.40
  -6 -10   7   -5.50   22.00
  -6 -10   7   10.60   16.60
  -6 -10   7   -2.30   10.80
   5  10  -7   69.79   17.70
   5  10  -7   53.79   11.80
   5  10  -7   54.99   14.50
  -5 -10   7   62.49   21.00
  -5 -10   7   70.39   17.00
  -5 -10   7   56.09   11.90
   4  10  -7   -8.20   16.30
   4  10  -7   17.60   15.90
  -4 -10   7    8.00   11.10
  -4 -10   7   13.80   15.80
  -4 -10   7  -11.10   18.00
  -3 -10   7   61.19   16.30
  -3 -10   7   33.30   10.60
  -3 -10   7    8.10   17.40
  -2 -10   7  144.39   31.30
   1  10  -7  109.59   19.00
   1  10  -7  168.88   27.80
  -1 -10   7  191.98   31.40
  -1 -10   7  152.48   21.40
   0  10  -7  117.89   18.00
   0 -10   7   85.69   19.00
  -1  10  -7   37.50   16.20
  -1  10  -7   13.30    8.70
   1 -10   7   -7.20   17.70
   1 -10   7   28.10   16.50
   1 -10   7   11.40    9.70
   8   9  -7    7.50    9.60
   8   9  -7   10.10   17.60
   8   9  -7  -13.30    9.90
  -8  -9   7  -18.20   11.10
  -8  -9   7   -4.40   16.10
  -8  -9   7   16.10   26.30
   7   9  -7   22.00   15.90
   7   9  -7   -2.20   14.20
   7   9  -7    3.90    9.30
  -7  -9   7   25.00   23.90
  -7  -9   7   -6.90   10.50
  -7  -9   7    6.20   15.80
   6   9  -7  371.86   31.40
   6   9  -7  368.36   34.00
  -6  -9   7  424.36   40.60
  -6  -9   7  413.96   29.20
  -6  -9   7  473.95   36.70
  -6  -9   7  399.16   31.30
   5   9  -7  123.29   19.00
   5   9  -7   79.09   14.30
   5   9  -7  112.09   17.80
  -5  -9   7   64.39   10.10
  -5  -9   7   88.19   16.20
  -5  -9   7   82.69   11.70
  -5  -9   7  113.59   21.00
   4   9  -7   44.20    9.40
  -4  -9   7   38.10   14.90
  -4  -9   7   32.80   10.40
  -4  -9   7   -3.00   20.00
  -4  -9   7   28.40   17.70
  -3  -9   7   14.30   14.50
  -3  -9   7  -16.30    7.70
  -3  -9   7    8.10    9.60
  -3  -9   7  -16.30   16.40
   2   9  -7   59.69    9.10
   2   9  -7   84.39   14.90
  -2  -9   7   48.40   13.20
  -2  -9   7   43.80    9.00
  -2  -9   7   69.59   16.60
   1   9  -7  388.46   28.60
   1   9  -7  562.84   34.00
   1   9  -7  481.55   31.40
  -1  -9   7  377.46   33.40
  -1  -9   7  455.35   30.60
  -1  -9   7  445.46   33.50
  -1  -9   7  536.65   29.40
   0   9  -7  264.17   19.70
   0   9  -7  208.98   21.50
   0  -9   7  236.48   27.90
   0  -9   7  168.18   28.60
  -1   9  -7   33.10   14.70
  -1   9  -7    6.80    8.20
   1  -9   7   27.70   15.00
   1  -9   7    6.40   16.50
   1  -9   7   11.60    9.20
  -2   9  -7  156.48   21.30
  -2   9  -7  237.78   32.50
   2  -9   7  237.18   32.20
   2  -9   7  169.58   21.90
  -3   9  -7   23.60    9.50
  -3   9  -7   34.20   18.10
   3  -9   7   17.70   16.20
   3  -9   7   17.30    9.80
   8   8  -7    8.50    9.90
   8   8  -7   -4.40   13.70
  -8  -8   7   31.50   25.00
  -8  -8   7   -3.70   15.40
  -8  -8   7    8.40   10.50
   7   8  -7   15.30   15.30
   7   8  -7   -4.00    8.90
   7   8  -7  -10.80   13.20
  -7  -8   7  -11.40   14.20
  -7  -8   7   -8.70   24.00
  -7  -8   7   -8.80    9.70
   6   8  -7   94.09   22.20
   6   8  -7   72.59   14.10
   6   8  -7   77.79   10.10
  -6  -8   7  115.79   21.90
  -6  -8   7  126.99   27.30
  -6  -8   7  108.19   16.10
  -6  -8   7   82.99   16.10
  -6  -8   7   65.09   10.60
   5   8  -7  250.07   26.80
   5   8  -7  276.47   21.70
   5   8  -7  225.38   27.70
  -5  -8   7  315.97   30.40
  -5  -8   7  287.07   33.30
  -5  -8   7  219.98   19.90
  -5  -8   7  271.17   22.80
  -5  -8   7  218.08   37.10
   4   8  -7  166.38   26.20
   4   8  -7  190.58   19.50
  -4  -8   7  149.88   25.40
  -4  -8   7  175.68   20.40
   3   8  -7  -10.60   11.60
  -3  -8   7    3.70    8.70
  -3  -8   7  -14.50    7.00
  -3  -8   7   13.30   13.10
  -3  -8   7    1.50   14.80
   2   8  -7   65.69   13.50
   2   8  -7   57.29    8.80
  -2  -8   7   67.39   14.90
  -2  -8   7   76.19    9.60
  -2  -8   7   83.99   13.30
   1   8  -7   14.60   10.90
   1   8  -7    2.00    6.90
   1   8  -7   -9.10    9.90
   1   8  -7   -2.20    6.80
  -1  -8   7   26.20   12.50
  -1  -8   7   -7.40   13.30
  -1  -8   7   13.50    8.10
  -1  -8   7   -9.60    7.30
   0   8  -7  397.76   28.90
   0   8  -7  487.15   27.50
   0   8  -7  450.95   31.50
   0  -8   7  512.65   28.80
   0  -8   7  482.65   32.50
   0  -8   7  414.26   32.70
   0  -8   7  437.66   28.00
   0  -8   7  558.54   34.60
  -1   8  -7  248.58   29.00
  -1   8  -7  181.98   20.90
   1  -8   7  214.28   28.40
   1  -8   7  170.28   20.00
  -2   8  -7  401.16   33.90
  -2   8  -7  303.77   24.30
   2  -8   7  360.46   53.89
   2  -8   7  322.37   24.80
  -3   8  -7  208.08   21.80
   3  -8   7  223.38   22.20
   3  -8   7  253.87   31.70
  -4   8  -7  295.77   25.50
   4  -8   7  321.57   25.40
   4  -8   7  297.97   23.10
   4  -8   7  356.36   35.20
   9   7  -7   22.70   18.10
  -9  -7   7   40.00   25.90
   8   7  -7   19.80   15.30
   8   7  -7  -12.00    9.20
  -8  -7   7   19.80   24.00
  -8  -7   7  -12.40   10.20
   7   7  -7   10.30   12.10
   7   7  -7   -2.40   13.00
  -7  -7   7    5.00   21.40
  -7  -7   7   -4.60   13.50
  -7  -7   7    3.20    9.30
  -7  -7   7   10.40    9.70
   6   7  -7   32.00    8.50
   6   7  -7   51.69   14.70
   6   7  -7   24.70   12.10
  -6  -7   7   45.10   11.70
  -6  -7   7   38.50    7.30
  -6  -7   7   23.60   17.30
  -6  -7   7   60.19   21.30
  -6  -7   7   30.10    8.90
   5   7  -7  379.76   23.90
   5   7  -7  344.57   28.40
   5   7  -7  334.17   26.60
  -5  -7   7  326.37   22.50
  -5  -7   7  373.36   24.80
  -5  -7   7  391.16   41.90
  -5  -7   7  375.96   32.70
  -5  -7   7  394.86   30.30
   4   7  -7   33.00   11.60
   4   7  -7   28.30    9.30
   4   7  -7   40.80    8.20
  -4  -7   7   54.49   12.60
  -4  -7   7   46.20    9.00
  -4  -7   7   36.00   10.10
  -4  -7   7   53.49   14.70
  -4  -7   7   64.79   16.70
  -4  -7   7   28.50    7.10
   3   7  -7    2.30    8.80
   3   7  -7    7.00    6.00
  -3  -7   7   12.00   14.40
  -3  -7   7   22.40   11.30
  -3  -7   7   29.60   13.80
  -3  -7   7    3.30    6.50
  -3  -7   7    2.60    9.30
   2   7  -7  632.44   36.90
   2   7  -7  722.93   36.60
   2   7  -7  632.34   35.80
   2   7  -7  647.84   38.60
   2   7  -7  749.62   41.40
  -2  -7   7  762.92   37.30
  -2  -7   7  665.83   42.10
  -2  -7   7  664.93   36.00
  -2  -7   7  698.63   40.00
  -2  -7   7  738.63   40.60
  -2  -7   7  651.83   40.20
   1   7  -7    0.10    6.30
   1   7  -7   -3.30    6.40
   1   7  -7    6.80    9.90
  -1  -7   7    7.80   11.20
  -1  -7   7    5.60    7.40
   0   7  -7   22.50    6.80
   0   7  -7   25.60    9.60
   0   7  -7   36.80    7.10
   0   7  -7   20.00    6.70
   0  -7   7   21.70    7.10
   0  -7   7   46.90   11.50
   0  -7   7   31.20   10.10
   0  -7   7    9.10   10.20
  -1   7  -7   28.20    7.10
  -1   7  -7   12.00    9.90
   1  -7   7   47.50   12.30
   1  -7   7   38.30    8.40
  -2   7  -7  140.09   22.10
  -2   7  -7  113.49   19.20
   2  -7   7   94.29   13.40
  -3   7  -7   24.20   14.30
  -3   7  -7    8.70    8.00
  -3   7  -7   -4.60   11.70
   3  -7   7    4.00    7.40
   3  -7   7   14.70   13.20
   3  -7   7   11.40    8.30
  -4   7  -7  689.73   46.30
  -4   7  -7  575.64   35.00
  -4   7  -7  655.83   43.20
   4  -7   7  515.75   31.70
   4  -7   7  593.94   34.90
   4  -7   7  647.24   41.60
  -5   7  -7   87.99   17.10
  -5   7  -7  104.89   24.30
  -5   7  -7   75.49   11.00
   5  -7   7   78.69   11.00
   5  -7   7   74.99   23.80
   9   6  -7   77.49   15.60
   9   6  -7   88.79   11.30
  -9  -6   7   79.89   11.90
  -9  -6   7   91.29   17.30
   8   6  -7   21.40   14.90
  -8  -6   7  -16.00    9.40
  -8  -6   7    5.70   11.30
  -8  -6   7   32.60   23.10
   7   6  -7   -2.20   13.20
  -7  -6   7  -15.90   20.80
  -7  -6   7   18.60   10.10
  -7  -6   7    8.60    7.20
  -7  -6   7  -11.80    8.50
  -7  -6   7  -22.40   15.00
   6   6  -7  132.69   23.70
   6   6  -7  148.29   17.50
   6   6  -7  158.08   22.40
   6   6  -7  181.98   40.50
   6   6  -7  175.48   20.70
  -6  -6   7  161.48   15.30
  -6  -6   7  203.08   20.80
  -6  -6   7  157.58   18.70
  -6  -6   7  147.39   25.00
   5   6  -7    3.20   10.30
   5   6  -7   11.70    8.60
   5   6  -7   11.10    6.50
   5   6  -7    8.50    7.00
   5   6  -7   29.90   13.70
  -5  -6   7    3.40   17.60
  -5  -6   7    7.00    6.10
  -5  -6   7    7.50   11.00
   4   6  -7  725.43   38.90
   4   6  -7  801.22   39.90
   4   6  -7  720.93   41.20
   4   6  -7  789.92   43.10
  -4  -6   7  710.13   42.80
  -4  -6   7  795.82   43.30
  -4  -6   7  744.43   41.50
  -4  -6   7  836.22   45.60
  -4  -6   7  726.03   39.00
  -4  -6   7  803.02   40.20
   3   6  -7  154.98   18.50
   3   6  -7  183.28   13.10
   3   6  -7  158.08   14.60
   3   6  -7  208.68   16.70
  -3  -6   7  207.28   22.50
  -3  -6   7  174.58   24.10
  -3  -6   7  197.58   17.10
  -3  -6   7  166.08   19.80
  -3  -6   7  185.08   21.00
  -3  -6   7  177.08   15.30
   2   6  -7  593.54   30.70
   2   6  -7  603.84   35.30
   2   6  -7  537.35   32.60
   2   6  -7  536.85   29.90
  -2  -6   7  522.65   32.50
  -2  -6   7  526.35   33.80
  -2  -6   7  601.34   31.10
  -2  -6   7  623.64   34.40
  -2  -6   7  538.15   30.10
   1   6  -7   66.19    9.50
   1   6  -7   94.39   12.90
   1   6  -7   62.29    6.90
  -1  -6   7   52.59    7.20
  -1  -6   7   61.19   12.50
   0   6  -7   14.90    5.80
   0   6  -7   13.00    8.70
   0   6  -7   26.90    6.10
   0   6  -7   21.30    6.90
   0   6  -7   34.00   10.10
   0  -6   7    4.60    6.20
   0  -6   7   28.60    6.80
   0  -6   7   38.70    9.80
  -1   6  -7   -1.80    6.50
  -1   6  -7   11.80   10.40
  -1   6  -7   -7.70    6.00
  -1   6  -7  -10.80    8.80
  -1   6  -7    3.30    6.20
   1  -6   7    6.90   10.40
   1  -6   7    1.80    6.80
  -2   6  -7   79.39   13.90
  -2   6  -7  112.79   14.60
  -2   6  -7   82.99   16.60
  -2   6  -7   79.19   11.10
   2  -6   7   61.49   11.40
   2  -6   7   68.99    8.00
  -3   6  -7   15.10    7.60
  -3   6  -7   -3.10    8.00
  -3   6  -7    1.00   10.40
  -3   6  -7   31.70   13.00
  -3   6  -7  -13.30   18.80
  -3   6  -7   -3.70   12.80
   3  -6   7    8.10    7.30
   3  -6   7   13.60   12.10
  -4   6  -7   22.10   13.50
  -4   6  -7   -4.60   20.40
  -4   6  -7   17.40    8.20
  -4   6  -7   -2.10   11.70
   4  -6   7  -14.30   12.20
   4  -6   7   22.60   12.80
   4  -6   7    5.50    8.20
   4  -6   7   20.20    8.10
  -5   6  -7    7.50    8.90
  -5   6  -7   14.90   15.20
  -5   6  -7    6.50   22.30
  -5   6  -7    4.20   14.00
   5  -6   7   25.50    9.50
   5  -6   7   11.70   13.20
   5  -6   7    9.00    8.70
  -6   6  -7  313.07   39.30
  -6   6  -7  273.67   34.40
  -6   6  -7  240.88   24.00
   6  -6   7  249.58   23.50
   6  -6   7  244.78   31.60
   9   5  -7   73.09   18.30
   8   5  -7   58.39    9.70
   8   5  -7   49.40   13.60
  -8  -5   7   52.79   14.20
  -8  -5   7   50.39   11.80
  -8  -5   7   60.29   10.20
   7   5  -7   20.20    9.30
   7   5  -7    7.40   13.10
  -7  -5   7    6.40   20.10
  -7  -5   7    9.90    6.70
  -7  -5   7   -3.10    8.30
  -7  -5   7    9.00    9.70
   6   5  -7   96.99   13.10
   6   5  -7  107.49   22.20
   6   5  -7  119.99   15.80
  -6  -5   7   83.59   13.40
  -6  -5   7  123.89   13.50
  -6  -5   7  128.29   29.70
  -6  -5   7  140.39   18.70
  -6  -5   7  102.79   18.30
   5   5  -7  232.98   20.70
   5   5  -7  220.28   23.00
   5   5  -7  207.68   15.60
   5   5  -7  184.88   22.80
   5   5  -7  224.78   18.30
  -5  -5   7  219.98   18.30
  -5  -5   7  217.68   23.50
  -5  -5   7  217.78   15.70
  -5  -5   7  234.58   30.00
   4   5  -7   16.40   11.50
   4   5  -7    1.70    6.40
   4   5  -7    6.10    5.00
   4   5  -7    8.60    7.90
  -4  -5   7    3.70    5.40
  -4  -5   7  -10.30   15.10
  -4  -5   7    2.20    6.60
  -4  -5   7   -6.50    9.70
  -4  -5   7    4.00    8.10
   3   5  -7  205.08   20.80
   3   5  -7  237.88   17.50
   3   5  -7  217.98   15.80
  -3  -5   7  267.27   18.70
  -3  -5   7  232.88   22.30
  -3  -5   7  220.88   15.90
  -3  -5   7  249.28   17.80
  -3  -5   7  231.58   20.60
  -3  -5   7  207.78   20.70
   2   5  -7   40.00   11.30
   2   5  -7   57.09    8.80
   2   5  -7   75.89    9.70
   2   5  -7   65.49   11.00
  -2  -5   7   70.39   11.50
  -2  -5   7   86.99   17.10
  -2  -5   7   97.79   18.80
  -2  -5   7   88.69   13.30
  -2  -5   7   54.59    9.10
   1   5  -7  414.36   22.40
   1   5  -7  413.76   26.40
   1   5  -7  382.26   22.70
   1   5  -7  388.26   25.30
   1   5  -7  343.17   20.80
  -1  -5   7  392.16   22.50
  -1  -5   7  431.26   25.90
  -1  -5   7  401.56   25.50
  -1  -5   7  435.46   22.90
  -1  -5   7  364.16   25.90
   0   5  -7 3113.79  148.29
   0   5  -7 3179.28  148.19
   0   5  -7 3170.38  147.19
   0   5  -7 3029.30  146.49
   0   5  -7 3050.39  147.09
   0  -5   7 3078.59  148.09
   0  -5   7 2892.91  148.69
   0  -5   7 3079.49  147.09
   0  -5   7 3198.98  147.29
  -1   5  -7  362.06   21.80
  -1   5  -7  335.57   23.80
  -1   5  -7  369.36   19.60
  -1   5  -7  354.26   25.00
  -1   5  -7  384.56   26.70
  -1   5  -7  367.76   21.80
   1  -5   7  394.16   26.50
   1  -5   7  376.56   22.10
   1  -5   7  424.66   26.40
   1  -5   7  363.16   21.80
   1  -5   7  310.97   25.40
  -2   5  -7  414.86   28.20
  -2   5  -7  462.75   25.30
  -2   5  -7  394.16   27.40
  -2   5  -7  434.86   34.20
  -2   5  -7  495.95   31.10
  -2   5  -7  436.86   25.30
   2  -5   7  433.86   25.10
   2  -5   7  467.55   26.00
   2  -5   7  405.26   28.90
   2  -5   7  481.25   30.00
  -3   5  -7  275.07   26.40
  -3   5  -7  203.78   17.40
  -3   5  -7  182.08   19.60
  -3   5  -7  232.58   17.90
  -3   5  -7  255.27   33.10
   3  -5   7  195.38   17.10
   3  -5   7  169.38   22.40
   3  -5   7  213.58   15.50
   3  -5   7  246.38   24.90
   3  -5   7  236.68   17.90
  -4   5  -7   57.39    8.80
  -4   5  -7  100.59   16.00
  -4   5  -7   81.39   20.20
  -4   5  -7   86.09   13.30
  -4   5  -7   54.99   11.90
   4  -5   7   43.30   11.90
   4  -5   7   76.39   12.80
   4  -5   7  101.79   15.90
   4  -5   7   74.99   12.30
  -5   5  -7  279.37   28.90
  -5   5  -7  277.07   22.00
  -5   5  -7  291.67   34.70
   5  -5   7  284.27   22.30
   5  -5   7  283.37   19.90
   5  -5   7  296.37   28.50
  -6   5  -7   14.40    8.80
  -6   5  -7    9.80   14.10
  -6   5  -7   11.50   14.80
  -6   5  -7   19.60   21.30
   6  -5   7   18.50    8.90
   6  -5   7    8.60   13.30
  -7   5  -7   19.30   10.20
  -7   5  -7   27.40   16.30
  -7   5  -7   43.70   23.80
   7  -5   7   27.10   14.60
   7  -5   7   27.50    9.50
   9   4  -7   -8.10   14.10
   9   4  -7   20.00   10.10
   9   4  -7   46.60   16.70
   9   4  -7   -3.40    9.60
  -9  -4   7   -2.40   10.10
  -9  -4   7   -4.60   16.00
  -9  -4   7    1.30   14.50
   8   4  -7  408.16   33.00
   8   4  -7  422.56   27.60
   8   4  -7  457.25   30.20
  -8  -4   7  413.26   46.40
  -8  -4   7  370.86   31.20
  -8  -4   7  433.56   28.30
   7   4  -7   20.30    7.80
   7   4  -7   30.10   14.50
   7   4  -7   -3.40   11.20
   7   4  -7   32.90    9.40
  -7  -4   7   18.10    9.80
  -7  -4   7   11.80    8.40
  -7  -4   7   29.00   20.70
  -7  -4   7    8.40    8.20
  -7  -4   7   -2.10   11.60
   6   4  -7  232.58   24.20
   6   4  -7  235.48   24.20
   6   4  -7  263.17   19.60
   6   4  -7  233.18   25.10
   6   4  -7  273.87   17.40
   6   4  -7  281.07   21.50
   6   4  -7  264.47   20.10
  -6  -4   7  277.87   19.80
  -6  -4   7  277.47   31.20
  -6  -4   7  257.87   22.00
  -6  -4   7  257.67   17.60
  -6  -4   7  243.18   25.20
   5   4  -7  965.60   51.59
   5   4  -7 1005.10   54.49
   5   4  -7 1089.69   53.59
   5   4  -7 1059.89   54.59
   5   4  -7 1085.19   52.49
   5   4  -7 1023.80   53.49
  -5  -4   7 1177.58   57.49
  -5  -4   7 1005.70   53.69
  -5  -4   7 1102.59   52.59
  -5  -4   7 1081.89   54.99
  -5  -4   7  983.80   51.69
   4   4  -7    4.90    9.70
   4   4  -7  -12.40    9.30
   4   4  -7    9.80    6.60
   4   4  -7   -4.40    4.70
  -4  -4   7   -5.80    4.70
  -4  -4   7   -5.40   13.50
   3   4  -7   -4.30    4.80
   3   4  -7   -6.10    5.80
   3   4  -7    0.10    6.70
   3   4  -7  -13.90    8.50
   3   4  -7   -3.50    7.30
  -3  -4   7   -8.90    4.70
  -3  -4   7   -1.80    5.80
  -3  -4   7  -13.60    8.50
  -3  -4   7   -9.70    6.00
   2   4  -7  218.48   23.20
   2   4  -7  243.58   21.60
   2   4  -7  273.57   16.90
   2   4  -7  304.27   17.30
  -2  -4   7  265.37   16.80
  -2  -4   7  279.57   17.70
  -2  -4   7  230.78   19.70
  -2  -4   7  261.17   20.70
  -2  -4   7  320.77   19.40
   1   4  -7  365.96   21.50
   1   4  -7  399.66   24.60
   1   4  -7  382.56   20.50
   1   4  -7  369.26   21.20
   1   4  -7  327.57   24.70
  -1  -4   7  354.96   23.60
  -1  -4   7  404.96   21.40
  -1  -4   7  386.26   21.00
  -1  -4   7  379.36   24.10
  -1  -4   7  351.06   23.50
   0   4  -7    6.80    5.50
   0   4  -7   10.20    4.90
   0   4  -7   23.70    7.90
   0   4  -7   -1.50    6.40
   0  -4   7   11.30    5.30
   0  -4   7   22.40    7.70
   0  -4   7   26.30   10.70
  -1   4  -7  264.37   17.10
  -1   4  -7  299.47   21.70
  -1   4  -7  249.08   20.80
  -1   4  -7  251.77   15.30
  -1   4  -7  244.98   17.20
   1  -4   7  320.17   22.10
   1  -4   7  215.98   20.50
   1  -4   7  279.07   17.30
   1  -4   7  299.57   21.00
   1  -4   7  241.28   17.10
  -2   4  -7  419.66   24.20
  -2   4  -7  420.36   24.10
  -2   4  -7  467.75   28.90
  -2   4  -7  408.96   32.10
  -2   4  -7  455.95   26.30
  -2   4  -7  380.36   30.40
   2  -4   7  424.46   24.10
   2  -4   7  393.26   27.40
   2  -4   7  461.65   28.00
   2  -4   7  402.16   24.00
   2  -4   7  473.75   28.40
  -3   4  -7    1.90    7.00
  -3   4  -7   -2.60    6.00
  -3   4  -7    9.20    6.30
  -3   4  -7  -16.80   15.70
  -3   4  -7   -7.30   11.40
  -3   4  -7   19.10   10.10
   3  -4   7   10.50    9.70
   3  -4   7   10.60    6.30
   3  -4   7    2.90    7.50
  -4   4  -7  416.56   29.80
  -4   4  -7  370.66   28.20
  -4   4  -7  402.46   25.20
  -4   4  -7  363.56   23.90
   4  -4   7  393.66   28.60
   4  -4   7  387.66   22.60
   4  -4   7  430.26   29.60
   4  -4   7  368.66   28.00
   4  -4   7  353.76   23.50
   4  -4   7  402.16   23.80
  -5   4  -7   19.60    7.70
  -5   4  -7    6.50    7.60
  -5   4  -7    2.60   13.20
  -5   4  -7   28.10   12.50
  -5   4  -7   -0.20   18.90
   5  -4   7   25.40    9.30
   5  -4   7   21.50   11.20
   5  -4   7   18.20    7.50
   5  -4   7    5.70   13.30
  -6   4  -7   -3.60    9.20
  -6   4  -7   -7.60    8.10
  -6   4  -7    0.40   13.00
  -6   4  -7  -12.80   19.30
  -6   4  -7   -8.90   12.80
   6  -4   7   10.10   11.10
   6  -4   7   -4.50   11.60
  -7   4  -7   79.69   11.10
  -7   4  -7  116.29   23.20
  -7   4  -7   92.59   16.30
   7  -4   7   99.29   14.60
   7  -4   7  108.39   18.60
  -8   4  -7    4.80   10.20
  -8   4  -7   -0.40   16.60
  -8   4  -7    5.00   24.00
   8  -4   7   15.00   13.20
   8  -4   7    1.60    9.20
   8  -4   7    2.70   14.60
   9   3  -7   96.39   16.20
   9   3  -7  133.09   26.00
   9   3  -7  119.39   20.40
  -9  -3   7   96.49   11.80
  -9  -3   7  102.29   16.70
   8   3  -7   20.00   15.70
   8   3  -7   -5.10    8.40
   8   3  -7   11.00    9.20
   8   3  -7   33.90   10.70
  -8  -3   7   -5.70   12.60
  -8  -3   7    0.90    8.80
   7   3  -7   26.40   11.60
   7   3  -7   37.80    9.00
  -7  -3   7   26.60   11.70
  -7  -3   7   32.40   10.60
  -7  -3   7   68.89   23.70
  -7  -3   7   34.60    8.40
   6   3  -7  -13.20    6.70
   6   3  -7    7.30    8.30
   6   3  -7    5.90    5.30
   6   3  -7   -3.30    7.00
  -6  -3   7  -10.90    6.00
  -6  -3   7   -6.10    8.50
  -6  -3   7  -11.10    6.90
   5   3  -7  240.58   28.80
   5   3  -7  197.08   22.10
   5   3  -7  252.97   19.70
   5   3  -7  228.28   17.30
   5   3  -7  231.98   15.70
  -5  -3   7  236.28   22.10
  -5  -3   7  212.78   15.30
  -5  -3   7  218.68   26.90
  -5  -3   7  243.38   17.60
  -5  -3   7  227.98   19.50
   4   3  -7 1867.51   91.09
   4   3  -7 1866.81   89.69
   4   3  -7 1740.73   89.29
   4   3  -7 1709.23   90.39
   4   3  -7 2018.90   94.89
   4   3  -7 1977.50   91.29
  -4  -3   7 1986.00   92.29
  -4  -3   7 1840.52   90.99
  -4  -3   7 1882.91   89.69
  -4  -3   7 1751.32   89.29
   3   3  -7  513.05   28.30
   3   3  -7  451.25   27.20
   3   3  -7  479.05   25.60
   3   3  -7  448.66   28.30
   3   3  -7  470.45   25.50
  -3  -3   7  472.15   25.50
  -3  -3   7  496.35   26.00
  -3  -3   7  467.95   28.00
  -3  -3   7  444.06   26.80
  -3  -3   7  464.45   24.80
   2   3  -7  464.15   24.30
   2   3  -7  449.76   26.30
   2   3  -7  470.45   24.80
  -2  -3   7  484.55   25.70
  -2  -3   7  467.45   24.70
  -2  -3   7  449.86   24.20
  -2  -3   7  411.66   26.20
  -2  -3   7  458.25   27.20
   1   3  -7  655.23   32.70
   1   3  -7  631.74   34.90
   1   3  -7  651.23   32.90
   1   3  -7  602.74   33.90
   1   3  -7  637.34   32.60
  -1  -3   7  702.03   34.20
  -1  -3   7  646.94   32.80
  -1  -3   7  622.14   34.30
  -1  -3   7  649.74   34.80
  -1  -3   7  656.83   32.70
   0   3  -7   -0.20    4.50
   0   3  -7    4.70    6.70
   0   3  -7    1.40    5.40
   0  -3   7   16.40    9.50
   0  -3   7    6.10    6.60
   0  -3   7    3.20    4.60
   0  -3   7    4.90    5.30
  -1   3  -7  738.13   36.80
  -1   3  -7  734.33   38.80
  -1   3  -7  750.12   36.50
  -1   3  -7  701.23   38.40
  -1   3  -7  711.33   41.10
  -1   3  -7  729.13   37.00
   1  -3   7  739.03   36.90
   1  -3   7  761.32   40.40
   1  -3   7  726.23   36.70
   1  -3   7  757.62   38.50
  -2   3  -7   17.90    8.40
  -2   3  -7   16.80    5.30
  -2   3  -7    2.60    6.60
   2  -3   7   19.00    7.80
   2  -3   7   12.20    5.20
  -3   3  -7  395.46   30.30
  -3   3  -7  387.16   26.10
  -3   3  -7  404.66   22.90
  -3   3  -7  409.86   25.30
  -3   3  -7  394.76   22.00
  -3   3  -7  442.66   27.30
   3  -3   7  438.86   26.50
   3  -3   7  402.66   22.70
   3  -3   7  430.16   27.20
   3  -3   7  342.27   22.60
   3  -3   7  351.36   25.70
   3  -3   7  380.16   22.30
  -4   3  -7  104.59   14.70
  -4   3  -7  129.99   19.80
  -4   3  -7  134.89   14.60
  -4   3  -7  101.69   17.20
  -4   3  -7  131.49   18.20
   4  -3   7  162.48   20.60
   4  -3   7  156.08   14.40
   4  -3   7   90.19   18.90
   4  -3   7  164.78   20.00
   4  -3   7  115.39   14.00
   4  -3   7  121.29   13.60
  -5   3  -7    4.70   11.40
  -5   3  -7   -6.80    6.80
  -5   3  -7   -0.90    8.30
  -5   3  -7  -22.50   22.30
  -5   3  -7  -10.50   12.10
   5  -3   7   -2.80    6.70
   5  -3   7    4.50    9.00
   5  -3   7  -11.00    9.60
   5  -3   7   -3.10    9.90
  -6   3  -7  283.97   29.30
  -6   3  -7  257.07   21.90
  -6   3  -7  281.87   28.20
  -6   3  -7  297.77   33.30
  -6   3  -7  248.08   21.30
   6  -3   7  265.77   20.70
   6  -3   7  250.97   26.20
   6  -3   7  319.37   21.10
  -7   3  -7   57.59   22.20
  -7   3  -7   49.50    9.60
  -7   3  -7   40.70    9.40
  -7   3  -7   58.19   14.60
   7  -3   7   56.29   10.20
   7  -3   7   55.29   12.80
  -8   3  -7    6.80    9.40
  -8   3  -7    8.40   24.10
  -8   3  -7    5.80   15.90
   8  -3   7    9.50    8.70
   8  -3   7   20.70   13.30
   8  -3   7    3.40   13.00
   9   2  -7  102.99   24.50
   9   2  -7   70.19   18.30
   9   2  -7   72.99   10.70
  -9  -2   7   69.29   23.00
  -9  -2   7   81.19   11.00
   8   2  -7   25.10    8.60
   8   2  -7   16.10   12.80
   8   2  -7   46.80   11.00
   8   2  -7   27.20   10.70
  -8  -2   7   18.40   13.40
  -8  -2   7   21.50    9.10
   7   2  -7   48.20    9.50
   7   2  -7   35.50    9.00
   7   2  -7   18.40   11.70
   7   2  -7   37.70    8.30
   7   2  -7   28.80    7.90
  -7  -2   7   30.10   11.50
  -7  -2   7   67.59   24.50
   6   2  -7  158.48   21.20
   6   2  -7  198.28   14.40
   6   2  -7  140.49   22.50
   6   2  -7  188.98   16.70
   6   2  -7  198.88   19.00
   6   2  -7  163.68   20.20
  -6  -2   7  192.28   33.20
  -6  -2   7  165.58   22.20
  -6  -2   7  176.68   17.00
  -6  -2   7  157.68   19.40
   5   2  -7  356.16   25.90
   5   2  -7  365.76   20.60
   5   2  -7  379.16   24.00
   5   2  -7  377.86   22.20
   5   2  -7  321.07   25.80
   5   2  -7  389.46   24.20
  -5  -2   7  345.77   32.90
  -5  -2   7  364.16   21.90
  -5  -2   7  362.06   23.90
  -5  -2   7  361.56   25.80
  -5  -2   7  339.77   21.10
   4   2  -7   -3.20    6.90
   4   2  -7   -0.40    4.50
   4   2  -7    7.10    6.50
   4   2  -7   -8.40    5.40
  -4  -2   7   -7.40    5.50
  -4  -2   7    1.30    4.20
  -4  -2   7   -8.00    8.40
  -4  -2   7    3.30    6.60
   3   2  -7  757.22   38.20
   3   2  -7  723.03   39.60
   3   2  -7  745.13   40.30
   3   2  -7  795.02   38.70
   3   2  -7  837.12   41.00
  -3  -2   7  722.73   41.20
  -3  -2   7  764.12   40.30
  -3  -2   7  767.12   38.10
  -3  -2   7  783.42   38.60
  -3  -2   7  813.62   39.20
   2   2  -7   30.80    7.20
   2   2  -7   31.50    7.60
   2   2  -7   31.20    6.50
   2   2  -7   26.80    4.60
   2   2  -7   32.10    5.30
  -2  -2   7   29.10    5.10
  -2  -2   7   22.70    5.20
  -2  -2   7   26.20    6.50
  -2  -2   7   30.30    7.50
  -2  -2   7   29.90    4.60
   1   2  -7   10.70    5.90
   1   2  -7   12.30    7.60
   1   2  -7   16.30    5.30
  -1  -2   7   22.10    4.70
  -1  -2   7    8.60    5.40
  -1  -2   7   11.80    5.10
  -1  -2   7   22.90    6.50
  -1  -2   7   10.60    6.00
   0   2  -7 1905.21   93.09
   0   2  -7 1858.81   93.09
   0   2  -7 2017.30   92.39
   0   2  -7 1928.61   92.99
   0   2  -7 1972.40   92.39
   0  -2   7 1902.41   92.99
   0  -2   7 1968.00   93.39
   0  -2   7 2035.80   93.19
   0  -2   7 1855.91   92.19
   0  -2   7 1883.61   93.09
  -1   2  -7   65.19    9.70
  -1   2  -7   45.20   12.60
  -1   2  -7   34.00    5.40
  -1   2  -7   66.69   14.00
   1  -2   7   55.89    9.30
   1  -2   7   53.89    7.00
   1  -2   7   68.99   12.70
   1  -2   7   23.40   11.90
  -2   2  -7   78.29   11.20
  -2   2  -7   68.29    8.40
  -2   2  -7   75.69   13.50
   2  -2   7   70.19   10.40
   2  -2   7   64.39    8.50
   2  -2   7   58.39   10.70
  -3   2  -7   51.29    7.20
  -3   2  -7   55.69    8.90
  -3   2  -7   78.19   10.50
  -3   2  -7   67.79   14.20
   3  -2   7   93.39   16.90
   3  -2   7   53.09    8.60
   3  -2   7   70.39   10.30
   3  -2   7   75.89    9.10
  -4   2  -7    9.10    5.70
  -4   2  -7   14.40    9.10
  -4   2  -7   -3.10    5.70
  -4   2  -7   -2.50    8.50
  -4   2  -7    4.30    6.90
   4  -2   7   -5.00    7.90
   4  -2   7   -3.00    5.20
   4  -2   7    9.10    5.70
   4  -2   7    7.60    8.50
   4  -2   7    5.50   11.50
   4  -2   7   -6.00    8.20
  -5   2  -7 1276.07   63.59
  -5   2  -7 1246.08   61.19
  -5   2  -7 1304.27   66.29
  -5   2  -7 1219.18   63.19
   5  -2   7 1182.78   60.99
   5  -2   7 1232.78   61.39
   5  -2   7 1225.08   62.89
   5  -2   7 1249.68   60.89
   5  -2   7 1231.48   64.49
   5  -2   7 1261.67   62.69
  -6   2  -7  223.68   18.70
  -6   2  -7  233.98   24.80
  -6   2  -7  209.98   29.90
  -6   2  -7  227.58   19.40
   6  -2   7  249.28   19.40
   6  -2   7  225.48   23.20
   6  -2   7  230.88   18.00
  -7   2  -7   59.09    9.00
  -7   2  -7   53.49    9.20
  -7   2  -7   70.69   14.20
  -7   2  -7   49.50   15.40
  -7   2  -7   67.89   20.20
   7  -2   7   53.79    8.40
   7  -2   7   59.09   11.80
   7  -2   7   87.59   18.00
  -8   2  -7   -1.30   21.50
  -8   2  -7  -12.30    9.10
  -8   2  -7   -4.80    9.40
  -8   2  -7  -17.00   14.50
   8  -2   7  -13.60   11.60
   8  -2   7  -11.00    8.40
   8  -2   7    2.50   13.10
  -9   2  -7   18.90   24.00
  -9   2  -7   13.60   16.10
  -9   2  -7    6.90   10.40
   9  -2   7    3.10   11.00
   9  -2   7   12.20    9.10
   9  -2   7   25.30   13.60
   9   1  -7   99.49   16.00
   9   1  -7  135.49   26.00
   9   1  -7  121.29   19.90
  -9  -1   7  146.49   21.10
  -9  -1   7  107.89   18.50
   8   1  -7  154.58   19.70
   8   1  -7  199.58   23.20
   8   1  -7  178.48   24.10
   8   1  -7  117.39   26.20
  -8  -1   7  169.78   26.80
  -8  -1   7  175.48   20.20
   7   1  -7    4.40    9.10
   7   1  -7  -12.90   11.00
   7   1  -7    7.50    5.80
   7   1  -7  -10.30    7.30
   7   1  -7    8.40    8.90
  -7  -1   7  -17.00   10.20
  -7  -1   7  -17.60   11.20
  -7  -1   7   16.00   22.40
   6   1  -7  119.79   18.00
   6   1  -7  165.48   19.00
   6   1  -7  111.39   21.90
   6   1  -7  146.39   15.90
   6   1  -7  178.68   21.80
   6   1  -7  158.48   13.40
   6   1  -7  127.19   20.80
  -6  -1   7  143.39   21.10
  -6  -1   7  124.29   31.70
  -6  -1   7  139.49   16.40
  -6  -1   7  164.98   13.60
   5   1  -7  402.56   24.60
   5   1  -7  349.57   24.80
   5   1  -7  351.06   20.30
   5   1  -7  326.37   25.60
   5   1  -7  360.86   21.80
   5   1  -7  298.47   32.80
  -5  -1   7  377.16   33.40
  -5  -1   7  364.16   21.70
  -5  -1   7  352.76   25.40
   4   1  -7    8.90    5.70
   4   1  -7   18.00    7.20
   4   1  -7    9.20    8.40
   4   1  -7   20.00    5.40
   4   1  -7   11.50    9.50
  -4  -1   7   12.30    5.70
  -4  -1   7   16.60    4.80
  -4  -1   7   22.10    6.80
  -4  -1   7   15.30    5.00
  -4  -1   7    6.70    8.00
   3   1  -7  471.95   24.80
   3   1  -7  471.15   27.80
   3   1  -7  529.15   28.10
   3   1  -7  447.26   26.70
   3   1  -7  477.75   25.50
  -3  -1   7  471.45   27.50
  -3  -1   7  465.75   27.70
  -3  -1   7  482.35   26.00
  -3  -1   7  475.35   24.60
  -3  -1   7  485.15   25.40
   2   1  -7  144.79   10.80
   2   1  -7  135.29   15.00
   2   1  -7  159.68   16.00
   2   1  -7  151.38   11.80
   2   1  -7  138.49   13.80
  -2  -1   7  143.29   13.50
  -2  -1   7  152.78   10.60
  -2  -1   7  151.78   14.70
  -2  -1   7  131.59   13.20
  -2  -1   7  142.99   11.70
   1   1  -7    2.10    5.40
   1   1  -7    5.10    4.50
   1   1  -7    2.10    3.70
  -1  -1   7    6.00    6.10
  -1  -1   7    1.30    5.20
  -1  -1   7    5.00    4.20
  -1  -1   7    2.40    4.40
  -1  -1   7   -0.20    4.50
   0   1  -7   36.70    4.70
   0   1  -7   31.30    6.00
   0   1  -7   41.60    5.00
   0   1  -7   56.19    7.90
   0   1  -7   44.20    6.70
   0  -1   7   47.60    5.80
   0  -1   7   54.59    8.00
   0  -1   7   52.69    6.40
  -1   1  -7  185.38   12.10
  -1   1  -7  183.18   12.40
  -1   1  -7  131.19   14.60
  -1   1  -7  179.98   14.90
  -1   1  -7  144.39   12.00
   1  -1   7  178.68   11.60
   1  -1   7  179.18   14.80
   1  -1   7  143.59   14.90
   1  -1   7  185.18   13.80
   1  -1   7  162.28   14.20
  -2   1  -7  316.87   21.70
  -2   1  -7  365.36   19.20
  -2   1  -7  359.96   19.70
  -2   1  -7  348.17   21.60
  -2   1  -7  347.37   19.90
   2  -1   7  351.86   19.00
   2  -1   7  337.27   21.00
   2  -1   7  355.76   21.60
   2  -1   7  346.37   22.90
   2  -1   7  354.66   19.50
  -3   1  -7  336.77   18.60
  -3   1  -7  319.87   19.10
  -3   1  -7  314.67   19.20
  -3   1  -7  306.87   21.40
  -3   1  -7  338.07   22.10
  -3   1  -7  266.67   25.00
   3  -1   7  298.17   19.30
   3  -1   7  331.37   23.10
   3  -1   7  325.87   18.40
   3  -1   7  307.67   20.50
   3  -1   7  338.37   21.50
   3  -1   7  327.97   18.50
  -4   1  -7   25.90    5.60
  -4   1  -7   -3.00   13.40
  -4   1  -7   24.90    8.50
  -4   1  -7   15.10    8.10
  -4   1  -7    8.20    5.50
  -4   1  -7   25.60    7.80
   4  -1   7   14.20    5.00
   4  -1   7   14.30   12.10
   4  -1   7    7.20    7.60
   4  -1   7    9.70    7.20
   4  -1   7   12.80    6.90
   4  -1   7   26.00    5.40
  -5   1  -7   87.79   17.40
  -5   1  -7  112.09   13.50
  -5   1  -7   68.59   16.40
  -5   1  -7  103.59   19.20
  -5   1  -7   82.39   12.50
  -5   1  -7   77.29   16.40
   5  -1   7   92.19   12.30
   5  -1   7   81.39   17.40
   5  -1   7   89.69   20.10
   5  -1   7   91.59   13.60
   5  -1   7   91.79   12.20
  -6   1  -7  194.28   16.60
  -6   1  -7  211.48   21.60
  -6   1  -7  227.18   30.90
  -6   1  -7  167.88   26.70
   6  -1   7  188.68   21.10
   6  -1   7  176.48   17.40
   6  -1   7  199.58   18.10
   6  -1   7  190.28   16.00
   6  -1   7  200.98   28.30
  -7   1  -7  501.25   37.40
  -7   1  -7  467.15   33.10
  -7   1  -7  459.65   28.30
  -7   1  -7  470.85   34.80
  -7   1  -7  451.75   28.90
   7  -1   7  540.85   29.90
   7  -1   7  430.66   31.40
   7  -1   7  526.05   32.40
   7  -1   7  476.05   27.80
  -8   1  -7   13.50    8.70
  -8   1  -7   38.10   20.50
  -8   1  -7   12.20    8.90
   8  -1   7   45.50   13.60
   8  -1   7   26.10   10.30
   8  -1   7   22.10    7.90
  -9   1  -7  183.38   23.40
  -9   1  -7  302.17   37.40
   9  -1   7  189.68   21.80
   9  -1   7  269.17   24.00
   9  -1   7  247.48   25.60
   9   0  -7   12.60   14.40
   9   0  -7   25.70   13.20
   9   0  -7   23.10    9.50
  -9   0   7   19.80   14.40
  -9   0   7   10.70    9.80
  -9   0   7   23.80   11.50
   8   0  -7  428.36   33.80
   8   0  -7  412.96   27.30
   8   0  -7  401.76   33.00
   8   0  -7  441.86   30.60
  -8   0   7  475.35   33.70
  -8   0   7  433.46   28.00
   7   0  -7  355.76   29.30
   7   0  -7  354.66   24.20
   7   0  -7  381.76   29.00
   7   0  -7  375.56   26.50
   7   0  -7  345.17   22.10
  -7   0   7  348.37   24.50
  -7   0   7  358.26   28.80
  -7   0   7  389.26   37.90
   6   0  -7  -11.10    9.90
   6   0  -7    1.90    7.90
   6   0  -7  -12.30    9.80
   6   0  -7  -15.70   11.90
   6   0  -7    1.00    8.40
   6   0  -7    2.70    5.10
  -6   0   7    5.30    8.30
  -6   0   7   -9.40    9.80
  -6   0   7   -0.10    5.60
  -6   0   7   -4.20    6.70
  -6   0   7  -27.20   21.00
   5   0  -7  321.17   19.10
   5   0  -7  314.77   24.30
   5   0  -7  374.16   24.00
   5   0  -7  305.67   25.10
   5   0  -7  322.17   20.70
   5   0  -7  324.37   22.60
  -5   0   7  351.06   33.40
  -5   0   7  322.47   24.00
  -5   0   7  331.87   20.80
  -5   0   7  318.77   19.10
   4   0  -7 1109.19   55.69
   4   0  -7 1065.89   54.29
   4   0  -7 1054.99   53.79
   4   0  -7 1194.88   56.89
   4   0  -7 1047.70   55.29
   4   0  -7 1123.79   54.29
  -4   0   7 1145.09   54.59
  -4   0   7 1137.59   58.89
  -4   0   7 1093.79   55.79
  -4   0   7 1105.19   54.29
   3   0  -7   -3.80    4.00
   3   0  -7    4.20    6.30
   3   0  -7   -2.40    6.20
   3   0  -7   -5.30    7.30
  -3   0   7   -5.60    4.80
  -3   0   7   -0.10    4.10
  -3   0   7    2.60    5.60
  -3   0   7   -9.30    6.60
  -3   0   7   -9.30    4.50
   2   0  -7  179.48   16.30
   2   0  -7  157.88   10.90
   2   0  -7  140.89   15.10
   2   0  -7  152.68   12.10
   2   0  -7  156.88   12.40
   2   0  -7  151.58   13.80
  -2   0   7  156.08   13.50
  -2   0   7  160.88   10.70
  -2   0   7  161.28   11.70
  -2   0   7  160.58   21.50
   1   0  -7  140.19   10.90
   1   0  -7  132.69   10.00
   1   0  -7  139.09   13.70
   1   0  -7  150.38   15.90
   1   0  -7  126.49   12.30
  -1   0   7  135.29   13.10
  -1   0   7  123.69   12.00
  -1   0   7  142.39   10.00
  -1   0   7  149.19   10.50
  -1   0   7  139.79   12.60
   0   0  -7 1006.90   51.89
   0   0  -7  992.10   50.99
   0   0  -7 1110.29   51.39
   0   0  -7 1057.79   50.39
   0   0   7 1037.60   50.29
   0   0   7 1058.19   51.59
   0   0   7 1033.70   50.29
  -1   0  -7 4757.42  215.98
  -1   0  -7 4557.34  215.28
  -1   0  -7 4608.34  215.28
   1   0   7 4671.53  215.98
   1   0   7 4175.18  215.08
   1   0   7 4557.04  215.28
   1   0   7 4495.95  215.98
  -2   0  -7   75.19   10.60
  -2   0  -7  105.69   13.10
  -2   0  -7   97.39   10.00
   2   0   7   87.39   10.50
   2   0   7  103.89    9.20
  -3   0  -7  672.53   33.40
  -3   0  -7  636.34   34.60
  -3   0  -7  681.73   33.00
   3   0   7  638.04   32.70
   3   0   7  689.93   33.10
   3   0   7  661.13   34.80
   3   0   7  619.54   33.90
  -4   0  -7  337.27   18.00
  -4   0  -7  280.17   17.80
  -4   0  -7  285.17   18.00
   4   0   7  292.57   17.40
   4   0   7  266.87   23.00
   4   0   7  303.47   20.70
   4   0   7  294.87   17.20
   4   0   7  280.27   19.00
  -5   0  -7    8.20    5.70
  -5   0  -7   12.40    8.70
  -5   0  -7    6.30    5.50
  -5   0  -7   -2.10    7.50
   5   0   7    3.20    4.60
   5   0   7    9.40    5.00
   5   0   7   -6.30    8.30
   5   0   7  -10.00    6.80
  -6   0  -7  135.29   17.60
  -6   0  -7  102.39   18.50
  -6   0  -7  122.29   17.90
  -6   0  -7  125.29   14.70
  -6   0  -7  125.59   16.60
  -6   0  -7   82.49   18.00
  -6   0  -7  150.18   21.10
   6   0   7  124.19   15.80
   6   0   7  124.09   12.60
   6   0   7  122.49   21.90
   6   0   7  105.69   12.90
   6   0   7  103.69   18.20
  -7   0  -7  184.28   16.80
  -7   0  -7  150.98   27.90
  -7   0  -7  187.88   24.20
  -7   0  -7  163.48   17.50
   7   0   7  176.38   19.10
   7   0   7  175.28   20.50
   7   0   7  160.28   15.80
  -8   0  -7   -2.00    8.00
  -8   0  -7   -0.50   13.00
  -8   0  -7    9.90    7.90
  -8   0  -7    5.60   19.30
   8   0   7   -6.50   11.70
   8   0   7    0.00    7.00
   8   0   7   -0.50   12.00
  -9   0  -7   48.70   22.00
  -9   0  -7    9.60    9.30
   9   0   7   23.00    9.80
   9   0   7   35.10   13.30
   9   0   7    7.40    8.20
   9  -1  -7   -1.90    9.50
   9  -1  -7   19.30   14.10
   9  -1  -7   -5.40   14.80
  -9   1   7   -2.90   14.60
  -9   1   7    8.10    9.80
  -9   1   7   15.50   11.80
   8  -1  -7  388.06   33.80
   8  -1  -7  388.76   33.20
   8  -1  -7  399.06   33.80
   8  -1  -7  393.16   26.60
  -8   1   7  419.06   32.70
  -8   1   7  456.65   32.10
  -8   1   7  418.96   27.50
   7  -1  -7   44.80   12.90
   7  -1  -7   84.49   13.60
   7  -1  -7   48.00    8.20
   7  -1  -7   52.39   11.50
  -7   1   7   49.00   10.20
  -7   1   7   41.70   11.80
  -7   1   7   50.59    8.60
   6  -1  -7   13.20    8.20
   6  -1  -7   14.00   17.20
   6  -1  -7   -0.80    6.70
   6  -1  -7    9.60    5.20
   6  -1  -7    9.10   12.60
  -6   1   7   -5.40    6.60
  -6   1   7   -1.10    9.70
  -6   1   7    9.40    8.40
  -6   1   7    7.80    8.30
  -6   1   7    4.30    8.10
   5  -1  -7  539.55   28.50
   5  -1  -7  568.04   32.50
   5  -1  -7  549.54   31.00
   5  -1  -7  517.85   29.00
   5  -1  -7  560.54   33.20
   5  -1  -7  571.54   29.60
   5  -1  -7  518.35   33.30
  -5   1   7  566.34   32.40
  -5   1   7  518.05   32.40
  -5   1   7  569.84   29.60
  -5   1   7  600.64   31.50
  -5   1   7  531.75   30.90
  -5   1   7  511.75   28.40
   4  -1  -7    2.30    4.20
   4  -1  -7    7.30    6.60
   4  -1  -7   -4.90    7.90
   4  -1  -7   -4.40    5.40
   4  -1  -7    4.80    7.40
   4  -1  -7   -2.20    9.80
  -4   1   7   -6.00    7.70
  -4   1   7    1.70    3.90
  -4   1   7   -3.50    6.30
  -4   1   7    2.30    5.30
   3  -1  -7  521.65   27.70
   3  -1  -7  537.55   28.70
   3  -1  -7  521.75   29.50
   3  -1  -7  511.05   27.10
   3  -1  -7  503.25   29.20
   3  -1  -7  583.24   30.80
  -3   1   7  560.54   28.60
  -3   1   7  525.55   29.00
  -3   1   7  536.45   30.40
  -3   1   7  535.85   28.70
  -3   1   7  514.85   27.60
   2  -1  -7   13.10    6.20
   2  -1  -7   -1.00    6.20
   2  -1  -7    8.60    4.30
   2  -1  -7    1.70    3.60
   2  -1  -7   -2.20    4.20
  -2   1   7    5.40    4.80
  -2   1   7   12.10    3.60
  -2   1   7    5.20    4.80
  -2   1   7    7.80    4.80
  -2   1   7    0.20    3.90
   1  -1  -7   55.99    7.70
   1  -1  -7   74.49    9.80
   1  -1  -7   72.79   14.40
   1  -1  -7   60.29    8.70
   1  -1  -7   55.79   11.50
  -1   1   7   80.19   10.50
  -1   1   7   68.99    8.20
  -1   1   7   64.09    7.40
  -1   1   7   60.99   10.90
   0  -1  -7  271.67   16.90
   0  -1  -7  309.27   17.50
   0   1   7  259.27   17.90
  -1  -1  -7  535.85   27.90
   1   1   7  507.55   28.40
  -2  -1  -7 1559.74   76.49
   2   1   7 1581.04   76.29
  -3  -1  -7  849.52   42.40
   3   1   7  836.12   42.80
   3   1   7  852.21   43.00
  -4  -1  -7  -15.50   11.30
  -4  -1  -7    8.60    6.10
   4   1   7    3.80    7.90
   4   1   7    4.60    6.10
  -5  -1  -7 1052.29   57.09
  -5  -1  -7 1058.29   54.39
   5   1   7 1074.59   56.69
   5   1   7 1142.09   54.89
   5   1   7 1154.38   55.19
  -6  -1  -7   35.40   15.20
  -6  -1  -7   41.20   12.80
  -6  -1  -7   39.00    8.80
  -6  -1  -7   60.09    9.70
   6   1   7   61.59   10.30
   6   1   7   50.99   14.60
   6   1   7   40.30    7.80
  -7  -1  -7   -6.30    9.90
  -7  -1  -7   10.20    6.40
  -7  -1  -7    2.30    7.20
  -7  -1  -7  -20.50   16.30
   7   1   7   -3.70    7.80
   7   1   7    4.70   10.00
  -8  -1  -7  -12.00   18.20
  -8  -1  -7   -6.30    7.70
   8   1   7   -1.20    6.40
   8   1   7    5.80   11.50
   8   1   7  -12.40    8.20
  -9  -1  -7   -4.70    8.60
  -9  -1  -7   11.50   20.40
   9   1   7   17.90   14.70
   9   1   7  -10.20   12.70
   9   1   7   -1.80    7.20
 -10  -1  -7   43.30   10.30
  10   1   7   59.99   11.60
  10   1   7   36.70   14.90
   8  -2  -7  125.89   28.30
   8  -2  -7  120.39   19.20
   8  -2  -7   93.19   15.60
  -8   2   7  120.69   19.50
  -8   2   7  100.19   15.20
  -8   2   7  135.89   24.80
   7  -2  -7    4.30   11.40
   7  -2  -7   13.60    6.60
   7  -2  -7   -5.70    7.30
   7  -2  -7   23.00   13.00
   7  -2  -7  -17.80   11.80
  -7   2   7  -13.70   11.30
  -7   2   7   -9.30    7.90
  -7   2   7   -4.10    9.40
   6  -2  -7   -6.70    6.80
   6  -2  -7   14.70    9.90
   6  -2  -7  -15.20   12.90
   6  -2  -7   16.00    5.80
  -6   2   7  -13.10   10.30
  -6   2   7   -1.30    7.10
  -6   2   7    6.60    8.50
   5  -2  -7   27.90    5.20
   5  -2  -7   26.40    7.80
   5  -2  -7   24.00    5.30
   5  -2  -7   32.80    9.30
   5  -2  -7   15.90    9.80
   5  -2  -7   38.20   12.00
  -5   2   7   20.60    9.50
  -5   2   7   30.90    8.30
  -5   2   7   24.20    5.10
  -5   2   7   17.70    6.40
  -5   2   7   22.80    7.60
  -5   2   7   16.70    9.20
   4  -2  -7  205.48   15.80
   4  -2  -7  194.58   21.60
   4  -2  -7  222.98   14.50
   4  -2  -7  230.68   19.90
   4  -2  -7  224.68   21.10
   4  -2  -7  237.88   16.20
   4  -2  -7  224.08   17.50
  -4   2   7  236.68   15.90
  -4   2   7  224.18   14.40
  -4   2   7  238.58   18.70
  -4   2   7  219.38   17.30
  -4   2   7  222.98   19.20
   3  -2  -7  889.81   41.50
   3  -2  -7  857.01   43.00
   3  -2  -7  898.21   44.70
   3  -2  -7  796.82   42.20
   3  -2  -7  808.52   41.80
   3  -2  -7  785.82   40.90
  -3   2   7  864.81   42.70
  -3   2   7  846.82   42.80
  -3   2   7  841.42   41.30
  -3   2   7  759.82   40.70
   2  -2  -7   -3.20    4.30
   2  -2  -7    6.60    6.30
   2  -2  -7    0.40    5.90
   2  -2  -7   -0.20    3.80
   2  -2  -7   -3.30    3.60
  -2   2   7   -3.10    4.00
  -2   2   7   -3.90    4.80
  -2   2   7    1.20    4.80
   1  -2  -7  418.36   25.60
  -1   2   7  434.96   23.30
  -1   2   7  397.66   23.40
   0  -2  -7  352.66   23.50
   0   2   7  371.06   20.30
   0   2   7  351.56   21.10
   1   2   7  161.28   14.40
  -2  -2  -7   24.20    8.60
  -2  -2  -7    9.80    5.30
   2   2   7   10.70    5.50
  -3  -2  -7  874.81   44.50
   3   2   7  859.01   44.60
   3   2   7  922.01   45.20
  -4  -2  -7   98.99   12.00
   4   2   7   91.49   14.10
   4   2   7  134.39   15.50
  -5  -2  -7  896.41   49.40
  -5  -2  -7  960.50   50.89
  -5  -2  -7 1011.10   52.09
   5   2   7 1010.50   51.49
   5   2   7 1010.40   50.19
   5   2   7 1052.59   50.59
  -6  -2  -7 1440.36   71.59
  -6  -2  -7 1242.88   68.89
  -6  -2  -7 1303.17   70.09
   6   2   7 1507.85   69.49
   6   2   7 1420.06   70.99
   6   2   7 1495.05   69.59
   7   2   7  350.96   42.20
   7   2   7  330.87   23.50
   7   2   7  334.47   23.40
   7   2   7  262.67   28.80
  -8  -2  -7   -6.10   17.80
   8   2   7   -1.40    8.30
   8   2   7    5.40   12.60
  -9  -2  -7   22.40   20.70
  -9  -2  -7    1.80    8.20
   9   2   7   27.30   14.80
 -10  -2  -7   -1.90    9.30
 -10  -2  -7   27.80   22.80
  10   2   7   33.30   13.90
  10   2   7  -13.60   14.00
   8  -3  -7   31.50    9.50
   8  -3  -7   30.70   14.90
   8  -3  -7   24.10   14.40
  -8   3   7   18.40   11.20
  -8   3   7   17.80   14.30
  -8   3   7   27.90    9.60
   7  -3  -7  102.49   26.50
   7  -3  -7   66.49   13.70
   7  -3  -7   90.29   15.20
   7  -3  -7   66.79    9.40
  -7   3   7   55.99   10.80
  -7   3   7   67.29   13.40
   6  -3  -7   20.50   11.00
   6  -3  -7   13.00    5.80
   6  -3  -7    6.40    7.40
   6  -3  -7  -11.70   11.10
   6  -3  -7   14.10   10.80
   6  -3  -7   23.00    6.10
  -6   3   7    6.80    8.90
  -6   3   7   -3.30   10.70
  -6   3   7    7.30    7.30
   5  -3  -7   -6.10    6.50
   5  -3  -7    4.20    8.30
   5  -3  -7   20.40    9.60
   5  -3  -7   11.20    5.20
   5  -3  -7  -25.10   15.90
   5  -3  -7    9.50    5.30
  -5   3   7   -3.00    9.50
  -5   3   7   -7.30    6.60
  -5   3   7   15.70    7.80
   4  -3  -7   37.50    9.60
   4  -3  -7   65.69   18.10
   4  -3  -7   41.10    5.40
   4  -3  -7   57.89   11.50
   4  -3  -7   32.60    6.50
   4  -3  -7   43.10    8.00
  -4   3   7   34.60    5.00
  -4   3   7   41.30    8.30
  -4   3   7   33.90    6.30
  -4   3   7   42.50    7.50
   3  -3  -7 1177.58   53.39
   3  -3  -7 1050.89   52.69
   3  -3  -7 1012.80   53.69
   3  -3  -7 1145.29   56.59
  -3   3   7 1119.09   53.09
  -3   3   7 1116.19   54.59
  -3   3   7  998.50   52.59
   2  -3  -7 1458.25   67.59
   2  -3  -7 1440.46   70.29
   2  -3  -7 1307.97   68.09
  -2   3   7 1405.96   68.59
   1  -3  -7  931.41   46.50
   1  -3  -7  844.52   44.10
  -1   3   7  899.81   44.50
  -1   3   7  878.01   44.70
   0  -3  -7 1325.67   64.89
   0  -3  -7 1239.78   62.89
   0  -3  -7 1267.77   63.49
   0   3   7 1287.27   63.39
   0   3   7 1353.46   62.99
  -1  -3  -7 2578.34  121.09
  -1  -3  -7 2554.84  122.19
  -1  -3  -7 2414.76  120.59
   1   3   7 2543.55  120.99
  -2  -3  -7   55.49   12.00
  -2  -3  -7   35.90    5.40
   2   3   7   38.10    6.10
  -3  -3  -7   15.50    8.20
  -3  -3  -7    9.10    8.60
  -3  -3  -7    7.10    4.80
   3   3   7    7.60    5.90
  -4  -3  -7  657.83   35.30
  -4  -3  -7  658.33   36.50
   4   3   7  685.33   36.10
   4   3   7  717.23   36.30
  -5  -3  -7    7.60   10.20
  -5  -3  -7    0.70    7.50
   5   3   7  -11.00    7.00
   5   3   7    3.80    9.40
  -6  -3  -7  856.11   46.40
  -6  -3  -7  813.12   44.90
   6   3   7  914.81   45.90
   6   3   7  927.81   45.90
   6   3   7  854.61   47.30
   6   3   7  893.31   48.30
  -7  -3  -7  182.88   39.30
   7   3   7  163.68   23.70
   7   3   7  166.98   20.10
   7   3   7  187.38   19.90
  -8  -3  -7   16.20   17.30
   8   3   7   -4.00   11.10
   8   3   7    6.90   11.90
  -9  -3  -7    7.10   19.20
   9   3   7    9.40   12.90
   9   3   7  -12.80   12.70
 -10  -3  -7   67.29   23.40
  10   3   7   62.39   15.10
   7  -4  -7    4.60   13.70
   7  -4  -7    9.20   13.70
   7  -4  -7   12.90    8.90
  -7   4   7    9.70   10.30
  -7   4   7    4.00   13.40
  -7   4   7   -1.10   12.80
   6  -4  -7   -8.70    7.70
   6  -4  -7  -14.60   11.70
   6  -4  -7   10.20   12.90
   6  -4  -7    1.60   11.60
   6  -4  -7    7.40    6.30
  -6   4   7  -18.60   10.80
  -6   4   7   -8.90    7.40
  -6   4   7  -10.30    8.60
   5  -4  -7  136.59   13.50
   5  -4  -7  165.18   23.90
   5  -4  -7  105.89   13.30
   5  -4  -7  130.39   15.40
   5  -4  -7  104.19   16.20
  -5   4   7  108.59   15.50
  -5   4   7  132.79   18.90
   4  -4  -7   42.80   10.30
   4  -4  -7   38.70    5.50
   4  -4  -7   59.19   12.70
  -4   4   7   33.10    5.30
  -4   4   7   33.40    8.70
  -4   4   7   32.00    6.50
   3  -4  -7  -10.40    5.50
   3  -4  -7   11.90   10.60
   3  -4  -7    4.30    7.70
   3  -4  -7   -2.10    4.20
   3  -4  -7    2.50    5.00
   3  -4  -7   -7.90    8.20
  -3   4   7    0.50    3.80
  -3   4   7    1.50    7.40
  -3   4   7   -4.60    5.90
   2  -4  -7   22.30    7.60
   2  -4  -7   13.20    4.70
  -2   4   7    5.20    6.00
   1  -4  -7  197.88   15.00
   1  -4  -7  241.88   18.90
  -1   4   7  192.88   16.40
   0  -4  -7   32.10    7.60
   0  -4  -7   17.30    4.80
   0  -4  -7   18.60    7.00
   0   4   7   18.20    5.30
   0   4   7   18.30    5.60
  -1  -4  -7  903.71   46.30
  -1  -4  -7  906.11   46.10
  -1  -4  -7  945.71   48.10
  -1  -4  -7  877.31   45.70
   1   4   7  906.11   46.40
   1   4   7  978.40   45.70
  -2  -4  -7 2145.99  105.79
  -2  -4  -7 2219.88  107.89
  -2  -4  -7 2162.08  106.29
  -2  -4  -7 2216.78  107.39
   2   4   7 2271.57  106.19
  -3  -4  -7  312.67   19.40
  -3  -4  -7  296.37   20.40
  -3  -4  -7  293.67   20.50
   3   4   7  334.37   21.00
  -4  -4  -7   14.00    9.60
  -4  -4  -7   20.50    9.20
  -4  -4  -7    8.90    5.60
   4   4   7   13.80   10.00
   4   4   7    7.80    6.50
  -5  -4  -7  508.35   29.50
  -5  -4  -7  525.95   31.10
   5   4   7  541.65   31.20
   5   4   7  581.94   31.20
  -6  -4  -7   84.59   14.70
  -6  -4  -7   64.89   16.20
  -6  -4  -7   80.59   14.70
   6   4   7   91.29   17.20
   6   4   7   52.19    8.60
  -7  -4  -7  257.77   28.00
   7   4   7  263.97   22.30
   7   4   7  215.08   27.30
   7   4   7  235.28   21.70
  -8  -4  -7   26.20    9.70
   8   4   7   48.30   12.20
  -9  -4  -7   27.00   19.00
   9   4   7   23.90   13.30
 -10  -4  -7  163.08   33.70
  10   4   7  116.69   24.10
   7  -5  -7  226.78   22.60
   7  -5  -7  202.88   33.90
  -7   5   7  193.78   26.50
  -7   5   7  187.18   21.90
   6  -5  -7  129.49   28.20
   6  -5  -7  121.89   18.40
  -6   5   7   71.29   11.20
  -6   5   7  104.19   17.90
   5  -5  -7   95.19   13.40
   5  -5  -7   74.09    9.10
   5  -5  -7  111.99   24.80
  -5   5   7   67.89    8.70
  -5   5   7  105.69   19.50
   4  -5  -7  669.93   40.90
   4  -5  -7  652.43   34.50
   4  -5  -7  652.13   39.60
   4  -5  -7  555.64   32.80
   4  -5  -7  658.63   39.60
  -4   5   7  621.14   33.70
  -4   5   7  664.23   36.10
   3  -5  -7  249.18   17.70
   3  -5  -7  288.87   23.70
   3  -5  -7  214.58   17.70
   3  -5  -7  235.68   33.80
  -3   5   7  235.08   24.50
  -3   5   7  214.48   22.90
   2  -5  -7   30.40    5.90
   2  -5  -7   49.60   10.50
  -2   5   7   34.10    6.90
   1  -5  -7  136.29   13.70
   1  -5  -7  170.48   18.30
  -1   5   7  135.49   15.40
   0  -5  -7   28.60    7.40
   0  -5  -7   21.00    5.00
   0   5   7   24.40    5.70
  -1  -5  -7   31.90    8.00
  -1  -5  -7   32.50    7.70
  -1  -5  -7   20.90    4.50
  -1  -5  -7   24.60    7.30
  -1  -5  -7   14.70    5.10
   1   5   7   20.30    6.10
   1   5   7   28.90    5.50
  -2  -5  -7    0.20    4.90
  -2  -5  -7    2.20    7.30
  -2  -5  -7    1.70    3.90
  -2  -5  -7    4.90    8.90
   2   5   7    1.50    4.90
   2   5   7    0.80    5.70
  -3  -5  -7  651.83   36.90
  -3  -5  -7  686.63   36.00
  -3  -5  -7  685.23   36.70
  -3  -5  -7  695.83   38.40
   3   5   7  736.23   36.90
  -4  -5  -7   -1.00    9.60
  -4  -5  -7    8.40    5.60
  -4  -5  -7    1.00    9.60
   4   5   7    8.20    6.50
  -5  -5  -7   38.70    6.70
  -5  -5  -7   55.99   11.50
  -5  -5  -7   58.39   10.10
   5   5   7   43.20    7.70
  -6  -5  -7  207.38   21.70
  -6  -5  -7  218.18   18.50
   6   5   7  252.77   20.50
   6   5   7  226.88   25.30
   6   5   7  253.97   29.50
  -7  -5  -7    4.70   19.50
   7   5   7   -0.30    7.60
   7   5   7   -1.00   11.60
   7   5   7   -4.60   12.60
  -8  -5  -7  174.88   27.70
   8   5   7  150.28   21.90
   8   5   7  118.09   29.00
  -9  -5  -7   16.10   18.70
   9   5   7   -3.70   13.60
   9   5   7  -18.60   13.00
 -10  -5  -7   69.59   21.00
  10   5   7   65.99   15.70
   6  -6  -7    1.30    9.60
   6  -6  -7   12.80   14.40
   6  -6  -7   18.60   14.50
  -6   6   7   15.40    9.00
  -6   6   7    5.10   10.20
   5  -6  -7   12.10    8.50
   5  -6  -7   15.50   12.60
  -5   6   7   18.30    7.90
  -5   6   7    6.00    9.10
   4  -6  -7    3.50   11.10
   4  -6  -7    5.50    5.70
  -4   6   7   10.30    8.00
  -4   6   7    1.30    6.70
   3  -6  -7  665.23   42.40
   3  -6  -7  781.22   43.60
  -3   6   7  756.52   40.00
   2  -6  -7  673.83   37.40
   2  -6  -7  653.33   39.10
  -2   6   7  725.63   37.50
   1  -6  -7  148.79   15.30
   1  -6  -7  180.88   19.90
  -1   6   7  167.68   16.60
   0  -6  -7  278.77   22.30
   0  -6  -7  243.38   18.40
   0  -6  -7  291.37   18.90
   0   6   7  268.07   19.30
  -1  -6  -7  313.77   20.00
  -1  -6  -7  322.37   20.80
  -1  -6  -7  328.57   20.80
  -1  -6  -7  360.76   23.90
   1   6   7  364.26   21.30
  -2  -6  -7  512.25   29.30
  -2  -6  -7  473.15   27.70
  -2  -6  -7  462.65   26.50
  -2  -6  -7  500.75   28.20
  -2  -6  -7  530.85   30.10
   2   6   7  528.05   27.60
  -3  -6  -7  283.57   21.10
  -3  -6  -7  214.38   19.30
  -3  -6  -7  231.28   16.00
  -3  -6  -7  248.08   17.90
  -3  -6  -7  261.57   19.20
  -4  -6  -7    8.00    7.90
  -4  -6  -7   10.20   10.40
  -4  -6  -7    7.90   10.30
  -4  -6  -7   11.60    6.10
   4   6   7   13.40    6.70
  -5  -6  -7   59.79   10.50
  -5  -6  -7   77.39   16.90
  -6  -6  -7  315.37   23.90
   6   6   7  373.86   30.80
   6   6   7  429.36   25.80
   7   6   7  110.29   21.60
   7   6   7  113.89   19.40
  -8  -6  -7    6.50   17.90
   8   6   7  -13.40   12.20
   8   6   7    4.70   13.20
  -9  -6  -7   25.50   20.10
  -9  -6  -7  -12.00   12.20
   9   6   7    8.00   13.50
   9   6   7   -0.30   13.20
 -10  -6  -7   26.50   21.70
  10   6   7   11.60   15.90
  10   6   7  -15.00   15.10
   5  -7  -7   63.49   10.20
  -5   7   7   50.59   10.60
   4  -7  -7   17.50   12.50
  -4   7   7    5.90    8.70
   3  -7  -7   21.70   11.50
  -3   7   7   31.50    8.30
   2  -7  -7  141.19   23.10
   2  -7  -7  110.39   22.80
  -2   7   7   97.49   17.80
  -1   7   7  332.87   23.40
   0  -7  -7    7.20    8.10
   0  -7  -7   -2.50    5.70
  -1  -7  -7  393.76   23.50
  -1  -7  -7  310.37   22.30
  -1  -7  -7  358.96   25.40
   1   7   7  353.36   22.90
  -2  -7  -7  161.38   18.00
  -2  -7  -7  141.89   13.90
  -2  -7  -7  132.79   16.00
  -2  -7  -7  149.39   15.40
   2   7   7  143.09   15.30
  -3  -7  -7   18.40    7.80
  -3  -7  -7   12.10   10.40
  -3  -7  -7   13.80   10.70
  -3  -7  -7   10.70    4.90
  -3  -7  -7    9.90    6.20
  -4  -7  -7  135.19   18.20
  -4  -7  -7  116.69   17.20
  -4  -7  -7  124.49   17.60
  -4  -7  -7  117.59   15.80
  -4  -7  -7  110.99   12.80
  -5  -7  -7    9.00   10.40
  -5  -7  -7   24.40   12.80
  -5  -7  -7   21.80    7.00
  -5  -7  -7   15.60    8.70
   5   7   7   10.30   10.70
  -6  -7  -7  610.54   36.60
   6   7   7  715.43   38.90
   7   7   7  266.87   32.50
   7   7   7  293.47   26.60
   8   7   7   34.50   17.10
  -9  -7  -7   31.40   20.90
   9   7   7   24.20   15.50
   4  -8  -7   69.69   14.90
  -4   8   7   60.39   10.40
   3  -8  -7   41.30   12.70
  -3   8   7   41.90    9.20
   2  -8  -7  300.07   28.80
  -2   8   7  303.07   24.20
   1  -8  -7   81.99   22.00
  -1   8   7   56.09    9.10
   0  -8  -7   34.80   15.20
   0   8   7   33.10    7.80
  -1  -8  -7  188.08   21.10
   1   8   7  155.48   17.80
  -3  -8  -7   61.89   12.50
  -3  -8  -7   84.49   17.50
  -3  -8  -7   85.49   16.80
  -4  -8  -7   35.50    6.30
  -4  -8  -7   55.59   12.80
  -4  -8  -7   57.79   12.70
  -4  -8  -7   41.30    7.90
  -5  -8  -7    1.60    8.50
  -5  -8  -7    4.20    7.40
  -6  -8  -7   14.00    8.00
  -6  -8  -7   -1.20    9.10
   6   8   7    8.40   12.40
  -7  -8  -7   28.00   10.10
  -7  -8  -7   15.30    8.50
   7   8   7   40.80   13.90
   8   8   7  333.57   28.80
   8   8   7  319.67   37.40
   9   8   7   72.79   16.40
   9   8   7   41.20   16.50
   3  -9  -7   10.60   13.40
  -3   9   7   16.10    9.60
   2  -9  -7   54.49   13.00
  -2   9   7   43.80    9.40
   1  -9  -7   -2.30   11.00
  -1   9   7   -3.40    8.00
   0  -9  -7    4.70   10.20
   0   9   7   -5.50    7.60
  -1  -9  -7   -1.60   11.00
   1   9   7   -6.40    7.50
  -2  -9  -7 1000.00   53.49
  -3  -9  -7  373.26   26.30
  -3  -9  -7  300.87   24.70
  -4  -9  -7   71.29   19.30
  -5  -9  -7  113.59   19.90
  -6  -9  -7   46.90   10.20
   7   9   7   17.50   14.90
   8   9   7   15.30   14.70
   8   9   7   -3.00   15.40
   1 -10  -7   22.50   12.30
  -1  10   7   12.50    8.90
   0 -10  -7   26.20   11.90
   0  10   7   26.60    9.10
  -1 -10  -7    8.60   10.50
  -2 -10  -7   24.50   10.50
  -3 -10  -7   94.29   19.90
  -3 -10  -7  113.79   21.40
  -4 -10  -7  251.47   24.80
  -1 -11  -7  109.79   24.80
  -2 -11  -7    0.00   11.10
  -3 -11  -7    6.70   10.60
  -4 -11  -7   63.99   20.80
  -4 -11  -7   48.10   11.20
   5  10  -8  -10.30   18.30
   5  10  -8   20.10   14.90
   5  10  -8   19.90   10.00
  -5 -10   8   43.70   17.10
  -5 -10   8   17.00   11.40
  -5 -10   8    0.90   21.00
   4  10  -8  313.57   26.60
   4  10  -8  302.47   34.20
  -4 -10   8  338.77   36.30
  -4 -10   8  275.17   27.80
  -3 -10   8  220.98   25.00
  -3 -10   8  278.07   34.90
   2  10  -8   54.49   10.70
   2  10  -8   62.49   18.70
  -2 -10   8   71.19   18.30
   1  10  -8  149.09   30.90
  -1 -10   8  126.59   21.90
  -1 -10   8  169.78   32.20
   0  10  -8  138.39   20.40
   0  10  -8  196.08   31.60
   0 -10   8  234.28   33.40
   0 -10   8  188.38   23.30
   7   9  -8    5.70    9.90
   7   9  -8    1.00   20.10
   7   9  -8   13.20   18.30
  -7  -9   8   26.90   25.60
  -7  -9   8   -1.90   11.30
  -7  -9   8    9.20   16.10
   6   9  -8   34.40   10.10
   6   9  -8    6.70   14.60
   6   9  -8   22.40   17.50
  -6  -9   8   34.10   16.10
  -6  -9   8   35.00   11.10
  -6  -9   8   31.70   22.30
   5   9  -8   55.29   10.00
   5   9  -8   50.19   14.30
   5   9  -8   56.99   19.50
  -5  -9   8   63.99   16.40
  -5  -9   8   58.29   21.30
  -5  -9   8   56.09   11.20
   4   9  -8   33.30   14.40
   4   9  -8   30.30    9.70
  -4  -9   8   18.90   18.80
  -4  -9   8   41.50   15.90
  -4  -9   8   31.40   10.90
  -3  -9   8  -11.10   16.80
  -3  -9   8    7.80    9.80
  -3  -9   8   15.30   14.90
  -2  -9   8   30.70   15.10
  -2  -9   8   22.60   10.20
   1   9  -8   18.60    8.10
   1   9  -8   31.80   13.10
  -1  -9   8    0.90   15.50
  -1  -9   8   42.10   14.50
  -1  -9   8   40.20    9.70
   0   9  -8  586.24   39.00
   0   9  -8  477.25   31.10
   0  -9   8  425.66   42.70
   0  -9   8  610.14   40.20
   0  -9   8  548.15   32.80
  -1   9  -8  155.68   23.70
   1  -9   8  194.98   22.50
   1  -9   8  218.78   32.20
  -2   9  -8   52.49   10.40
  -2   9  -8   93.39   19.00
   2  -9   8   61.29   11.00
   8   8  -8   14.70   16.40
   8   8  -8   26.50   10.90
  -8  -8   8   16.30   11.70
  -8  -8   8   12.90   16.30
   7   8  -8    9.00   16.60
   7   8  -8   -7.50    9.20
   7   8  -8  -13.20   14.60
  -7  -8   8   19.40   24.10
  -7  -8   8    4.00   15.00
  -7  -8   8   -4.40   10.10
   6   8  -8   29.70   14.20
   6   8  -8   35.80    9.60
   6   8  -8   52.79   18.10
  -6  -8   8   66.39   22.90
  -6  -8   8   38.10   10.50
  -6  -8   8   53.89   14.70
   5   8  -8  398.66   32.10
   5   8  -8  408.16   26.40
  -5  -8   8  392.26   27.80
  -5  -8   8  446.76   34.70
  -5  -8   8  372.46   37.70
  -5  -8   8  343.97   30.70
   4   8  -8   62.39   10.00
   4   8  -8   43.40   13.40
  -4  -8   8   45.30   10.30
  -4  -8   8   56.19   14.70
  -4  -8   8   41.90   18.40
  -3  -8   8   -4.60   11.10
  -3  -8   8   22.80    9.50
   2   8  -8   60.59   16.40
   2   8  -8   80.59   15.60
   2   8  -8   66.39   11.40
  -2  -8   8   89.99   16.80
  -2  -8   8  109.09   18.80
  -2  -8   8   42.60   12.20
  -2  -8   8  118.19   19.50
   1   8  -8   -6.50    7.00
   1   8  -8    0.80    7.10
   1   8  -8   13.90   12.10
  -1  -8   8    8.70   13.50
  -1  -8   8  -13.20   14.10
  -1  -8   8    1.10    8.50
   0   8  -8   14.00    7.40
   0  -8   8   28.40    9.00
   0  -8   8   39.20   15.30
  -2   8  -8  240.18   32.00
  -2   8  -8  173.68   20.20
   2  -8   8  172.08   21.70
   2  -8   8  207.68   34.30
  -3   8  -8   26.80    9.50
  -3   8  -8   41.10   20.10
   3  -8   8   35.80   10.00
   3  -8   8   45.60   16.10
  -4   8  -8   47.70   10.80
   4  -8   8   53.89   10.90
   4  -8   8   76.29   17.50
   8   7  -8  -20.40    9.90
   8   7  -8    2.60   16.50
  -8  -7   8   28.50   25.20
   7   7  -8   13.90    9.20
   7   7  -8   10.40   14.10
   7   7  -8   34.80   16.70
  -7  -7   8    7.80   10.00
  -7  -7   8   29.20   23.10
  -7  -7   8   15.20   14.40
   6   7  -8  -20.50   12.40
   6   7  -8  -17.40   16.20
   6   7  -8   -5.50    8.50
  -6  -7   8    6.70   10.70
  -6  -7   8  -17.60   21.30
  -6  -7   8   -5.80   13.20
  -6  -7   8  -10.00    9.10
   5   7  -8   61.99   10.00
   5   7  -8   74.69   12.90
  -5  -7   8   50.99   11.50
  -5  -7   8   73.09   20.80
  -5  -7   8   67.29    9.70
   4   7  -8  887.41   53.29
   4   7  -8 1044.50   54.09
   4   7  -8 1100.69   55.89
  -4  -7   8 1053.99   52.89
  -4  -7   8 1080.19   57.59
  -4  -7   8 1074.79   52.49
  -4  -7   8  931.31   53.89
  -4  -7   8 1084.09   55.99
  -4  -7   8  905.21   51.49
   3   7  -8  424.06   25.00
   3   7  -8  320.47   27.90
  -3  -7   8  442.16   31.50
  -3  -7   8  425.16   32.00
  -3  -7   8  308.87   23.60
  -3  -7   8  305.87   28.00
  -3  -7   8  410.66   25.60
   2   7  -8  136.19   17.60
   2   7  -8   95.49   11.90
   2   7  -8  138.99   26.90
  -2  -7   8   76.99    9.20
  -2  -7   8   83.89   11.90
   1   7  -8  230.88   24.70
   1   7  -8  307.47   20.20
   1   7  -8  275.67   22.00
   1   7  -8  323.37   27.20
  -1  -7   8  227.98   20.50
  -1  -7   8  301.27   21.40
   0   7  -8   58.39   11.30
   0   7  -8   66.59   16.50
   0  -7   8   39.60   11.70
   0  -7   8  105.29   16.60
  -1   7  -8   95.39   12.80
  -1   7  -8  100.89   18.00
   1  -7   8   63.99   13.60
  -2   7  -8   29.50   13.30
  -2   7  -8    6.90    7.80
   2  -7   8   12.90   13.20
   2  -7   8   12.20    8.30
  -3   7  -8   49.80   17.00
  -3   7  -8   33.00    9.10
   3  -7   8   47.80   14.60
   3  -7   8   27.50    9.20
  -4   7  -8   51.19   16.80
  -4   7  -8   22.70    9.40
   4  -7   8   43.40    9.50
   4  -7   8   29.70    9.90
   4  -7   8   32.60   15.90
  -5   7  -8    7.90   17.40
  -5   7  -8    3.40   24.10
  -5   7  -8    2.50    9.90
   5  -7   8   11.00   17.50
   5  -7   8    4.70    9.80
   8   6  -8   20.10   16.30
  -8  -6   8   41.10   24.50
   7   6  -8    4.10   14.80
  -7  -6   8    2.10   22.10
  -7  -6   8   14.60   10.70
   6   6  -8   95.59   14.20
   6   6  -8  101.79   17.50
   6   6  -8  114.69   25.90
  -6  -6   8  127.79   18.70
  -6  -6   8  137.79   22.30
  -6  -6   8  112.69   25.20
   5   6  -8   83.09   13.00
   5   6  -8  110.39   20.70
   5   6  -8  146.69   23.90
   5   6  -8   93.89   15.20
  -5  -6   8   98.29   17.20
  -5  -6   8   98.39   20.80
  -5  -6   8  125.19   23.90
  -5  -6   8  116.89   20.10
  -5  -6   8  113.09   15.10
  -5  -6   8   90.79   16.70
   4   6  -8    9.70    9.20
   4   6  -8   26.60    7.50
   4   6  -8   32.80   11.30
  -4  -6   8   14.10    9.80
  -4  -6   8   17.00    6.80
  -4  -6   8   35.90   12.00
  -4  -6   8   27.70    8.50
  -4  -6   8   24.90   14.20
  -4  -6   8    5.20   16.90
   3   6  -8  386.16   23.00
   3   6  -8  352.96   19.90
   3   6  -8  306.57   24.80
   3   6  -8  289.97   21.20
  -3  -6   8  304.97   21.60
  -3  -6   8  376.16   23.40
  -3  -6   8  302.37   25.60
  -3  -6   8  329.97   27.70
  -3  -6   8  361.26   28.20
  -3  -6   8  365.36   24.60
   2   6  -8   16.40    9.40
   2   6  -8   16.20    6.50
   2   6  -8   24.90   12.40
  -2  -6   8   36.00   11.60
  -2  -6   8   37.20    8.00
   1   6  -8   12.50    6.60
   1   6  -8   -4.10    9.20
   1   6  -8   -0.30    6.40
   1   6  -8   13.20   10.20
  -1  -6   8   12.30    7.30
  -1  -6   8   -8.00    9.50
  -1  -6   8   20.90   10.40
  -1  -6   8    0.80    6.50
  -1  -6   8   34.00   12.80
   0   6  -8  753.62   40.60
   0   6  -8  696.73   40.00
   0   6  -8  691.13   36.60
   0   6  -8  665.83   36.60
   0  -6   8  633.24   39.70
   0  -6   8  716.33   37.10
   0  -6   8  674.93   37.00
   0  -6   8  720.13   41.20
   0  -6   8  745.83   41.00
  -1   6  -8  142.29   18.30
  -1   6  -8  138.89   20.90
  -1   6  -8  127.69   15.80
   1  -6   8   99.89   13.00
   1  -6   8  129.89   16.50
  -2   6  -8    3.70    7.00
  -2   6  -8  -15.00   10.40
  -2   6  -8   18.80   12.00
  -2   6  -8  -17.30    9.40
  -2   6  -8   -7.90    8.00
   2  -6   8    7.10   11.80
  -3   6  -8    6.20    7.70
  -3   6  -8   28.80   14.00
   3  -6   8   12.50    8.20
   3  -6   8    9.20   12.60
  -4   6  -8   47.50    9.40
  -4   6  -8   68.89   21.70
  -4   6  -8   74.39   16.70
   4  -6   8   54.79    9.50
   4  -6   8   62.49   10.10
   4  -6   8   70.39   14.60
  -5   6  -8  271.57   24.30
  -5   6  -8  322.27   39.00
  -5   6  -8  301.87   34.80
   5  -6   8  277.77   20.60
   5  -6   8  308.97   33.90
   5  -6   8  279.07   23.80
  -6   6  -8   32.40   10.80
  -6   6  -8   49.00   25.90
  -6   6  -8   43.80   17.40
   6  -6   8   19.70   10.20
   6  -6   8   42.10   16.30
   9   5  -8  109.99   27.70
   8   5  -8  164.68   21.00
   8   5  -8  126.29   17.10
   8   5  -8  210.88   25.90
  -8  -5   8  157.58   22.00
  -8  -5   8  149.99   29.40
  -8  -5   8  195.58   25.50
   7   5  -8    3.20   14.40
  -7  -5   8   34.40   20.90
  -7  -5   8  -17.80   14.20
  -7  -5   8    9.70   10.40
  -7  -5   8  -18.50    8.80
   6   5  -8   74.49    9.00
   6   5  -8   72.79   13.30
  -6  -5   8   83.79   13.30
  -6  -5   8   65.19    9.40
   5   5  -8  294.57   24.70
   5   5  -8  279.47   26.40
   5   5  -8  299.27   24.10
   5   5  -8  302.17   21.20
   5   5  -8  295.47   26.60
  -5  -5   8  325.77   24.30
  -5  -5   8  283.87   19.80
  -5  -5   8  270.17   30.60
  -5  -5   8  296.57   32.30
  -5  -5   8  314.47   27.20
   4   5  -8   -6.10    6.40
   4   5  -8   -4.80    9.90
   4   5  -8   -4.00    8.50
   4   5  -8    2.90    5.80
   4   5  -8    2.20   12.40
  -4  -5   8    2.00    7.20
  -4  -5   8   -2.40   10.20
  -4  -5   8    0.90    8.50
  -4  -5   8   -2.70    5.80
   3   5  -8  976.00   52.09
   3   5  -8 1106.29   51.39
   3   5  -8  991.50   50.29
   3   5  -8 1028.10   50.89
   3   5  -8 1019.50   52.79
  -3  -5   8  926.11   52.19
  -3  -5   8 1042.70   53.79
  -3  -5   8 1020.00   50.89
  -3  -5   8  947.41   50.29
  -3  -5   8 1049.30   51.89
   2   5  -8   -0.40    5.70
   2   5  -8   -2.10   11.40
   2   5  -8   -3.00    9.00
  -2  -5   8    8.50    9.60
  -2  -5   8   -0.40    6.00
  -2  -5   8   21.00    7.70
  -2  -5   8   11.90    7.10
   1   5  -8  202.88   21.70
   1   5  -8  188.18   12.80
   1   5  -8  155.18   30.20
   1   5  -8  174.28   15.60
   1   5  -8  165.18   15.20
  -1  -5   8  134.49   19.60
  -1  -5   8  217.78   21.80
  -1  -5   8  204.48   20.70
  -1  -5   8  206.58   16.40
  -1  -5   8  140.09   15.00
   0   5  -8   72.69   12.80
   0   5  -8   69.99   11.70
   0  -5   8   70.19    7.60
   0  -5   8   65.39   10.30
  -1   5  -8   -2.50   12.40
  -1   5  -8   14.80    6.20
  -1   5  -8   12.30    6.60
  -1   5  -8   27.90   10.50
   1  -5   8   21.80    7.00
   1  -5   8   21.50    9.90
  -2   5  -8  166.18   20.00
  -2   5  -8  162.08   17.10
  -2   5  -8  186.48   19.80
  -2   5  -8  216.08   24.20
   2  -5   8  198.98   16.90
   2  -5   8  142.99   16.50
  -3   5  -8   23.40   11.10
  -3   5  -8   17.60   19.10
  -3   5  -8   26.70    7.80
  -3   5  -8   39.50    7.70
   3  -5   8   37.50    7.90
   3  -5   8   52.79   11.90
  -4   5  -8   15.20   12.20
  -4   5  -8    9.30   10.60
  -4   5  -8   25.30    8.10
  -4   5  -8   31.90   20.80
   4  -5   8   35.20    9.30
   4  -5   8   36.80   12.80
  -5   5  -8  -11.80   13.90
  -5   5  -8   -3.90   21.10
  -5   5  -8    2.00   14.30
  -5   5  -8    4.70    8.60
   5  -5   8   -9.90   13.50
   5  -5   8    6.70    9.80
   5  -5   8    3.10    8.50
  -6   5  -8  137.89   21.00
  -6   5  -8  139.09   23.90
  -6   5  -8  164.38   35.70
   6  -5   8  129.09   20.40
   6  -5   8  149.39   17.40
   6  -5   8  144.69   29.20
   9   4  -8   80.69   19.10
   8   4  -8   11.90   13.90
   8   4  -8   31.90   10.00
   8   4  -8   57.29   16.10
   8   4  -8   20.60    9.60
  -8  -4   8   20.90   10.10
  -8  -4   8   -1.50   18.20
   7   4  -8  244.78   24.70
   7   4  -8  287.17   23.90
   7   4  -8  190.38   26.40
   7   4  -8  256.67   22.60
   7   4  -8  224.48   21.00
  -7  -4   8  245.78   24.10
  -7  -4   8  205.78   27.30
  -7  -4   8  228.98   21.60
   6   4  -8   -5.40   12.60
   6   4  -8   18.60    8.80
   6   4  -8    4.80    8.10
  -6  -4   8  -16.40   11.10
  -6  -4   8   11.00    9.00
  -6  -4   8   -8.20   18.70
  -6  -4   8   -7.90    7.50
   5   4  -8   58.59   11.40
   5   4  -8   66.39    8.40
   5   4  -8   82.39   12.60
  -5  -4   8  107.49   21.60
  -5  -4   8   96.39   12.50
  -5  -4   8   80.59   17.60
  -5  -4   8   64.39    8.60
   4   4  -8 1078.89   56.89
   4   4  -8 1181.98   58.09
   4   4  -8 1140.89   57.79
   4   4  -8 1162.68   55.69
   4   4  -8 1062.79   55.09
  -4  -4   8 1081.59   57.19
  -4  -4   8 1147.39   55.79
  -4  -4   8 1064.49   55.19
  -4  -4   8 1186.68   58.09
   3   4  -8  102.89   12.50
   3   4  -8   76.49   17.10
   3   4  -8  104.39   14.20
   3   4  -8  118.49   17.90
   3   4  -8   86.59   11.30
  -3  -4   8  109.59   20.20
  -3  -4   8  117.69   15.40
  -3  -4   8   92.29   17.50
  -3  -4   8  115.29   14.50
  -3  -4   8   90.29   12.30
   2   4  -8    0.80    5.50
   2   4  -8   -0.70    7.60
  -2  -4   8   17.10    6.30
  -2  -4   8    9.10    7.00
  -2  -4   8   -8.10    8.10
  -2  -4   8   12.40    9.00
  -2  -4   8    6.60    5.50
   1   4  -8   -9.60    8.10
   1   4  -8   -8.20    5.60
   1   4  -8   -9.70    5.30
   1   4  -8   -3.50    8.90
  -1  -4   8    6.40    7.00
  -1  -4   8    6.20    8.90
  -1  -4   8    8.30    6.10
  -1  -4   8   -2.30    5.20
   0   4  -8  270.87   20.90
   0   4  -8  236.88   16.70
   0   4  -8  205.98   16.40
   0  -4   8  251.47   20.40
   0  -4   8  271.77   21.40
   0  -4   8  247.48   16.70
   0  -4   8  206.18   16.20
   0  -4   8  182.08   19.80
  -1   4  -8 1259.77   61.59
  -1   4  -8 1251.47   61.49
  -1   4  -8 1233.58   60.89
  -1   4  -8 1313.17   63.79
   1  -4   8 1239.98   61.59
   1  -4   8 1226.88   63.89
   1  -4   8 1291.37   63.19
   1  -4   8 1215.88   63.39
   1  -4   8 1283.37   61.49
  -2   4  -8  169.98   30.40
  -2   4  -8  140.39   25.90
  -2   4  -8  177.08   16.20
  -2   4  -8  193.28   15.80
  -2   4  -8  190.88   13.70
  -2   4  -8  207.38   21.90
   2  -4   8  220.08   21.70
   2  -4   8  149.88   15.70
   2  -4   8  194.38   16.00
  -3   4  -8   40.40   21.20
  -3   4  -8   18.40   10.30
  -3   4  -8   27.10    8.70
  -3   4  -8   27.50    7.30
   3  -4   8   36.20    7.20
   3  -4   8   23.60    6.80
  -4   4  -8   62.39    9.00
  -4   4  -8   95.29   20.10
  -4   4  -8   97.09   15.90
  -4   4  -8   73.59   12.60
  -4   4  -8  128.19   25.30
   4  -4   8   55.79   14.90
   4  -4   8  106.89   15.60
   4  -4   8  104.29   14.10
  -5   4  -8   -3.70   13.30
  -5   4  -8  -24.00   18.90
  -5   4  -8   -5.30    8.10
   5  -4   8  -10.80   12.50
   5  -4   8    5.70    9.90
   5  -4   8   -1.50    8.00
  -6   4  -8   15.40    9.00
  -6   4  -8   16.10   21.50
  -6   4  -8    6.50   14.30
   6  -4   8   14.70   13.20
   6  -4   8   32.20   11.60
   6  -4   8   15.70    8.60
  -7   4  -8    0.10    9.60
  -7   4  -8    8.80   16.20
  -7   4  -8   -3.10   23.40
   7  -4   8    0.10    9.10
   7  -4   8   27.40   12.30
   7  -4   8   -2.40   14.00
   9   3  -8   19.10   15.90
   9   3  -8   52.89   12.40
   9   3  -8   29.30   10.30
  -9  -3   8   36.30   11.10
  -9  -3   8   22.20   15.90
   8   3  -8   65.59   10.30
   8   3  -8   54.19   19.20
  -8  -3   8   71.49   10.50
  -8  -3   8   68.99   14.50
   7   3  -8   18.30   12.30
   7   3  -8   33.20    9.70
   7   3  -8   12.90    8.50
  -7  -3   8   18.50    8.80
  -7  -3   8   26.00   10.70
  -7  -3   8   20.70   12.40
   6   3  -8    5.00   10.70
   6   3  -8    5.60   12.20
   6   3  -8   25.20    6.10
   6   3  -8    7.50    7.60
   6   3  -8   19.70    8.70
   6   3  -8   31.80    8.80
  -6  -3   8   21.90   20.80
  -6  -3   8    5.50   10.80
  -6  -3   8   10.90   10.30
  -6  -3   8   16.70    9.10
   5   3  -8  154.98   22.50
   5   3  -8  188.78   17.20
   5   3  -8  226.88   20.90
   5   3  -8  223.28   19.00
   5   3  -8  201.58   14.80
  -5  -3   8  194.38   22.70
  -5  -3   8  196.38   17.10
  -5  -3   8  196.78   19.30
  -5  -3   8  170.48   29.10
  -5  -3   8  180.38   15.00
   4   3  -8   34.30    8.00
   4   3  -8   25.20    5.30
   4   3  -8   18.00    9.60
   4   3  -8   24.60    8.00
   4   3  -8   18.10    6.50
  -4  -3   8   13.80    6.40
  -4  -3   8   26.00    5.40
  -4  -3   8   37.40    9.70
  -4  -3   8   25.80    6.70
  -4  -3   8   27.80    7.80
   3   3  -8  344.37   33.00
   3   3  -8  411.76   27.00
   3   3  -8  435.46   27.30
   3   3  -8  414.06   23.40
   3   3  -8  404.16   22.50
  -3  -3   8  394.26   22.30
  -3  -3   8  376.16   25.20
  -3  -3   8  406.66   26.30
  -3  -3   8  410.86   23.90
  -3  -3   8  407.76   23.40
   2   3  -8  113.09   15.90
   2   3  -8  136.89   12.60
   2   3  -8  141.79   13.90
  -2  -3   8  152.18   15.20
  -2  -3   8  134.59   13.70
  -2  -3   8  117.09   18.90
  -2  -3   8  130.49   12.40
  -2  -3   8  114.89   16.80
   1   3  -8  154.48   20.90
   1   3  -8  131.79   16.20
   1   3  -8  162.58   19.90
  -1  -3   8  159.28   18.20
  -1  -3   8  168.98   17.00
  -1  -3   8  149.19   12.90
  -1  -3   8  132.59   16.40
  -1  -3   8  175.58   14.20
   0   3  -8  214.88   18.60
   0   3  -8  224.28   14.30
   0   3  -8  182.88   14.90
   0   3  -8  170.58   18.60
   0   3  -8  208.78   15.10
   0  -3   8  234.78   19.10
   0  -3   8  179.98   14.50
   0  -3   8  214.08   18.40
   0  -3   8  208.88   14.80
  -1   3  -8   28.70    5.60
  -1   3  -8   27.00    6.80
  -1   3  -8   41.10    8.90
   1  -3   8   33.80    7.50
   1  -3   8   31.80    5.90
   1  -3   8   37.10    8.00
  -2   3  -8  899.11   45.00
  -2   3  -8  879.51   44.90
  -2   3  -8 1015.50   49.70
  -2   3  -8  860.71   47.20
  -2   3  -8  906.31   50.09
  -2   3  -8  908.81   47.40
   2  -3   8  889.01   45.20
   2  -3   8  894.11   45.00
   2  -3   8  925.41   47.90
   2  -3   8  842.42   47.10
   2  -3   8  928.61   47.30
  -3   3  -8  390.56   22.00
  -3   3  -8  390.96   23.30
  -3   3  -8  461.05   28.70
  -3   3  -8  378.16   30.90
  -3   3  -8  403.56   22.90
  -3   3  -8  371.06   27.10
   3  -3   8  416.76   27.00
   3  -3   8  414.86   22.90
   3  -3   8  339.87   22.60
   3  -3   8  418.96   27.30
   3  -3   8  315.97   26.30
   3  -3   8  356.26   22.60
  -4   3  -8  405.46   29.00
  -4   3  -8  322.77   25.80
  -4   3  -8  322.67   27.70
  -4   3  -8  301.77   27.00
  -4   3  -8  327.47   22.80
   4  -3   8  382.76   27.20
   4  -3   8  369.16   22.00
   4  -3   8  394.26   27.30
   4  -3   8  343.67   21.90
   4  -3   8  284.07   27.30
  -5   3  -8  792.42   47.60
  -5   3  -8  705.83   40.70
  -5   3  -8  784.32   47.90
  -5   3  -8  738.73   40.40
   5  -3   8  780.52   40.20
   5  -3   8  769.22   40.20
   5  -3   8  771.12   43.90
  -6   3  -8   55.39    9.10
  -6   3  -8   34.60    9.40
  -6   3  -8   60.99   20.20
  -6   3  -8   51.19   14.30
  -6   3  -8   42.00   14.30
   6  -3   8   72.89   13.00
   6  -3   8   51.19    8.70
   6  -3   8   55.29   12.70
  -7   3  -8    0.70   15.10
  -7   3  -8    4.00   21.40
  -7   3  -8    7.60    9.40
   7  -3   8    7.70   10.20
   7  -3   8   19.40   12.00
   7  -3   8    1.20   12.70
  -8   3  -8  -16.40   15.90
  -8   3  -8   -4.00   10.30
  -8   3  -8    9.90   24.20
   8  -3   8    0.70    9.30
   8  -3   8   23.70   13.30
   8   2  -8  207.78   28.00
   8   2  -8  151.38   28.50
   8   2  -8  166.18   21.40
   8   2  -8  245.68   26.30
   8   2  -8  190.78   25.10
  -8  -2   8  177.58   22.00
  -8  -2   8  168.08   29.30
   7   2  -8   30.50   10.00
   7   2  -8   36.50   13.60
   7   2  -8   18.50   10.10
  -7  -2   8   -1.50    8.60
  -7  -2   8   -4.30   16.50
  -7  -2   8   61.69   22.90
   6   2  -8    5.80    8.70
   6   2  -8   -0.10    7.20
   6   2  -8   14.70    5.80
   6   2  -8  -15.60   11.80
  -6  -2   8   -1.90   20.80
  -6  -2   8    3.90    7.40
  -6  -2   8    0.40    8.90
  -6  -2   8  -12.50   10.60
   5   2  -8   54.79    7.70
   5   2  -8   52.69   11.10
   5   2  -8   56.29   11.80
   5   2  -8   87.09   11.70
  -5  -2   8   53.89    7.70
  -5  -2   8   60.29   10.70
  -5  -2   8   75.99   19.70
  -5  -2   8   80.09   11.50
  -5  -2   8   74.39   16.20
   4   2  -8  332.17   19.90
   4   2  -8  382.96   25.30
   4   2  -8  323.97   24.90
   4   2  -8  356.26   21.40
  -4  -2   8  331.07   22.70
  -4  -2   8  338.87   19.80
  -4  -2   8  360.06   21.40
  -4  -2   8  350.26   25.60
   3   2  -8 1053.29   49.50
   3   2  -8  936.21   50.29
   3   2  -8  944.51   49.10
   3   2  -8 1038.70   52.09
   3   2  -8 1003.90   51.19
  -3  -2   8 1061.69   50.19
  -3  -2   8 1039.70   49.40
  -3  -2   8 1028.60   51.39
  -3  -2   8  949.31   50.39
  -3  -2   8  930.71   48.90
   2   2  -8   -4.60    7.50
   2   2  -8   -6.70    5.40
   2   2  -8  -10.60    6.80
  -2  -2   8   -7.50    4.40
  -2  -2   8  -12.70    7.50
  -2  -2   8   -3.60    5.70
  -2  -2   8   -4.20    5.30
   1   2  -8  206.98   17.70
   1   2  -8  245.38   15.40
  -1  -2   8  206.78   18.20
  -1  -2   8  243.68   15.70
  -1  -2   8  249.18   17.70
  -1  -2   8  225.48   14.90
  -1  -2   8  238.08   19.30
   0   2  -8  349.37   23.70
   0   2  -8  369.46   21.60
   0   2  -8  381.56   24.70
   0   2  -8  456.35   22.70
   0   2  -8  398.46   22.00
   0  -2   8  424.86   24.80
   0  -2   8  394.16   24.10
   0  -2   8  397.56   21.70
   0  -2   8  350.36   23.50
   0  -2   8  371.56   21.50
  -1   2  -8   10.80    5.10
  -1   2  -8   26.60    6.90
  -1   2  -8   21.40    7.50
  -1   2  -8   -3.60    5.20
   1  -2   8   11.60    6.70
   1  -2   8   21.00    7.20
   1  -2   8   10.40    4.90
  -2   2  -8  105.09   13.20
  -2   2  -8  135.69   17.80
  -2   2  -8   92.69   16.60
  -2   2  -8   90.19   21.10
   2  -2   8  101.69   12.30
   2  -2   8   94.59   10.40
   2  -2   8  140.29   17.10
  -3   2  -8  157.58   15.80
  -3   2  -8  176.38   13.80
  -3   2  -8  215.38   21.20
  -3   2  -8  144.29   19.50
  -3   2  -8  196.28   15.10
   3  -2   8  194.18   19.70
   3  -2   8  195.18   19.20
   3  -2   8  153.58   15.70
   3  -2   8  189.78   14.70
   3  -2   8  200.08   19.90
   3  -2   8  152.58   14.50
  -4   2  -8  -18.40   14.90
  -4   2  -8   -8.90    9.70
  -4   2  -8   -3.60    8.10
  -4   2  -8    5.40    6.30
  -4   2  -8   -5.80    7.10
  -4   2  -8   15.10   10.20
   4  -2   8  -11.70    5.90
   4  -2   8    3.30    6.00
   4  -2   8    7.90    8.00
   4  -2   8   13.20    9.10
   4  -2   8   19.20   12.70
  -5   2  -8   36.10    7.40
  -5   2  -8   26.50   20.00
  -5   2  -8   19.40   11.20
  -5   2  -8   24.50    7.70
   5  -2   8   29.60    7.10
   5  -2   8   42.00   10.60
   5  -2   8   39.70   10.80
  -6   2  -8  476.95   34.80
  -6   2  -8  442.56   29.00
  -6   2  -8  448.46   29.40
  -6   2  -8  513.65   39.40
  -6   2  -8  524.35   36.00
   6  -2   8  487.25   32.80
   6  -2   8  504.35   34.10
   6  -2   8  497.95   28.40
  -7   2  -8  139.69   28.40
  -7   2  -8  130.69   20.30
  -7   2  -8  126.39   20.10
  -7   2  -8  168.98   33.90
   7  -2   8  187.98   19.20
   7  -2   8  109.59   24.80
   7  -2   8  203.98   25.10
   7  -2   8  151.78   18.60
  -8   2  -8   56.09   10.90
  -8   2  -8  100.69   24.80
  -8   2  -8   70.59   16.60
   8  -2   8   71.79   13.40
   8   1  -8   11.40   11.60
   8   1  -8   29.80   12.00
   7   1  -8  233.88   24.40
   7   1  -8  223.78   23.20
   7   1  -8  187.68   19.80
  -7  -1   8  179.28   26.30
  -7  -1   8  192.38   20.40
   6   1  -8    4.80   10.60
   6   1  -8    7.40    5.50
   6   1  -8    1.40    8.90
   6   1  -8  -17.20   12.10
  -6  -1   8   -7.80    9.50
  -6  -1   8   -7.80    7.20
  -6  -1   8  -12.30   10.30
  -6  -1   8  -13.10   20.60
   5   1  -8   21.60    8.60
   5   1  -8   25.10    8.30
   5   1  -8   21.50    5.30
   5   1  -8    0.60    9.40
   5   1  -8   -8.90   10.80
   5   1  -8    0.80    7.00
  -5  -1   8    6.80    8.00
  -5  -1   8    7.30    5.90
  -5  -1   8    0.70    9.30
  -5  -1   8  -10.90   17.60
  -5  -1   8    8.80    6.60
   4   1  -8  284.37   17.70
   4   1  -8  288.27   21.40
   4   1  -8  284.87   19.20
   4   1  -8  331.97   22.80
   4   1  -8  274.27   23.20
  -4  -1   8  281.47   17.50
  -4  -1   8  275.87   20.30
  -4  -1   8  295.87   19.70
  -4  -1   8  274.77   22.50
  -4  -1   8  295.07   19.00
   3   1  -8  596.34   29.70
   3   1  -8  607.14   32.90
   3   1  -8  538.75   28.70
   3   1  -8  517.35   30.70
   3   1  -8  566.14   32.20
  -3  -1   8  577.34   30.50
  -3  -1   8  562.04   32.00
  -3  -1   8  500.25   30.10
  -3  -1   8  541.75   28.60
  -3  -1   8  572.34   29.50
   2   1  -8  861.31   43.20
   2   1  -8  806.92   41.70
   2   1  -8  782.72   39.40
   2   1  -8  835.42   40.00
   2   1  -8  748.43   40.80
  -2  -1   8  831.42   41.00
  -2  -1   8  797.22   41.30
  -2  -1   8  757.12   39.40
  -2  -1   8  813.92   39.70
  -2  -1   8  730.73   40.70
   1   1  -8  215.68   14.60
   1   1  -8  176.08   16.40
   1   1  -8  200.78   13.60
  -1  -1   8  195.98   13.20
  -1  -1   8  208.98   16.60
  -1  -1   8  172.08   16.20
  -1  -1   8  197.58   14.10
  -1  -1   8  209.88   17.70
   0   1  -8 1196.18   54.49
   0   1  -8 1035.20   53.99
   0   1  -8 1099.09   54.89
   0   1  -8 1098.99   52.99
   0  -1   8 1000.70   53.89
   0  -1   8 1076.09   52.89
   0  -1   8 1091.89   52.99
   0  -1   8 1115.49   54.29
  -1   1  -8 2101.69  105.19
  -1   1  -8 2197.28  102.59
  -1   1  -8 2200.18  102.59
  -1   1  -8 2113.79  103.39
  -1   1  -8 2102.39  103.29
   1  -1   8 2223.98  102.59
   1  -1   8 2128.79  103.39
   1  -1   8 2082.99  102.29
   1  -1   8 2054.29  103.39
   1  -1   8 2251.17  103.59
  -2   1  -8   45.90    6.00
  -2   1  -8   59.59    8.60
  -2   1  -8   74.69   11.00
   2  -1   8   53.69    5.90
   2  -1   8   48.10    7.50
   2  -1   8   52.89    7.60
  -3   1  -8    6.20    8.50
  -3   1  -8   -4.00   13.10
  -3   1  -8   24.80    5.50
  -3   1  -8   11.10    6.20
   3  -1   8   20.50    4.90
   3  -1   8    9.50    5.40
   3  -1   8   -5.40    7.30
   3  -1   8   10.70    7.10
   3  -1   8   26.10    7.20
   3  -1   8   17.90    8.30
  -4   1  -8  293.87   22.90
  -4   1  -8  269.37   17.40
  -4   1  -8  232.88   17.10
   4  -1   8  195.88   17.10
   4  -1   8  240.08   23.40
   4  -1   8  227.08   18.10
   4  -1   8  252.27   16.90
   4  -1   8  242.38   21.20
  -5   1  -8   -4.30    7.80
  -5   1  -8    9.50   10.90
  -5   1  -8   15.60   10.90
  -5   1  -8    8.50    8.80
  -5   1  -8    1.30    6.70
   5  -1   8  -10.90    8.30
   5  -1   8   -5.40    6.00
   5  -1   8   -9.30    9.00
   5  -1   8    4.40   13.30
   5  -1   8    3.20    6.00
  -6   1  -8  141.19   27.90
  -6   1  -8  156.88   22.80
  -6   1  -8  178.58   25.00
  -6   1  -8  165.08   17.40
   6  -1   8  149.69   16.10
   6  -1   8  151.28   22.90
  -7   1  -8   37.50   12.90
  -7   1  -8   26.70   19.70
  -7   1  -8   31.40    8.60
  -7   1  -8   27.80    8.60
   7  -1   8   27.00   10.40
   7  -1   8   36.10    7.90
   7  -1   8   41.70   11.80
  -8   1  -8   21.50   21.20
  -8   1  -8   -3.60    9.40
   8  -1   8   30.60   12.60
   8  -1   8   -5.50    8.10
   8  -1   8   16.00   10.80
  -9   1  -8   52.89   24.50
  -9   1  -8   14.40   10.30
  -9   1  -8   20.20   16.80
   8   0  -8   43.60   13.00
   8   0  -8   31.60   14.60
   8   0  -8   33.50    9.60
  -8   0   8   45.70   11.20
  -8   0   8   41.00   14.00
  -8   0   8   26.50    9.90
   7   0  -8   40.00   11.60
   7   0  -8   33.00    8.60
   7   0  -8   29.70   13.00
  -7   0   8   48.30    9.00
  -7   0   8   43.50    9.60
  -7   0   8   39.40   12.10
   6   0  -8   23.20   14.30
   6   0  -8    0.40   14.50
   6   0  -8   20.00    5.70
   6   0  -8   16.30   12.60
   6   0  -8   24.50    9.50
   6   0  -8    4.00    7.30
  -6   0   8   33.10   22.40
  -6   0   8   17.30   10.60
  -6   0   8    4.40    7.30
   5   0  -8  354.76   20.80
   5   0  -8  367.46   26.20
   5   0  -8  351.86   26.30
   5   0  -8  308.57   25.70
   5   0  -8  387.06   26.70
  -5   0   8  324.97   24.60
  -5   0   8  393.06   35.60
  -5   0   8  363.76   26.00
  -5   0   8  384.66   22.50
   4   0  -8   84.49   14.80
   4   0  -8   78.39   10.50
   4   0  -8   91.19   12.40
   4   0  -8  120.09   16.20
   4   0  -8   86.49   13.40
  -4   0   8   82.89   13.30
  -4   0   8  109.99   11.60
  -4   0   8  100.49   14.90
  -4   0   8  116.79   14.00
  -4   0   8   77.19   17.30
   3   0  -8  439.76   27.50
   3   0  -8  471.95   24.80
   3   0  -8  444.36   23.90
   3   0  -8  433.16   25.00
   3   0  -8  521.25   29.00
   3   0  -8  437.36   26.40
  -3   0   8  429.46   23.70
  -3   0   8  458.75   26.00
  -3   0   8  443.66   27.00
  -3   0   8  456.75   24.50
  -3   0   8  422.06   25.60
   2   0  -8   -6.40    4.50
   2   0  -8   -3.30    4.10
   2   0  -8   -6.80    6.10
   2   0  -8   -6.50    7.20
  -2   0   8   -4.90    5.30
  -2   0   8   -5.20    5.50
  -2   0   8   -5.80    4.60
  -2   0   8   -2.00    3.80
   1   0  -8 1175.98   56.89
   1   0  -8 1050.59   54.39
   1   0  -8 1164.58   53.69
   1   0  -8 1060.99   53.39
   1   0  -8 1121.49   54.99
  -1   0   8 1109.09   53.49
  -1   0   8 1145.99   54.89
  -1   0   8 1060.29   54.39
  -1   0   8 1036.40   53.29
   0   0  -8   -2.70    4.20
   0   0  -8    2.40    4.70
   0   0  -8   11.80    7.30
   0   0  -8   -4.70    5.80
   0   0   8    8.10    4.40
   0   0   8   -2.60    5.60
   0   0   8   -2.40    3.80
  -1   0  -8  235.68   16.30
  -1   0  -8  274.77   17.20
  -1   0  -8  227.48   15.30
   1   0   8  249.78   18.20
   1   0   8  243.78   15.20
   1   0   8  277.17   15.40
  -2   0  -8 1213.58   60.09
  -2   0  -8 1280.77   59.89
  -2   0  -8 1233.68   60.69
  -2   0  -8 1225.48   61.09
   2   0   8 1170.78   59.59
   2   0   8 1306.47   61.39
   2   0   8 1219.88   59.99
  -3   0  -8  215.18   17.80
  -3   0  -8  202.78   13.90
  -3   0  -8  183.88   14.30
   3   0   8  162.78   15.30
   3   0   8  144.99   13.70
   3   0   8  178.38   13.20
   3   0   8  179.88   17.40
  -4   0  -8   39.00    6.40
  -4   0  -8   26.30   14.10
   4   0   8   34.30    7.80
   4   0   8   34.70    5.80
  -5   0  -8  393.76   23.70
  -5   0  -8  442.36   23.50
  -5   0  -8  373.36   23.90
  -5   0  -8  350.16   30.70
   5   0   8  395.06   29.10
   5   0   8  404.76   24.90
   5   0   8  390.06   22.90
   5   0   8  401.76   22.60
   5   0   8  428.96   26.90
  -6   0  -8    0.70    8.40
  -6   0  -8  -20.70   19.20
  -6   0  -8    6.70   11.00
  -6   0  -8    9.40    6.80
   6   0   8   -6.90    8.60
   6   0   8    5.70    6.10
  -7   0  -8  173.18   17.80
  -7   0  -8  145.39   28.50
  -7   0  -8  142.59   18.00
   7   0   8  154.08   19.40
   7   0   8  155.58   15.90
   7   0   8  133.49   23.40
  -8   0  -8    0.40    8.60
  -8   0  -8   12.60   20.40
  -8   0  -8   -0.40   13.90
   8   0   8    6.80    7.40
   8   0   8   19.60   12.40
   8   0   8   16.30   10.10
  -9   0  -8    2.30    9.50
  -9   0  -8    3.10   15.90
  -9   0  -8   38.50   22.80
   9   0   8    1.30   10.40
   9   0   8   19.80   13.30
   9   0   8   10.10    8.10
   8  -1  -8  -18.40   14.20
   8  -1  -8  -11.10    8.70
   8  -1  -8    6.20   13.30
  -8   1   8  -11.50    9.30
  -8   1   8   -0.50   11.50
  -8   1   8  -11.90   13.50
   7  -1  -8  245.08   23.70
   7  -1  -8  238.98   28.50
   7  -1  -8  232.18   21.30
   7  -1  -8  233.18   28.60
  -7   1   8  248.58   26.80
  -7   1   8  233.88   22.70
  -7   1   8  268.77   26.00
   6  -1  -8  177.38   20.60
   6  -1  -8  192.38   24.00
   6  -1  -8  137.99   24.00
   6  -1  -8  159.08   17.70
   6  -1  -8  169.68   14.80
  -6   1   8  163.18   17.60
  -6   1   8  171.08   22.30
  -6   1   8  160.78   21.70
   5  -1  -8    9.60    5.40
   5  -1  -8   19.40   10.90
   5  -1  -8    2.70    9.80
   5  -1  -8   19.60    5.20
   5  -1  -8    0.20    6.50
   5  -1  -8   18.20   11.70
   5  -1  -8   20.60    8.40
  -5   1   8   10.30    9.50
  -5   1   8    7.90    6.50
  -5   1   8   11.50    7.80
   4  -1  -8  794.92   42.40
   4  -1  -8  710.03   41.30
   4  -1  -8  724.53   38.70
   4  -1  -8  747.73   39.90
   4  -1  -8  735.13   37.80
   4  -1  -8  785.02   40.80
   4  -1  -8  784.22   38.60
  -4   1   8  789.42   40.20
  -4   1   8  768.02   38.50
  -4   1   8  700.23   39.60
  -4   1   8  771.42   40.40
   3  -1  -8 1158.38   56.29
   3  -1  -8 1074.29   55.59
   3  -1  -8 1169.88   54.79
   3  -1  -8 1006.70   55.09
   3  -1  -8 1214.28   57.79
   3  -1  -8 1085.49   55.19
  -3   1   8 1156.68   54.69
  -3   1   8 1181.38   55.89
  -3   1   8 1149.98   55.59
  -3   1   8 1003.30   55.09
  -3   1   8 1087.09   54.29
   2  -1  -8    4.50    6.40
   2  -1  -8   12.70    4.80
   2  -1  -8   -3.00    7.50
   2  -1  -8   13.80    7.30
   2  -1  -8    5.90    4.00
   2  -1  -8    3.10    4.90
  -2   1   8    8.30    5.70
  -2   1   8    2.70    4.60
  -2   1   8    7.30    5.70
  -2   1   8   13.10    3.80
   1  -1  -8   82.89    9.30
   1  -1  -8   92.39   10.60
   1  -1  -8   78.29   11.40
   1  -1  -8   96.79   17.10
   1  -1  -8   76.49   12.20
  -1   1   8   97.69    9.70
  -1   1   8   73.79   13.10
  -1   1   8   88.79    9.00
  -1   1   8   95.49   12.40
   0  -1  -8   50.69   10.40
   0   1   8   52.69    6.60
   1   1   8   35.20    6.80
  -2  -1  -8    7.40    7.90
   2   1   8    6.80    6.20
  -3  -1  -8  932.41   48.30
   3   1   8  993.20   49.20
   4   1   8  523.35   29.10
   4   1   8  470.25   28.50
  -5  -1  -8   28.50    9.20
  -5  -1  -8   -4.50   14.50
   5   1   8   20.20    7.80
   5   1   8   16.60   13.30
   5   1   8   39.60   10.10
  -6  -1  -8  241.98   22.50
  -6  -1  -8  195.38   26.60
   6   1   8  242.48   21.40
   6   1   8  215.48   28.60
   6   1   8  184.98   24.70
  -7  -1  -8   24.20   17.60
  -7  -1  -8   18.50    7.40
   7   1   8   11.30    9.20
   7   1   8   29.80   12.40
  -8  -1  -8   43.30    8.80
  -8  -1  -8   59.79   20.10
   8   1   8   42.70    7.40
   8   1   8   44.00    9.90
  -9  -1  -8   28.80   21.90
   9   1   8   -1.10   13.10
   9   1   8   -2.00    9.70
   9   1   8   -2.10    7.40
   8  -2  -8   -8.30    9.20
   8  -2  -8   11.90   14.30
   8  -2  -8  -16.70   14.40
  -8   2   8   -6.50    9.00
  -8   2   8   -5.10   14.00
  -8   2   8   15.60   11.70
   7  -2  -8   77.89    9.60
   7  -2  -8  116.79   26.80
   7  -2  -8   86.39   14.30
  -7   2   8   70.59   11.50
  -7   2   8   74.49   11.10
  -7   2   8   77.29   13.40
   6  -2  -8    6.20    7.60
   6  -2  -8   -3.50   11.50
   6  -2  -8    9.90    5.90
   6  -2  -8   22.20   10.50
   6  -2  -8   16.10    6.00
   6  -2  -8   14.90   10.80
  -6   2   8    3.90    9.00
  -6   2   8    2.10    7.50
   5  -2  -8   87.89   15.10
   5  -2  -8  131.19   21.80
   5  -2  -8  124.59   21.20
   5  -2  -8  109.39   13.50
   5  -2  -8  118.49   12.30
   5  -2  -8  106.39   17.60
   5  -2  -8   73.79   12.30
  -5   2   8   78.59   11.30
  -5   2   8  127.59   18.60
  -5   2   8   88.39   14.70
   4  -2  -8    5.30    5.10
   4  -2  -8   -5.00    8.90
   4  -2  -8    7.40    7.50
   4  -2  -8    3.90    8.40
   4  -2  -8   -3.30    6.80
   4  -2  -8    6.50    4.70
  -4   2   8    6.60    4.40
  -4   2   8   -3.80    5.70
  -4   2   8   -5.90    7.70
   3  -2  -8  922.01   45.40
   3  -2  -8  848.72   45.80
   3  -2  -8  854.51   44.70
   3  -2  -8  969.40   49.30
   3  -2  -8  935.91   47.10
  -3   2   8  918.51   45.10
  -3   2   8  904.51   46.70
  -3   2   8  940.31   46.70
   2  -2  -8 1382.46   72.29
   2  -2  -8 1537.45   72.59
   2  -2  -8 1658.73   75.99
   2  -2  -8 1438.06   73.19
   2  -2  -8 1525.55   73.59
  -2   2   8 1483.55   72.49
  -2   2   8 1416.76   72.19
  -2   2   8 1588.44   73.59
  -2   2   8 1534.55   73.69
   1  -2  -8  370.66   25.00
   1  -2  -8  347.67   21.30
  -1   2   8  384.96   22.00
  -1   2   8  362.86   22.30
   0  -2  -8  248.08   17.00
   0  -2  -8  271.87   17.60
   0  -2  -8  269.27   21.80
   0   2   8  266.97   17.10
   0   2   8  251.17   18.70
  -1  -2  -8  750.92   37.10
  -1  -2  -8  664.03   36.40
   1   2   8  722.73   37.50
  -2  -2  -8   85.69   12.50
   2   2   8   67.39   14.60
  -3  -2  -8  327.17   21.80
   3   2   8  364.26   23.30
  -4  -2  -8  310.87   21.40
   4   2   8  336.67   23.30
   4   2   8  411.56   24.40
  -5  -2  -8  575.64   35.20
  -5  -2  -8  506.95   31.20
  -5  -2  -8  529.05   33.50
   5   2   8  649.74   33.30
   5   2   8  595.24   33.10
  -6  -2  -8  286.77   28.10
   6   2   8  321.27   23.70
   6   2   8  328.47   24.10
   6   2   8  285.47   26.70
  -7  -2  -8  -10.50   16.80
   7   2   8   12.80    8.80
   7   2   8   19.00   11.50
  -8  -2  -8   21.20   18.60
   8   2   8   33.00   13.50
  -9  -2  -8   39.40   21.40
   9   2   8   -7.50   13.50
   9   2   8   16.00   10.00
   9   2   8   41.80   13.40
   7  -3  -8   37.20   14.10
   7  -3  -8   43.10    9.20
   7  -3  -8   35.80   14.30
  -7   3   8   35.10   13.30
  -7   3   8   39.80   10.50
  -7   3   8   38.20    9.20
   6  -3  -8    4.90   12.00
   6  -3  -8    7.70    7.50
   6  -3  -8   17.50    6.30
   6  -3  -8    8.40    7.00
   6  -3  -8   15.20   11.80
  -6   3   8    9.40   11.20
  -6   3   8    8.50    7.50
  -6   3   8    2.50    9.10
   5  -3  -8  269.07   20.10
   5  -3  -8  313.97   27.60
   5  -3  -8  266.87   18.10
   5  -3  -8  290.07   27.80
   5  -3  -8  240.48   25.80
   5  -3  -8  271.27   19.60
   5  -3  -8  276.07   22.20
  -5   3   8  291.77   23.60
  -5   3   8  269.37   20.00
   4  -3  -8   -4.20    9.80
   4  -3  -8   29.80   11.50
   4  -3  -8   10.50    5.50
   4  -3  -8   12.00    4.90
   4  -3  -8   11.30    7.80
   4  -3  -8    1.40    6.30
   4  -3  -8   16.00    9.00
  -4   3   8    1.90    6.00
  -4   3   8    3.60    9.40
  -4   3   8   11.40    7.30
   3  -3  -8  562.34   33.00
   3  -3  -8  564.54   28.40
   3  -3  -8  540.45   30.80
   3  -3  -8  471.55   28.50
   3  -3  -8  504.65   27.10
  -3   3   8  481.05   26.90
  -3   3   8  549.35   27.90
  -3   3   8  536.25   30.00
   2  -3  -8    6.80    4.70
   2  -3  -8   10.00    7.60
   2  -3  -8   17.00    4.30
  -2   3   8    6.80    6.10
  -2   3   8   -8.10    6.00
   1  -3  -8  517.95   30.40
   1  -3  -8  465.55   26.50
  -1   3   8  487.05   27.30
  -1   3   8  484.85   27.70
   0  -3  -8    9.70    7.80
   0  -3  -8   27.10    7.60
   0  -3  -8   11.40    4.80
   0   3   8    8.30    5.00
   0   3   8   12.00    5.80
  -1  -3  -8  419.06   24.00
  -1  -3  -8  435.56   27.30
  -1  -3  -8  376.76   23.30
   1   3   8  408.26   24.80
  -2  -3  -8  183.18   15.30
  -2  -3  -8  206.18   16.50
   2   3   8  181.88   17.40
  -3  -3  -8   52.29   11.70
   3   3   8   55.29    8.00
  -4  -3  -8    1.00   10.40
  -4  -3  -8  -11.40    8.90
   4   3   8  -16.20    9.80
   4   3   8   -8.10    7.10
  -5  -3  -8   -9.70    7.70
  -5  -3  -8    7.00   11.50
   5   3   8   -1.90    7.70
   5   3   8  -18.20   11.30
  -6  -3  -8  103.49   23.40
   6   3   8  101.09   18.70
   6   3   8  113.69   19.40
  -7  -3  -8  376.76   32.40
   7   3   8  375.36   27.50
   7   3   8  406.96   27.80
  -8  -3  -8   35.70   18.60
   8   3   8   38.60   13.00
   8   3   8   19.30    9.80
   8   3   8    5.60   12.30
  -9  -3  -8    1.40   20.60
   9   3   8   20.10   15.20
   9   3   8  -15.90   13.30
   7  -4  -8  244.48   23.00
   7  -4  -8  257.77   34.10
  -7   4   8  244.18   27.20
  -7   4   8  209.18   22.80
   6  -4  -8  212.98   20.60
   6  -4  -8  206.68   22.40
   6  -4  -8  236.38   28.20
   6  -4  -8  248.88   30.20
  -6   4   8  220.18   23.60
  -6   4   8  203.58   20.00
  -6   4   8  182.88   24.30
   5  -4  -8    2.50    7.60
   5  -4  -8   12.70    5.90
   5  -4  -8   19.90   11.10
   5  -4  -8   20.30    9.30
   5  -4  -8   -0.90   11.30
  -5   4   8   -1.10    7.00
  -5   4   8    1.50    8.20
   4  -4  -8  138.39   17.60
   4  -4  -8  129.09   13.20
   4  -4  -8  127.39   16.20
   4  -4  -8  158.98   16.20
  -4   4   8  155.28   18.30
  -4   4   8  116.39   15.30
   3  -4  -8  454.25   26.00
   3  -4  -8  465.65   28.00
   3  -4  -8  537.15   28.20
   3  -4  -8  517.25   31.40
   3  -4  -8  560.74   33.00
  -3   4   8  529.55   29.90
  -3   4   8  429.46   25.70
   2  -4  -8  165.28   20.30
   2  -4  -8  129.09   14.00
  -2   4   8  135.99   16.00
   1  -4  -8   61.09   16.80
   1  -4  -8   41.30    5.90
  -1   4   8   33.10    6.90
   0  -4  -8    7.50    7.50
   0  -4  -8   24.40    8.10
   0  -4  -8    8.70    4.80
   0   4   8   -3.30    5.60
   0   4   8    9.90    6.10
  -1  -4  -8  270.37   18.70
  -1  -4  -8  299.77   19.50
  -1  -4  -8  299.27   23.30
   1   4   8  280.87   18.50
   1   4   8  285.17   20.40
  -2  -4  -8   60.69   13.80
  -2  -4  -8  103.79   14.20
  -2  -4  -8   78.89   18.20
  -2  -4  -8   79.29   12.70
   2   4   8   66.99   15.20
  -3  -4  -8  100.09   13.60
  -3  -4  -8   92.89   15.20
  -3  -4  -8  109.29   15.40
   3   4   8   91.69   16.80
  -4  -4  -8   58.39   13.10
  -4  -4  -8   72.59   11.20
  -4  -4  -8   70.69   12.00
   4   4   8   44.70    8.30
  -5  -4  -8   -8.30   11.40
  -5  -4  -8    8.90    9.00
   5   4   8   -7.30    7.70
   5   4   8    1.10   12.30
   6   4   8   -3.30    8.20
   6   4   8   -0.50   11.70
   7   4   8   39.60   13.40
   7   4   8   14.80    8.90
   7   4   8    8.90   13.80
  -8  -4  -8  245.48   30.10
   8   4   8  192.78   23.40
   8   4   8  217.18   24.00
   8   4   8  168.48   30.60
  -9  -4  -8  179.38   32.50
   9   4   8  153.28   23.40
   6  -5  -8   54.79   15.00
   6  -5  -8   47.30    9.70
  -6   5   8   42.60   10.80
  -6   5   8   52.59    9.40
   5  -5  -8  127.99   18.40
   5  -5  -8  144.89   27.70
  -5   5   8  111.89   21.10
  -5   5   8  107.69   17.20
   4  -5  -8    7.90    5.50
   4  -5  -8    1.30   10.70
  -4   5   8    0.40    7.90
  -4   5   8   -7.40    6.40
   3  -5  -8  296.17   25.50
   3  -5  -8  280.17   26.10
  -3   5   8  268.37   22.10
   2  -5  -8  353.66   26.30
   2  -5  -8  289.07   20.40
  -2   5   8  297.57   24.70
   1  -5  -8    5.10    8.20
   1  -5  -8    3.00    5.50
  -1   5   8   -5.70    6.30
   0  -5  -8   78.59   12.30
   0   5   8   57.09    7.40
  -1  -5  -8   42.20    9.20
  -1  -5  -8   31.90    8.40
  -1  -5  -8   28.70    5.70
   1   5   8   23.80    6.10
   1   5   8   25.60    6.80
  -2  -5  -8  706.73   38.90
  -2  -5  -8  662.63   36.90
  -2  -5  -8  664.83   36.50
  -2  -5  -8  668.13   36.10
   2   5   8  693.83   37.10
   2   5   8  697.33   35.60
  -3  -5  -8  446.06   26.10
  -3  -5  -8  450.95   27.50
  -3  -5  -8  451.25   29.40
  -3  -5  -8  420.36   26.80
   3   5   8  458.45   27.70
  -4  -5  -8  155.38   16.30
  -4  -5  -8  152.78   17.80
  -4  -5  -8  143.59   18.00
   4   5   8  152.78   18.90
  -5  -5  -8  133.09   16.40
  -5  -5  -8  175.88   19.60
  -5  -5  -8  140.79   18.80
   6   5   8  120.99   20.70
   6   5   8  112.09   19.60
  -7  -5  -8    6.60   15.70
   7   5   8    5.80   10.90
   7   5   8    6.20   14.50
   7   5   8    3.90    8.50
  -8  -5  -8   12.70   17.20
   8   5   8  -10.90    8.80
   8   5   8    2.00   13.80
  -9  -5  -8   82.39   20.90
   9   5   8   68.29   16.90
   5  -6  -8    4.50   13.20
   5  -6  -8   -2.00    9.10
  -5   6   8   -7.00    7.90
  -5   6   8  -12.50    9.50
   4  -6  -8   -0.10   11.50
  -4   6   8   -3.50    8.30
   3  -6  -8  128.19   24.60
  -3   6   8  132.49   19.10
   2  -6  -8    5.30    9.30
  -2   6   8   -0.60    7.30
   1  -6  -8  326.27   26.00
  -1   6   8  300.07   22.40
   0   6   8   44.20    7.20
  -1  -6  -8   15.50    8.20
  -1  -6  -8    8.40    5.60
   1   6   8    3.00    6.30
  -2  -6  -8    1.70    5.50
  -2  -6  -8   16.70   10.00
  -2  -6  -8    1.20    4.80
  -2  -6  -8    3.20    9.40
  -2  -6  -8    4.60    8.10
   2   6   8   -4.30    5.80
  -3  -6  -8  376.76   26.20
  -3  -6  -8  343.77   23.60
  -3  -6  -8  321.07   20.70
  -3  -6  -8  364.76   23.20
  -3  -6  -8  317.67   24.70
   3   6   8  389.16   22.10
   3   6   8  365.96   25.00
  -4  -6  -8  935.61   51.09
  -4  -6  -8  962.70   50.39
  -4  -6  -8 1008.50   52.59
  -4  -6  -8  961.90   51.39
   4   6   8 1050.99   51.49
  -5  -6  -8  260.77   21.50
   5   6   8  293.87   23.60
   6   6   8  288.97   24.20
   6   6   8  242.08   24.40
   7   6   8  390.76   29.20
   7   6   8  332.57   33.60
   7   6   8  368.96   27.70
  -8  -6  -8   18.50   18.00
   8   6   8   18.00   15.80
  -9  -6  -8   47.80   19.60
   9   6   8   61.59   16.10
   4  -7  -8   15.70   13.00
  -4   7   8    2.00    9.40
   3  -7  -8   21.90   11.80
  -3   7   8   20.00    8.50
   2  -7  -8  584.54   38.90
   2  -7  -8  626.64   44.20
  -2   7   8  578.94   34.80
   1  -7  -8  362.16   28.50
  -1   7   8  350.46   25.20
   0  -7  -8   32.10    9.70
   0   7   8   19.90    7.40
  -1  -7  -8  210.38   22.00
   1   7   8  167.28   20.90
  -2  -7  -8  183.18   20.80
  -2  -7  -8  131.09   15.50
  -2  -7  -8  162.18   17.40
   2   7   8  169.28   17.00
  -3  -7  -8  103.29   17.20
  -3  -7  -8  125.29   19.50
   3   7   8  119.59   15.40
  -4  -7  -8   -2.80    8.70
  -4  -7  -8   -3.80   12.00
  -5  -7  -8    8.80    9.70
   6   7   8   -5.40   11.70
   7   7   8   21.20   13.80
   7   7   8   21.40   10.60
   8   7   8  259.87   27.80
   8   7   8  229.58   35.90
  -9  -7  -8  216.58   33.80
   9   7   8  215.48   28.10
   3  -8  -8  190.28   29.20
  -3   8   8  167.98   22.90
   2  -8  -8   19.00   11.70
  -2   8   8   12.80    8.80
   1  -8  -8  167.98   25.40
  -1   8   8  151.08   20.80
   0  -8  -8  448.26   31.40
   0   8   8  404.86   28.40
  -1  -8  -8  194.48   23.30
   1   8   8  165.48   19.60
  -2  -8  -8  456.55   44.60
  -2  -8  -8  385.36   27.30
   2   8   8  459.25   27.20
  -3  -8  -8  479.55   30.60
  -3  -8  -8  417.16   29.00
  -4  -8  -8   30.60    9.70
  -4  -8  -8   37.20   22.20
  -5  -8  -8    5.10    9.50
  -6  -8  -8   42.60   11.30
   6   8   8   61.89   18.10
  -7  -8  -8   13.30   11.00
   7   8   8    7.70   13.80
   8   8   8   32.70   16.40
   8   8   8    7.70   15.30
   2  -9  -8   35.90   13.40
  -2   9   8   25.40    9.70
   1  -9  -8   -6.80   11.40
  -1   9   8   -7.60    8.70
   0  -9  -8  201.88   26.30
   0   9   8  191.18   22.00
  -1  -9  -8  151.68   23.40
   1   9   8  109.29   19.70
  -2  -9  -8    5.40   10.10
   2   9   8   -2.40    7.80
  -3  -9  -8  161.48   21.60
  -3  -9  -8  202.08   26.90
  -4  -9  -8  409.66   30.70
  -5  -9  -8   21.50   10.40
  -6  -9  -8   21.00   10.60
  -7  -9  -8    9.20   11.10
   0 -10  -8   -5.40   12.00
   0  10   8   -1.50    9.20
  -1 -10  -8   -2.50   11.40
   1  10   8  -12.30    8.70
  -2 -10  -8   -4.10   10.90
  -3 -10  -8   33.50   11.40
  -4 -10  -8   -7.90   10.50
  -6 -10  -8   -6.20   12.90
   5   9  -9  213.78   22.50
   5   9  -9  221.08   30.80
  -5  -9   9  218.38   33.50
  -5  -9   9  191.08   24.60
  -5  -9   9  141.19   36.50
   4   9  -9   19.70   14.80
   4   9  -9   24.70    9.90
  -4  -9   9    6.10   10.40
  -4  -9   9   -4.80   19.70
  -4  -9   9   26.40   16.40
  -4  -9   9   18.00   11.10
  -3  -9   9   67.79   11.30
  -3  -9   9   62.49   19.70
  -2  -9   9   27.60   10.60
  -2  -9   9   35.10   16.70
   1   9  -9   -7.90    9.60
   1   9  -9   -3.20   14.70
  -1  -9   9   30.10   10.60
  -1  -9   9   36.60   15.40
   0   9  -9  153.48   29.80
   0  -9   9  194.68   32.60
   0  -9   9  172.58   22.30
  -1   9  -9   77.89   18.60
   1  -9   9  127.09   21.70
   1  -9   9   69.29   16.30
   6   8  -9   16.00    9.70
   6   8  -9   20.60   20.10
   6   8  -9   17.40   14.70
  -6  -8   9   26.70   15.20
  -6  -8   9   21.80   23.60
  -6  -8   9   19.50   10.80
   5   8  -9   49.00   10.00
   5   8  -9   50.89   14.00
  -5  -8   9   60.29   10.70
  -5  -8   9   42.30   21.90
  -5  -8   9   56.79   15.20
   4   8  -9  470.25   36.40
   4   8  -9  443.56   29.20
  -4  -8   9  398.86   38.30
  -4  -8   9  473.15   36.80
  -4  -8   9  381.16   30.90
  -4  -8   9  450.45   30.10
   3   8  -9  256.67   23.20
  -3  -8   9  267.57   31.70
  -3  -8   9  230.08   23.60
   2   8  -9   -2.40    7.90
  -2  -8   9   15.50   15.10
  -2  -8   9    1.00    9.60
   1   8  -9   15.60    8.70
   1   8  -9   41.10   13.70
   1   8  -9   21.40    8.50
  -1  -8   9   46.60   18.70
  -1  -8   9   33.20    9.80
   0   8  -9   42.70    8.70
   0   8  -9   52.79   13.50
   0  -8   9   83.49   20.50
   0  -8   9   51.79   10.00
  -1   8  -9  141.69   19.40
   1  -8   9  185.38   21.70
   1  -8   9  213.98   31.60
  -2   8  -9  402.96   36.70
  -2   8  -9  297.27   25.20
   2  -8   9  325.07   26.90
   2  -8   9  360.86   35.20
  -3   8  -9   70.59   17.50
   3  -8   9   51.79   11.00
   7   7  -9    5.60   18.10
   7   7  -9   -0.50    9.70
   7   7  -9   -8.90   15.00
  -7  -7   9   34.60   24.20
  -7  -7   9  -15.20   10.40
  -7  -7   9   -5.50   15.00
   6   7  -9  -16.70   19.50
   6   7  -9    3.90    9.00
   6   7  -9  -16.20   13.30
  -6  -7   9   -7.40   21.80
  -6  -7   9    4.00    9.70
  -6  -7   9   20.10   13.40
  -6  -7   9   -9.90   13.90
   5   7  -9   63.39    9.40
   5   7  -9   65.89   13.60
  -5  -7   9  116.19   18.90
  -5  -7   9   60.49   12.70
  -5  -7   9   79.69   22.40
   4   7  -9  251.57   29.20
   4   7  -9  265.07   21.50
  -4  -7   9  258.57   34.50
  -4  -7   9  202.08   24.50
  -4  -7   9  239.38   22.40
   3   7  -9  110.79   18.30
  -3  -7   9   73.89   14.00
  -3  -7   9   53.09    9.90
   2   7  -9   14.30   11.40
   2   7  -9   26.10   15.20
  -2  -7   9    4.10   10.80
   1   7  -9    1.10    8.10
   1   7  -9   -9.20    7.50
   1   7  -9    2.70   12.20
  -1  -7   9   24.70   12.70
  -1  -7   9    9.10    8.70
   0   7  -9   18.30    7.40
   0   7  -9    8.90    8.50
   0   7  -9   -1.40   11.80
   0   7  -9   34.50   12.20
   0  -7   9   30.70    8.60
   0  -7   9   41.00   13.40
  -1   7  -9  161.78   27.90
  -1   7  -9   94.09   17.20
   1  -7   9  132.79   19.30
   1  -7   9  145.39   26.80
  -2   7  -9  364.36   26.00
  -2   7  -9  434.96   45.80
  -2   7  -9  318.57   34.20
   2  -7   9  396.26   27.10
   2  -7   9  449.95   34.60
  -3   7  -9   53.39   15.20
  -3   7  -9   22.70    9.00
   3  -7   9   25.90    9.60
   3  -7   9   43.00   15.30
  -4   7  -9   33.30   10.20
  -4   7  -9   56.49   17.70
   4  -7   9   39.30   10.30
   8   6  -9  157.88   22.80
   8   6  -9  203.78   29.50
  -8  -6   9  176.18   24.30
  -8  -6   9  143.39   31.70
   7   6  -9  -20.10   14.30
   7   6  -9  -17.50    9.00
   7   6  -9   -3.70   18.10
  -7  -6   9   22.20   23.00
  -7  -6   9   -7.30   14.10
  -7  -6   9  -10.70    9.80
   6   6  -9   -6.60    8.40
   6   6  -9  -19.30   12.80
  -6  -6   9   -8.70   20.80
  -6  -6   9   -3.20   20.00
  -6  -6   9    8.40   11.40
  -6  -6   9  -12.10    9.10
   5   6  -9   47.50   12.80
   5   6  -9   48.70    8.50
   5   6  -9   42.70   12.60
  -5  -6   9   46.20    9.20
  -5  -6   9   43.20   12.80
  -5  -6   9   47.60   11.40
   4   6  -9   37.60   10.30
   4   6  -9   40.40   10.60
  -4  -6   9   30.50    9.50
  -4  -6   9   45.70   11.00
  -4  -6   9   63.79   12.80
   3   6  -9    4.90    9.90
   3   6  -9   18.60    7.70
  -3  -6   9   25.50   12.10
  -3  -6   9   -2.80   10.30
  -3  -6   9   12.00    8.30
  -3  -6   9    1.80    9.20
   2   6  -9   -7.70    9.90
  -2  -6   9  -16.90   10.00
  -2  -6   9    4.30    9.60
  -2  -6   9   26.50   11.70
  -2  -6   9   10.40    8.40
   1   6  -9   66.39   12.40
   1   6  -9   33.10   10.70
   1   6  -9   44.30    7.90
  -1  -6   9   57.79   11.40
  -1  -6   9   21.30   10.90
   0   6  -9  203.08   25.10
   0   6  -9  231.28   16.30
   0   6  -9  292.07   26.00
   0   6  -9  244.18   19.30
   0  -6   9  277.87   22.10
   0  -6   9  291.97   26.40
  -1   6  -9   11.10   10.10
  -1   6  -9   -8.30   11.30
  -1   6  -9   16.70    7.30
  -1   6  -9   25.40   11.90
   1  -6   9   24.70    8.20
   1  -6   9   29.10   12.10
  -2   6  -9   -0.60    7.70
  -2   6  -9   18.60   16.10
  -2   6  -9  -18.00   11.70
   2  -6   9   17.10   12.60
   2  -6   9    6.30    8.20
  -3   6  -9    3.80    8.10
  -3   6  -9   24.10   13.90
   3  -6   9    6.30    8.40
   3  -6   9   16.00   13.50
  -4   6  -9  189.98   21.30
  -4   6  -9  155.58   35.20
   4  -6   9  195.18   21.60
   4  -6   9  250.87   32.00
  -5   6  -9   17.90    9.80
  -5   6  -9   19.90   17.50
  -5   6  -9    0.50   23.00
   5  -6   9    6.30    9.70
   5  -6   9    1.30   15.60
   8   5  -9   -1.70   17.20
   8   5  -9  -20.30    9.50
  -8  -5   9  -22.50   14.50
  -8  -5   9   -8.00   10.30
  -8  -5   9   51.99   28.20
   7   5  -9  127.59   26.70
   7   5  -9  116.59   19.60
   7   5  -9   85.99   15.60
  -7  -5   9   87.59   11.20
  -7  -5   9   84.89   17.20
   6   5  -9    1.90    9.40
   6   5  -9   -8.70    8.10
   6   5  -9   11.50   12.10
  -6  -5   9   -9.20    8.50
  -6  -5   9   22.80   11.10
  -6  -5   9   -8.70   19.50
  -6  -5   9  -10.00   12.60
   5   5  -9   40.60   14.60
   5   5  -9   29.10    8.10
   5   5  -9   17.20   11.70
   5   5  -9   28.50   10.20
  -5  -5   9   38.30   10.30
  -5  -5   9   25.80   18.70
  -5  -5   9   30.30   12.10
  -5  -5   9   29.20    8.40
   4   5  -9  210.28   22.00
   4   5  -9  205.88   23.30
   4   5  -9  243.68   24.30
   4   5  -9  239.08   19.00
  -4  -5   9  220.58   21.00
  -4  -5   9  206.88   23.00
  -4  -5   9  266.57   25.20
  -4  -5   9  187.08   20.50
   3   5  -9   61.39   13.20
   3   5  -9   52.79    7.70
   3   5  -9   64.29   10.10
  -3  -5   9   62.19   10.80
  -3  -5   9   64.99    9.80
  -3  -5   9   62.59    9.30
   2   5  -9 1118.59   57.19
   2   5  -9 1106.19   59.19
   2   5  -9 1237.18   56.89
  -2  -5   9 1192.38   57.59
  -2  -5   9 1015.00   58.99
  -2  -5   9 1249.07   59.29
  -2  -5   9 1187.48   59.99
  -2  -5   9 1103.69   57.19
   1   5  -9   67.89   13.50
   1   5  -9   72.89   11.20
   1   5  -9   82.79   12.90
   1   5  -9   71.39    8.10
  -1  -5   9  101.39   15.90
  -1  -5   9  115.99   23.00
  -1  -5   9   55.09    7.90
  -1  -5   9   58.89   11.00
   0   5  -9  454.85   33.40
   0   5  -9  518.55   26.90
   0   5  -9  491.45   29.00
   0   5  -9  462.15   34.70
   0   5  -9  550.44   33.00
   0  -5   9  543.15   32.90
   0  -5   9  560.14   33.50
   0  -5   9  547.25   28.90
   0  -5   9  474.05   32.00
  -1   5  -9  708.23   39.80
  -1   5  -9  616.54   35.30
  -1   5  -9  588.84   39.50
  -1   5  -9  652.03   33.30
  -1   5  -9  660.13   34.90
   1  -5   9  693.33   35.30
   1  -5   9  714.23   38.90
   1  -5   9  586.84   38.60
  -2   5  -9  254.07   25.50
  -2   5  -9  273.87   26.80
  -2   5  -9  264.67   22.50
  -2   5  -9  362.66   29.60
  -2   5  -9  327.77   21.70
   2  -5   9  341.67   22.10
   2  -5   9  348.87   28.20
  -3   5  -9   10.60    7.70
  -3   5  -9   -7.60   18.90
  -3   5  -9   28.10   15.30
  -3   5  -9  -12.10   11.90
  -3   5  -9  -17.80    8.90
   3  -5   9   18.60   12.40
  -4   5  -9   74.29   15.50
  -4   5  -9   68.49   22.20
  -4   5  -9   58.09    9.30
   4  -5   9   65.69   14.40
   4  -5   9   74.29   14.40
   4  -5   9   60.59    9.30
  -5   5  -9   -5.20   22.20
  -5   5  -9    7.80    9.30
  -5   5  -9   19.90   16.50
   5  -5   9   13.40    9.20
   5  -5   9    8.70   14.40
  -6   5  -9    9.20   23.70
  -6   5  -9   -4.30   17.10
  -6   5  -9    5.00   10.10
   6  -5   9   -1.80   16.30
   6  -5   9   19.30   12.10
   6  -5   9    1.60    9.40
   8   4  -9   51.19   12.20
   8   4  -9   24.20   15.30
   8   4  -9   40.00   10.40
  -8  -4   9   36.30   10.90
  -8  -4   9   30.70   15.00
   7   4  -9   87.89   10.70
  -7  -4   9   82.89   14.40
  -7  -4   9   78.49   10.90
   6   4  -9   24.30    9.70
   6   4  -9  -13.70    8.10
   6   4  -9    6.60    9.60
  -6  -4   9   18.20   21.70
  -6  -4   9   -4.50   12.00
  -6  -4   9   -4.70    8.10
  -6  -4   9   17.30    9.90
   5   4  -9   91.29   19.70
   5   4  -9   74.79   19.80
   5   4  -9   55.49    8.50
   5   4  -9   52.49   11.80
  -5  -4   9   64.49   12.20
  -5  -4   9   54.49    9.20
   4   4  -9  156.28   15.30
   4   4  -9  124.19   21.40
   4   4  -9  166.68   21.80
   4   4  -9  163.98   17.30
   4   4  -9  173.68   20.40
  -4  -4   9  156.68   19.70
  -4  -4   9  190.18   22.70
  -4  -4   9  126.59   18.20
  -4  -4   9  174.28   17.00
   3   4  -9  349.17   35.60
   3   4  -9  364.86   23.20
   3   4  -9  415.66   28.60
   3   4  -9  417.06   28.50
   3   4  -9  422.76   25.20
  -3  -4   9  366.86   27.10
  -3  -4   9  404.76   28.50
  -3  -4   9  386.56   25.70
  -3  -4   9  349.37   23.00
  -3  -4   9  415.26   24.30
   2   4  -9   -9.90    6.80
  -2  -4   9  -12.30    5.80
  -2  -4   9    0.40    7.00
  -2  -4   9   -6.40    8.30
  -2  -4   9  -16.40   10.00
   1   4  -9   38.00    6.50
   1   4  -9   31.10    9.40
   1   4  -9   41.70   11.60
  -1  -4   9   32.40    6.40
  -1  -4   9   30.50    9.10
  -1  -4   9   45.00    8.90
   0   4  -9    0.60    7.00
   0   4  -9    5.10    9.40
   0   4  -9   -0.80    5.90
   0  -4   9    9.50    8.90
   0  -4   9    5.50    8.40
   0  -4   9    7.70    6.30
  -1   4  -9   27.50   10.00
  -1   4  -9  -12.00    9.60
  -1   4  -9    2.60   11.40
   1  -4   9   10.00    6.30
   1  -4   9   23.40    9.90
  -2   4  -9  847.82   43.90
  -2   4  -9  829.52   44.40
  -2   4  -9  854.71   43.20
  -2   4  -9  920.71   48.10
  -2   4  -9  859.61   54.29
  -2   4  -9  838.92   47.20
   2  -4   9  874.71   44.00
   2  -4   9  911.11   46.90
   2  -4   9  901.61   47.20
   2  -4   9  766.12   47.20
  -3   4  -9  184.88   17.70
  -3   4  -9  166.78   29.60
  -3   4  -9  159.18   24.70
  -3   4  -9  163.58   18.20
  -3   4  -9  188.98   15.40
   3  -4   9  211.08   17.60
  -4   4  -9  143.19   28.30
  -4   4  -9  265.47   29.90
  -4   4  -9  197.28   31.70
  -4   4  -9  209.28   19.70
   4  -4   9  246.48   27.10
   4  -4   9  214.18   18.30
   4  -4   9  212.58   19.50
  -5   4  -9    1.30   20.50
  -5   4  -9   39.50   15.40
  -5   4  -9   32.70    9.10
   5  -4   9   23.10   13.20
   5  -4   9   23.90   12.30
  -6   4  -9   29.20    9.80
  -6   4  -9   46.70   16.40
  -6   4  -9   49.10   22.50
   6  -4   9   82.09   17.50
   6  -4   9   43.30    9.20
   6  -4   9   39.20   15.10
   8   3  -9   96.29   24.60
   8   3  -9   64.89   10.90
   8   3  -9   46.70   15.20
  -8  -3   9   63.69   11.00
   7   3  -9   19.00   12.90
   7   3  -9    8.90   16.00
   7   3  -9   33.60   10.80
   7   3  -9  -10.20   13.80
  -7  -3   9    1.20   13.20
  -7  -3   9   -1.30    9.10
   6   3  -9   82.29   14.00
   6   3  -9  101.69   17.60
  -6  -3   9  121.79   17.60
  -6  -3   9   99.59   13.50
   5   3  -9   12.90    9.60
   5   3  -9   26.30    6.00
   5   3  -9   10.40    7.30
   5   3  -9   -1.20   11.00
   5   3  -9   28.40    8.90
  -5  -3   9   14.20    7.30
  -5  -3   9   29.90    8.70
  -5  -3   9   16.40   10.80
   4   3  -9  558.94   34.10
   4   3  -9  548.85   36.20
   4   3  -9  520.15   29.40
   4   3  -9  460.95   33.70
   4   3  -9  580.94   34.00
  -4  -3   9  543.55   31.30
  -4  -3   9  582.44   34.10
  -4  -3   9  565.24   30.40
  -4  -3   9  521.45   32.10
  -4  -3   9  581.84   31.50
   3   3  -9  855.71   44.30
   3   3  -9  865.21   46.40
   3   3  -9  927.01   48.30
   3   3  -9  935.71   47.30
   3   3  -9  932.31   44.90
  -3  -3   9  931.61   47.10
  -3  -3   9  796.12   44.10
  -3  -3   9  877.61   45.80
  -3  -3   9  914.91   44.80
  -3  -3   9  791.22   46.00
   2   3  -9   71.09    7.90
   2   3  -9   73.29   12.50
  -2  -3   9   53.69    6.70
  -2  -3   9   81.39   13.90
  -2  -3   9   91.49   15.90
  -2  -3   9   58.49    9.20
  -2  -3   9   79.09   10.80
  -1  -3   9    3.30    6.30
  -1  -3   9  -10.70    5.20
  -1  -3   9   -2.90    7.30
  -1  -3   9    1.80    8.90
   0   3  -9  222.88   16.50
   0   3  -9  194.28   20.90
   0   3  -9  244.68   22.00
   0   3  -9  237.98   17.10
   0  -3   9  254.17   17.30
   0  -3   9  199.88   16.10
   0  -3   9  269.57   22.20
   0  -3   9  253.37   21.50
  -1   3  -9  213.58   20.20
  -1   3  -9  174.28   14.10
  -1   3  -9  137.09   15.60
  -1   3  -9  177.58   15.20
   1  -3   9  193.68   19.20
   1  -3   9  179.38   20.40
   1  -3   9  190.68   15.10
   1  -3   9  124.89   14.80
  -2   3  -9   34.90   10.30
  -2   3  -9   22.10    7.10
  -2   3  -9    2.30   15.60
  -2   3  -9   17.40    7.30
  -2   3  -9   -1.50    9.60
   2  -3   9   22.20    6.40
   2  -3   9   34.60    9.10
   2  -3   9   18.00   10.90
  -3   3  -9   58.49   12.20
  -3   3  -9   93.79   14.30
  -3   3  -9   31.00    8.00
  -3   3  -9   71.29   18.40
  -3   3  -9   41.60   11.30
   3  -3   9   81.49   14.10
   3  -3   9   55.59   10.30
  -4   3  -9  213.08   27.80
  -4   3  -9  223.98   18.70
  -4   3  -9  286.07   20.30
  -4   3  -9  225.28   21.70
  -4   3  -9  288.07   30.20
   4  -3   9  325.27   25.50
   4  -3   9  291.07   20.10
   4  -3   9  304.87   26.30
   4  -3   9  245.48   20.20
  -5   3  -9    9.00    8.20
  -5   3  -9  -12.00    9.00
  -5   3  -9    4.10   18.70
  -5   3  -9   14.80   13.90
  -5   3  -9   -7.90   19.70
   5  -3   9    6.80   20.50
   5  -3   9   11.50   11.60
   5  -3   9    7.10    7.70
   5  -3   9    2.00   10.00
  -6   3  -9  256.67   33.30
  -6   3  -9  267.37   35.20
  -6   3  -9  196.38   25.00
  -6   3  -9  218.18   23.00
   6  -3   9  302.97   22.20
   6  -3   9  270.37   29.40
   6  -3   9  308.57   28.50
   6  -3   9  257.97   22.10
  -7   3  -9   10.20   15.90
  -7   3  -9   11.30   10.00
  -7   3  -9   22.30   22.00
   7  -3   9   27.60   12.50
   7  -3   9   17.60   12.60
   7  -3   9    4.40    9.20
   8   2  -9   15.80   16.20
   8   2  -9    1.50   12.10
   8   2  -9  -16.40   14.50
  -8  -2   9   -8.70   14.50
  -8  -2   9   -0.30    9.90
   7   2  -9  162.48   39.70
   7   2  -9  136.09   20.20
   7   2  -9  130.59   26.80
   7   2  -9  194.78   25.10
  -7  -2   9  144.09   26.80
  -7  -2   9  144.39   20.80
   6   2  -9   -0.30   17.90
   6   2  -9  -17.80   16.00
   6   2  -9   13.80    9.60
  -6  -2   9   -9.50   11.50
   5   2  -9   40.30    7.80
   5   2  -9   39.40   11.90
   5   2  -9   34.60   11.60
   5   2  -9   74.39   20.60
  -5  -2   9   52.09    9.20
  -5  -2   9   44.00    7.80
  -5  -2   9   34.20   11.00
   4   2  -9   46.20    8.60
   4   2  -9   31.70    9.60
   4   2  -9   40.80    5.80
   4   2  -9   26.00   10.20
  -4  -2   9   40.50   10.30
  -4  -2   9   32.40    6.00
  -4  -2   9   40.50    7.10
  -4  -2   9   36.80    8.20
   3   2  -9   60.19   10.50
   3   2  -9   91.39   13.50
   3   2  -9   52.49   13.00
   3   2  -9   82.19   11.90
   3   2  -9   82.39   16.30
  -3  -2   9  105.19   18.60
  -3  -2   9   85.99   15.80
  -3  -2   9   84.99   11.50
   2   2  -9 1350.46   70.39
   2   2  -9 1468.65   72.19
   2   2  -9 1458.85   69.29
   2   2  -9 1558.24   69.99
   2   2  -9 1373.76   69.09
   2   2  -9 1463.55   71.09
  -2  -2   9 1418.96   69.19
  -2  -2   9 1325.37   70.29
  -2  -2   9 1415.76   70.59
  -2  -2   9 1490.05   70.29
  -2  -2   9 1332.87   68.89
   1   2  -9  184.08   15.10
   1   2  -9  144.19   14.00
   1   2  -9  125.29   16.80
  -1  -2   9  151.88   13.00
  -1  -2   9  163.18   19.60
  -1  -2   9  115.39   16.40
  -1  -2   9  175.18   16.60
  -1  -2   9  162.68   14.50
   0   2  -9  433.06   24.40
   0   2  -9  402.96   23.20
   0   2  -9  381.06   25.70
   0   2  -9  429.16   27.90
   0  -2   9  436.36   23.70
   0  -2   9  394.96   23.00
   0  -2   9  451.35   26.40
   0  -2   9  371.96   25.50
   0  -2   9  441.76   26.80
  -1   2  -9  442.26   29.70
  -1   2  -9  500.65   27.30
  -1   2  -9  542.85   27.40
  -1   2  -9  521.55   30.20
  -1   2  -9  513.95   27.30
   1  -2   9  531.45   30.40
   1  -2   9  518.05   26.90
   1  -2   9  471.85   27.00
   1  -2   9  448.86   29.40
   1  -2   9  524.85   29.40
  -2   2  -9  265.97   17.90
  -2   2  -9  259.77   17.30
  -2   2  -9  309.87   23.30
  -2   2  -9  212.08   18.50
  -2   2  -9  205.48   22.00
   2  -2   9  271.77   22.60
   2  -2   9  273.57   21.40
   2  -2   9  302.97   21.80
   2  -2   9  206.18   17.80
   2  -2   9  269.97   17.50
  -3   2  -9  278.27   23.30
  -3   2  -9  215.68   25.90
  -3   2  -9  172.78   22.90
  -3   2  -9  232.48   20.50
  -3   2  -9  201.18   22.10
  -3   2  -9  231.58   16.60
   3  -2   9  255.57   21.90
   3  -2   9  234.28   27.30
   3  -2   9  238.88   17.30
   3  -2   9  195.48   17.60
   3  -2   9  284.17   22.70
  -4   2  -9   17.70    6.80
  -4   2  -9    3.30    7.70
  -4   2  -9   34.70   13.60
  -4   2  -9   17.30    9.00
   4  -2   9   20.40    6.50
   4  -2   9    7.00    9.90
   4  -2   9    5.70    9.40
  -5   2  -9  129.49   17.20
  -5   2  -9  147.09   26.90
  -5   2  -9  117.29   19.70
  -5   2  -9  104.39   16.20
   5  -2   9  134.59   23.50
   5  -2   9  131.99   22.30
   5  -2   9  119.59   16.30
   5  -2   9  123.09   23.50
  -6   2  -9   18.40    8.40
  -6   2  -9    5.20    9.50
  -6   2  -9   27.10   19.70
  -6   2  -9   20.10   14.10
  -6   2  -9    1.80   19.90
   6  -2   9   20.80   11.10
   6  -2   9   26.20   12.20
   6  -2   9   23.20    7.70
  -7   2  -9    5.20   15.00
  -7   2  -9   37.00   21.80
  -7   2  -9    3.50    9.10
   7  -2   9   14.40   11.80
   7  -2   9    5.80    8.60
   8   1  -9  151.68   28.20
   8   1  -9  130.49   21.20
   8   1  -9  101.79   16.90
  -8  -1   9   91.49   16.20
  -8  -1   9  143.29   21.00
   7   1  -9   93.29   15.10
   7   1  -9  113.29   19.10
  -7  -1   9  129.69   19.50
  -7  -1   9  148.79   26.20
   6   1  -9    9.20   10.10
   6   1  -9   12.00    9.90
   6   1  -9   10.60    6.20
   6   1  -9  -16.40    7.70
  -6  -1   9  -14.00   11.10
  -6  -1   9   -9.90   10.30
   5   1  -9   -3.20    7.10
   5   1  -9   18.70    8.80
   5   1  -9  -15.00   11.20
   5   1  -9   12.10    9.40
   5   1  -9   17.10    5.50
  -5  -1   9    2.60    7.10
  -5  -1   9   -0.10   19.40
   4   1  -9  113.89   20.70
   4   1  -9  143.49   12.40
   4   1  -9   97.09   13.20
   4   1  -9  146.99   16.90
   4   1  -9  159.98   20.30
  -4  -1   9  136.39   14.80
  -4  -1   9  112.89   16.20
  -4  -1   9  117.89   15.10
  -4  -1   9  136.79   19.60
  -4  -1   9  131.59   16.80
   3   1  -9  -13.40    8.90
   3   1  -9   -3.60    8.10
   3   1  -9   -6.50    6.20
   3   1  -9    1.00    4.70
   3   1  -9    0.90    7.20
  -3  -1   9   -9.20    6.40
  -3  -1   9    1.20    8.80
  -3  -1   9    3.20    7.00
  -3  -1   9    5.00    4.80
  -3  -1   9    3.60    5.90
   2   1  -9   81.79   17.10
   2   1  -9   69.49   14.70
   2   1  -9   90.89   13.10
   2   1  -9   83.29   11.30
   2   1  -9   99.39   19.50
  -2  -1   9   80.29   15.60
  -2  -1   9  103.59   17.20
  -2  -1   9  105.79   12.30
  -2  -1   9   90.69   10.80
   1   1  -9  298.17   18.10
   1   1  -9  265.97   17.10
   1   1  -9  250.47   19.50
  -1  -1   9  254.97   16.50
  -1  -1   9  280.97   17.50
  -1  -1   9  304.17   20.40
  -1  -1   9  231.58   19.40
   0   1  -9   89.99   11.00
   0   1  -9   71.09    8.80
   0   1  -9   64.79   10.20
   0  -1   9  105.99   19.40
   0  -1   9   92.19   15.00
   0  -1   9   66.59    8.20
   0  -1   9   75.09   10.50
  -1   1  -9   23.40    8.00
  -1   1  -9    6.90    5.50
  -1   1  -9    2.90    6.50
  -1   1  -9   11.10    8.10
   1  -1   9    0.10    6.90
   1  -1   9   -1.30    4.80
   1  -1   9   16.30    5.40
  -2   1  -9  693.33   37.60
  -2   1  -9  696.63   35.80
  -2   1  -9  729.73   37.90
  -2   1  -9  634.74   37.60
  -2   1  -9  737.63   35.50
   2  -1   9  723.73   37.90
   2  -1   9  632.94   37.30
   2  -1   9  664.33   35.40
   2  -1   9  694.33   35.10
  -3   1  -9   10.10    9.00
  -3   1  -9    9.50    7.70
  -3   1  -9    0.50    5.80
  -3   1  -9  -19.50   13.90
   3  -1   9   -4.60    7.90
   3  -1   9    2.30    5.30
  -4   1  -9  -11.80    7.10
  -4   1  -9    5.50    8.60
   4  -1   9   20.30   13.40
   4  -1   9    6.50    5.80
   4  -1   9   -2.40    9.50
   4  -1   9    8.90    8.30
  -5   1  -9   46.60    7.70
  -5   1  -9   57.69   12.60
  -5   1  -9   38.20   17.60
  -5   1  -9   24.80    8.40
  -5   1  -9   57.59   11.40
   5  -1   9   47.10    7.40
  -6   1  -9    0.60   12.30
  -6   1  -9   16.60    7.90
  -6   1  -9   -0.40    8.60
  -6   1  -9   23.30   12.90
  -6   1  -9   15.60   19.00
   6  -1   9    8.60    7.10
   6  -1   9    2.50   10.20
   6  -1   9   10.00   12.10
  -7   1  -9  399.36   35.50
  -7   1  -9  345.27   36.20
  -7   1  -9  448.96   38.30
  -7   1  -9  353.56   27.60
   7  -1   9  445.26   28.00
   7  -1   9  446.26   32.10
   7  -1   9  400.96   26.10
  -8   1  -9    5.20    9.60
  -8   1  -9   38.40   22.60
   8  -1   9   12.70    8.50
   8  -1   9   10.50   11.80
   8  -1   9   24.90   13.70
   8   0  -9  -22.30   15.00
   8   0  -9  -10.80    9.60
   8   0  -9    1.00   13.30
  -8   0   9    3.20   11.60
  -8   0   9  -13.70   14.70
  -8   0   9  -14.50    9.70
   7   0  -9  187.78   29.60
   7   0  -9  244.18   28.70
   7   0  -9  201.38   21.60
  -7   0   9  234.88   25.20
  -7   0   9  208.38   27.70
  -7   0   9  226.78   21.50
   6   0  -9  348.47   29.60
   6   0  -9  341.17   24.20
   6   0  -9  322.87   22.00
   6   0  -9  375.56   30.20
  -6   0   9  388.36   26.60
  -6   0   9  341.87   28.80
  -6   0   9  350.16   24.00
   5   0  -9   42.30   15.40
   5   0  -9   11.90    5.80
   5   0  -9   25.70   11.80
   5   0  -9   14.70   11.30
   5   0  -9   19.70    7.40
  -5   0   9   10.10   10.10
  -5   0   9   17.60    7.30
   4   0  -9  260.97   22.80
   4   0  -9  271.87   19.60
   4   0  -9  296.97   21.70
   4   0  -9  248.68   18.90
   4   0  -9  312.57   24.70
   4   0  -9  277.07   17.70
  -4   0   9  288.17   19.40
  -4   0   9  272.27   20.40
  -4   0   9  293.07   22.80
  -4   0   9  265.67   20.40
   3   0  -9  146.89   19.60
   3   0  -9  165.28   13.00
   3   0  -9  205.48   20.80
   3   0  -9  162.58   15.00
   3   0  -9  162.58   16.90
  -3   0   9  168.38   12.90
  -3   0   9  165.78   14.50
  -3   0   9  180.38   17.20
  -3   0   9  143.69   15.90
   2   0  -9   81.49   13.10
   2   0  -9   94.19   11.10
   2   0  -9   82.39   14.70
   2   0  -9   92.19   10.40
   2   0  -9  113.89   18.90
  -2   0   9  103.19   15.30
  -2   0   9   96.19   17.00
  -2   0   9   71.39   14.10
  -2   0   9   97.19   10.80
  -2   0   9   94.49   12.20
   1   0  -9  512.65   29.90
   1   0  -9  592.94   33.60
   1   0  -9  514.45   28.00
   1   0  -9  582.54   28.70
  -1   0   9  514.25   27.70
  -1   0   9  474.65   29.30
  -1   0   9  585.74   30.60
  -1   0   9  539.45   28.20
   0   0  -9   29.10    5.80
   0   0   9   32.70    5.30
   0   0   9   26.80    7.30
  -1   0  -9  286.67   18.30
  -1   0  -9  357.36   20.60
  -1   0  -9  262.77   20.70
  -1   0  -9  320.37   23.10
   1   0   9  285.97   18.00
   1   0   9  339.17   18.40
   1   0   9  324.77   22.20
  -2   0  -9   58.89    6.90
  -2   0  -9   89.29   11.80
   2   0   9   69.89   15.70
   2   0   9   52.49    6.50
  -3   0  -9   46.90    8.50
  -3   0  -9   73.29   12.40
   3   0   9   34.90    8.00
   3   0   9   43.00    5.80
  -4   0  -9  119.99   13.70
  -4   0  -9   88.49   13.70
   4   0   9   99.09   18.40
   4   0   9   93.19   12.40
   4   0   9  107.69   20.20
   4   0   9   79.99   16.00
  -5   0  -9   44.00    8.40
   5   0   9   39.40   15.10
  -6   0  -9   86.39   18.90
  -6   0  -9   63.09    9.10
  -6   0  -9  108.29   16.10
   6   0   9   97.59   18.90
   6   0   9   57.59   10.60
   6   0   9   80.89   14.00
  -7   0  -9   22.20   13.30
  -7   0  -9   35.30   19.50
  -7   0  -9   28.70    8.50
   7   0   9    7.70   10.20
   7   0   9   15.50    7.20
   7   0   9   38.70   13.90
  -8   0  -9   23.50    9.00
  -8   0  -9   64.29   21.70
   8   0   9   31.40    8.10
   8   0   9   50.79   13.30
   8   0   9   15.90   13.00
   7  -1  -9   83.39   15.40
   7  -1  -9  122.09   27.90
   7  -1  -9   80.49   10.50
  -7   1   9   83.19   10.60
  -7   1   9  146.99   24.40
  -7   1   9   85.89   14.20
   6  -1  -9    3.90   12.30
   6  -1  -9   14.80    8.10
   6  -1  -9   29.10    6.40
   6  -1  -9   42.60   10.90
   6  -1  -9   26.90   11.80
  -6   1   9   29.20    8.10
  -6   1   9   21.20   11.20
  -6   1   9   18.50   10.20
   5  -1  -9  114.99   16.50
   5  -1  -9  129.49   15.30
   5  -1  -9  138.99   13.70
   5  -1  -9  150.88   19.50
   5  -1  -9  154.78   22.80
  -5   1   9  116.39   16.20
  -5   1   9  163.58   20.30
   4  -1  -9    4.10    5.40
   4  -1  -9   -6.20    6.50
   4  -1  -9    7.70    8.20
   4  -1  -9    1.10   10.90
   4  -1  -9    2.80    5.10
   4  -1  -9  -24.50   15.30
  -4   1   9    1.50    6.60
  -4   1   9    1.90    7.70
  -4   1   9   -1.00    6.20
  -4   1   9   -5.80    8.80
   3  -1  -9  271.37   16.90
   3  -1  -9  269.07   22.20
   3  -1  -9  255.37   18.70
   3  -1  -9  284.67   20.30
   3  -1  -9  266.57   18.40
   3  -1  -9  298.27   24.30
  -3   1   9  241.38   16.60
  -3   1   9  275.47   18.10
  -3   1   9  267.07   20.10
  -3   1   9  296.07   24.80
  -3   1   9  293.37   21.10
   2  -1  -9 1047.60   49.30
   2  -1  -9  962.50   49.99
   2  -1  -9 1011.20   50.99
   2  -1  -9 1073.79   53.09
   2  -1  -9  902.21   49.99
   2  -1  -9  936.81   48.80
  -2   1   9  990.00   49.00
  -2   1   9  923.31   48.60
  -2   1   9 1084.79   50.49
  -2   1   9 1042.10   50.69
   1  -1  -9   -1.60    8.50
   1  -1  -9   -5.50    4.80
   1  -1  -9   -8.40    4.40
  -1   1   9    1.10    5.40
  -1   1   9   -3.40    6.20
   0  -1  -9   -0.10    4.60
   0  -1  -9    5.20    8.60
   0  -1  -9   -0.20    5.00
   0   1   9    7.60    4.50
   0   1   9    1.60    6.40
  -1  -1  -9    1.80    8.80
   1   1   9   -9.10    6.60
  -2  -1  -9   71.49   13.60
   2   1   9   61.39    8.70
  -3  -1  -9 1047.70   55.09
   3   1   9 1154.38   56.19
  -4  -1  -9  135.39   14.80
   4   1   9  163.48   19.40
   4   1   9  128.19   17.10
   5   1   9  149.59   29.80
   5   1   9  163.38   22.90
   5   1   9  187.28   24.60
  -6  -1  -9   12.60   16.60
   6   1   9   35.60   12.00
   6   1   9    9.00    8.80
  -7  -1  -9   29.50   18.60
   7   1   9   42.30   12.60
  -8  -1  -9   63.99   21.40
   8   1   9   71.19   13.90
   7  -2  -9   49.20    9.50
   7  -2  -9   48.10   14.90
  -7   2   9   50.89    9.70
  -7   2   9   50.09   13.70
  -7   2   9   52.19   11.60
   6  -2  -9   15.00    6.40
   6  -2  -9   -2.80    8.00
   6  -2  -9    5.00   10.40
   6  -2  -9  -11.00   12.70
   6  -2  -9    2.40   11.90
  -6   2   9   -6.10    9.20
  -6   2   9   -8.00    7.80
  -6   2   9    7.50   11.20
   5  -2  -9    7.30   10.20
   5  -2  -9    7.40    5.50
   5  -2  -9   -3.60    7.40
   5  -2  -9  -14.00   11.10
   5  -2  -9    2.80   13.00
   5  -2  -9   13.90    9.60
   5  -2  -9    2.50    5.90
  -5   2   9   -0.80    7.00
  -5   2   9   -6.20    8.20
   4  -2  -9   10.50    9.50
   4  -2  -9    6.00    8.40
   4  -2  -9   -6.60    6.50
   4  -2  -9    8.00    5.80
   4  -2  -9   -7.80    9.80
  -4   2   9   -4.00    6.20
  -4   2   9    6.10    7.30
   3  -2  -9  208.88   14.60
   3  -2  -9  221.88   17.40
  -3   2   9  206.08   14.80
  -3   2   9  210.38   19.00
  -3   2   9  232.28   23.20
  -3   2   9  226.68   16.10
   2  -2  -9    3.40    4.30
   2  -2  -9   12.10    8.50
   2  -2  -9    4.20    5.60
   2  -2  -9    7.80    5.60
  -2   2   9    2.50    6.10
  -2   2   9    6.50    4.00
  -2   2   9    4.60    5.00
  -2   2   9    7.40    6.60
   1  -2  -9  312.07   20.80
   1  -2  -9  365.36   20.90
   1  -2  -9  335.07   25.30
  -1   2   9  322.27   22.30
  -1   2   9  325.07   21.30
   0  -2  -9    0.10    8.60
   0  -2  -9    0.80    5.00
   0   2   9   -0.60    6.30
  -1  -2  -9   53.79   11.90
  -1  -2  -9   78.29   13.40
   1   2   9   53.99    8.10
  -2  -2  -9  642.54   34.80
   2   2   9  656.63   35.80
  -3  -2  -9  592.94   33.60
   3   2   9  636.04   35.10
  -4  -2  -9  676.93   38.90
   4   2   9  812.62   41.20
   5   2   9  155.58   20.90
   5   2   9  160.78   19.20
   6   2   9  195.18   20.80
   6   2   9  165.68   27.90
  -7  -2  -9  352.16   33.50
   7   2   9  356.26   28.40
   7   2   9  370.16   27.40
  -8  -2  -9    4.80   20.00
   8   2   9   -5.60   10.20
   8   2   9   10.70   13.00
  -9  -2  -9   68.19   23.10
   9   2   9   48.20   14.60
   7  -3  -9  124.99   31.30
   7  -3  -9   70.39   10.60
  -7   3   9   64.29   10.30
  -7   3   9   79.19   12.40
   6  -3  -9   67.39   14.10
   6  -3  -9   71.19    9.60
   6  -3  -9  107.39   27.70
  -6   3   9   63.99    9.50
  -6   3   9   70.89   10.90
   5  -3  -9   32.00   12.10
   5  -3  -9   33.50   11.90
   5  -3  -9   35.80    8.00
  -5   3   9   33.50    7.50
  -5   3   9   18.80    8.80
   4  -3  -9    3.20    5.90
   4  -3  -9    5.50    9.80
   4  -3  -9    3.00    9.80
   4  -3  -9   -6.20    7.00
  -4   3   9   -9.60    6.30
  -4   3   9   -3.30    7.50
   3  -3  -9   -3.80    8.80
   3  -3  -9    3.10    5.80
   3  -3  -9    0.40    8.90
  -3   3   9    3.90    6.80
   2  -3  -9  478.75   28.00
  -2   3   9  504.65   29.60
  -2   3   9  522.25   29.00
   1  -3  -9  807.12   42.70
   1  -3  -9  711.73   39.20
  -1   3   9  751.92   40.20
  -1   3   9  755.32   39.40
   0  -3  -9   10.60    5.40
   0  -3  -9    4.70    8.40
   0  -3  -9   25.90    7.80
   0   3   9    2.50    5.30
   0   3   9    5.30    6.40
  -1  -3  -9  453.25   27.40
  -1  -3  -9  508.95   31.90
  -1  -3  -9  520.15   28.20
   1   3   9  469.15   29.00
  -2  -3  -9  836.02   47.00
  -2  -3  -9  962.50   47.80
   2   3   9  992.90   48.60
  -3  -3  -9    6.60    9.10
   3   3   9   -6.00    7.50
  -4  -3  -9  335.77   25.40
  -4  -3  -9  347.87   23.50
   4   3   9  391.66   26.40
   5   3   9  150.98   19.50
   5   3   9  158.68   20.80
   6   3   9   -0.80   11.90
  -7  -3  -9   89.19   18.50
   7   3   9  100.39   21.40
   7   3   9   60.29   10.80
  -8  -3  -9  178.78   31.70
   8   3   9  159.78   24.60
   8   3   9  208.98   23.50
  -9  -3  -9   78.19   22.70
   9   3   9   27.40   14.90
   9   3   9   37.70   11.10
   6  -4  -9   -1.50    9.00
   6  -4  -9    6.60   13.90
  -6   4   9    6.40    9.90
  -6   4   9   -2.30    8.50
   5  -4  -9    1.20   11.90
   5  -4  -9    8.10    8.20
  -5   4   9   -0.30    8.90
  -5   4   9    4.00    7.50
   4  -4  -9   36.00   13.00
   4  -4  -9    1.10    7.30
   4  -4  -9   13.40    5.50
   4  -4  -9   11.20   10.40
  -4   4   9    1.80    7.80
  -4   4   9   10.10    6.80
   3  -4  -9   78.79   21.80
   3  -4  -9   50.49    6.10
  -3   4   9   47.50    8.30
   2  -4  -9  158.58   22.30
  -2   4   9  159.08   16.80
   1  -4  -9  272.87   19.40
  -1   4   9  300.17   26.40
  -1   4   9  294.47   20.60
   0  -4  -9  774.52   41.60
   0  -4  -9  677.43   37.70
   0  -4  -9  711.43   37.90
   0   4   9  730.03   38.90
   0   4   9  724.73   38.10
  -1  -4  -9  160.58   15.50
  -1  -4  -9  175.38   21.40
  -1  -4  -9  197.98   16.40
   1   4   9  158.98   18.60
   1   4   9  151.98   15.50
  -2  -4  -9  229.78   23.30
  -2  -4  -9  244.88   18.70
  -2  -4  -9  207.98   18.70
  -2  -4  -9  206.78   17.80
   2   4   9  199.28   20.80
  -3  -4  -9 1075.29   57.29
  -3  -4  -9 1045.40   56.29
  -3  -4  -9 1151.18   57.29
   3   4   9 1226.18   57.89
  -4  -4  -9   -3.00   12.10
   4   4   9   -5.10    8.00
   5   4   9   22.50   11.40
   6   4   9    0.20   12.80
   6   4   9    3.70   11.30
   7   4   9  -11.30    9.50
   7   4   9   13.10   14.90
  -8  -4  -9   70.99   20.10
   8   4   9   70.69   16.40
  -9  -4  -9   23.90   21.50
   9   4   9   -6.60   10.60
   9   4   9   -1.70   14.60
   9   4   9   22.90   15.50
   5  -5  -9  -11.80    8.80
   5  -5  -9    1.70   12.90
  -5   5   9    0.50    7.90
  -5   5   9  -10.20    9.40
   4  -5  -9   -5.00    8.10
   4  -5  -9    1.20   11.60
  -4   5   9   -6.10    8.20
   3  -5  -9  340.97   29.50
  -3   5   9  318.77   24.60
   2  -5  -9   20.20    9.80
  -2   5   9   13.10    7.40
   1  -5  -9   13.30    9.20
  -1   5   9    1.40    6.80
   0  -5  -9   41.00   15.40
   0   5   9   31.10    7.20
  -1  -5  -9  258.17   23.20
  -1  -5  -9  238.08   18.90
   1   5   9  227.88   18.80
   1   5   9  206.78   30.00
  -2  -5  -9    1.10   10.00
  -2  -5  -9   -1.10    9.20
  -2  -5  -9   16.40   11.90
  -2  -5  -9    0.50    6.70
  -3  -5  -9  330.27   24.80
  -3  -5  -9  341.17   23.70
  -3  -5  -9  392.46   27.90
  -4  -5  -9  561.74   35.40
  -4  -5  -9  597.14   35.30
   5   5   9  179.08   24.20
   6   5   9   21.90   13.90
   6   5   9   17.30    9.10
   7   5   9  218.58   25.30
   7   5   9  188.78   24.00
   7   5   9  188.48   29.40
  -8  -5  -9   39.00   19.40
   8   5   9   38.50   16.90
  -9  -5  -9   34.60   21.20
   9   5   9   -3.20   10.10
   9   5   9   31.80   16.30
   9   5   9   -8.30   14.50
   5  -6  -9  134.99   31.70
   5  -6  -9   96.89   11.70
   4  -6  -9   70.29   14.20
  -4   6   9   53.49   10.00
   3  -6  -9  156.88   27.00
  -3   6   9  128.59   20.40
   2  -6  -9  618.84   39.30
  -2   6   9  590.94   35.20
   1  -6  -9  484.55   33.00
  -1   6   9  461.15   29.20
   0  -6  -9   13.70    9.30
   0   6   9    1.20    6.90
  -1  -6  -9   54.99   11.20
  -1  -6  -9   44.70   10.30
  -2  -6  -9   42.80   11.30
   2   6   9   22.80    6.80
   2   6   9   32.40    8.40
  -3  -6  -9   44.80   12.10
  -3  -6  -9   30.10   11.70
   3   6   9   22.40    8.30
  -4  -6  -9   50.89   13.20
   4   6   9   42.80    9.50
   5   6   9  139.89   22.60
   6   6   9   -0.30    9.20
   7   6   9   60.89   16.90
   7   6   9   26.10   10.00
  -8  -6  -9   36.50   19.00
   8   6   9    8.90   13.60
   8   6   9   30.80   15.60
   4  -7  -9   22.20   14.40
  -4   7   9   18.20   10.30
   3  -7  -9   16.70   12.60
  -3   7   9   -2.30    9.00
   2  -7  -9    2.60   11.40
  -2   7   9   -4.30    8.30
   1  -7  -9  476.35   34.00
  -1   7   9  429.26   29.50
   0  -7  -9  277.27   26.30
   0   7   9  237.18   22.30
  -1  -7  -9  173.18   22.70
   1   7   9  145.69   19.30
  -2  -7  -9  227.58   22.00
  -2  -7  -9  288.47   25.80
   2   7   9  255.87   21.10
  -3  -7  -9  161.28   18.50
  -3  -7  -9  199.08   23.10
  -3  -7  -9  146.79   20.90
  -4  -7  -9   87.09   24.40
  -5  -7  -9    2.70   10.60
   5   7   9    2.40    9.30
  -6  -7  -9    8.30   11.30
   6   7   9    8.40    9.80
   6   7   9   23.20   15.20
   7   7   9   68.59   15.00
   7   7   9  115.49   24.90
   8   7   9   57.09   17.50
   8   7   9   26.00   15.10
   8   7   9   32.70   10.80
   2  -8  -9   -1.70   12.30
  -2   8   9  -16.50    8.90
   1  -8  -9   19.20   12.00
  -1   8   9   18.90    8.90
   0  -8  -9   36.80   11.70
   0   8   9   19.20    8.60
   1   8   9   52.79    9.20
  -2  -8  -9   11.60   10.40
  -2  -8  -9    0.10   12.70
   2   8   9    0.80    7.70
  -3  -8  -9  126.69   22.70
  -3  -8  -9   86.59   18.80
  -4  -8  -9  135.39   23.30
  -5  -8  -9    4.20   10.50
  -6  -8  -9   45.40   12.60
  -7  -8  -9   10.70   12.50
   7   8   9    9.80   14.80
   1  -9  -9   24.80   13.00
  -1   9   9   13.00    9.80
   0  -9  -9  112.89   26.50
   0   9   9   74.69   10.80
  -1  -9  -9    2.70   11.40
   1   9   9   -1.40    8.50
  -2  -9  -9   -0.50   11.10
   2   9   9  -11.70    8.30
  -3  -9  -9  112.79   24.90
  -4  -9  -9   24.00   11.00
  -5  -9  -9    5.20   11.30
  -6  -9  -9   13.20   11.80
  -2 -10  -9   -6.80   11.80
  -3 -10  -9    3.60   12.20
  -4 -10  -9  190.48   27.20
  -2  -9  10  176.58   24.40
   5   8 -10    8.70    9.20
  -5  -8  10   11.20   10.30
  -5  -8  10   17.30   15.20
  -5  -8  10  -22.50   22.60
   4   8 -10  185.68   21.80
   4   8 -10  218.48   37.60
  -4  -8  10  118.29   25.50
  -4  -8  10  183.68   31.80
  -4  -8  10  151.98   23.10
   3   8 -10   30.50    9.70
  -3  -8  10   32.70   10.80
  -3  -8  10   11.80   11.30
  -3  -8  10   41.00   14.80
  -2  -8  10   43.10   15.40
  -2  -8  10   39.50   10.70
   1   8 -10   -2.90   17.90
   1   8 -10  -14.60    9.20
  -1  -8  10   26.30   15.70
  -1  -8  10   18.40   10.60
   0   8 -10   22.20   14.00
   0   8 -10    6.80    8.60
   0  -8  10   29.80   14.80
   0  -8  10   14.00   10.10
  -1   8 -10   39.40   14.90
  -1   8 -10   15.90    8.90
   1  -8  10   22.20   10.00
   1  -8  10   41.00   16.20
   6   7 -10   49.60   19.60
   6   7 -10   57.39   10.60
  -6  -7  10   78.69   23.00
  -6  -7  10   57.09   11.10
  -6  -7  10   55.29   15.40
   5   7 -10   11.00    8.70
   5   7 -10   16.20   21.60
  -5  -7  10   12.90   13.90
  -5  -7  10   -3.80   20.60
  -5  -7  10   16.90    9.90
   4   7 -10  184.08   20.60
   4   7 -10  177.08   28.40
  -4  -7  10  168.58   21.60
  -4  -7  10  124.59   23.90
  -4  -7  10  190.68   30.10
   3   7 -10  412.46   27.70
  -3  -7  10  457.25   48.80
  -3  -7  10  368.06   31.70
  -3  -7  10  388.56   28.00
  -2  -7  10  156.58   28.50
  -2  -7  10  127.19   20.90
   1   7 -10  -13.70    8.60
  -1  -7  10   12.40   14.40
  -1  -7  10    4.40   10.40
  -1  -7  10   11.30    9.90
   0   7 -10   12.40   22.50
   0   7 -10   32.80    8.60
   0   7 -10   56.69   13.90
   0  -7  10   56.79    9.80
   0  -7  10   63.99   14.20
  -1   7 -10    5.90    8.50
  -1   7 -10   29.40   13.50
   1  -7  10   23.50   14.70
   1  -7  10    9.80    9.10
  -2   7 -10   13.90    8.60
  -2   7 -10   32.30   15.50
   2  -7  10   22.60    9.90
   2  -7  10   23.10   14.30
  -3   7 -10   14.40    9.40
  -3   7 -10   32.50   16.50
   3  -7  10   22.50   10.10
   3  -7  10   34.20   24.60
   7   6 -10   67.69   16.30
   7   6 -10   69.39   11.20
  -7  -6  10   65.39   11.30
  -7  -6  10   71.99   15.80
   6   6 -10    1.20   14.80
   6   6 -10    9.60    9.10
  -6  -6  10   32.30   21.80
  -6  -6  10    5.50   10.00
  -6  -6  10   17.20   14.30
   5   6 -10   56.79    9.30
  -5  -6  10   62.89   20.80
  -5  -6  10   63.99   21.00
  -5  -6  10   51.59   10.00
   4   6 -10    1.00   11.40
   4   6 -10   22.20   12.40
   4   6 -10   18.90    8.10
  -4  -6  10   17.30   12.80
  -4  -6  10   29.90    9.20
   3   6 -10   11.00   10.10
   3   6 -10   22.10   12.30
   3   6 -10   16.00    8.40
   3   6 -10  -10.40   10.80
  -3  -6  10    9.70    9.00
  -3  -6  10   24.70   13.20
   2   6 -10  508.35   38.00
   2   6 -10  569.84   31.50
  -2  -6  10  699.13   40.20
  -2  -6  10  646.74   38.10
  -2  -6  10  616.54   34.80
   1   6 -10  141.79   12.70
   1   6 -10  117.09   19.40
   1   6 -10  115.99   17.20
  -1  -6  10  173.88   24.30
  -1  -6  10  177.28   20.10
   0   6 -10  144.89   13.30
   0   6 -10  138.89   18.40
   0  -6  10  182.38   19.50
   0  -6  10  189.48   25.90
   0  -6  10  182.78   23.80
  -1   6 -10  246.58   22.10
  -1   6 -10  250.67   21.80
  -1   6 -10  303.67   29.00
   1  -6  10  313.27   30.20
   1  -6  10  302.57   22.40
  -2   6 -10   26.00   14.20
  -2   6 -10  -13.20   13.70
  -2   6 -10    0.70    8.00
   2  -6  10   26.00    9.10
   2  -6  10   14.00   12.90
  -3   6 -10   19.90    8.90
  -3   6 -10   47.90   15.30
   3  -6  10   45.90   14.50
   3  -6  10   19.00   11.20
  -4   6 -10    6.80    9.30
  -4   6 -10   16.80   15.60
   4  -6  10   16.60   15.40
   4  -6  10   10.10    9.40
   7   5 -10   66.09   16.00
   7   5 -10  107.09   28.20
   7   5 -10  120.59   20.80
  -7  -5  10   75.79   11.40
  -7  -5  10   79.99   15.70
   6   5 -10  -12.80   13.60
   6   5 -10   -3.80   11.30
   6   5 -10    2.00    8.80
  -6  -5  10   33.70   21.40
  -6  -5  10    5.80   14.60
  -6  -5  10   -4.90    9.20
   5   5 -10   24.00   11.40
   5   5 -10   34.50    8.70
   5   5 -10   33.50   11.50
  -5  -5  10   33.80   13.10
  -5  -5  10   39.30    9.00
   4   5 -10   45.40   11.50
   4   5 -10   56.19    8.50
   4   5 -10   42.80   11.20
   4   5 -10   61.09   12.40
  -4  -5  10   62.59   12.60
  -4  -5  10   47.20    8.90
  -4  -5  10   30.70    9.20
   3   5 -10   22.30   11.70
   3   5 -10   20.80   10.30
   3   5 -10   30.30   10.80
   3   5 -10   35.30    8.10
  -3  -5  10   39.10   12.70
  -3  -5  10   28.40    8.40
  -3  -5  10    7.90   13.40
   2   5 -10   51.79    8.40
  -2  -5  10   25.80   10.60
  -2  -5  10   44.10   12.60
  -2  -5  10   34.90   10.60
   1   5 -10   11.70   13.40
   1   5 -10   10.70    7.50
   1   5 -10    6.30   11.00
  -1  -5  10   48.50   12.20
  -1  -5  10   26.20   10.50
  -1  -5  10    7.70   13.70
   0   5 -10   68.59   15.00
   0   5 -10   72.59   12.60
   0   5 -10   36.00   11.80
   0   5 -10   47.50    8.10
   0  -5  10   60.99   13.40
   0  -5  10   57.89   11.30
   0  -5  10   71.39   12.90
  -1   5 -10    3.80    7.30
  -1   5 -10    9.20    7.20
  -1   5 -10  -10.90    9.20
  -1   5 -10   19.90   13.80
   1  -5  10    4.60   10.40
   1  -5  10    9.50   11.30
  -2   5 -10  418.36   26.60
  -2   5 -10  344.07   32.90
  -2   5 -10  481.35   34.80
  -2   5 -10  382.06   24.30
   2  -5  10  469.05   32.70
   2  -5  10  442.66   27.50
   2  -5  10  453.35   31.30
  -3   5 -10  134.19   29.00
  -3   5 -10   70.99    9.50
  -3   5 -10   38.30   15.70
   3  -5  10  121.49   18.40
  -4   5 -10   17.40   14.90
  -4   5 -10  -27.60   20.60
  -4   5 -10   -3.60    9.00
   4  -5  10    8.80   13.90
   4  -5  10    2.70    8.70
  -5   5 -10    8.60    9.80
  -5   5 -10    3.20   23.30
  -5   5 -10   34.10   17.50
   5  -5  10   28.30   15.30
   5  -5  10   10.70    9.50
   5  -5  10   32.10   11.50
   7   4 -10   17.40    9.90
   7   4 -10   32.40   12.70
   7   4 -10   59.69   21.00
  -7  -4  10   30.80   10.50
   6   4 -10  369.86   41.50
   6   4 -10  348.47   25.60
   6   4 -10  328.67   32.40
   6   4 -10  356.16   29.60
  -6  -4  10  355.26   32.50
  -6  -4  10  346.67   25.50
   5   4 -10  110.19   23.40
   5   4 -10  124.89   22.20
   5   4 -10  132.09   17.90
   5   4 -10   73.89   20.90
  -5  -4  10  140.09   25.90
  -5  -4  10  126.49   18.50
   4   4 -10  385.26   30.60
   4   4 -10  429.06   31.50
   4   4 -10  382.36   29.00
   4   4 -10  393.46   25.60
  -4  -4  10  406.66   25.60
  -4  -4  10  420.46   31.20
  -4  -4  10  402.56   27.40
   3   4 -10  280.77   26.30
   3   4 -10  314.07   26.50
   3   4 -10  285.17   21.00
   3   4 -10  259.07   24.20
   3   4 -10  237.38   20.10
  -3  -4  10  245.98   25.40
  -3  -4  10  277.77   20.70
  -3  -4  10  306.47   25.90
  -3  -4  10  271.07   23.10
   2   4 -10   13.60    6.70
   2   4 -10   14.40    7.40
  -2  -4  10   32.60   11.70
  -2  -4  10    6.30    9.80
  -2  -4  10   10.20   10.20
  -2  -4  10   22.40    7.60
  -1  -4  10   32.10   12.60
  -1  -4  10   53.09    8.10
  -1  -4  10   59.69   11.30
   0   4 -10    1.50    7.30
   0   4 -10   11.70   10.90
   0   4 -10    3.70    6.90
   0   4 -10  -12.60   10.10
   0  -4  10   20.50    7.60
   0  -4  10    4.80   10.10
   0  -4  10   -4.60   11.90
  -1   4 -10   13.10    7.60
  -1   4 -10   42.90    8.30
  -1   4 -10   17.50   11.20
  -1   4 -10   32.60    7.30
   1  -4  10   28.00   10.20
   1  -4  10   36.50    7.40
  -2   4 -10   31.50    8.70
  -2   4 -10   60.99   12.30
  -2   4 -10   98.49   15.50
   2  -4  10   52.89   11.00
  -3   4 -10   12.40   18.70
  -3   4 -10   15.20    7.70
  -3   4 -10   33.20   13.20
  -3   4 -10   10.70    9.20
  -3   4 -10  -12.80   12.80
   3  -4  10   33.00   11.80
   3  -4  10   24.10    8.00
   3  -4  10   15.00   10.90
  -4   4 -10   -1.50   20.40
  -4   4 -10   16.80    8.30
  -4   4 -10   37.80   14.00
  -4   4 -10    0.50   14.40
   4  -4  10   16.60   11.30
   4  -4  10   17.60   12.70
  -5   4 -10   -7.50   20.80
  -5   4 -10    0.40    8.80
  -5   4 -10    9.20   15.90
   5  -4  10   12.00   11.10
   5  -4  10   17.40   13.80
   5  -4  10    5.60   12.20
   5  -4  10    2.80    8.70
  -6   4 -10   -7.00   23.60
  -6   4 -10    3.70   17.60
  -6   4 -10    2.40    9.90
   6  -4  10   -6.50   13.40
   6  -4  10   23.20   12.60
   6  -4  10    4.20    9.50
   7   3 -10   31.00   14.90
   7   3 -10   59.69   10.60
   7   3 -10   69.59   14.10
   7   3 -10  101.79   21.00
  -7  -3  10   55.49   10.40
  -7  -3  10   63.29   14.90
   6   3 -10   29.90   10.80
   6   3 -10  -13.50    8.40
   6   3 -10   -7.00   11.00
  -6  -3  10  -10.10   12.40
  -6  -3  10   43.40   24.30
  -6  -3  10  -11.60    8.60
   5   3 -10  136.69   21.00
   5   3 -10  114.19   17.40
   5   3 -10   79.29   14.10
  -5  -3  10  114.79   24.10
  -5  -3  10  119.59   17.20
   4   3 -10    4.60    7.40
   4   3 -10    3.90    9.40
   4   3 -10   10.70    6.40
  -4  -3  10  -10.50    7.60
  -4  -3  10    6.30   11.00
  -4  -3  10    7.70    7.30
   3   3 -10   19.00   10.00
   3   3 -10   12.80    6.20
   3   3 -10   10.50    7.00
   3   3 -10    8.90    9.30
  -3  -3  10   20.70   10.00
  -3  -3  10   15.60    7.20
  -3  -3  10   15.40   10.80
  -3  -3  10    4.10    8.00
   2   3 -10  663.93   39.30
   2   3 -10  669.93   37.10
   2   3 -10  803.12   37.90
   2   3 -10  704.93   41.20
   2   3 -10  755.72   40.80
   2   3 -10  741.13   37.70
  -2  -3  10  748.83   40.60
  -2  -3  10  615.74   39.40
  -2  -3  10  687.53   39.10
  -2  -3  10  710.93   37.50
   1   3 -10  139.49   16.20
  -1  -3  10  126.69   20.50
  -1  -3  10  130.79   21.80
  -1  -3  10  121.59   15.70
   0   3 -10  -12.60   10.80
   0   3 -10   18.00    8.40
   0   3 -10  -14.20    7.30
   0  -3  10    2.90    7.00
   0  -3  10  -16.60   15.20
   0  -3  10    6.50    9.90
  -1   3 -10   18.30    6.90
  -1   3 -10   27.10   12.40
  -1   3 -10   29.90    8.40
   1  -3  10   11.00    9.70
   1  -3  10   27.60    9.30
   1  -3  10   22.10    6.90
  -2   3 -10  143.99   31.50
  -2   3 -10  150.58   16.40
  -2   3 -10  168.68   23.70
  -2   3 -10  136.49   14.40
   2  -3  10  150.78   23.00
   2  -3  10  188.58   22.10
   2  -3  10  176.58   16.20
  -3   3 -10  499.25   31.70
  -3   3 -10  493.45   30.00
  -3   3 -10  557.84   38.80
  -3   3 -10  552.84   30.80
  -3   3 -10  448.26   36.20
  -3   3 -10  630.64   36.70
   3  -3  10  592.14   35.80
   3  -3  10  572.34   30.70
  -4   3 -10   48.00    8.40
  -4   3 -10   55.99   11.00
  -4   3 -10   68.49   13.60
  -4   3 -10   61.29   19.50
  -4   3 -10   16.90   27.60
   4  -3  10   48.20   11.70
   4  -3  10   50.79    8.40
  -5   3 -10   21.70    8.90
  -5   3 -10   26.90   15.10
  -5   3 -10   21.20   20.20
   5  -3  10   35.40   11.80
   5  -3  10   41.50   12.60
   5  -3  10   29.80   12.10
   5  -3  10   19.80    8.20
  -6   3 -10   78.29   22.30
  -6   3 -10   51.89   10.10
  -6   3 -10   74.99   17.60
   6  -3  10   76.79   14.10
   6  -3  10   53.49   10.50
   7   2 -10   89.39   11.10
   7   2 -10   90.79   15.70
   7   2 -10  137.89   28.40
  -7  -2  10   90.09   12.30
  -7  -2  10   88.39   15.40
   6   2 -10   20.70   12.00
   6   2 -10   35.10   10.70
   6   2 -10   -3.70    8.50
  -6  -2  10    4.60   12.40
  -6  -2  10    3.90    8.70
   5   2 -10  -10.30    7.80
   5   2 -10   23.20    9.70
   5   2 -10    3.00   10.50
   5   2 -10    9.40    6.40
  -5  -2  10   -4.90   11.20
  -5  -2  10   -7.80    7.20
   4   2 -10   19.60    7.20
   4   2 -10   15.80   18.80
   4   2 -10   30.80    6.20
   4   2 -10   21.20   18.00
   4   2 -10   39.80    9.30
  -4  -2  10   32.80    7.20
  -4  -2  10   14.30    7.90
   3   2 -10  163.28   16.60
   3   2 -10  164.58   22.60
   3   2 -10  159.98   15.00
  -3  -2  10  188.78   21.80
  -3  -2  10  178.58   16.50
  -3  -2  10  172.28   24.30
  -3  -2  10  134.79   19.00
   2   2 -10   31.80    6.90
   2   2 -10   22.40    6.10
   2   2 -10   28.60    8.70
   2   2 -10   37.80    9.80
   2   2 -10   20.50    9.80
  -2  -2  10   41.80    9.40
  -2  -2  10   28.40    6.80
  -2  -2  10   15.70    8.20
  -2  -2  10   22.10    8.50
   1   2 -10  125.69   14.20
   1   2 -10  127.59   18.20
  -1  -2  10  172.98   15.30
  -1  -2  10  175.28   21.00
  -1  -2  10  101.39   17.10
  -1  -2  10  164.18   19.10
  -1  -2  10  143.49   15.60
   0   2 -10    6.60   11.50
   0   2 -10    6.90    9.00
   0  -2  10   23.10    6.70
   0  -2  10   30.70    9.40
   0  -2  10   19.90    8.40
  -1   2 -10    2.70    7.50
  -1   2 -10   12.70    8.80
  -1   2 -10    7.20    9.80
   1  -2  10    7.80    9.60
   1  -2  10   -3.50   14.50
   1  -2  10    8.20    6.40
  -2   2 -10  244.48   17.90
  -2   2 -10  242.78   34.70
  -2   2 -10  211.78   17.10
   2  -2  10  215.48   23.70
   2  -2  10  241.88   17.60
   2  -2  10  244.08   20.90
  -3   2 -10   -4.10    8.20
  -3   2 -10   -3.00   19.00
  -3   2 -10    3.50    6.90
  -3   2 -10    8.60   10.90
   3  -2  10  -10.80    9.90
   3  -2  10    1.50    6.50
   3  -2  10    8.80    9.30
  -4   2 -10  267.77   29.60
  -4   2 -10  319.67   27.90
  -4   2 -10  211.08   27.70
  -4   2 -10  247.58   20.30
  -4   2 -10  255.37   20.30
   4  -2  10  277.47   20.00
   4  -2  10  261.27   26.90
  -5   2 -10  112.79   17.90
  -5   2 -10  100.69   20.90
   5  -2  10   99.39   16.50
   5  -2  10   65.49   12.90
   5  -2  10  127.59   23.50
   5  -2  10   95.39   17.60
  -6   2 -10  262.67   33.60
  -6   2 -10  222.18   22.90
   6  -2  10  285.07   29.80
   6  -2  10  261.57   23.00
   6  -2  10  237.78   21.70
  -7   2 -10   63.39   17.30
  -7   2 -10   80.19   22.80
  -7   2 -10   52.59   10.60
   7  -2  10   43.60   11.70
   7  -2  10   62.69   14.00
   7   1 -10   77.19   15.60
   7   1 -10   83.09   10.90
   7   1 -10  120.09   28.20
  -7  -1  10  136.99   27.60
  -7  -1  10  121.39   20.40
   6   1 -10  189.78   21.30
   6   1 -10  261.97   28.00
   6   1 -10  179.08   27.60
  -6  -1  10  218.88   21.10
  -6  -1  10  217.18   27.00
   5   1 -10    1.90    7.80
   5   1 -10  -17.80   11.30
   5   1 -10   23.30    9.70
   5   1 -10   16.00    5.90
   5   1 -10   10.20   10.70
  -5  -1  10    3.40    7.70
  -5  -1  10    5.80   10.90
  -5  -1  10   -0.10    7.30
   4   1 -10  -10.60   10.80
   4   1 -10   -4.20    9.50
   4   1 -10   -4.20    7.00
   4   1 -10   12.00    5.60
  -4  -1  10   -6.50    7.00
  -4  -1  10   -3.90    6.70
  -4  -1  10    0.20    9.80
   3   1 -10   37.10    6.20
   3   1 -10   40.40    7.30
   3   1 -10   30.40   11.60
   3   1 -10   44.50    8.90
  -3  -1  10   39.90    7.20
  -3  -1  10   48.50   10.10
  -3  -1  10   26.20    8.10
   2   1 -10  334.67   24.20
   2   1 -10  303.47   19.40
   2   1 -10  281.57   22.10
   2   1 -10  310.17   26.50
   2   1 -10  295.37   22.70
  -2  -1  10  319.97   19.90
  -2  -1  10  323.07   23.90
  -2  -1  10  297.47   22.90
   1   1 -10  608.84   36.00
   1   1 -10  619.44   34.10
   1   1 -10  635.24   31.60
   1   1 -10  561.34   30.20
   1   1 -10  537.05   32.60
   1   1 -10  561.74   35.00
  -1  -1  10  511.15   29.90
  -1  -1  10  615.24   33.40
  -1  -1  10  582.54   30.50
  -1  -1  10  481.55   31.80
  -1  -1  10  589.94   32.80
   0   1 -10   -1.00    6.50
   0  -1  10    1.70    6.00
   0  -1  10    2.20    7.90
  -1   1 -10  201.18   20.80
  -1   1 -10  235.98   17.30
  -1   1 -10  281.97   18.40
  -1   1 -10  260.77   20.00
   1  -1  10  266.27   26.00
   1  -1  10  279.87   17.80
   1  -1  10  201.18   16.70
  -2   1 -10  420.16   29.80
  -2   1 -10  525.45   27.40
  -2   1 -10  467.15   27.30
   2  -1  10  500.35   26.30
   2  -1  10  447.96   26.90
   2  -1  10  464.05   32.20
  -3   1 -10   29.60   10.50
  -3   1 -10   16.50    6.70
  -3   1 -10   21.00    9.20
   3  -1  10   13.00    6.00
   3  -1  10    2.40    8.60
  -4   1 -10   30.10   10.50
  -4   1 -10   39.90   11.30
  -4   1 -10   27.80    7.20
   4  -1  10   55.49   18.70
   4  -1  10   22.40    6.60
   4  -1  10   14.30    9.80
  -5   1 -10   46.40   18.10
  -5   1 -10   45.20    8.50
   5  -1  10   42.30    7.30
   5  -1  10   54.89   12.70
   5  -1  10   33.90   11.30
  -6   1 -10    3.40    8.40
  -6   1 -10    8.30   19.40
   6  -1  10    7.30    7.50
   6  -1  10   -9.70   12.20
   6  -1  10   -9.70   11.30
  -7   1 -10   22.30   15.40
  -7   1 -10   18.60    9.20
  -7   1 -10   37.60   22.20
   7  -1  10   25.10   13.80
   7  -1  10   11.20   12.20
   7  -1  10   13.40    8.40
   7   0 -10   92.49   11.30
   7   0 -10  133.29   29.20
   7   0 -10   89.49   16.30
  -7   0  10   86.09   15.20
  -7   0  10  130.19   20.60
   6   0 -10  -13.50   12.80
   6   0 -10    1.20   11.50
   6   0 -10  -12.20    8.40
  -6   0  10    1.10   12.00
  -6   0  10    2.90    9.90
  -6   0  10   -5.70    8.50
   5   0 -10  324.07   28.90
   5   0 -10  276.77   22.60
   5   0 -10  335.27   25.10
   5   0 -10  270.07   27.10
   5   0 -10  294.07   20.10
  -5   0  10  318.57   23.50
  -5   0  10  286.77   21.90
  -5   0  10  319.97   25.00
  -5   0  10  292.47   26.60
   4   0 -10   -6.10    9.50
   4   0 -10  -10.10    6.80
   4   0 -10  -13.50   10.00
   4   0 -10    7.60    8.30
   4   0 -10    5.40    5.20
  -4   0  10   -3.50    6.80
  -4   0  10   -6.30    6.90
  -4   0  10    7.80    8.00
   3   0 -10  -13.30    9.70
   3   0 -10   -2.20    6.30
   3   0 -10   -2.30    9.30
   3   0 -10    6.30    5.20
   3   0 -10    7.40    7.90
  -3   0  10    3.00    8.80
  -3   0  10   -9.30    7.00
  -3   0  10    0.40    6.00
   2   0 -10  319.47   32.40
   2   0 -10  328.97   23.00
   2   0 -10  327.07   20.10
   2   0 -10  344.07   25.40
  -2   0  10  332.27   22.60
  -2   0  10  360.26   22.80
  -2   0  10  335.77   24.00
  -2   0  10  349.27   20.80
   1   0 -10    8.10    9.50
   1   0 -10    8.80    6.10
   1   0 -10   -5.10    7.50
   1   0 -10    3.30    8.60
   1   0 -10   -2.70    5.20
  -1   0  10    3.30    4.80
  -1   0  10    8.20    5.40
  -1   0  10    0.10    7.40
   0   0 -10  352.76   20.70
   0   0 -10  313.47   19.30
   0   0 -10  248.58   19.90
   0   0  10  239.68   17.70
   0   0  10  300.67   22.90
   0   0  10  305.87   18.50
  -1   0 -10   42.90   11.20
  -1   0 -10   38.60    6.10
   1   0  10   25.00    5.50
   1   0  10   41.90    8.50
   1   0  10   71.79   11.50
  -2   0 -10  284.07   20.60
  -2   0 -10  353.46   21.80
  -2   0 -10  338.57   20.90
   2   0  10  274.67   20.00
   2   0  10  346.37   19.90
  -3   0 -10  810.52   42.10
  -3   0 -10  767.12   41.80
   3   0  10  875.81   43.90
   3   0  10  772.32   41.30
  -4   0 -10   54.49    7.60
   4   0  10   45.20    9.70
  -5   0 -10    6.90    7.00
  -5   0 -10   -3.90   16.90
  -5   0 -10  -18.10    8.60
   5   0  10   12.40   12.10
   5   0  10   -4.30    9.30
  -6   0 -10   43.50   19.90
  -6   0 -10   44.80    8.50
   6   0  10   27.80   10.80
   6   0  10   58.59   14.50
   6   0  10   31.40    7.20
  -7   0 -10    0.20   20.60
  -7   0 -10   -1.40    8.40
   7   0  10  -10.80   10.80
   7   0  10   -0.10    7.60
   7   0  10   15.30   14.80
   7  -1 -10   10.00   14.10
   7  -1 -10  -20.40   14.70
   7  -1 -10  -13.90    9.40
  -7   1  10   -8.40    9.10
  -7   1  10   13.30   11.10
   6  -1 -10   87.89   15.30
   6  -1 -10  129.89   19.40
   6  -1 -10  139.29   28.10
  -6   1  10   94.99   17.90
  -6   1  10  146.19   23.70
   5  -1 -10   72.99    9.20
   5  -1 -10   69.89   13.00
   5  -1 -10  107.09   24.50
  -5   1  10  103.49   21.90
  -5   1  10  109.69   16.40
  -5   1  10   73.79   11.10
   4  -1 -10   -4.30    9.80
   4  -1 -10   12.90    8.70
   4  -1 -10    7.50    5.30
   4  -1 -10  -10.60    7.00
   4  -1 -10   -0.80    6.00
  -4   1  10   -1.80    8.30
  -4   1  10   -6.80    6.70
   3  -1 -10  228.78   24.40
   3  -1 -10  234.58   18.00
   3  -1 -10  256.27   21.50
   3  -1 -10  192.98   18.40
   3  -1 -10  233.68   22.70
  -3   1  10  241.28   17.40
  -3   1  10  256.77   20.80
  -3   1  10  220.78   20.30
   2  -1 -10   31.20    5.60
   2  -1 -10   30.00    7.70
   2  -1 -10   36.20   10.50
  -2   1  10   28.40    7.60
  -2   1  10   30.00    7.20
  -2   1  10   31.90    5.90
   1  -1 -10   45.50   13.30
   1  -1 -10   30.10    6.40
   1  -1 -10   22.10    5.50
  -1   1  10   22.20    5.00
  -1   1  10   33.80    5.80
  -1   1  10   33.80    6.60
  -1   1  10   28.20    7.60
   0  -1 -10   66.29    6.90
   0  -1 -10   84.99   20.70
   0  -1 -10   57.59    6.30
   0   1  10   54.69    5.90
   0   1  10   68.49   11.00
   0   1  10   64.39    8.70
  -1  -1 -10  463.55   26.90
   1   1  10  419.86   28.20
  -2  -1 -10   92.19   15.40
  -3  -1 -10  145.29   16.40
   3   1  10  113.49   20.30
   4   1  10  603.34   36.30
   5   1  10  139.99   19.30
   5   1  10  140.39   22.70
  -6  -1 -10   47.40   18.70
   6   1  10   57.09   13.30
  -7  -1 -10  135.99   31.30
   7   1  10  155.38   22.90
  -8  -1 -10   21.20   21.50
   8   1  10   -1.60   11.30
   8   1  10   24.90   15.80
   6  -2 -10   33.00   13.60
   6  -2 -10   11.10    9.00
  -6   2  10    2.40   13.60
  -6   2  10   19.60   10.30
   5  -2 -10   91.19   13.90
   5  -2 -10  137.49   26.00
   5  -2 -10  101.29   17.70
  -5   2  10  113.89   21.80
  -5   2  10  125.09   16.80
  -5   2  10   77.19   11.00
   4  -2 -10  127.59   13.20
   4  -2 -10  100.19   16.20
   4  -2 -10   85.99   12.90
   4  -2 -10  144.99   19.30
   4  -2 -10  118.09   23.60
  -4   2  10  111.59   19.30
  -4   2  10   93.59   15.10
   3  -2 -10   51.79    8.60
   3  -2 -10   47.60    7.50
   3  -2 -10   44.50   10.90
   3  -2 -10   47.80    6.00
   3  -2 -10   42.10   10.10
  -3   2  10   50.69    8.30
  -3   2  10   39.50    8.30
  -3   2  10   44.70    6.80
   2  -2 -10  525.15   32.00
   2  -2 -10  550.64   35.90
   2  -2 -10  549.15   29.70
   2  -2 -10  497.65   28.60
  -2   2  10  611.84   29.00
   1  -2 -10  778.42   43.10
   1  -2 -10  658.23   38.10
  -1   2  10  741.73   38.20
   0  -2 -10   26.60    6.40
   0   2  10   29.70   12.90
  -1  -2 -10   14.60   16.40
  -1  -2 -10   38.40   10.10
  -2  -2 -10   25.20    9.60
   3   2  10  352.76   26.30
   4   2  10   53.69    9.70
   5   2  10  120.39   22.20
  -6  -2 -10    9.70   17.00
   6   2  10    7.40   10.20
   6   2  10   27.80   13.00
  -7  -2 -10   11.80   19.00
   7   2  10   16.50   14.10
   7   2  10   -7.90   10.50
  -8  -2 -10  160.58   32.90
   8   2  10  154.18   24.80
   6  -3 -10  -12.60   14.10
   6  -3 -10   -9.00    8.90
   6  -3 -10    4.10   13.70
  -6   3  10    6.20   10.10
  -6   3  10   -4.20   10.10
   5  -3 -10  192.28   28.80
   5  -3 -10  162.28   20.10
  -5   3  10  171.98   19.10
  -5   3  10  171.68   22.10
   4  -3 -10   26.60    6.00
   4  -3 -10   11.50    7.80
   4  -3 -10   18.10   11.10
  -4   3  10   12.00    8.20
  -4   3  10   14.70    7.10
   3  -3 -10    4.80    6.90
   3  -3 -10   17.00   10.30
   3  -3 -10   20.00    5.60
  -3   3  10    9.80    7.60
  -3   3  10    8.80    6.40
   2  -3 -10   -8.70    9.10
  -2   3  10   -9.80    7.10
  -2   3  10   -8.90    6.70
   1  -3 -10  479.45   32.10
  -1   3  10  469.45   27.30
  -1   3  10  440.36   28.70
   0  -3 -10  232.08   24.20
   0   3  10  219.48   20.80
   0   3  10  221.38   17.80
  -1  -3 -10  260.37   27.30
   1   3  10  270.77   22.90
   2   3  10  738.53   41.20
   3   3  10  392.56   27.90
   4   3  10   32.10    9.50
   5   3  10   21.30    9.70
   6   3  10   -2.30   14.00
   6   3  10    0.10    9.60
   7   3  10   17.80   10.60
   7   3  10   37.00   14.90
  -8  -3 -10  172.58   33.00
   8   3  10  143.09   24.90
   5  -4 -10  197.28   30.90
   5  -4 -10  179.88   20.40
  -5   4  10  177.68   19.40
  -5   4  10  181.58   23.50
   4  -4 -10   15.00   11.50
  -4   4  10    3.70    8.70
  -4   4  10    9.90    7.30
   3  -4 -10  132.49   25.00
  -3   4  10  111.99   18.60
   2  -4 -10   20.40   10.60
  -2   4  10   17.40    7.10
   1  -4 -10   58.19   11.00
  -1   4  10   42.80    7.70
  -1   4  10   48.40    8.60
   0  -4 -10   45.20   10.40
   0   4  10   32.70    8.00
   0   4  10   23.40    7.00
  -1  -4 -10  122.29   22.40
   1   4  10  114.19   19.40
  -2  -4 -10   27.80   11.30
  -2  -4 -10   19.60   10.60
   2   4  10   21.20    8.30
   3   4  10  113.39   20.90
   4   4  10  334.37   27.20
   5   4  10   -3.00    9.60
   6   4  10    0.60   10.10
   7   4  10   11.60   14.40
   7   4  10    3.10   10.50
  -8  -4 -10   57.89   21.00
   8   4  10   69.79   16.10
   4  -5 -10  182.78   29.80
  -4   5  10  131.49   22.10
   3  -5 -10   32.80   11.90
  -3   5  10   11.90    8.40
   2  -5 -10  227.28   26.50
  -2   5  10  205.98   20.90
   1  -5 -10  100.29   22.50
  -1   5  10   67.19    8.60
   0  -5 -10   40.50   10.90
   0  -5 -10   27.20   10.50
   0   5  10   20.40    7.10
  -1  -5 -10   -1.00    9.50
  -1  -5 -10   -0.80   10.80
   1   5  10   -4.50    7.70
  -2  -5 -10    7.80   11.60
  -2  -5 -10    3.40   10.00
   2   5  10   -5.20    8.00
  -3  -5 -10  160.88   24.50
   3   5  10  135.49   22.30
   4   5  10   55.99   10.50
   5   5  10    2.80    9.50
   6   5  10   -2.70   10.00
   7   5  10   55.39   16.60
   7   5  10   28.20   13.20
   7   5  10   21.30   13.20
  -8  -5 -10   59.89   21.00
   8   5  10   70.99   18.60
   4  -6 -10   21.60   14.10
   3  -6 -10   55.09   13.50
  -3   6  10   37.10    9.60
   2  -6 -10    1.80   11.20
  -2   6  10   -6.50    8.10
   1  -6 -10  163.98   24.80
  -1   6  10  137.19   19.70
   0  -6 -10  237.78   25.70
   0   6  10  201.98   20.60
  -1  -6 -10    1.70   11.40
  -1  -6 -10    6.00   10.20
   1   6  10   -7.50    7.10
  -2  -6 -10   22.20   10.70
  -2  -6 -10   19.40   12.60
   2   6  10   12.50    8.70
  -3  -6 -10    3.70   10.50
   3   6  10   -2.80    8.60
  -4  -6 -10  186.48   25.70
   4   6  10  170.28   24.00
  -5  -6 -10  297.67   30.00
   5   6  10  303.27   28.20
   6   6  10   24.90   10.40
   7   6  10   -7.70   10.70
   7   6  10    8.20   13.60
   2  -7 -10    4.90   11.90
  -2   7  10  -14.40    8.70
   1  -7 -10   59.59   13.00
  -1   7  10   37.40    9.20
   0  -7 -10    9.20   10.90
   0   7  10   -4.60    8.20
   1   7  10   41.00    8.90
  -2  -7 -10   -6.60   13.30
  -2  -7 -10    2.30   10.80
   2   7  10  -12.00    7.20
  -3  -7 -10   12.40   10.90
   3   7  10   -2.60    7.30
  -4  -7 -10   24.40   11.40
  -5  -7 -10   23.00   12.10
   5   7  10   19.80   10.70
  -6  -7 -10  145.99   26.70
   6   7  10  179.88   27.30
   7   7  10  131.99   27.90
   1  -8 -10   -5.60   12.10
  -1   8  10   -4.90    9.50
   0  -8 -10  171.78   28.00
   0   8  10  129.09   22.10
  -1  -8 -10  202.18   27.30
  -2  -8 -10   95.59   24.60
   2   8  10   61.39    9.90
  -3  -8 -10  181.78   26.60
   3   8  10  138.39   20.50
  -4  -8 -10  153.58   26.20
  -5  -8 -10    3.90   12.10
  -6  -8 -10   -3.60   12.20
  -1  -9 -10   60.09   13.90
   1   9  10   56.19   10.30
   2   9  10   60.49   10.20
  -3  -9 -10   33.40   12.90
  -4  -9 -10  211.18   28.50
   4   7 -11   21.40   13.90
   4   7 -11   20.70    9.30
  -4  -7  11   15.10   10.10
  -4  -7  11   20.20   14.90
   3   7 -11   36.00    9.80
   3   7 -11   35.30   14.20
   3   7 -11   18.20   11.70
  -3  -7  11   18.80   12.10
  -3  -7  11   35.30   10.40
  -3  -7  11   40.70   15.30
   2   7 -11  305.37   25.00
  -2  -7  11  290.17   25.00
  -2  -7  11  257.67   30.60
   1   7 -11  137.79   20.10
  -1  -7  11  183.08   27.60
   0   7 -11   -9.70   14.10
   0   7 -11   -3.70    9.10
   0  -7  11   18.10   17.50
   0  -7  11    7.90   10.30
   0  -7  11    4.90   12.00
  -1   7 -11   80.49   14.80
  -1   7 -11   54.89    9.90
   1  -7  11   48.10   12.60
   5   6 -11   28.80    9.60
   5   6 -11   25.70   14.00
  -5  -6  11   35.30   10.20
  -5  -6  11   24.70   14.40
   4   6 -11   37.00    9.00
   4   6 -11   44.40   12.90
   4   6 -11   30.70   12.80
  -4  -6  11   29.80   10.40
  -4  -6  11   43.20   15.20
  -4  -6  11   43.30   10.10
   3   6 -11   42.40    9.20
   3   6 -11   42.80   13.60
   3   6 -11   22.10   12.10
  -3  -6  11   47.90   10.00
  -3  -6  11   19.20   11.30
  -3  -6  11   40.80   14.60
   2   6 -11  162.98   20.80
  -2  -6  11  139.59   21.10
  -2  -6  11  162.78   29.80
   1   6 -11   20.30   16.40
  -1  -6  11   42.10   12.50
   0   6 -11   14.20   13.60
   0   6 -11   12.90    9.00
   0  -6  11   13.40   12.00
   0  -6  11   28.60    9.90
   0  -6  11   39.10   14.90
  -1   6 -11   21.20    8.60
  -1   6 -11   33.40   13.00
   1  -6  11   30.50   12.60
   1  -6  11   14.90   11.90
   1  -6  11   46.90   13.70
  -2   6 -11    1.30    8.80
  -2   6 -11   15.10   13.90
   2  -6  11    3.40   12.00
   2  -6  11    9.00    9.10
   2  -6  11   15.60   14.50
   6   5 -11  211.48   22.70
   6   5 -11  219.08   31.00
   6   5 -11  190.28   29.60
  -6  -5  11  215.78   23.00
  -6  -5  11  229.18   33.80
   5   5 -11   -7.70   12.20
   5   5 -11    4.60   13.40
   5   5 -11    5.80    9.10
  -5  -5  11   10.80   13.90
  -5  -5  11    5.80    9.20
   4   5 -11   19.10   12.50
   4   5 -11   37.80   12.60
   4   5 -11   38.20    8.80
   4   5 -11   16.40   12.30
  -4  -5  11   18.20    9.90
  -4  -5  11   44.10   13.40
  -4  -5  11   31.00    9.20
   3   5 -11   47.80   12.80
   3   5 -11   21.20   11.50
   3   5 -11   30.20    8.40
   3   5 -11   19.00   12.00
  -3  -5  11   31.90    8.90
  -3  -5  11    9.00    9.90
  -3  -5  11   34.80   12.90
   2   5 -11  119.69   19.30
   2   5 -11  157.68   15.60
  -2  -5  11  128.69   28.10
  -2  -5  11  134.79   19.40
   1   5 -11  211.08   16.70
  -1  -5  11  197.28   21.20
  -1  -5  11  174.38   26.70
  -1  -5  11  232.98   28.20
   0   5 -11   69.39   14.10
   0   5 -11   58.79    9.40
   0   5 -11   52.29   13.70
   0  -5  11   74.79   12.90
  -1   5 -11   22.60   12.50
  -1   5 -11    9.50    7.90
  -1   5 -11   -3.50   20.10
  -1   5 -11   22.30    8.30
   1  -5  11   20.70    8.60
   1  -5  11   15.00   11.60
   1  -5  11   36.10   12.10
  -2   5 -11  190.38   28.50
  -2   5 -11  116.09   15.20
  -2   5 -11  137.39   19.30
   2  -5  11  160.38   27.40
   2  -5  11  200.98   27.40
   2  -5  11  171.98   19.50
  -3   5 -11   17.40    8.80
  -3   5 -11   17.80   15.20
   3  -5  11    6.90   12.50
   3  -5  11   18.20    9.40
   3  -5  11   21.30   13.10
  -4   5 -11   29.30   16.30
  -4   5 -11   -2.70   21.90
  -4   5 -11   13.90    9.50
   4  -5  11   12.10    9.50
   4  -5  11    1.70   13.20
   6   4 -11   13.20    9.50
   6   4 -11    0.90   12.80
   6   4 -11   13.70   14.40
  -6  -4  11   18.00    9.60
  -6  -4  11   24.50   13.90
   5   4 -11  163.08   27.50
   5   4 -11  187.18   26.80
   5   4 -11  189.78   20.40
  -5  -4  11  202.48   29.60
  -5  -4  11  215.78   20.40
  -5  -4  11  161.48   22.20
   4   4 -11  -12.80   10.70
   4   4 -11   -2.30   10.90
   4   4 -11    3.40    8.10
   4   4 -11    2.20   11.90
  -4  -4  11    8.00   12.50
  -4  -4  11    0.00    8.40
  -4  -4  11   -7.80    8.80
   3   4 -11   36.30    8.30
   3   4 -11   22.50   11.00
   3   4 -11   37.00   11.60
   3   4 -11   16.80   11.50
  -3  -4  11   48.50   12.10
  -3  -4  11   33.60    8.40
   2   4 -11  366.86   24.40
   2   4 -11  394.16   22.50
   2   4 -11  346.87   29.10
   2   4 -11  278.17   28.40
   2   4 -11  375.36   29.50
  -2  -4  11  372.66   30.80
  -2  -4  11  325.67   31.40
  -2  -4  11  296.47   27.30
   1   4 -11   24.10    8.10
  -1  -4  11   15.00    9.30
  -1  -4  11   26.60   12.20
  -1  -4  11   12.10   10.10
   0   4 -11  160.78   28.70
   0   4 -11  143.69   21.00
   0   4 -11  230.18   17.10
   0  -4  11  233.88   26.30
   0  -4  11  183.18   25.90
   0  -4  11  202.28   20.00
  -1   4 -11  -21.30   20.40
  -1   4 -11   -4.90    8.40
  -1   4 -11    2.00    7.70
  -1   4 -11   15.00   12.00
  -1   4 -11   32.80    8.90
   1  -4  11   24.20    8.30
   1  -4  11   32.10   12.60
   1  -4  11   16.60   11.40
  -2   4 -11  314.37   28.70
  -2   4 -11  272.47   21.90
  -2   4 -11  203.48   24.30
   2  -4  11  306.47   33.10
   2  -4  11  302.47   26.50
   2  -4  11  294.17   29.40
  -3   4 -11  178.48   20.50
  -3   4 -11  251.27   31.30
   3  -4  11  225.68   27.10
   3  -4  11  208.68   28.60
   3  -4  11  207.18   21.40
  -4   4 -11  136.59   33.20
  -4   4 -11  223.78   32.40
  -4   4 -11  141.79   21.10
   4  -4  11  190.78   29.10
   4  -4  11  215.08   27.40
   4  -4  11  183.08   20.90
   6   3 -11   48.90   14.10
   6   3 -11   47.30    9.90
   6   3 -11   59.89   14.30
  -6  -3  11   54.49   10.10
  -6  -3  11   57.59   14.40
   5   3 -11   57.89   14.10
   5   3 -11   69.49    9.50
   5   3 -11   53.19   13.30
  -5  -3  11  105.29   18.10
  -5  -3  11   71.69   13.60
   4   3 -11    5.80    7.80
   4   3 -11    0.90   11.80
   4   3 -11   -1.60   10.90
  -4  -3  11   13.00   12.10
  -4  -3  11   -5.00    7.80
  -4  -3  11   -4.60    8.50
   3   3 -11    9.60    7.30
   3   3 -11   23.40    7.60
   3   3 -11   13.40   12.60
   3   3 -11   24.70   10.90
  -3  -3  11   31.70   11.40
  -3  -3  11    7.80    9.10
  -3  -3  11   24.20    8.40
   2   3 -11  189.08   18.00
   2   3 -11  115.19   16.40
   2   3 -11  125.29   21.80
   2   3 -11  157.08   24.00
  -2  -3  11  199.98   23.00
  -2  -3  11  179.48   17.90
  -2  -3  11  116.79   22.10
   1   3 -11   35.80    7.60
   1   3 -11   37.80   11.00
  -1  -3  11   45.10    9.70
  -1  -3  11   60.59   12.00
   0   3 -11  -11.50    6.70
   0  -3  11   -0.60    9.60
   0  -3  11    6.20   10.80
   0  -3  11   -1.90    7.60
  -1   3 -11   17.80    7.80
  -1   3 -11   22.40   11.70
  -1   3 -11   41.00    9.60
  -1   3 -11   -1.70    7.90
   1  -3  11   29.90    8.10
   1  -3  11   14.30   10.40
   1  -3  11   27.90   11.80
  -2   3 -11   42.30    9.70
  -2   3 -11   20.60    7.50
  -2   3 -11   33.60   11.90
   2  -3  11   37.60   10.10
   2  -3  11    6.80   11.20
   2  -3  11   27.90    7.60
  -3   3 -11   -0.20   10.60
  -3   3 -11   21.70   13.10
  -3   3 -11    9.90    7.60
  -3   3 -11   -6.40   18.30
   3  -3  11   10.80    7.70
   3  -3  11   17.20   11.20
   3  -3  11   -6.20   11.60
  -4   3 -11  401.66   28.80
  -4   3 -11  511.65   36.90
  -4   3 -11  445.96   38.60
   4  -3  11  443.36   28.40
   4  -3  11  478.95   35.80
  -5   3 -11   32.40    9.30
  -5   3 -11   43.00   21.50
  -5   3 -11   36.50   15.20
   5  -3  11   32.20   13.60
   5  -3  11   36.60   13.60
   6   2 -11  141.69   29.10
   6   2 -11  116.69   20.40
   6   2 -11   92.29   15.70
  -6  -2  11  128.39   19.80
  -6  -2  11  158.28   27.40
   5   2 -11  -15.00   12.00
   5   2 -11  -14.10    8.30
   5   2 -11  -11.60   12.80
  -5  -2  11   -3.60   12.00
  -5  -2  11   -1.40    8.30
   4   2 -11   49.90   12.40
   4   2 -11   94.19   14.70
   4   2 -11   60.09    8.70
   4   2 -11   46.30   12.30
  -4  -2  11   63.89    9.90
  -4  -2  11   50.79    9.50
  -4  -2  11   66.59   12.10
   3   2 -11   -1.90   10.50
   3   2 -11    2.80    9.80
   3   2 -11   -4.60    6.60
   3   2 -11   -2.00    7.40
  -3  -2  11   -3.40    8.50
  -3  -2  11    6.70    7.10
  -3  -2  11    0.90   10.70
   2   2 -11  476.25   36.10
   2   2 -11  507.55   35.50
   2   2 -11  464.55   29.10
   2   2 -11  535.55   30.00
   2   2 -11  553.54   33.60
   2   2 -11  586.34   31.00
  -2  -2  11  488.25   32.80
  -2  -2  11  538.75   33.20
  -2  -2  11  541.05   29.80
   1   2 -11  656.03   34.40
   1   2 -11  564.04   36.50
   1   2 -11  554.84   33.40
   1   2 -11  670.43   34.40
  -1  -2  11  626.54   33.90
  -1  -2  11  654.53   37.00
  -1  -2  11  649.24   37.10
   0   2 -11  371.76   23.10
   0   2 -11  275.27   21.40
   0  -2  11  324.67   22.30
   0  -2  11  363.96   27.30
   0  -2  11  359.56   26.40
  -1   2 -11    0.70   11.50
  -1   2 -11    3.70    8.10
   1  -2  11   12.20    7.60
   1  -2  11   11.00    9.40
  -2   2 -11   52.99   10.30
  -2   2 -11   39.40   11.20
  -2   2 -11   36.90    7.90
   2  -2  11   43.60   11.60
   2  -2  11   40.00    7.70
   2  -2  11   25.50   10.30
  -3   2 -11   45.70   12.20
  -3   2 -11   42.40    8.00
  -3   2 -11    4.80   12.80
  -3   2 -11   23.40   17.40
  -3   2 -11   16.30    9.10
   3  -2  11   41.00    7.40
   3  -2  11   25.10   11.00
  -4   2 -11    7.20    7.90
  -4   2 -11   14.80   13.00
  -4   2 -11  -14.30   17.90
   4  -2  11   15.30    7.60
   4  -2  11   -5.50   11.40
  -5   2 -11    7.40    8.50
  -5   2 -11    9.80   19.40
   5  -2  11    0.30   12.00
   5  -2  11    9.70    8.10
  -6   2 -11   12.90    9.50
  -6   2 -11   26.40   21.40
   6  -2  11   39.10   13.30
   6  -2  11    9.40   13.40
   6  -2  11   20.40    8.60
   6   1 -11  -11.20   13.80
   6   1 -11   -6.80    9.20
   6   1 -11    1.50   13.10
  -6  -1  11    6.60   10.00
  -6  -1  11   -4.80   12.90
  -6  -1  11    1.10    9.00
   5   1 -11   -9.40   12.30
   5   1 -11   -4.10    8.40
   5   1 -11   -2.20   11.60
  -5  -1  11    3.60    8.30
  -5  -1  11   -2.60    7.90
   4   1 -11   23.00    6.80
   4   1 -11   14.60   11.00
   4   1 -11   30.20   10.50
   4   1 -11   14.10   12.10
   4   1 -11   13.20    7.80
  -4  -1  11   18.90    7.70
  -4  -1  11   22.80   10.90
  -4  -1  11   10.40    8.10
   3   1 -11    8.20   10.60
   3   1 -11   18.10    9.40
   3   1 -11   15.00    7.30
   3   1 -11    3.00   10.30
   3   1 -11   20.70    6.30
  -3  -1  11   20.80    6.90
  -3  -1  11   13.60    8.70
   2   1 -11    3.30    8.90
   2   1 -11    1.30    6.20
   2   1 -11    5.90    9.70
   2   1 -11    6.80    6.90
   2   1 -11   -8.50   10.40
  -2  -1  11    7.50    6.60
   1   1 -11   41.60   11.30
   1   1 -11   53.19    7.60
   1   1 -11   36.00    6.70
   1   1 -11   32.00    9.20
  -1  -1  11   50.69    7.10
  -1  -1  11   32.30    8.90
   0   1 -11  493.85   28.20
   0   1 -11  547.05   29.50
   0  -1  11  451.25   27.50
   0  -1  11  450.55   31.20
  -1   1 -11   36.80   10.60
   1  -1  11   14.00    9.20
   1  -1  11   20.00    6.90
  -2   1 -11  249.88   25.90
  -2   1 -11  363.76   24.70
  -2   1 -11  324.47   22.50
   2  -1  11  348.27   21.90
   2  -1  11  318.07   26.20
  -3   1 -11  129.19   15.30
  -3   1 -11  200.88   17.70
   3  -1  11  163.38   23.80
   3  -1  11  188.98   16.50
  -4   1 -11   41.50    8.20
   4  -1  11   35.60   11.10
   4  -1  11   37.40    7.30
  -5   1 -11   80.99   20.20
  -5   1 -11   65.89    9.20
   5  -1  11   59.09    8.40
   5  -1  11   49.30   12.00
  -6   1 -11   38.80   15.20
  -6   1 -11   20.30    8.90
  -6   1 -11   18.00   19.80
   6  -1  11   16.40    7.80
   6  -1  11    7.60   11.90
   6  -1  11   29.10   13.10
   6   0 -11  150.78   28.90
   6   0 -11  163.98   21.80
   6   0 -11  183.58   30.50
  -6   0  11  200.08   25.70
  -6   0  11  201.08   33.40
  -6   0  11  169.58   21.00
   5   0 -11   56.09   13.30
   5   0 -11   96.09   14.40
   5   0 -11   50.59    9.50
   5   0 -11   49.60   13.30
  -5   0  11   59.69   10.70
  -5   0  11   53.79    9.60
  -5   0  11   55.99   10.80
  -5   0  11   65.89   12.60
   4   0 -11  -16.40   11.10
   4   0 -11   10.00    6.10
   4   0 -11   -2.60   10.60
   4   0 -11   -8.40    7.70
  -4   0  11    4.30    9.00
  -4   0  11   -0.60   10.40
  -4   0  11   -7.80    7.40
  -4   0  11   -3.40    7.70
   3   0 -11   -4.10   10.80
   3   0 -11    4.40    6.10
   3   0 -11   -3.20   10.20
   3   0 -11    0.20    7.10
  -3   0  11   -9.60    7.80
  -3   0  11    9.90    9.60
  -3   0  11   11.80    6.70
  -3   0  11    8.20    8.20
   2   0 -11   98.19   22.70
   2   0 -11  126.99   15.60
   2   0 -11   87.59   13.90
   2   0 -11  109.29   20.20
   2   0 -11   92.79   18.30
  -2   0  11  129.39   14.80
  -2   0  11  103.89   20.20
  -2   0  11   92.89   19.70
   1   0 -11   47.70    7.30
   1   0 -11   49.50   11.70
   1   0 -11   40.80    6.80
   1   0 -11   42.60    9.10
  -1   0  11   48.90    7.60
  -1   0  11   57.29    6.90
  -1   0  11   41.60    9.00
   0   0 -11   -9.50    5.90
   0   0 -11    0.20    6.60
   0   0  11   -6.90    8.20
   0   0  11   12.20    6.00
  -1   0 -11   97.29   15.20
  -1   0 -11   46.60    7.20
   1   0  11   66.99   10.10
  -2   0 -11   30.00    9.10
   2   0  11   39.80    9.60
   3   0  11   16.50    6.60
   3   0  11   -1.00    9.90
  -4   0 -11  415.16   25.40
   4   0  11  390.96   30.30
   4   0  11  398.46   24.20
  -5   0 -11  -12.10   17.10
   5   0  11  -14.50   10.10
  -6   0 -11   13.90   19.60
   6   0  11   15.40   13.00
  -7   0 -11   32.50   22.10
   7   0  11   17.30   14.00
   7   0  11    2.00   11.50
   6  -1 -11   -7.50   13.50
  -6   1  11  -11.00   10.90
  -6   1  11  -10.30    9.10
   5  -1 -11  144.49   28.40
   5  -1 -11  144.69   19.90
  -5   1  11  172.18   23.00
  -5   1  11  162.78   19.00
   4  -1 -11  332.57   30.40
   4  -1 -11  318.87   23.10
   4  -1 -11  296.27   20.50
  -4   1  11  319.17   25.30
  -4   1  11  313.97   22.20
  -4   1  11  322.37   25.50
   3  -1 -11   34.40   11.20
   3  -1 -11   35.60   11.10
   3  -1 -11   38.70    6.50
   3  -1 -11   39.40    7.60
  -3   1  11   36.50    7.30
  -3   1  11   28.40    8.10
  -3   1  11   43.20    8.70
   2  -1 -11  420.56   27.50
   2  -1 -11  440.36   32.70
   2  -1 -11  467.05   26.20
   2  -1 -11  420.26   25.00
  -2   1  11  431.56   29.00
  -2   1  11  473.75   25.30
  -2   1  11  454.45   27.60
   1  -1 -11  258.67   26.50
   1  -1 -11  252.57   18.60
   1  -1 -11  218.58   20.10
   1  -1 -11  216.38   17.20
  -1   1  11  250.97   22.80
  -1   1  11  267.27   17.50
   0  -1 -11    5.20   11.00
   0   1  11   -7.20    7.90
   1   1  11   40.00    9.00
   2   1  11   -7.60    8.60
   3   1  11  141.89   22.70
   4   1  11    2.80   10.00
   5   1  11    3.90   10.40
   6   1  11   19.90   11.70
   6   1  11   38.10   13.40
  -7  -1 -11   28.80   21.20
   7   1  11   42.60   15.30
   5  -2 -11   23.00   13.90
   5  -2 -11   43.60    9.40
   5  -2 -11   43.10   13.50
  -5   2  11   35.60    8.80
  -5   2  11   36.00   10.30
   4  -2 -11   -4.60   11.70
   4  -2 -11    8.70   11.40
   4  -2 -11   -1.10    7.90
  -4   2  11    6.70    7.30
  -4   2  11    5.70    9.00
   3  -2 -11   99.59   23.70
   3  -2 -11   82.79   12.20
   3  -2 -11  120.59   16.50
   3  -2 -11   98.99   16.30
  -3   2  11  110.59   15.00
  -3   2  11  108.19   18.90
  -3   2  11   88.99   19.40
   2  -2 -11   -5.40   10.30
   2  -2 -11   -4.00    6.70
   2  -2 -11    3.20    5.70
  -2   2  11   -7.00    7.90
  -2   2  11   -3.90    7.00
  -2   2  11    1.70    5.90
   1  -2 -11   61.89   11.60
  -1   2  11   49.90    9.60
  -1   2  11   49.30    9.00
   0  -2 -11  946.31   52.89
   0   2  11  904.71   49.30
  -1  -2 -11   -6.90   11.20
   1   2  11    2.90    8.30
   2   2  11   -5.10    8.50
   3   2  11    8.90    9.30
   4   2  11   68.39   11.00
   5   2  11  266.87   27.10
   6   2  11    1.00   11.10
  -7  -2 -11  273.47   34.10
   7   2  11  255.17   26.30
   7   2  11  214.98   28.80
   5  -3 -11   49.10   14.50
   5  -3 -11   35.00    9.70
  -5   3  11   31.40   10.50
  -5   3  11   37.30    9.10
   4  -3 -11   14.70    8.60
   4  -3 -11   25.70   12.30
  -4   3  11    3.90    8.80
  -4   3  11    9.50    7.60
   3  -3 -11   -4.50    7.50
   3  -3 -11    0.80   10.90
  -3   3  11   -8.90    7.80
   2  -3 -11   27.80   11.10
  -2   3  11   26.10    7.50
  -2   3  11   24.00    8.70
   1  -3 -11  211.38   25.80
  -1   3  11  206.98   18.90
  -1   3  11  215.28   21.80
   0  -3 -11  218.38   25.90
   0   3  11  203.18   22.30
  -1  -3 -11   15.60   11.30
   1   3  11   14.90    8.40
  -2  -3 -11  113.49   25.00
   2   3  11  102.99   20.70
   3   3  11    1.60    9.40
   4   3  11   29.50   10.20
   5   3  11   54.99   11.20
   6   3  11   40.90   11.70
  -7  -3 -11   56.89   20.20
   7   3  11   52.19   15.90
   4  -4 -11  146.89   29.30
  -4   4  11  137.19   21.70
  -4   4  11  130.59   17.90
   3  -4 -11   -4.00   11.50
  -3   4  11   -9.40    7.70
   2  -4 -11  -10.40   10.80
  -2   4  11   -9.90    7.20
   1  -4 -11   -0.10   10.60
  -1   4  11    5.30    7.20
  -1   4  11    0.40    8.20
   0  -4 -11   31.30   11.10
   0   4  11   14.50    8.60
   0   4  11   17.20    6.90
  -1  -4 -11  271.87   27.50
   1   4  11  256.87   24.40
  -2  -4 -11   -0.90   11.40
   2   4  11   -1.10    8.80
  -3  -4 -11  341.87   31.70
   3   4  11  348.37   28.20
   4   4  11   60.69   11.00
   5   4  11    3.10   10.50
   6   4  11  -13.40   11.00
   7   4  11   -8.60   11.40
   3  -5 -11   14.20   12.40
  -3   5  11    9.90    9.30
   2  -5 -11    3.80   11.30
  -2   5  11    3.60    7.90
   1  -5 -11   -8.30   10.80
  -1   5  11   -3.20    7.50
   0  -5 -11   72.89   17.70
   0  -5 -11   54.99   12.30
   0   5  11   40.60    9.50
   0   5  11   44.80    8.10
  -1  -5 -11  113.89   24.60
  -1  -5 -11  122.89   21.80
   1   5  11   79.19   11.00
  -2  -5 -11  169.38   25.80
   2   5  11  160.98   23.00
  -3  -5 -11  129.49   25.90
   3   5  11  122.29   23.40
  -4  -5 -11  180.68   27.70
   4   5  11  181.48   25.80
   5   5  11  373.16   31.60
   6   5  11    1.10   10.80
   7   5  11   31.60   11.80
   2  -6 -11   -2.70   12.20
  -2   6  11  -15.60    8.40
   1  -6 -11   84.09   13.90
  -1   6  11   72.09    9.80
   0  -6 -11   35.10   11.80
   0   6  11   15.60    8.30
  -1  -6 -11   10.00   11.40
  -1  -6 -11   18.50   16.60
   1   6  11   -4.90    7.40
  -2  -6 -11   -0.30   11.20
   2   6  11   -8.20    9.30
  -3  -6 -11   40.30   12.30
   3   6  11   27.80   10.10
  -4  -6 -11   -5.40   12.00
   4   6  11   -7.50   10.10
  -5  -6 -11  126.09   26.70
   5   6  11   94.59   13.20
   6   6  11   41.30   11.80
   1  -7 -11   81.29   14.80
  -1   7  11   63.49   10.40
   0  -7 -11  411.06   34.50
   0   7  11  385.66   28.50
  -1  -7 -11  281.17   29.90
   1   7  11  252.87   24.10
  -2  -7 -11    5.80   12.10
   2   7  11   -6.30    8.10
  -3  -7 -11  168.78   27.20
  -4  -7 -11    2.20   12.10
  -5  -7 -11   32.30   13.40
   5   7  11   17.70   11.40
  -1  -8 -11  120.19   28.30
   2   8  11   64.09   10.10
  -3  -8 -11   26.20   13.00
   3   8  11   10.40    8.80
  -4  -8 -11   22.30   13.20
   3   6 -12   16.00    9.20
   3   6 -12   18.10   14.00
  -3  -6  12   19.00   18.10
  -3  -6  12   18.60   10.00
  -3  -6  12   -3.90   11.30
   2   6 -12  172.38   22.20
  -2  -6  12  177.98   32.10
  -2  -6  12  174.28   22.30
  -2  -6  12  126.99   27.80
  -1  -6  12  274.67   32.70
  -1  -6  12  341.67   26.70
  -1  -6  12  380.96   34.50
   0   6 -12   -0.20   10.60
   0   6 -12   -2.10   16.90
   0  -6  12   10.10   13.60
   0  -6  12   36.90   15.50
   0  -6  12   30.00   10.80
   4   5 -12   15.40    8.90
   4   5 -12   -5.40   12.30
   4   5 -12   29.00   13.30
  -4  -5  12   15.30   13.90
  -4  -5  12   -2.80   10.30
  -4  -5  12   10.80    9.50
   3   5 -12  -13.70   12.10
   3   5 -12   22.70   13.30
   3   5 -12   10.40    8.70
  -3  -5  12    7.30   13.70
  -3  -5  12    5.20    9.10
  -3  -5  12   -4.50   10.80
   2   5 -12   19.50   11.40
   2   5 -12   44.80   17.50
   2   5 -12   24.50    8.90
  -2  -5  12   19.80    9.30
  -2  -5  12   23.90   14.20
  -1  -5  12   29.30   14.20
  -1  -5  12   26.50    9.40
  -1  -5  12    2.20   11.90
   0   5 -12  309.97   37.80
   0  -5  12  422.56   33.40
   0  -5  12  354.86   26.80
   0  -5  12  305.17   32.80
  -1   5 -12   63.09   10.50
  -1   5 -12   79.29   15.40
   1  -5  12   73.79   14.20
  -2   5 -12   43.60   14.40
  -2   5 -12   25.80    9.50
   2  -5  12   31.10   13.80
   2  -5  12   42.30    9.80
   2  -5  12   49.20   15.00
   5   4 -12   67.59   14.60
   5   4 -12   70.19   10.40
   5   4 -12   57.09   14.60
  -5  -4  12   57.69   10.90
   4   4 -12  -12.10   12.10
   4   4 -12    3.10    8.80
   4   4 -12   -0.60   12.80
  -4  -4  12   -1.90    9.90
  -4  -4  12   11.50   13.80
  -4  -4  12   10.10    8.90
   3   4 -12   45.10    8.90
   3   4 -12   39.30   12.70
   3   4 -12   30.30   12.60
  -3  -4  12   38.80    9.20
  -3  -4  12   41.50   13.20
  -3  -4  12   32.50   10.90
   2   4 -12  113.79   26.00
   2   4 -12  170.98   26.20
   2   4 -12  148.79   19.80
  -2  -4  12  143.09   19.70
  -2  -4  12  121.59   26.10
   1   4 -12   32.90    9.00
  -1  -4  12   21.40    9.00
  -1  -4  12   23.90   13.30
   0   4 -12   35.00   10.50
   0  -4  12   30.10   12.90
   0  -4  12   26.20    9.30
  -1   4 -12   14.00    9.10
  -1   4 -12   25.30   13.70
   1  -4  12   14.20   12.20
  -2   4 -12   21.00   13.60
  -2   4 -12    2.40    8.50
   2  -4  12   11.30    8.90
   2  -4  12    4.90   12.30
  -3   4 -12   30.90   14.20
  -3   4 -12   16.50    9.30
   3  -4  12   26.00    9.10
   3  -4  12    6.10   13.40
   5   3 -12    6.00   13.90
   5   3 -12   -8.90   12.70
   5   3 -12   14.30    9.20
  -5  -3  12    7.00   13.30
  -5  -3  12    9.80    9.10
  -5  -3  12   -0.80    9.30
   4   3 -12  223.58   21.20
   4   3 -12  197.58   27.20
   4   3 -12  180.88   31.70
  -4  -3  12  206.68   24.60
  -4  -3  12  215.48   29.20
  -4  -3  12  208.78   21.80
   3   3 -12  127.19   18.80
   3   3 -12  124.19   23.90
  -3  -3  12  131.29   18.80
  -3  -3  12  119.09   26.00
   2   3 -12  135.69   26.40
   2   3 -12  188.98   25.40
   2   3 -12  169.48   19.40
  -2  -3  12  142.39   23.10
  -2  -3  12  109.89   24.00
  -2  -3  12  152.98   24.60
   1   3 -12  301.37   23.10
  -1  -3  12  312.07   29.30
  -1  -3  12  284.97   24.00
  -1  -3  12  245.98   27.50
   0   3 -12   -9.90    8.00
   0  -3  12   -2.40   10.10
   0  -3  12   11.00    8.20
  -1   3 -12   -6.80    8.70
  -1   3 -12   -4.40    9.50
  -1   3 -12   15.50   14.20
   1  -3  12    4.40   11.40
   1  -3  12   33.20    8.90
   1  -3  12   31.50   12.10
  -2   3 -12   13.80   12.80
  -2   3 -12   -5.50    8.30
   2  -3  12   -8.40   11.10
   2  -3  12   13.70    8.60
  -3   3 -12   14.90    8.80
  -3   3 -12   36.40   13.40
   3  -3  12   17.10   12.50
   3  -3  12   20.20   10.70
  -4   3 -12   40.90    9.40
  -4   3 -12   39.90   21.10
  -4   3 -12   64.49   15.50
   4  -3  12   35.00   13.70
   4  -3  12   44.80    9.60
   5   2 -12   17.90   13.80
   5   2 -12   23.20   14.20
   5   2 -12   26.30    9.30
  -5  -2  12   17.60    9.20
  -5  -2  12   40.80   14.10
  -5  -2  12   30.90    9.00
   4   2 -12    9.90    8.20
   4   2 -12  -10.30   12.50
   4   2 -12   -7.80   12.10
  -4  -2  12    6.20    8.00
  -4  -2  12    7.30   12.00
  -4  -2  12   -3.90    9.10
   3   2 -12   51.59   10.80
   3   2 -12   48.80    8.80
   3   2 -12   29.40   12.00
   3   2 -12   48.50   12.30
  -3  -2  12   49.80   12.60
  -3  -2  12   32.40   10.10
   2   2 -12    5.70    7.50
   2   2 -12   13.20    7.70
   2   2 -12   15.40   11.00
   2   2 -12   -1.80   11.70
  -2  -2  12   19.70    7.70
  -2  -2  12    4.10   10.00
  -2  -2  12   19.80   11.30
   1   2 -12   21.30    7.70
   1   2 -12   43.30   12.30
  -1  -2  12   51.49    8.20
  -1  -2  12   34.40   10.40
   0   2 -12  535.85   30.50
   0  -2  12  478.65   34.20
   0  -2  12  501.75   29.90
  -1   2 -12   27.10    8.90
  -1   2 -12   34.20   15.40
   1  -2  12   51.39    8.70
   1  -2  12   42.50   10.80
  -2   2 -12    2.50   12.50
  -2   2 -12   -1.80    8.60
   2  -2  12   13.90   11.10
   2  -2  12   13.20    8.40
   2  -2  12   -6.90   10.30
  -3   2 -12   16.80    8.70
   3  -2  12   27.60    8.20
   3  -2  12    0.40   12.00
  -4   2 -12   53.29   19.80
  -4   2 -12   59.99    9.60
   4  -2  12   37.70   12.60
  -5   2 -12   19.10    9.80
  -5   2 -12   10.20   20.50
  -5   2 -12   28.20   15.30
   5   1 -12   51.39   14.50
   5   1 -12   70.39   10.30
   5   1 -12   50.59   14.20
  -5  -1  12   53.09   10.10
  -5  -1  12   61.59   11.60
  -5  -1  12   72.09    9.90
   4   1 -12   -0.60    8.40
   4   1 -12    0.40   11.80
   4   1 -12   -6.30   12.80
  -4  -1  12    7.20   11.50
  -4  -1  12   -6.30    8.90
  -4  -1  12    3.60    9.70
   3   1 -12    2.20    7.30
   3   1 -12  -11.90   11.00
   3   1 -12   -4.00   11.50
   3   1 -12    4.40    7.60
  -3  -1  12  -13.20    8.90
  -3  -1  12    2.00    7.50
  -3  -1  12    0.70    8.80
   2   1 -12   15.00    7.30
   2   1 -12   13.70   10.80
   2   1 -12   13.30   11.70
   2   1 -12   19.20    7.80
  -2  -1  12   23.20    8.30
  -2  -1  12    8.80    9.70
  -2  -1  12   24.30    7.30
  -2  -1  12   24.90   10.70
   1   1 -12   92.89   25.00
   1   1 -12   59.99    8.10
  -1  -1  12   64.89   10.90
   0   1 -12  193.88   18.60
   0  -1  12  152.28   21.60
   0  -1  12  186.88   17.40
   0  -1  12  125.99   23.50
  -1   1 -12  140.39   18.30
   1  -1  12  106.99   16.70
  -2   1 -12   -9.10    8.70
   2  -1  12   25.10    7.80
   2  -1  12    6.80   10.50
  -3   1 -12    3.50    8.20
   3  -1  12    0.60   10.50
   3  -1  12   13.20    7.70
  -4   1 -12   55.89   13.20
  -4   1 -12   50.49    9.10
   4  -1  12   45.20    8.20
  -5   1 -12   33.50    8.90
  -5   1 -12   26.80   19.70
   5  -1  12   14.90   12.10
   5  -1  12   26.30    7.80
   5   0 -12   34.50   14.00
   5   0 -12   51.29    9.90
  -5   0  12   48.20   11.70
  -5   0  12   38.30   10.00
  -5   0  12   52.79    9.40
   4   0 -12  265.87   28.20
   4   0 -12  268.97   22.80
   4   0 -12  264.07   30.30
  -4   0  12  283.77   26.30
  -4   0  12  281.77   21.80
  -4   0  12  260.97   25.00
   3   0 -12    4.20   12.20
   3   0 -12    8.00    8.00
   3   0 -12   26.10   11.50
   3   0 -12   13.90   11.70
  -3   0  12   12.20    8.80
  -3   0  12   13.20    7.50
  -3   0  12   24.10    9.00
   2   0 -12   27.60    7.60
   2   0 -12   18.60   10.90
   2   0 -12    8.90   11.20
   2   0 -12   15.30    7.10
  -2   0  12   11.40    9.00
  -2   0  12   17.10    7.80
  -2   0  12   17.70    6.90
   1   0 -12   35.80    7.30
   1   0 -12   45.80    7.80
   1   0 -12   45.00   13.00
  -1   0  12   53.79    7.40
  -1   0  12   27.70    9.70
   0   0 -12   37.30    7.70
   0   0 -12   44.90   12.80
   0   0  12   29.20    9.80
   0   0  12   44.30    7.00
  -1   0 -12  225.68   18.90
   1   0  12  206.68   17.30
   1   0  12  179.48   24.30
   2   0  12   41.80    7.20
   2   0  12   31.50   10.60
   3   0  12   63.09   11.80
   4   0  12   69.99   12.60
  -5   0 -12    6.70    8.50
   5   0  12   -0.30   12.00
   4  -1 -12   -4.60    8.50
   4  -1 -12   -5.20   12.10
  -4   1  12    1.40    9.20
  -4   1  12  -10.40    9.20
  -4   1  12    8.10    7.90
   3  -1 -12   14.20   11.60
   3  -1 -12   13.30    8.10
  -3   1  12   15.50    7.40
  -3   1  12   21.00    8.60
  -3   1  12    7.20    8.80
   2  -1 -12   20.00   11.60
   2  -1 -12   32.90    7.80
  -2   1  12   38.90    7.00
  -2   1  12   21.30    9.10
  -2   1  12   35.90    8.40
   1  -1 -12   -3.40    6.80
   1  -1 -12    1.10   11.20
   1  -1 -12   -2.80    6.70
  -1   1  12   -3.20    8.80
  -1   1  12    6.40    6.10
   0  -1 -12   42.80   13.00
   0  -1 -12   40.20    7.40
   0   1  12   45.70    6.80
   0   1  12   30.50   10.00
  -1  -1 -12   22.00   12.60
   1   1  12    8.10    9.50
   2   1  12  146.59   23.00
   3   1  12    7.80   10.50
   4   1  12  119.39   25.40
   5   1  12  258.87   29.20
   6   1  12   21.30   12.80
   4  -2 -12   45.20    9.40
   4  -2 -12   42.40   13.60
  -4   2  12   49.50   10.20
  -4   2  12   46.10    8.60
   3  -2 -12   45.30   12.80
   3  -2 -12   51.29    8.80
  -3   2  12   49.99    7.90
  -3   2  12   40.20    9.40
  -3   2  12   43.20    9.90
   2  -2 -12    2.60   11.30
  -2   2  12   14.10    7.70
  -2   2  12    0.30    8.60
   1  -2 -12   28.80   11.90
  -1   2  12   30.60    9.20
  -1   2  12   29.20    7.60
   0  -2 -12    3.70   11.90
   0   2  12    3.50    8.80
  -1  -2 -12  132.29   27.60
   1   2  12  150.78   22.80
   2   2  12   -4.60    9.50
   3   2  12   51.89   11.20
   4   2  12  -12.30   10.30
   5   2  12   -4.50   11.30
   6   2  12  154.18   27.70
   3  -3 -12   28.10   12.80
  -3   3  12   12.00    8.60
   2  -3 -12   -5.20   11.10
  -2   3  12   -3.10    8.60
  -2   3  12   -5.60    7.80
   1  -3 -12   25.00   12.10
  -1   3  12   19.50    7.30
  -1   3  12   18.10    9.10
   0  -3 -12  659.03   43.20
   0   3  12  645.84   39.00
  -1  -3 -12  476.05   37.10
   1   3  12  473.65   32.50
  -2  -3 -12  233.98   30.60
   2   3  12  265.07   25.80
   3   3  12   43.30   10.90
   4   3  12   14.70   10.90
   5   3  12   -6.70   11.20
   6   3  12    4.70   11.70
   3  -4 -12   -0.70   12.70
  -3   4  12   -3.90    8.70
   2  -4 -12   47.80   13.50
  -2   4  12   39.60    9.00
   1  -4 -12    1.40   11.60
  -1   4  12   -1.30    7.60
  -1   4  12    3.50    8.90
   0  -4 -12   12.30   12.00
   0   4  12    5.30    9.10
   0   4  12    8.80    7.20
  -1  -4 -12  117.69   27.10
   1   4  12  111.59   22.50
  -2  -4 -12  256.77   31.00
   2   4  12  265.87   27.20
  -3  -4 -12   10.90   12.90
   3   4  12   -1.70   10.00
   4   4  12   39.00   10.90
   5   4  12   52.79   12.00
   2  -5 -12   -2.50   12.50
  -2   5  12   -2.50    8.30
   1  -5 -12   84.79   14.50
  -1   5  12   58.89    9.60
   0  -5 -12    8.00   12.10
   0   5  12    0.70    7.40
   0   5  12    7.50    9.50
  -1  -5 -12   14.40   12.20
   1   5  12    3.50    9.30
   1   5  12    5.50    7.40
  -2  -5 -12   -2.20   12.10
   2   5  12   -4.70    9.60
  -3  -5 -12    8.90   13.10
   3   5  12    4.40   10.20
  -4  -5 -12   -1.40   13.10
   4   5  12  -10.90   10.80
   5   5  12   -9.40   11.60
   0  -6 -12   81.89   14.60
   0   6  12   67.99    9.50
  -1  -6 -12   58.79   13.90
   1   6  12   44.90    8.70
  -2  -6 -12   -2.10   12.20
   2   6  12  -14.20    9.90
  -3  -6 -12    2.90   12.70
   3   6  12   -9.50   10.00
  -4  -6 -12    1.70   13.20
   4   6  12   -9.00   10.90
   2   4 -13   32.20   13.50
   2   4 -13   15.70    9.40
   2   4 -13    8.80   13.40
  -2  -4  13    5.40    9.10
  -2  -4  13    1.30   11.80
   1   4 -13  163.48   21.80
  -1  -4  13  122.49   21.40
   0  -4  13   10.90   12.30
   0  -4  13   37.00    9.70
   3   3 -13   -0.20   12.50
   3   3 -13   15.30   12.80
   3   3 -13   11.80    8.90
  -3  -3  13    7.50   10.70
  -3  -3  13   21.90    8.90
   2   3 -13   16.20   12.50
   2   3 -13   21.80    9.00
   2   3 -13   -6.10   12.50
  -2  -3  13  -10.30   10.80
  -2  -3  13    7.70    8.80
   1   3 -13   22.80   12.70
   1   3 -13   47.40   13.10
   1   3 -13   24.40    9.00
  -1  -3  13   29.50    8.90
   0  -3  13   57.39    9.80
  -1   3 -13  -10.60   17.50
   1  -3  13   33.20    9.50
   1  -3  13   10.80   11.70
  -2   3 -13   61.79   11.10
  -2   3 -13   70.49   15.80
   2  -3  13   54.79   13.20
   3   2 -13   55.29    9.50
   3   2 -13   39.80   13.20
   3   2 -13   38.20   13.40
  -3  -2  13   38.60   10.20
  -3  -2  13   42.00    9.50
  -3  -2  13   33.80   10.90
   2   2 -13   18.90   12.80
   2   2 -13   44.70    9.00
   2   2 -13   32.10   12.20
  -2  -2  13   36.20    8.90
  -2  -2  13   26.00   11.30
   1   2 -13   51.39   14.10
  -1  -2  13   50.49    9.60
  -1  -2  13   36.60   11.80
   0  -2  13   19.90   11.80
   0  -2  13   42.00    8.80
   1  -2  13   13.00   11.70
   1  -2  13   32.10    8.80
   2  -2  13   14.10    8.90
   2  -2  13   -6.80   12.30
  -3   2 -13   -7.60    9.80
  -3   2 -13   11.10   14.20
   3  -2  13    6.50    9.30
   3  -2  13   -2.80   11.90
   3   1 -13   -4.80    8.40
   3   1 -13   -9.60   12.70
   3   1 -13  -14.10   12.10
  -3  -1  13   -4.60    9.80
  -3  -1  13    9.50   10.10
  -3  -1  13    7.90    8.90
   2   1 -13    4.10    8.50
   2   1 -13   -1.20   11.70
   2   1 -13   -9.40   12.00
  -2  -1  13    3.70    8.00
  -2  -1  13  -11.60   10.20
   1   1 -13   17.20   11.40
   1   1 -13   23.30    8.30
   1   1 -13    5.80   12.90
  -1  -1  13   19.10    7.90
   0   1 -13  280.07   22.20
   0   1 -13  267.87   31.00
   0  -1  13  210.98   27.70
   0  -1  13  260.87   21.10
  -1   1 -13  334.47   23.80
   1  -1  13  253.07   29.60
   1  -1  13  280.27   22.40
   2  -1  13   66.69   13.10
  -3   1 -13    7.90   10.30
   3  -1  13   -2.50   12.00
   3  -1  13   28.10    9.40
   3   0 -13    4.90    8.60
   3   0 -13   -1.50   12.50
  -3   0  13    6.30    9.80
  -3   0  13    8.40    9.30
  -3   0  13   12.10    8.00
   2   0 -13   -1.70   12.00
   2   0 -13   10.90    8.10
  -2   0  13    2.70    9.70
  -2   0  13   13.70    7.50
   1   0 -13    9.70    8.00
   1   0 -13   -0.70   12.40
  -1   0  13    0.10   10.20
  -1   0  13   12.00    7.40
   0   0 -13   16.30    7.80
   0   0 -13   13.30   10.80
   0   0 -13   -0.40   13.00
   0   0  13   -1.90   10.50
   0   0  13   10.90    7.10
   1   0  13   22.70   10.90
  -2   0 -13  285.97   21.70
   2   0  13  197.08   27.70
   3   0  13    4.20   11.70
  -4   0 -13   49.60   10.40
   4   0  13   37.50   13.00
   3  -1 -13   51.69    9.50
   3  -1 -13   49.60   13.80
  -3   1  13   51.09   10.50
  -3   1  13   61.59    8.70
  -3   1  13   51.99   10.00
   2  -1 -13  -13.40    7.90
   2  -1 -13   -2.50   12.00
  -2   1  13   -3.70    8.30
  -2   1  13    1.10    7.20
  -2   1  13   -0.50    9.40
   1  -1 -13   25.70    7.90
   1  -1 -13   24.80   12.80
  -1   1  13   23.50   10.10
  -1   1  13   36.40    7.20
   0  -1 -13   24.30   13.60
   0   1  13   15.70   10.20
   0   1  13   24.40    6.90
  -1  -1 -13   30.00   14.30
   1   1  13   19.60   10.50
   2   1  13   -9.70   10.70
   3   1  13    0.50   11.00
   4   1  13    2.60   11.70
   2  -2 -13  259.67   32.00
   2  -2 -13  299.07   22.10
  -2   2  13  256.87   26.30
  -2   2  13  260.67   23.10
   1  -2 -13   21.20   12.50
  -1   2  13   21.90    7.50
  -1   2  13   22.50    9.80
   0  -2 -13  219.58   29.90
   0   2  13  193.38   25.30
  -1  -2 -13  192.68   31.10
   1   2  13  195.68   25.50
  -2  -2 -13   -1.60   14.00
   2   2  13   -5.60   10.30
   3   2  13   -4.30   10.80
   4   2  13   -2.70   11.40
   1  -3 -13    0.90   12.80
  -1   3  13    3.80    7.60
  -1   3  13    0.90    9.30
   0  -3 -13   -5.70   12.40
   0   3  13    1.80    7.10
   0   3  13    4.80    9.70
  -1  -3 -13   22.00   13.60
   1   3  13   13.60   10.20
  -2  -3 -13   67.59   15.70
   2   3  13   60.09   11.40
  -3  -3 -13    6.80   14.60
   3   3  13  -11.10   10.60
   4   3  13    8.90   11.80
   0  -4 -13   -3.10   12.70
   0   4  13   -3.10    9.90
   0   4  13   -6.10    7.40
  -1  -4 -13  115.69   28.60
   1   4  13   83.19   12.10
  -2  -4 -13    8.80   13.90
   2   4  13   -3.90   10.50
  -3  -4 -13    7.70   14.50
   3   4  13   15.50   11.20

_computing_structure_solution     'SHELXT 2014/4 (Sheldrick, 2014)'
;
_shelx_hkl_checksum              87926
loop_
_space_group_symop_operation_xyz
'x, y, z'
'-x, -y, -z'
loop_
_atom_site_label
_atom_site_type_symbol
_atom_site_fract_x
_atom_site_fract_y
_atom_site_fract_z
_atom_site_U_iso_or_equiv
_atom_site_adp_type
_atom_site_occupancy
_atom_site_site_symmetry_order
_atom_site_calc_flag
_atom_site_refinement_flags_posn
_atom_site_refinement_flags_adp
Cu Cu 0.59448(7) 0.70529(6) 0.77954(6) 0.02876(16) Uani 1 1 d . .
Br1 Br 0.80607(7) 0.66789(6) 0.61101(6) 0.04251(17) Uani 1 1 d . .
Br2 Br 0.46809(8) 0.94558(6) 0.81042(6) 0.04241(17) Uani 1 1 d . .
Cl1 Cl 0.0149(2) 0.99878(18) 0.27017(17) 0.0601(5) Uani 1 1 d . .
N1 N 0.4338(5) 0.6446(4) 0.6467(4) 0.0269(9) Uani 1 1 d . .
N2 N 0.4341(5) 0.5193(4) 0.6543(4) 0.0287(9) Uani 1 1 d . .
N3 N 0.6022(5) 0.5148(4) 0.8206(4) 0.0259(8) Uani 1 1 d . .
N4 N 0.7218(5) 0.6724(4) 0.9481(4) 0.0289(9) Uani 1 1 d . .
C1 C 0.1365(6) 0.8943(6) 0.3816(5) 0.0354(12) Uani 1 1 d . .
C2 C 0.1125(7) 0.7709(6) 0.4180(5) 0.0390(13) Uani 1 1 d . .
H2 H 0.0300 0.7458 0.3856 0.047 Uiso 1 1 calc R U
C3 C 0.2123(6) 0.6843(6) 0.5036(5) 0.0356(12) Uani 1 1 d . .
H3 H 0.1994 0.5992 0.5276 0.043 Uiso 1 1 calc R U
C4 C 0.3325(6) 0.7263(5) 0.5535(4) 0.0258(10) Uani 1 1 d . .
C5 C 0.3539(6) 0.8512(5) 0.5182(5) 0.0331(11) Uani 1 1 d . .
H5 H 0.4338 0.8781 0.5532 0.040 Uiso 1 1 calc R U
C6 C 0.2561(7) 0.9372(6) 0.4301(5) 0.0382(13) Uani 1 1 d . .
H6 H 0.2703 1.0213 0.4043 0.046 Uiso 1 1 calc R U
C7 C 0.5287(6) 0.4456(5) 0.7544(4) 0.0258(10) Uani 1 1 d . .
C8 C 0.5388(6) 0.3079(5) 0.7824(5) 0.0303(11) Uani 1 1 d . .
H8 H 0.4869 0.2610 0.7338 0.036 Uiso 1 1 calc R U
C9 C 0.6266(6) 0.2422(5) 0.8833(5) 0.0324(11) Uani 1 1 d . .
H9 H 0.6341 0.1502 0.9035 0.039 Uiso 1 1 calc R U
C10 C 0.7058(6) 0.3144(5) 0.9566(5) 0.0291(11) Uani 1 1 d . .
C11 C 0.6876(5) 0.4530(5) 0.9200(4) 0.0241(10) Uani 1 1 d . .
C12 C 0.7975(6) 0.2609(6) 1.0665(5) 0.0379(13) Uani 1 1 d . .
H12 H 0.8135 0.1688 1.0919 0.046 Uiso 1 1 calc R U
C13 C 0.8608(6) 0.3416(6) 1.1332(5) 0.0377(13) Uani 1 1 d . .
H13 H 0.9205 0.3035 1.2032 0.045 Uiso 1 1 calc R U
C14 C 0.8385(6) 0.4853(6) 1.0992(5) 0.0305(11) Uani 1 1 d . .
C15 C 0.7531(5) 0.5392(5) 0.9908(5) 0.0265(10) Uani 1 1 d . .
C16 C 0.8909(7) 0.5789(6) 1.1692(6) 0.0405(13) Uani 1 1 d . .
H16 H 0.9467 0.5499 1.2430 0.049 Uiso 1 1 calc R U
C17 C 0.8580(7) 0.7136(7) 1.1262(6) 0.0436(14) Uani 1 1 d . .
H17 H 0.8922 0.7766 1.1712 0.052 Uiso 1 1 calc R U
C18 C 0.7733(6) 0.7583(6) 1.0152(5) 0.0362(12) Uani 1 1 d . .
H18 H 0.7529 0.8503 0.9881 0.043 Uiso 1 1 calc R U
loop_
_atom_site_aniso_label
_atom_site_aniso_U_11
_atom_site_aniso_U_22
_atom_site_aniso_U_33
_atom_site_aniso_U_23
_atom_site_aniso_U_13
_atom_site_aniso_U_12
Cu 0.0345(3) 0.0219(3) 0.0298(3) 0.0023(2) -0.0032(2) -0.0085(2)
Br1 0.0389(3) 0.0423(3) 0.0474(3) -0.0017(3) 0.0082(2) -0.0152(2)
Br2 0.0559(4) 0.0255(3) 0.0427(3) -0.0035(2) -0.0048(3) -0.0075(2)
Cl1 0.0697(11) 0.0473(9) 0.0572(10) 0.0158(8) -0.0329(9) -0.0071(8)
N1 0.028(2) 0.027(2) 0.025(2) 0.0015(16) -0.0020(16) -0.0082(17)
N2 0.030(2) 0.029(2) 0.029(2) -0.0015(17) -0.0034(17) -0.0121(17)
N3 0.027(2) 0.027(2) 0.023(2) 0.0016(16) -0.0031(16) -0.0077(16)
N4 0.030(2) 0.024(2) 0.032(2) -0.0010(17) -0.0021(17) -0.0077(17)
C1 0.038(3) 0.033(3) 0.030(3) 0.002(2) -0.005(2) -0.002(2)
C2 0.037(3) 0.048(3) 0.039(3) 0.005(3) -0.011(2) -0.021(3)
C3 0.038(3) 0.039(3) 0.034(3) 0.002(2) -0.008(2) -0.017(2)
C4 0.027(2) 0.027(2) 0.023(2) 0.0012(19) -0.0009(18) -0.0077(19)
C5 0.039(3) 0.030(3) 0.034(3) 0.003(2) -0.010(2) -0.015(2)
C6 0.049(3) 0.031(3) 0.036(3) 0.002(2) -0.005(2) -0.013(2)
C7 0.028(2) 0.027(2) 0.023(2) -0.0025(19) 0.0012(19) -0.0098(19)
C8 0.033(3) 0.024(2) 0.035(3) -0.003(2) 0.001(2) -0.011(2)
C9 0.034(3) 0.022(2) 0.041(3) 0.001(2) 0.001(2) -0.008(2)
C10 0.025(2) 0.025(2) 0.034(3) 0.001(2) 0.003(2) -0.0041(19)
C11 0.024(2) 0.024(2) 0.022(2) 0.0031(18) -0.0001(17) -0.0054(18)
C12 0.037(3) 0.030(3) 0.041(3) 0.012(2) -0.002(2) -0.002(2)
C13 0.032(3) 0.039(3) 0.034(3) 0.007(2) -0.003(2) -0.001(2)
C14 0.026(2) 0.035(3) 0.027(3) 0.000(2) -0.0021(19) -0.004(2)
C15 0.023(2) 0.027(2) 0.026(2) -0.0009(19) 0.0002(18) -0.0042(19)
C16 0.034(3) 0.049(4) 0.036(3) -0.004(3) -0.011(2) -0.009(3)
C17 0.040(3) 0.043(3) 0.049(4) -0.012(3) -0.013(3) -0.013(3)
C18 0.036(3) 0.032(3) 0.043(3) -0.004(2) -0.006(2) -0.014(2)
loop_
_atom_type_symbol
_atom_type_description
_atom_type_scat_dispersion_real
_atom_type_scat_dispersion_imag
_atom_type_scat_source
C C 0.0033 0.0016 'International Tables Vol C Tables 4.2.6.8 and 6.1.1.4'
H H 0.0000 0.0000 'International Tables Vol C Tables 4.2.6.8 and 6.1.1.4'
N N 0.0061 0.0033 'International Tables Vol C Tables 4.2.6.8 and 6.1.1.4'
Cl Cl 0.1484 0.1585 'International Tables Vol C Tables 4.2.6.8 and 6.1.1.4'
Cu Cu 0.3201 1.2651 'International Tables Vol C Tables 4.2.6.8 and 6.1.1.4'
Br Br -0.2901 2.4595 'International Tables Vol C Tables 4.2.6.8 and 6.1.1.4'
loop_
_geom_angle_atom_site_label_1
_geom_angle_atom_site_label_2
_geom_angle_atom_site_label_3
_geom_angle
N3 Cu N4 79.49(17)
N3 Cu N1 72.21(16)
N4 Cu N1 150.33(16)
N3 Cu Br2 147.89(12)
N4 Cu Br2 96.03(11)
N1 Cu Br2 103.10(11)
N3 Cu Br1 101.51(12)
N4 Cu Br1 102.53(12)
N1 Cu Br1 91.86(10)
Br2 Cu Br1 110.46(3)
N2 N1 C4 114.3(4)
N2 N1 Cu 116.0(3)
C4 N1 Cu 129.7(3)
N1 N2 C7 111.8(4)
C7 N3 C11 119.9(4)
C7 N3 Cu 122.6(3)
C11 N3 Cu 117.4(3)
C18 N4 C15 117.5(5)
C18 N4 Cu 131.0(4)
C15 N4 Cu 111.4(3)
C2 C1 C6 122.2(5)
C2 C1 Cl1 118.8(4)
C6 C1 Cl1 119.0(4)
C1 C2 C3 119.3(5)
C1 C2 H2 120.3
C3 C2 H2 120.3
C2 C3 C4 119.1(5)
C2 C3 H3 120.4
C4 C3 H3 120.4
C5 C4 C3 121.2(5)
C5 C4 N1 117.3(4)
C3 C4 N1 121.5(5)
C4 C5 C6 119.9(5)
C4 C5 H5 120.0
C6 C5 H5 120.0
C1 C6 C5 118.3(5)
C1 C6 H6 120.9
C5 C6 H6 120.9
N3 C7 C8 122.1(5)
N3 C7 N2 117.1(4)
C8 C7 N2 120.8(5)
C9 C8 C7 118.9(5)
C9 C8 H8 120.5
C7 C8 H8 120.5
C8 C9 C10 120.1(5)
C8 C9 H9 119.9
C10 C9 H9 119.9
C11 C10 C9 116.2(5)
C11 C10 C12 117.4(5)
C9 C10 C12 126.3(5)
N3 C11 C10 122.7(5)
N3 C11 C15 115.7(4)
C10 C11 C15 121.6(4)
C13 C12 C10 121.3(5)
C13 C12 H12 119.4
C10 C12 H12 119.4
C12 C13 C14 121.8(5)
C12 C13 H13 119.1
C14 C13 H13 119.1
C15 C14 C16 116.6(5)
C15 C14 C13 118.2(5)
C16 C14 C13 125.2(5)
N4 C15 C14 124.7(5)
N4 C15 C11 115.6(4)
C14 C15 C11 119.7(5)
C17 C16 C14 118.5(5)
C17 C16 H16 120.8
C14 C16 H16 120.8
C16 C17 C18 121.1(5)
C16 C17 H17 119.5
C18 C17 H17 119.5
N4 C18 C17 121.6(5)
N4 C18 H18 119.2
C17 C18 H18 119.2
loop_
_geom_bond_atom_site_label_1
_geom_bond_atom_site_label_2
_geom_bond_distance
Cu N3 1.942(4)
Cu N4 2.108(4)
Cu N1 2.264(4)
Cu Br2 2.3563(9)
Cu Br1 2.4883(9)
Cl1 C1 1.732(5)
N1 N2 1.264(6)
N1 C4 1.425(6)
N2 C7 1.422(6)
N3 C7 1.320(6)
N3 C11 1.343(6)
N4 C18 1.326(7)
N4 C15 1.356(6)
C1 C2 1.373(8)
C1 C6 1.390(8)
C2 C3 1.383(8)
C2 H2 0.9300
C3 C4 1.396(7)
C3 H3 0.9300
C4 C5 1.375(7)
C5 C6 1.391(7)
C5 H5 0.9300
C6 H6 0.9300
C7 C8 1.391(7)
C8 C9 1.376(7)
C8 H8 0.9300
C9 C10 1.418(8)
C9 H9 0.9300
C10 C11 1.405(7)
C10 C12 1.439(7)
C11 C15 1.424(7)
C12 C13 1.347(9)
C12 H12 0.9300
C13 C14 1.440(8)
C13 H13 0.9300
C14 C15 1.401(7)
C14 C16 1.408(8)
C16 C17 1.369(9)
C16 H16 0.9300
C17 C18 1.404(8)
C17 H17 0.9300
C18 H18 0.9300
