#------------------------------------------------------------------------------
#$Date: 2019-11-08 02:20:19 +0200 (Fri, 08 Nov 2019) $
#$Revision: 224729 $
#$URL: file:///home/coder/svn-repositories/cod/cif/4/03/46/4034698.cif $
#------------------------------------------------------------------------------
#
# This file is available in the Crystallography Open Database (COD),
# http://www.crystallography.net/
#
# All data on this site have been placed in the public domain by the
# contributors.
#
data_4034698
loop_
_publ_author_name
'Yuan, Yumeng'
'Pan, Guoshuai'
'Zhang, Xiaofeng'
'Li, Buhong'
'Xiang, Shengchang'
'Huang, Qiufeng'
_publ_section_title
;
 Synthesis of seven-membered azepino[3,2,1-hi]indoles via
 rhodium-catalyzed regioselectively C-H activation/DBU-catalyzed
 intramolecualr amidation of 7-phenylindoles in one pot.
;
_journal_name_full               'The Journal of organic chemistry'
_journal_paper_doi               10.1021/acs.joc.9b02289
_journal_year                    2019
_chemical_formula_moiety         'C19 H13 N O4'
_chemical_formula_sum            'C19 H13 N O4'
_chemical_formula_weight         319.30
_chemical_name_systematic        164
_space_group_crystal_system      triclinic
_space_group_IT_number           2
_space_group_name_Hall           '-P 1'
_space_group_name_H-M_alt        'P -1'
_atom_sites_solution_hydrogens   geom
_atom_sites_solution_primary     dual
_audit_creation_date             2019-05-03
_audit_creation_method
;
Olex2 1.2
(compiled 2018.05.29 svn.r3508 for OlexSys, GUI svn.r5506)
;
_cell_angle_alpha                76.529(5)
_cell_angle_beta                 72.019(6)
_cell_angle_gamma                89.646(6)
_cell_formula_units_Z            2
_cell_length_a                   7.8170(5)
_cell_length_b                   8.4933(6)
_cell_length_c                   12.0759(7)
_cell_measurement_reflns_used    3079
_cell_measurement_temperature    150.00(10)
_cell_measurement_theta_max      72.8120
_cell_measurement_theta_min      3.9880
_cell_volume                     739.73(9)
_computing_cell_refinement       'CrysAlisPro 1.171.39.46e (Rigaku OD, 2018)'
_computing_data_collection       'CrysAlisPro 1.171.39.46e (Rigaku OD, 2018)'
_computing_data_reduction        'CrysAlisPro 1.171.39.46e (Rigaku OD, 2018)'
_computing_molecular_graphics    'Olex2 (Dolomanov et al., 2009)'
_computing_publication_material  'Olex2 (Dolomanov et al., 2009)'
_computing_structure_refinement  'ShelXL (Sheldrick, 2015)'
_computing_structure_solution    'ShelXT (Sheldrick, 2015)'
_diffrn_ambient_environment      N~2~
_diffrn_ambient_temperature      150.00(10)
_diffrn_detector                 'CCD plate'
_diffrn_detector_area_resol_mean 10.5148
_diffrn_detector_type            Atlas
_diffrn_measured_fraction_theta_full 0.999
_diffrn_measured_fraction_theta_max 0.977
_diffrn_measurement_details
;
List of Runs (angles in degrees, time in seconds):

  # Type    Start    End  Width  t~exp~   \w     \q     \k     \f   Frames
--------------------------------------------------------------------------
  1  \w   -113.00 -12.00   1.00    1.00    --  -40.45 -57.00-180.00  101
  2  \w    -92.00  -2.00   1.00    1.00    --  -40.45 125.00  30.00   90
  3  \w    -65.00  34.00   1.00    1.00    --  -40.45  38.00 120.00   99
  4  \w    -69.00  33.00   1.00    1.00    --  -40.45  57.00 -30.00  102
  5  \w     21.00 109.00   1.00    3.80    --  103.24 -94.00-180.00   88
  6  \w     94.00 176.00   1.00    3.80    --  103.24 125.00 150.00   82
  7  \w     27.00 132.00   1.00    3.80    --  103.24 -30.00  90.00  105
  8  \w     94.00 176.00   1.00    3.80    --  103.24 125.00  90.00   82
  9  \w     77.00 176.00   1.00    3.80    --  103.24  45.00 -90.00   99
 10  \w     77.00 176.00   1.00    3.80    --  103.24  45.00 -30.00   99
 11  \w     30.00 117.00   1.00    3.80    --  103.24-125.00  90.00   87
 12  \w     21.00 109.00   1.00    3.80    --  103.24 -94.00-120.00   88
 13  \w     77.00 176.00   1.00    3.80    --  103.24  45.00  30.00   99
 14  \w     94.00 176.00   1.00    3.80    --  103.24 125.00-120.00   82
 15  \w     31.00 132.00   1.00    3.80    --  103.24 -61.00-120.00  101
 16  \w     94.00 176.00   1.00    3.80    --  103.24 125.00-150.00   82
 17  \w   -117.00  -8.00   1.00    1.00    --  -40.45 -77.00   0.00  109
;
_diffrn_measurement_device       'four-circle diffractometer'
_diffrn_measurement_device_type  'SuperNova, Dual, Cu at home/near, Atlas'
_diffrn_measurement_method       '\w scans'
_diffrn_orient_matrix_type
'CrysAlisPro convention (1999,Acta A55,543-557)'
_diffrn_orient_matrix_UB_11      0.0800150000
_diffrn_orient_matrix_UB_12      0.1254398000
_diffrn_orient_matrix_UB_13      -0.1207280000
_diffrn_orient_matrix_UB_21      0.1075973000
_diffrn_orient_matrix_UB_22      -0.1316915000
_diffrn_orient_matrix_UB_23      -0.0540022000
_diffrn_orient_matrix_UB_31      -0.1586472000
_diffrn_orient_matrix_UB_32      -0.0434463000
_diffrn_orient_matrix_UB_33      -0.0403192000
_diffrn_radiation_monochromator  mirror
_diffrn_radiation_probe          x-ray
_diffrn_radiation_type           CuK\a
_diffrn_radiation_wavelength     1.54184
_diffrn_reflns_av_R_equivalents  0.0256
_diffrn_reflns_av_unetI/netI     0.0307
_diffrn_reflns_Laue_measured_fraction_full 0.999
_diffrn_reflns_Laue_measured_fraction_max 0.977
_diffrn_reflns_limit_h_max       8
_diffrn_reflns_limit_h_min       -9
_diffrn_reflns_limit_k_max       10
_diffrn_reflns_limit_k_min       -10
_diffrn_reflns_limit_l_max       14
_diffrn_reflns_limit_l_min       -14
_diffrn_reflns_number            7371
_diffrn_reflns_point_group_measured_fraction_full 0.999
_diffrn_reflns_point_group_measured_fraction_max 0.977
_diffrn_reflns_theta_full        67.684
_diffrn_reflns_theta_max         72.864
_diffrn_reflns_theta_min         3.967
_diffrn_source                   'micro-focus sealed X-ray tube'
_diffrn_source_type              'SuperNova (Cu) X-ray Source'
_exptl_absorpt_coefficient_mu    0.840
_exptl_absorpt_correction_T_max  1.00000
_exptl_absorpt_correction_T_min  0.89918
_exptl_absorpt_correction_type   multi-scan
_exptl_absorpt_process_details
;
CrysAlisPro 1.171.39.46e (Rigaku Oxford Diffraction, 2018)
Empirical absorption correction using spherical harmonics,
 implemented in SCALE3 ABSPACK scaling algorithm.
;
_exptl_crystal_colour            'metallic whiteish white'
_exptl_crystal_colour_lustre     metallic
_exptl_crystal_colour_modifier   whiteish
_exptl_crystal_colour_primary    white
_exptl_crystal_density_diffrn    1.434
_exptl_crystal_description       block
_exptl_crystal_F_000             332
_exptl_crystal_size_max          0.1
_exptl_crystal_size_mid          0.1
_exptl_crystal_size_min          0.1
_refine_diff_density_max         0.241
_refine_diff_density_min         -0.232
_refine_diff_density_rms         0.042
_refine_ls_extinction_method     none
_refine_ls_goodness_of_fit_ref   1.035
_refine_ls_hydrogen_treatment    constr
_refine_ls_matrix_type           full
_refine_ls_number_parameters     218
_refine_ls_number_reflns         2876
_refine_ls_number_restraints     0
_refine_ls_restrained_S_all      1.035
_refine_ls_R_factor_all          0.0430
_refine_ls_R_factor_gt           0.0366
_refine_ls_shift/su_max          0.000
_refine_ls_shift/su_mean         0.000
_refine_ls_structure_factor_coef Fsqd
_refine_ls_weighting_details
'w=1/[\s^2^(Fo^2^)+(0.0465P)^2^+0.1745P] where P=(Fo^2^+2Fc^2^)/3'
_refine_ls_weighting_scheme      calc
_refine_ls_wR_factor_gt          0.0913
_refine_ls_wR_factor_ref         0.0974
_reflns_Friedel_coverage         0.000
_reflns_number_gt                2480
_reflns_number_total             2876
_reflns_threshold_expression     'I > 2\s(I)'
_cod_data_source_file            jo9b02289_si_009.cif
_cod_data_source_block           exp_6290
_cod_database_code               4034698
_shelx_shelxl_version_number     2014/7
_shelx_space_group_comment
;
The symmetry employed for this shelxl refinement is uniquely defined
by the following loop, which should always be used as a source of
symmetry information in preference to the above space-group names.
They are only intended as comments.
;
_shelx_estimated_absorpt_t_max   0.921
_shelx_estimated_absorpt_t_min   0.921
_reflns_odcompleteness_completeness 99.89
_reflns_odcompleteness_iscentric 1
_reflns_odcompleteness_theta     66.97
_olex2_refinement_description
;
1. Fixed Uiso
 At 1.2 times of:
  All C(H) groups
 At 1.5 times of:
  All C(H,H,H) groups
2.a Ternary CH refined with riding coordinates:
 C00D(H00D)
2.b Aromatic/amide H refined with riding coordinates:
 C006(H006), C00F(H00F), C00G(H00G), C00I(H00I), C00J(H00J), C00K(H00K),
 C00L(H00L), C00M(H00M), C00N(H00N)
2.c Idealised Me refined as rotating group:
 C00O(H00A,H00B,H00C)
;
_shelx_res_file
;
    exp_6290.res created by SHELXL-2014/7

TITL exp_6290_a.res in P-1
REM Old TITL exp_6290 in P-1
REM SHELXT solution in P-1
REM R1 0.109, Rweak 0.003, Alpha 0.021, Orientation as input
REM Formula found by SHELXT: C19 N O4
CELL 1.54184 7.817 8.4933 12.0759 76.529 72.019 89.646
ZERR 2 0.0005 0.0006 0.0007 0.005 0.006 0.006
LATT 1
SFAC C H N O
UNIT 38 26 2 8

L.S. 10
PLAN  20
SIZE 0.1 0.1 0.1
BOND $H
list 4
fmap 2 53
acta
REM <olex2.extras>
REM <HklSrc "%.\\exp_6290.hkl">
REM </olex2.extras>

WGHT    0.046500    0.174500
FVAR       0.99912
O001  4    0.170725    0.832769    0.143646    11.00000    0.02846    0.03035 =
         0.02275   -0.00394   -0.01069   -0.00004
O002  4    0.358702    0.987870    0.189102    11.00000    0.03235    0.02607 =
         0.03118   -0.00097   -0.01231   -0.00398
O003  4   -0.046846    0.547022    0.385846    11.00000    0.02438    0.03526 =
         0.03162    0.00027   -0.01124   -0.00659
O004  4    0.103381    0.931072    0.750419    11.00000    0.03940    0.05340 =
         0.03659   -0.02330   -0.00936    0.01003
N005  3    0.246555    0.512690    0.292849    11.00000    0.02863    0.02263 =
         0.02535   -0.00361   -0.01180   -0.00093
C006  1    0.218794    0.830725    0.526726    11.00000    0.02307    0.02324 =
         0.02354   -0.00366   -0.00602   -0.00002
AFIX  43
H006  2    0.101841    0.863556    0.548135    11.00000   -1.20000
AFIX   0
C007  1    0.108957    0.601766    0.346357    11.00000    0.02470    0.02765 =
         0.01984   -0.00075   -0.01074   -0.00104
C008  1    0.247282    0.877668    0.217714    11.00000    0.02171    0.02192 =
         0.02435   -0.00511   -0.00848    0.00415
C009  1    0.461272    0.724568    0.390209    11.00000    0.02148    0.02115 =
         0.02191   -0.00218   -0.00645   -0.00056
C00A  1    0.325666    0.836824    0.599687    11.00000    0.02903    0.02199 =
         0.02162   -0.00298   -0.00686   -0.00152
C00B  1    0.431935    0.558682    0.247065    11.00000    0.02656    0.02246 =
         0.02158   -0.00173   -0.00922    0.00352
C00C  1    0.285095    0.776257    0.422697    11.00000    0.02250    0.02072 =
         0.02237   -0.00246   -0.00748   -0.00116
C00D  1    0.165462    0.773179    0.345794    11.00000    0.01951    0.02562 =
         0.02242   -0.00541   -0.00638    0.00217
AFIX  13
H00D  2    0.054686    0.822095    0.382056    11.00000   -1.20000
AFIX   0
C00E  1    0.535548    0.657506    0.283906    11.00000    0.02338    0.02353 =
         0.02158   -0.00212   -0.00868    0.00354
C00F  1    0.567267    0.730385    0.464309    11.00000    0.02287    0.02535 =
         0.02472   -0.00294   -0.00867    0.00060
AFIX  43
H00F  2    0.683471    0.695657    0.444289    11.00000   -1.20000
AFIX   0
C00G  1    0.500600    0.787391    0.567140    11.00000    0.02771    0.02555 =
         0.02352   -0.00240   -0.01141   -0.00132
AFIX  43
H00G  2    0.573171    0.792609    0.614587    11.00000   -1.20000
AFIX   0
C00H  1    0.510121    0.467947    0.162015    11.00000    0.04107    0.02560 =
         0.02249   -0.00478   -0.01377    0.00829
C00I  1    0.720377    0.676005    0.220702    11.00000    0.02483    0.03237 =
         0.02524   -0.00430   -0.00841    0.00419
AFIX  43
H00I  2    0.793771    0.746081    0.238138    11.00000   -1.20000
AFIX   0
C00J  1    0.256288    0.894003    0.710239    11.00000    0.03476    0.03080 =
         0.02655   -0.00804   -0.00987    0.00063
AFIX  43
H00J  2    0.335705    0.902373    0.752555    11.00000   -1.20000
AFIX   0
C00K  1    0.367212    0.364198    0.159265    11.00000    0.05325    0.02448 =
         0.02895   -0.00756   -0.02020    0.00437
AFIX  43
H00K  2    0.379592    0.290759    0.111418    11.00000   -1.20000
AFIX   0
C00L  1    0.212874    0.391963    0.237858    11.00000    0.04260    0.02308 =
         0.03131   -0.00343   -0.01910   -0.00304
AFIX  43
H00L  2    0.100775    0.339510    0.253620    11.00000   -1.20000
AFIX   0
C00M  1    0.695411    0.485813    0.104368    11.00000    0.04124    0.03703 =
         0.02436   -0.01000   -0.00858    0.01493
AFIX  43
H00M  2    0.748874    0.426990    0.048182    11.00000   -1.20000
AFIX   0
C00N  1    0.798289    0.593028    0.132510    11.00000    0.02820    0.04274 =
         0.02625   -0.00640   -0.00609    0.00923
AFIX  43
H00N  2    0.921424    0.610069    0.091966    11.00000   -1.20000
AFIX   0
C00O  1    0.222910    0.936013    0.023105    11.00000    0.03945    0.04157 =
         0.02273   -0.00105   -0.01181   -0.00200
AFIX 137
H00A  2    0.155816    0.899655   -0.021881    11.00000   -1.50000
H00B  2    0.349490    0.930938   -0.015330    11.00000   -1.50000
H00C  2    0.198015    1.045885    0.026620    11.00000   -1.50000
AFIX   0
HKLF 4

REM  exp_6290_a.res in P-1
REM R1 =  0.0366 for    2480 Fo > 4sig(Fo)  and  0.0430 for all    2876 data
REM    218 parameters refined using      0 restraints

END

WGHT      0.0465      0.1745

REM Highest difference peak  0.241,  deepest hole -0.232,  1-sigma level  0.042
Q1    1   0.2125  0.8171  0.2819  11.00000  0.05    0.24
Q2    1   0.1426  0.6920  0.3397  11.00000  0.05    0.19
Q3    1   0.2335  0.7784  0.3809  11.00000  0.05    0.19
Q4    1   0.5980  0.4624  0.1444  11.00000  0.05    0.18
Q5    1   0.6353  0.6415  0.2658  11.00000  0.05    0.18
Q6    1   0.0439  0.3655  0.2867  11.00000  0.05    0.17
Q7    1   0.3586  0.7194  0.4208  11.00000  0.05    0.16
Q8    1   0.4833  0.5174  0.1961  11.00000  0.05    0.16
Q9    1   0.4944  0.5683  0.2990  11.00000  0.05    0.15
Q10   1   0.2930  0.8748  0.6352  11.00000  0.05    0.15
Q11   1   0.4678  0.6430  0.2420  11.00000  0.05    0.15
Q12   1   0.2276  0.7547  0.4954  11.00000  0.05    0.15
Q13   1   0.4031  0.8443  0.5793  11.00000  0.05    0.15
Q14   1   0.3757  0.7614  0.4023  11.00000  0.05    0.14
Q15   1   0.0411  0.6058  0.3273  11.00000  0.05    0.14
Q16   1   0.2854  0.8366  0.5622  11.00000  0.05    0.14
Q17   1   0.5044  0.7218  0.4267  11.00000  0.05    0.14
Q18   1   0.2766  0.4165  0.1705  11.00000  0.05    0.14
Q19   1   0.4882  0.6893  0.3448  11.00000  0.05    0.14
Q20   1   0.2792  0.8592  0.4469  11.00000  0.05    0.13
;
_shelx_res_checksum              49018
_shelx_hkl_file
;
   0   0  -1  883.28   10.29
   0   0   1  892.08    9.95
   0   0  -2 3137.41   23.59
   0   0  -2 3228.70   26.32
   0   0   2 3197.29   27.25
   0   0  -2 3159.60   28.08
   0   0  -3  398.85   11.53
   0   0  -3  378.42   10.16
   0   0  -3  379.05   12.14
   0   0   3  403.40   11.95
   0   0  -4    5.73    1.74
   0   0  -4    3.58    1.80
   0   0  -4    4.92    1.61
   0   0   4    4.33    2.03
   0   0  -5  493.83   14.77
   0   0  -5  525.49   17.59
   0   0  -5  526.08   19.38
   0   0   5  501.88   18.31
   0   0  -6   86.02    7.90
   0   0  -6   95.99    9.19
   0   0  -6   87.50    6.72
   0   0   6   86.08    8.60
   0   0  -7  267.99   17.23
   0   0   7  258.11   16.63
   0   0  -7  276.96   15.43
   0   0  -8  217.25   17.07
   0   0   8  206.28    8.67
   0   0  -8  188.66    8.52
   0   0   8  184.07   15.69
   0   0  -9    5.84    1.78
   0   0   9    7.08    1.67
   0   0   9   10.39    3.60
   0   0 -10   15.53    2.82
   0   0 -10   10.00    2.06
   0   0  10   15.69    2.79
   0   0  11    6.20    1.80
   0   0 -11    4.74    1.71
   0   0 -12    3.62    1.22
   0   0  12    3.37    1.30
   0   0 -12    3.58    1.40
   0   0 -13   16.05    2.10
   0   0  13   17.32    2.11
   0   0 -13   18.89    2.03
  -1   0 -14   -0.22    0.42
   1   0  14    0.52    0.63
  -1   0 -13    1.27    0.82
  -1   0 -13   -0.11    0.71
   1   0  12   37.33    3.85
  -1   0 -12   34.54    3.89
  -1   0 -12   38.91    3.70
   1   0  11   41.84    4.39
  -1   0 -11   46.60    4.73
  -1   0 -11   39.41    4.34
  -1   0 -11   37.08    3.93
   1   0  10  180.50    8.92
  -1   0 -10  184.13    9.24
  -1   0 -10  169.37    8.72
  -1   0  -9   32.73    3.80
   1   0   9   28.16    7.08
  -1   0  -9   35.64    3.90
  -1   0  -8   65.37    4.85
   1   0   8   55.90    8.66
  -1   0  -8   65.10    4.82
  -1   0  -8   55.18    8.33
  -1   0  -7 1016.18   32.50
   1   0   7  961.11   32.38
   1   0   6  148.95   11.39
  -1   0  -6  161.34    9.41
  -1   0  -6  157.08   11.46
  -1   0  -6  153.82    9.34
   1   0   5  154.81   10.23
  -1   0  -5  150.72    8.46
  -1   0  -5  146.38    9.74
  -1   0  -5  156.12    8.33
  -1   0  -4    7.30    1.77
  -1   0  -4    7.15    2.10
   1   0   4    7.94    2.24
  -1   0  -3 2272.69   25.37
  -1   0  -3 2297.61   26.42
   1   0   3 2408.98   29.95
  -1   0  -3 2352.49   29.24
  -1   0  -3 2384.25   24.12
  -1   0  -2   33.04    2.79
   1   0   2   27.67    2.63
  -1   0  -2   24.06    2.23
  -1   0  -2   28.12    2.58
  -1   0  -1  431.33    9.02
  -1   0  -1  429.03    8.11
  -1   0  -1  433.57    6.54
  -1   0   0 1042.64   14.82
   1   0  -1  978.56   12.07
  -1   0   1  986.69   10.36
   1   0  -1 1018.81   16.27
  -1   0   1  993.88   17.31
  -1   0   2    9.03    1.49
   1   0  -2   10.73    2.21
   1   0  -2    9.75    1.67
   1   0  -3  255.96   11.33
  -1   0   3  236.16    9.05
   1   0  -3  254.03   10.29
   1   0  -4  108.23    7.78
   1   0  -4  100.06    8.01
  -1   0   4  100.44    7.07
   1   0  -5  529.48   20.82
  -1   0   5  562.83   19.29
   1   0  -5  546.06   20.19
   1   0  -5  563.17   17.13
   1   0  -6  347.69   17.80
  -1   0   6  341.24   17.07
   1   0  -6  352.73   18.46
  -1   0   7   -0.49    0.83
   1   0  -7   -0.34    1.10
  -1   0   7   -3.86    2.28
   1   0  -7    1.42    2.06
  -1   0   8  366.23   11.36
  -1   0   8  360.21   11.31
  -1   0   8  358.38   11.87
  -1   0   9   24.93    3.10
  -1   0   9   26.08    3.50
  -1   0  10    4.51    1.75
   1   0 -10    3.71    1.68
   1   0 -11  177.27    8.62
  -1   0  11  183.73    8.58
  -1   0  12   17.79    2.42
   1   0 -12   17.32    2.45
   1   0 -12   17.88    2.36
  -1   0  13    9.64    1.40
   1   0 -13    7.26    1.25
  -2   0 -14   30.88    2.65
   2   0  14   31.01    2.51
   2   0  13   34.43    3.32
  -2   0 -13   37.74    3.12
  -2   0 -13   36.28    3.55
   2   0  12   12.51    2.27
  -2   0 -12   11.22    2.27
  -2   0 -12   19.32    3.12
  -2   0 -12   15.74    2.40
  -2   0 -11   85.93    6.24
  -2   0 -11   93.80    6.67
  -2   0 -11   89.80    5.98
   2   0  11   92.40    6.37
  -2   0 -10  196.07    9.43
  -2   0 -10  187.40    8.74
  -2   0 -10  203.70    9.27
  -2   0  -9  378.80   12.05
  -2   0  -9  358.33   12.24
  -2   0  -9  349.56   11.52
   2   0   9  364.81   24.40
  -2   0  -8   82.51    5.30
   2   0   8   79.12   11.10
  -2   0  -8   89.73    5.64
  -2   0  -7   87.46    8.20
  -2   0  -7   86.22    7.88
   2   0   7   77.52    9.26
  -2   0  -7   83.56    9.15
  -2   0  -6    8.34    2.92
  -2   0  -6    7.85    2.22
   2   0   6   11.90    3.42
  -2   0  -6   10.05    2.64
  -2   0  -5  463.28   16.92
  -2   0  -5  437.79   14.30
  -2   0  -5  449.66   16.05
   2   0   5  434.20   17.72
   2   0   4 2080.13   34.07
  -2   0  -4 2055.33   28.40
  -2   0  -4 2112.99   31.39
  -2   0  -4 2093.60   32.11
  -2   0  -3   37.49    3.55
  -2   0  -3   40.33    4.34
  -2   0  -3   37.96    3.65
   2   0   3   38.91    4.09
  -2   0  -2  902.06   17.02
  -2   0  -2  923.30   19.10
   2   0   2  885.56   16.55
  -2   0  -1  619.96   15.36
  -2   0  -1  602.05   14.63
  -2   0   0 1822.88   28.72
   2   0  -1 1136.64   13.91
  -2   0   1 1163.26   25.33
  -2   0   2   -0.39    0.34
   2   0  -2    1.12    1.95
   2   0  -2    0.73    0.63
  -2   0   3  344.69   10.29
   2   0  -3  355.47   16.10
   2   0  -3  343.14   12.33
   2   0  -4    7.51    3.17
   2   0  -4   16.33    3.32
  -2   0   4   12.95    2.47
   2   0  -5    0.06    1.16
   2   0  -5   -0.46    1.65
   2   0  -6   97.03    9.67
   2   0  -6  118.92   12.43
   2   0  -7   16.35    5.04
  -2   0   7   18.09    2.62
  -2   0   7   23.34    3.00
  -2   0   7   17.65    2.67
  -2   0   8   33.25    3.78
  -2   0   8   29.60    3.67
  -2   0   8   33.89    3.79
  -2   0   9   54.04    4.74
  -2   0   9   58.68    4.97
  -2   0   9   51.73    4.82
   2   0 -10   -0.52    0.89
  -2   0  10    0.17    0.97
  -2   0  10    0.26    0.84
   2   0 -11   60.20    4.70
  -2   0  11   70.58    4.79
  -2   0  11   56.01    4.18
   2   0 -12   37.26    2.87
  -2   0  12   34.48    2.76
   2   0 -12   36.25    2.91
   3   0  14    0.30    0.49
  -3   0 -14   -0.41    0.45
   3   0  13    7.78    1.75
  -3   0 -13    8.88    1.76
  -3   0 -13    9.13    1.70
  -3   0 -13    9.84    1.54
  -3   0 -12   -0.26    0.97
   3   0  12   -0.64    0.69
  -3   0 -12    1.04    0.86
  -3   0 -12    0.18    0.87
  -3   0 -11   30.30    3.87
  -3   0 -11   26.63    3.27
  -3   0 -11   25.40    3.34
  -3   0 -10  547.75   15.74
  -3   0 -10  551.90   14.71
  -3   0 -10  562.76   15.31
   3   0   9   17.63    5.35
  -3   0  -9   17.39    2.64
  -3   0  -9   20.33    2.97
  -3   0  -9   20.53    2.64
  -3   0  -9   18.28    2.68
  -3   0  -8    3.36    1.29
  -3   0  -8    3.29    1.43
  -3   0  -8    2.63    1.12
  -3   0  -8    4.97    2.10
  -3   0  -8    4.98    1.36
  -3   0  -7  210.12   14.12
   3   0   7  203.12   15.66
  -3   0  -6  185.72   12.54
  -3   0  -6  156.34    9.86
   3   0   6  181.23   13.32
  -3   0  -5 1888.25   37.46
  -3   0  -5 1920.71   32.97
   3   0   5 1808.21   37.86
   3   0   4   45.54    5.40
  -3   0  -4   47.50    5.83
  -3   0  -4   44.43    4.87
   3   0   3   97.91    6.91
  -3   0  -3   92.79    7.79
  -3   0  -3   86.13    6.82
   3   0   2   79.39    5.40
  -3   0  -2   70.58    6.31
  -3   0  -2   72.95    6.80
  -3   0  -1   14.88    3.36
   3   0   1   12.62    1.81
  -3   0   0  617.55   21.27
   3   0   0  343.73    4.87
  -3   0   1   -0.28    1.81
   3   0  -1    0.41    1.43
   3   0  -2  231.78   14.22
   3   0  -3    5.41    2.87
   3   0  -4   29.99    6.19
   3   0  -5   15.76    4.77
  -3   0   5   14.75    2.48
  -3   0   5   16.51    2.26
  -3   0   5   16.52    2.51
   3   0  -6   55.15    9.45
  -3   0   6   71.22    5.26
  -3   0   6   59.85    4.78
  -3   0   6   62.01    5.18
  -3   0   7   40.90    4.10
  -3   0   7   40.90    4.45
  -3   0   7   41.74    4.24
  -3   0   8  137.31    7.76
  -3   0   8  138.68    7.85
  -3   0   8  133.25    7.50
  -3   0   9    1.51    0.93
  -3   0   9    0.70    0.97
  -3   0   9    0.19    0.82
  -3   0  10  112.72    6.38
  -3   0  10  126.54    6.35
   3   0 -10  129.47    6.65
   3   0 -11    0.32    0.57
  -3   0  11    0.59    0.58
  -4   0 -14  155.07    5.63
  -4   0 -13  129.79    6.43
   4   0  13  133.34    5.80
  -4   0 -13  142.15    6.45
  -4   0 -12  294.83    9.32
  -4   0 -12  293.52   10.32
  -4   0 -12  283.00   10.65
   4   0  12  286.42    9.85
  -4   0 -11   19.28    3.12
  -4   0 -11   19.66    2.64
  -4   0 -11   20.01    2.91
  -4   0 -10  391.33   12.68
  -4   0 -10  380.76   11.97
  -4   0 -10  390.59   13.13
  -4   0 -10  377.91   11.76
  -4   0  -9   35.36    3.75
  -4   0  -9   39.67    4.11
   4   0   9   26.73    6.61
  -4   0  -9   35.46    3.70
  -4   0  -9   31.50    3.97
  -4   0  -9   33.35    3.49
  -4   0  -8   -1.05    2.06
   4   0   8   -2.48    3.23
  -4   0  -8    0.01    1.05
  -4   0  -8    3.43    1.63
  -4   0  -8    0.11    0.91
  -4   0  -8    0.75    0.69
  -4   0  -8    0.13    0.75
  -4   0  -7  189.57   14.95
  -4   0  -7  211.95    8.19
  -4   0  -7  210.60    8.62
  -4   0  -7  216.53    8.80
   4   0   7  201.10   16.08
  -4   0  -6   40.44    6.60
   4   0   6   40.92    7.06
  -4   0  -6   33.45    5.44
  -4   0  -5   12.57    3.61
  -4   0  -5    7.44    3.08
   4   0   5   14.65    3.87
  -4   0  -4  341.98   16.52
   4   0   4  336.53   15.54
  -4   0  -4  371.42   18.72
  -4   0  -3   65.67    7.52
   4   0   3   64.44    6.08
  -4   0  -2    0.97    1.79
  -4   0  -1  165.74   12.84
   4   0   0  446.02   20.33
  -4   0   0  451.14   22.27
   4   0  -1  963.75   32.19
  -4   0   1  988.10   34.47
   4   0  -2   46.27    7.87
   4   0  -3    6.88    4.29
  -4   0   3    5.41    1.60
  -4   0   4   27.63    3.42
  -4   0   4   32.04    3.40
  -4   0   4   28.85    3.12
   4   0  -4   30.83    6.67
  -4   0   5    0.32    0.68
  -4   0   5    0.42    0.73
  -4   0   5   -0.40    1.15
  -4   0   6  482.43   15.05
  -4   0   6  479.83   13.83
  -4   0   6  526.08   15.23
  -4   0   7  581.39   16.39
  -4   0   7  547.88   15.95
  -4   0   7  560.67   14.81
  -4   0   8   24.58    3.37
  -4   0   8   22.29    2.89
  -4   0   9   15.69    2.56
  -4   0   9   14.92    2.08
   4   0 -10   13.73    1.74
  -4   0  10   15.17    2.12
  -4   0  10   12.36    1.64
  -5   0 -13    2.45    0.84
  -5   0 -13    3.06    0.84
  -5   0 -12   17.73    2.53
  -5   0 -12   18.73    2.33
  -5   0 -12   20.46    2.51
  -5   0 -11   13.18    2.12
  -5   0 -11   13.58    2.24
  -5   0 -11   11.75    2.21
  -5   0 -11   15.07    2.57
  -5   0 -10  298.35   10.91
  -5   0 -10  308.04   10.45
  -5   0 -10  310.15   11.60
  -5   0 -10  296.57   10.88
  -5   0  -9    7.19    1.87
  -5   0  -9    8.90    2.27
  -5   0  -9   10.01    2.23
  -5   0  -9    7.83    2.01
  -5   0  -9    6.55    1.76
  -5   0  -8   38.43    3.74
  -5   0  -8   38.88    3.98
   5   0   8   32.96    7.51
  -5   0  -8   43.59    4.29
  -5   0  -8   47.06    4.49
  -5   0  -8   46.05    4.67
  -5   0  -7  193.29    8.56
  -5   0  -7  209.36    9.20
  -5   0  -7  206.57    8.38
  -5   0  -7  199.67    8.28
   5   0   7  196.99   16.61
  -5   0  -7  204.24    8.84
  -5   0  -7  221.94    9.29
  -5   0  -6   66.80    4.86
   5   0   6   49.73    7.43
  -5   0  -6   61.32    4.66
  -5   0  -6   69.84    5.01
  -5   0  -6   63.71    4.68
  -5   0  -6   63.37    4.85
  -5   0  -6   61.42    4.46
  -5   0  -6   62.04    4.79
  -5   0  -5  616.08   14.18
  -5   0  -5  614.36   14.07
  -5   0  -5  628.79   14.85
  -5   0  -5  583.34   25.96
  -5   0  -4    1.41    1.80
  -5   0  -3    3.42    3.20
  -5   0  -2   89.06   10.68
  -5   0  -1  425.21   24.19
   5   0   1  444.82   23.51
   5   0   0   30.82    6.40
  -5   0   0   32.15    7.23
  -5   0   0   31.88    3.23
  -5   0   1   -2.23    1.37
   5   0  -1   -0.97    3.57
  -5   0   1    0.64    0.81
  -5   0   2    0.73    0.79
   5   0  -2    3.20    4.23
  -5   0   2    0.85    1.03
  -5   0   3   93.92    6.01
  -5   0   3   89.57    5.52
  -5   0   4   45.84    4.53
  -5   0   4   39.68    3.78
  -5   0   5   36.65    4.07
  -5   0   5   33.22    3.44
  -5   0   6  282.81   10.08
  -5   0   6  273.48   11.04
  -5   0   7  100.93    6.70
  -5   0   7  109.42    5.85
  -5   0   8   39.92    3.09
  -5   0   8   38.04    3.78
  -5   0   8   41.81    3.63
  -5   0   9   13.91    1.95
  -5   0   9   13.37    1.70
   5   0  -9   11.49    1.43
  -6   0 -13   20.77    2.01
  -6   0 -12    8.08    1.56
  -6   0 -12    9.22    1.71
  -6   0 -12    8.05    1.50
  -6   0 -11    4.76    1.29
  -6   0 -11    2.96    1.25
  -6   0 -11    2.56    0.99
  -6   0 -10   11.91    2.12
  -6   0 -10   13.82    2.52
  -6   0 -10   10.35    2.38
  -6   0 -10   13.33    2.42
  -6   0  -9    0.19    0.65
  -6   0  -9    1.73    1.17
  -6   0  -9    0.46    0.88
  -6   0  -9    3.09    1.57
  -6   0  -9    1.97    1.24
  -6   0  -8   19.02    2.94
  -6   0  -8   15.86    2.99
  -6   0  -8   19.41    2.75
  -6   0  -8   17.94    2.53
  -6   0  -8   19.15    2.75
  -6   0  -8   16.36    2.82
  -6   0  -7    1.39    1.10
  -6   0  -7    0.28    1.00
  -6   0  -7    0.78    1.38
  -6   0  -7    0.55    1.01
  -6   0  -7    1.37    1.04
  -6   0  -7    0.88    1.10
  -6   0  -6  159.87    8.14
  -6   0  -6  154.12    8.20
  -6   0  -6  164.51    8.09
  -6   0  -6  153.80    7.47
  -6   0  -6  148.35    7.54
  -6   0  -6  161.85    8.05
  -6   0  -5    3.68    1.14
  -6   0  -5    4.04    1.38
  -6   0  -5    3.07    1.23
  -6   0  -5    4.22    1.78
  -6   0  -5    7.25    2.02
  -6   0  -5    4.73    1.57
   6   0   4  578.81   27.56
  -6   0  -4  602.58   30.89
  -6   0  -4  633.18   15.08
  -6   0  -4  625.65   14.87
  -6   0  -4  650.50   15.22
  -6   0  -4  660.93   15.99
  -6   0  -4  627.00   15.95
  -6   0  -3   82.84    5.41
  -6   0  -3   76.94   11.47
  -6   0  -3   84.45    5.48
   6   0   3   80.17   10.84
  -6   0  -3   82.43    5.31
  -6   0  -3   90.91    6.02
  -6   0  -3   79.92    5.66
  -6   0  -2   85.98   12.31
  -6   0  -2   92.85    6.02
  -6   0  -2   84.49    5.82
  -6   0  -2   89.26    5.61
   6   0   2   79.29   11.02
  -6   0  -1   10.05    2.22
  -6   0  -1    7.61    1.87
   6   0   1   10.63    4.08
   6   0   0    9.09    4.64
  -6   0   0   10.10    2.12
  -6   0   0    9.55    2.01
  -6   0   1  117.96    7.18
   6   0  -1  114.28   14.88
  -6   0   1  124.99    6.85
  -6   0   2  375.51   11.46
  -6   0   2  413.84   12.80
  -6   0   2  393.23   13.13
  -6   0   3  330.90   12.04
  -6   0   3  328.11   11.70
  -6   0   4  244.33   10.29
  -6   0   4  243.58   10.13
  -6   0   5   67.92    5.31
  -6   0   5   76.79    5.58
  -6   0   6   12.93    2.18
  -6   0   6   10.85    2.08
  -6   0   7   53.59    4.04
  -6   0   7   62.34    3.96
  -7   0 -12    5.00    1.19
  -7   0 -12    5.53    1.08
  -7   0 -11   32.81    2.93
  -7   0 -11   31.13    3.09
  -7   0 -10    5.07    1.37
  -7   0 -10    4.40    1.16
  -7   0 -10    5.17    1.64
  -7   0 -10    3.38    1.29
  -7   0  -9    3.33    1.43
  -7   0  -9    0.85    0.87
  -7   0  -9    1.90    0.87
  -7   0  -9    1.43    1.42
  -7   0  -9    0.31    0.98
  -7   0  -8    7.31    1.65
  -7   0  -8    9.04    2.35
  -7   0  -8    9.34    2.25
  -7   0  -8   10.29    2.29
  -7   0  -8    6.97    1.60
  -7   0  -7   11.05    2.25
  -7   0  -7   10.33    2.30
  -7   0  -7   12.77    2.29
  -7   0  -7   10.83    2.38
  -7   0  -7    5.56    1.44
  -7   0  -6   27.83    3.50
  -7   0  -6   27.79    3.31
  -7   0  -6   28.58    3.32
  -7   0  -6   28.29    3.53
  -7   0  -6   32.24    3.85
  -7   0  -5   43.70    4.06
  -7   0  -5   39.77    4.13
  -7   0  -5   39.39    4.21
  -7   0  -5   44.04    4.09
  -7   0  -5   40.49    4.22
  -7   0  -4    2.85    0.88
  -7   0  -4    3.30    1.61
  -7   0  -4    3.61    1.15
  -7   0  -4    4.22    1.52
  -7   0  -4    1.98    0.98
  -7   0  -3   61.00    4.74
  -7   0  -3   62.53    5.38
  -7   0  -3   66.72    5.46
  -7   0  -2   10.20    1.97
  -7   0  -2   12.12    2.50
  -7   0  -2    9.77    2.09
  -7   0  -1   -0.07    0.99
  -7   0  -1   -1.01    1.29
  -7   0  -1   -0.74    0.95
  -7   0   0   29.07    3.49
  -7   0   0   30.49    3.80
  -7   0   1   50.31    4.33
  -7   0   1   46.45    4.59
  -7   0   2    0.26    0.98
  -7   0   3    2.44    1.35
  -7   0   3    1.86    0.88
  -7   0   4    0.13    0.80
  -7   0   4   -0.60    0.94
  -7   0   5    1.60    0.73
  -7   0   5    5.66    1.35
  -7   0   6   23.05    2.03
   7   0  -6   11.83    1.49
  -8   0 -10    2.25    0.86
  -8   0  -9    5.26    1.26
  -8   0  -9    7.49    1.74
  -8   0  -8  258.86    9.54
  -8   0  -8  234.84    9.00
  -8   0  -7    0.07    0.75
  -8   0  -7    0.01    1.29
  -8   0  -6  369.30   12.13
  -8   0  -6  362.24   11.65
  -8   0  -5    1.82    1.33
  -8   0  -5    3.69    1.35
  -8   0  -4   42.06    4.24
  -8   0  -4   50.02    4.65
  -8   0  -3    4.51    1.73
  -8   0  -3    2.52    1.41
  -8   0  -2   45.78    4.29
  -8   0  -2   47.53    4.26
  -8   0  -1    5.46    1.58
  -8   0  -1    7.59    1.84
  -8   0   0    0.01    0.87
  -8   0   0   -0.68    0.61
  -8   0   1    6.09    1.51
  -8   0   2   34.03    3.10
  -8   0   3    2.79    0.93
  -9   0  -8   93.68    4.47
  -9   0  -7   35.91    2.94
  -9   0  -6    5.64    1.31
  -9   0  -5    4.72    1.36
  -9   0  -5    3.12    0.96
  -9   0  -4  210.88    7.46
  -9   0  -4  215.08    7.69
  -9   0  -3    0.30    0.66
  -9   0  -3   -0.33    0.82
  -9   0  -2    6.64    1.40
  -9   0  -2    5.77    1.23
  -9   0  -1   18.71    1.85
  -9   0  -1   22.68    2.29
  -9   0   0    1.80    0.68
  -9  -1   0    5.79    1.02
  -9  -1  -1   25.33    2.31
  -9  -1  -1   20.95    1.92
  -9  -1  -2   11.02    1.61
  -9  -1  -2   10.21    1.59
  -9  -1  -3    1.96    1.03
  -9  -1  -3    0.33    0.55
  -9  -1  -4   69.60    4.25
  -9  -1  -4   69.78    4.30
  -9  -1  -5   28.19    2.77
  -9  -1  -5   26.46    2.59
  -9  -1  -6   97.39    4.90
  -9  -1  -6   99.43    4.94
  -9  -1  -7    1.42    0.90
  -9  -1  -8   29.84    2.49
  -8  -1   3   18.17    1.89
  -8  -1   2   90.16    4.74
  -8  -1   1   84.70    4.35
  -8  -1   1   91.67    5.23
  -8  -1   0   20.11    2.51
  -8  -1   0   19.22    2.64
  -8  -1  -1   17.38    2.39
  -8  -1  -1   19.59    2.71
  -8  -1  -2    1.62    1.16
  -8  -1  -2    1.11    1.11
  -8  -1  -3   67.67    5.12
  -8  -1  -3   70.72    5.24
  -8  -1  -4   23.20    3.14
  -8  -1  -4   16.51    2.56
  -8  -1  -5    3.82    1.48
  -8  -1  -5    4.71    1.28
  -8  -1  -6   -0.34    0.79
  -8  -1  -6   -0.37    0.94
  -8  -1  -7   61.13    4.42
  -8  -1  -7   59.84    4.55
  -8  -1  -7   62.56    4.84
  -8  -1  -8    5.35    1.49
  -8  -1  -8    3.35    1.07
  -8  -1  -8    6.19    1.60
  -8  -1  -8    5.45    1.59
  -8  -1  -9    8.87    1.81
  -8  -1  -9    8.03    1.65
  -8  -1  -9    7.01    1.37
  -8  -1 -10    0.12    0.47
  -7  -1   5   25.61    2.41
  -7  -1   5   34.02    2.75
  -7  -1   4    0.20    0.64
  -7  -1   4    0.90    0.68
  -7  -1   3   10.13    1.84
  -7  -1   3    8.47    1.64
  -7  -1   2   14.66    2.04
  -7  -1   2   15.40    2.59
  -7  -1   1    2.94    1.37
  -7  -1   1    2.68    1.13
  -7  -1   0    5.81    1.68
  -7  -1   0    6.46    1.67
  -7  -1  -1   10.98    2.30
  -7  -1  -1   14.02    2.55
  -7  -1  -2   -0.52    1.30
  -7  -1  -2   -0.88    1.15
  -7  -1  -3    8.32    2.16
  -7  -1  -3    9.99    2.12
  -7  -1  -4 1395.61   24.53
  -7  -1  -4 1353.41   23.53
  -7  -1  -4 1332.03   22.91
  -7  -1  -4 1375.14   24.67
  -7  -1  -5  237.37   10.03
  -7  -1  -5  226.26    9.72
  -7  -1  -5  211.03    9.29
  -7  -1  -5  232.75   10.17
  -7  -1  -6   79.33    5.69
  -7  -1  -6   80.12    5.67
  -7  -1  -6   76.14    5.78
  -7  -1  -6   73.57    5.77
  -7  -1  -7  119.52    6.81
  -7  -1  -7  120.79    7.36
  -7  -1  -7  118.58    6.82
  -7  -1  -7  123.79    7.44
  -7  -1  -8   23.90    3.38
  -7  -1  -8   23.42    3.29
  -7  -1  -8   20.14    2.80
  -7  -1  -8   20.51    3.14
  -7  -1  -8   20.94    2.76
  -7  -1  -9   51.43    4.69
  -7  -1  -9   61.70    5.14
  -7  -1  -9   44.32    4.22
  -7  -1  -9   56.34    4.37
  -7  -1 -10    7.75    1.96
  -7  -1 -10    8.15    1.59
  -7  -1 -10    6.56    1.73
  -7  -1 -10    7.07    1.86
  -7  -1 -11  165.53    7.23
  -7  -1 -11  169.18    6.34
  -7  -1 -11  172.68    7.29
  -7  -1 -12    0.04    0.58
  -6  -1   7   15.27    1.81
  -6  -1   7   14.30    1.96
  -6  -1   6  153.46    6.82
  -6  -1   6  134.18    6.54
  -6  -1   5    1.73    0.99
  -6  -1   5   -0.15    0.88
  -6  -1   4   -0.83    0.76
  -6  -1   4    1.24    0.82
  -6  -1   3   11.10    2.39
  -6  -1   3   12.12    2.27
  -6  -1   2   40.90    4.20
  -6  -1   2   36.56    3.71
  -6  -1   2   40.66    3.93
  -6  -1   1   16.13    2.63
  -6  -1   1   14.55    2.59
  -6  -1   0    3.30    1.35
  -6  -1   0    1.36    0.99
   6   1   0   -0.49    4.84
  -6  -1  -1   60.86    5.00
  -6  -1  -1   64.47    5.23
   6   1   1   56.94   10.34
  -6  -1  -2   79.04    5.55
  -6  -1  -2   78.86    5.72
  -6  -1  -2   72.54    5.39
   6   1   2   68.76   10.65
  -6  -1  -3   57.65    4.81
  -6  -1  -3   58.68    4.62
  -6  -1  -3   55.02    4.59
  -6  -1  -3   57.42    4.77
  -6  -1  -4  417.34   12.91
  -6  -1  -4  427.92   12.75
  -6  -1  -4  443.28   13.21
  -6  -1  -5  167.83    8.46
  -6  -1  -5  161.01    8.17
  -6  -1  -5  159.36    7.88
  -6  -1  -5  167.81    8.01
  -6  -1  -5  166.98    8.08
  -6  -1  -6  107.03    6.84
  -6  -1  -6  110.98    6.60
  -6  -1  -6  113.98    6.82
  -6  -1  -6  117.47    7.17
  -6  -1  -6  100.86    6.29
  -6  -1  -7    0.37    1.00
  -6  -1  -7    0.21    0.97
  -6  -1  -7    2.00    1.64
  -6  -1  -7   -0.28    0.90
  -6  -1  -7    0.55    1.01
  -6  -1  -8   40.32    4.32
  -6  -1  -8   43.96    4.42
  -6  -1  -8   40.27    4.36
  -6  -1  -8   33.99    3.69
  -6  -1  -8   43.13    3.97
  -6  -1  -9    3.97    1.77
  -6  -1  -9    5.67    1.57
  -6  -1  -9    5.97    1.99
  -6  -1  -9    9.09    2.25
  -6  -1 -10    1.22    1.20
  -6  -1 -10    1.16    0.90
  -6  -1 -10   -0.47    0.89
  -6  -1 -10   -0.11    0.65
  -6  -1 -11   -0.43    0.77
  -6  -1 -11    1.57    1.17
  -6  -1 -11    0.58    0.86
  -6  -1 -12   94.02    4.85
  -6  -1 -12   88.50    4.97
  -6  -1 -12   87.74    5.35
  -6  -1 -13   10.09    1.62
  -5  -1   9    2.61    0.88
  -5  -1   9    1.20    0.52
  -5  -1   8   31.67    3.12
  -5  -1   8   37.79    3.26
  -5  -1   7   21.34    3.03
  -5  -1   6  251.86   10.21
  -5  -1   5    3.97    1.50
  -5  -1   5    4.96    2.08
  -5  -1   4    3.86    1.79
  -5  -1   4    6.17    1.78
   5   1  -3   16.07    5.95
  -5  -1   3   21.45    2.96
  -5  -1   3   18.22    2.94
  -5  -1   2   -1.10    1.15
  -5  -1   2    2.45    1.26
   5   1  -2   -0.36    3.18
  -5  -1   2    1.86    1.33
  -5  -1   1    0.63    1.08
  -5  -1   1    0.81    0.79
   5   1  -1   -0.53    2.60
  -5  -1   1   -0.76    0.72
  -5  -1   1    0.26    0.82
   5   1   0    8.51    4.26
  -5  -1   0   13.48    2.23
  -5  -1   0    9.75    1.83
   5   1   1  178.84   15.05
  -5  -1  -2  356.69   21.26
   5   1   2  339.88   19.75
   5   1   3   97.17    9.98
  -5  -1  -3  102.77   10.92
  -5  -1  -4    3.81    2.59
   5   1   4   -0.65    1.39
  -5  -1  -5    4.84    1.43
  -5  -1  -5    0.02    2.18
  -5  -1  -5    3.57    1.01
   5   1   5    1.78    2.04
  -5  -1  -5    5.20    1.44
  -5  -1  -5    4.19    1.45
  -5  -1  -5    6.26    1.68
  -5  -1  -5    3.75    1.26
  -5  -1  -6   55.24    4.14
  -5  -1  -6   60.39    4.59
   5   1   6   53.73    8.08
  -5  -1  -6   53.58    4.49
  -5  -1  -6   57.58    4.77
  -5  -1  -6   56.35    9.04
  -5  -1  -6   57.13    4.59
  -5  -1  -6   58.80    4.51
  -5  -1  -6   60.90    4.88
  -5  -1  -7    3.12    1.12
  -5  -1  -7    5.08    1.37
  -5  -1  -7    1.38    3.35
  -5  -1  -7    5.40    1.74
   5   1   7    7.98    3.43
  -5  -1  -7    3.63    1.29
  -5  -1  -7    7.15    1.85
  -5  -1  -7    4.90    1.52
  -5  -1  -7    5.04    1.44
  -5  -1  -8   16.11    2.48
  -5  -1  -8   19.99    2.94
  -5  -1  -8   13.31    4.93
  -5  -1  -8   12.81    2.31
  -5  -1  -8   16.99    2.58
  -5  -1  -8   21.51    3.21
   5   1   8   17.68    5.86
  -5  -1  -9    7.53    1.77
  -5  -1  -9    6.05    1.52
  -5  -1  -9    8.26    2.22
  -5  -1  -9    7.50    1.85
  -5  -1  -9    6.29    1.85
  -5  -1 -10   65.05    5.55
  -5  -1 -10   60.61    4.94
  -5  -1 -10   63.86    5.11
  -5  -1 -10   62.39    4.74
  -5  -1 -11    1.76    1.33
  -5  -1 -11    2.25    1.11
  -5  -1 -11    2.08    1.15
  -5  -1 -11    1.90    1.09
  -5  -1 -12    7.35    1.57
  -5  -1 -12    8.60    1.65
  -5  -1 -12    8.49    1.95
  -5  -1 -13   15.06    2.17
  -5  -1 -13   13.33    1.75
  -5  -1 -13   10.47    1.57
  -5  -1 -14    5.69    1.14
   4   1 -10   11.52    1.55
  -4  -1  10   10.46    1.50
  -4  -1  10   10.91    1.49
  -4  -1   9   26.70    3.00
  -4  -1   9   23.84    2.34
  -4  -1   8  203.93    7.92
  -4  -1   8  188.90    8.77
  -4  -1   8  187.50    8.53
  -4  -1   7   11.05    2.51
  -4  -1   7   15.47    2.75
  -4  -1   7   12.59    2.13
  -4  -1   6   29.34    3.85
  -4  -1   6   28.93    3.36
  -4  -1   6   27.93    3.56
   4   1  -5    3.67    4.14
  -4  -1   5    8.52    1.82
  -4  -1   5    5.91    1.82
  -4  -1   5    4.40    1.80
  -4  -1   4   33.47    3.53
  -4  -1   4   28.25    3.66
   4   1  -3  110.74   13.23
  -4  -1   3  118.08    6.17
  -4  -1   3  107.77    6.42
   4   1  -2   89.59   11.29
   4   1  -1  166.05   14.09
   4   1   0  333.15   18.35
  -4  -1  -1   55.64    7.48
   4   1   1   57.69    7.46
   4   1   2 1027.58   28.44
  -4  -1  -2  938.02   29.53
  -4  -1  -3    5.60    2.09
   4   1   3    5.66    2.11
  -4  -1  -3    5.66    3.08
   4   1   4   62.44    7.07
  -4  -1  -4   70.02    8.22
  -4  -1  -5   61.83    6.72
   4   1   5   65.73    7.71
  -4  -1  -5   65.55    8.26
  -4  -1  -6   35.86    6.29
   4   1   6   44.36    6.84
  -4  -1  -7    4.15    1.52
   4   1   7    1.42    1.45
  -4  -1  -7    1.94    2.56
   4   1   8  121.80   13.42
  -4  -1  -8  118.19   12.35
  -4  -1  -8  125.21    6.57
  -4  -1  -8  131.46    7.25
  -4  -1  -8  122.64    6.36
  -4  -1  -8  121.91    6.72
  -4  -1  -8  119.09    6.76
  -4  -1  -9  129.73    7.15
  -4  -1  -9  110.85   12.71
  -4  -1  -9  134.05    6.90
  -4  -1  -9  131.20    6.95
  -4  -1  -9  135.00    7.67
  -4  -1  -9  125.14    7.42
   4   1   9  114.91   13.95
  -4  -1 -10   28.07    3.27
  -4  -1 -10   28.22    3.22
  -4  -1 -10   25.44    3.23
  -4  -1 -10   28.78    3.69
  -4  -1 -11   10.02    2.06
  -4  -1 -11    7.92    2.05
  -4  -1 -11    8.31    1.93
  -4  -1 -12   12.40    2.16
  -4  -1 -12   13.11    2.63
  -4  -1 -12   10.74    1.95
  -4  -1 -13   81.55    4.87
  -4  -1 -13   82.43    5.40
  -4  -1 -13   74.28    4.62
  -4  -1 -14    6.94    1.13
  -4  -1 -14    8.08    1.51
   3   1 -11   28.58    2.43
  -3  -1  10  198.83    7.31
   3   1 -10  212.29    8.22
  -3  -1  10  196.30    7.75
  -3  -1   9   14.53    2.58
  -3  -1   9   11.32    2.17
  -3  -1   9   13.50    2.21
  -3  -1   8  165.91    8.01
  -3  -1   8  168.56    8.67
  -3  -1   8  177.64    8.67
  -3  -1   7   12.70    2.60
  -3  -1   7    7.61    1.73
  -3  -1   7    9.34    2.15
  -3  -1   6   53.58    4.94
   3   1  -6   42.75    8.94
  -3  -1   6   55.75    4.56
  -3  -1   6   53.71    4.66
   3   1  -5  133.69   14.52
  -3  -1   5  138.29    6.63
  -3  -1   5  153.32    7.27
  -3  -1   5  143.37    7.60
   3   1  -4   92.30   11.55
   3   1  -3   24.03    5.77
   3   1  -2 1672.68   41.37
   3   1  -1  451.40   19.54
   3   1   0   78.95    7.56
  -3  -1  -1   18.79    3.64
   3   1   1   21.18    3.73
  -3  -1  -1   20.45    3.50
   3   1   2  445.39   14.93
  -3  -1  -2  465.77   16.91
  -3  -1  -2  412.13   15.40
  -3  -1  -3   58.87    6.40
  -3  -1  -3   64.85    3.72
  -3  -1  -3   66.14    5.89
  -3  -1  -4  263.47   13.85
  -3  -1  -4  256.77    9.87
  -3  -1  -4  253.95   10.80
  -3  -1  -5 2675.56   46.32
  -3  -1  -5 2702.96   38.13
   3   1   5 2665.36   46.15
  -3  -1  -5 2804.68   34.79
   3   1   6  175.88   12.92
  -3  -1  -6  175.49   12.49
  -3  -1  -6  162.89   10.78
  -3  -1  -7  296.20   16.44
  -3  -1  -7  306.68   17.56
   3   1   7  300.93   18.60
  -3  -1  -8  345.14   10.95
   3   1   8  341.60   21.64
  -3  -1  -8  350.83   11.28
  -3  -1  -8  327.09   19.23
  -3  -1  -8  333.74   10.76
  -3  -1  -8  330.22   19.19
  -3  -1  -9   44.91    4.41
   3   1   9   53.69    9.49
  -3  -1  -9   50.06    4.42
  -3  -1  -9   42.08    7.57
  -3  -1  -9   44.78    3.98
  -3  -1 -10  212.95    9.05
   3   1  10  230.65   20.59
  -3  -1 -10  211.83    9.39
  -3  -1 -10  215.50    9.83
  -3  -1 -11  244.26   10.14
  -3  -1 -11  247.85    9.98
   3   1  11  247.26    9.81
  -3  -1 -11  255.26   10.98
  -3  -1 -12  183.10    8.42
   3   1  12  189.90    8.21
  -3  -1 -12  177.42    8.33
  -3  -1 -12  180.09    9.04
  -3  -1 -13    7.44    1.56
   3   1  13    6.00    1.43
  -3  -1 -13    3.45    1.01
  -3  -1 -13    6.16    1.57
  -3  -1 -14   -0.58    0.78
   3   1  14   -1.36    0.67
   2   1 -12    5.88    1.10
  -2  -1  11   29.33    2.83
   2   1 -11   31.51    3.14
  -2  -1  10   43.33    3.95
  -2  -1  10   40.55    3.77
  -2  -1  10   45.65    4.10
  -2  -1   9  137.37    7.50
  -2  -1   9  156.42    7.88
  -2  -1   9  148.18    7.95
  -2  -1   8   48.84    4.52
  -2  -1   8   51.98    4.61
  -2  -1   8   47.07    4.55
  -2  -1   7   10.68    2.26
  -2  -1   7    8.77    1.95
  -2  -1   7    9.63    1.89
  -2  -1   6   89.42    5.45
  -2  -1   6   96.66    5.66
  -2  -1   6   94.60    5.85
   2   1  -6   92.84   11.72
   2   1  -5 1144.08   38.76
  -2  -1   4   80.65    7.16
   2   1  -4   71.49    8.80
  -2  -1   3   59.30    5.42
   2   1  -3   53.00    7.10
   2   1  -2   42.00    5.81
  -2  -1   2   37.75    3.85
  -2  -1   1    1.19    0.83
   2   1  -1    2.79    1.27
   2   1   0    3.85    1.90
  -2  -1   0    3.22    1.42
  -2  -1  -1  272.70    3.87
  -2  -1  -1  285.33   10.46
   2   1   1  283.59   10.01
  -2  -1  -1  285.31   10.58
  -2  -1  -2  903.55   17.00
  -2  -1  -2  925.06   12.60
  -2  -1  -3 1539.09   21.58
  -2  -1  -3 1576.25   27.54
  -2  -1  -3 1490.03   19.52
  -2  -1  -4  316.10   13.28
  -2  -1  -4  286.94    8.33
  -2  -1  -4  300.66   11.48
  -2  -1  -5  409.77   10.63
   2   1   5  413.00   17.04
  -2  -1  -5  409.68   15.51
  -2  -1  -5  394.47   16.07
   2   1   6   94.01    9.10
  -2  -1  -6  101.37    8.82
  -2  -1  -6   90.19    8.33
  -2  -1  -7    2.03    1.53
  -2  -1  -7    0.86    1.10
   2   1   7   -0.76    1.58
   2   1   8  234.35   17.45
  -2  -1  -8  198.64   15.24
  -2  -1  -8  210.77   14.66
  -2  -1  -9  170.06    8.39
  -2  -1  -9  182.72   16.19
   2   1   9  167.46   15.91
  -2  -1  -9  175.75    7.91
  -2  -1  -9  168.82    8.15
  -2  -1 -10 1148.87   21.43
   2   1  10 1085.61   20.90
  -2  -1 -10 1113.10   21.83
   2   1  10 1153.91   45.43
  -2  -1 -10 1143.03   22.66
   2   1  11  146.70    7.87
  -2  -1 -11  152.04    8.09
  -2  -1 -11  145.53    8.02
  -2  -1 -11  149.58    8.44
   2   1  12    4.70    1.56
  -2  -1 -12    1.07    1.04
  -2  -1 -12    6.36    1.97
  -2  -1 -12    3.93    1.55
   2   1  13   31.03    3.18
  -2  -1 -13   28.32    3.28
  -2  -1 -13   25.68    2.89
   2   1  14    2.68    0.85
  -2  -1 -14    2.12    0.88
  -2  -1 -14    2.59    0.84
  -1  -1  12   45.86    3.45
   1   1 -12   48.55    3.70
  -1  -1  11  105.56    6.18
   1   1 -11  108.86    6.52
  -1  -1  10   17.75    2.99
  -1  -1  10   16.22    2.58
   1   1 -10   16.84    3.05
  -1  -1   9    9.59    2.13
  -1  -1   9   12.06    2.31
  -1  -1   9    5.13    1.52
  -1  -1   8    2.34    1.16
  -1  -1   8    2.05    1.04
  -1  -1   8    2.49    0.96
   1   1  -8    1.18    1.06
  -1  -1   7  160.22    7.46
   1   1  -7  165.10   15.01
  -1  -1   7  168.58    7.73
  -1  -1   7  161.72    7.08
  -1  -1   7  154.36   13.84
   1   1  -7  144.82    7.50
  -1  -1   6   59.88    7.83
   1   1  -6   63.91    8.99
  -1  -1   5    0.64    1.42
   1   1  -5    1.11    1.51
   1   1  -4    5.34    2.53
  -1  -1   4    9.40    2.63
  -1  -1   3   40.29    4.46
   1   1  -3   48.62    5.70
  -1  -1   2  651.59   15.66
   1   1  -2  716.45   19.52
  -1  -1   1   79.90    4.77
   1   1  -1   84.94    6.00
  -1  -1   0 2804.86   24.55
   1   1   0 2734.72   27.20
  -1  -1   0 2760.12   22.03
  -1  -1  -1   27.21    1.97
   1   1   1   28.41    2.25
  -1  -1  -1   32.18    2.71
  -1  -1  -2 1925.50   20.12
  -1  -1  -2 1896.58   12.73
   1   1   2 1912.45   12.22
  -1  -1  -3   81.95    2.85
  -1  -1  -3   88.11    5.47
  -1  -1  -3   87.97    5.73
  -1  -1  -4  734.08   18.27
  -1  -1  -4  756.53   18.90
  -1  -1  -5  506.25   17.80
   1   1   5  500.77   17.91
  -1  -1  -5  491.32   11.95
  -1  -1  -5  495.83   16.55
  -1  -1  -6   87.10    5.90
   1   1   6   91.73    8.83
  -1  -1  -6   84.64    7.49
  -1  -1  -6   89.14    8.49
  -1  -1  -7  296.23   17.29
  -1  -1  -7  298.85   15.29
   1   1   7  287.01   16.92
  -1  -1  -8  179.73   14.86
  -1  -1  -8  174.06   12.66
   1   1   8  172.50   14.81
   1   1   9   13.31    4.56
   1   1   9    6.28    1.65
  -1  -1  -9    6.29    3.60
  -1  -1  -9    7.30    1.88
  -1  -1  -9    5.79    1.70
  -1  -1 -10  112.08    7.16
  -1  -1 -10  110.95    6.92
   1   1  10  116.55    7.00
   1   1  10  126.40   14.64
  -1  -1 -11  267.85   11.28
  -1  -1 -11  236.58   10.39
  -1  -1 -11  252.45   10.69
   1   1  11  261.06   10.56
  -1  -1 -12   27.91    3.40
  -1  -1 -12   29.37    3.65
   1   1  12   32.74    3.70
   1   1  13   -0.14    0.64
  -1  -1 -13   -0.06    0.73
  -1  -1 -13    1.05    0.79
  -1  -1 -14    4.83    1.19
   1   1  14    2.86    0.82
  -1  -1 -14    2.81    0.77
   0   1 -13    1.03    0.46
   0  -1  13    1.94    0.71
   0   1 -12    1.52    0.89
   0  -1  12   -1.17    0.92
   0   1 -11    6.36    2.18
   0  -1  11    4.45    1.71
   0   1 -11   10.03    2.15
   0   1 -10    0.25    0.90
   0  -1  10    2.05    1.10
   0   1 -10    2.12    1.46
   0  -1   9    8.91    1.93
   0  -1   9    4.51    1.62
   0   1  -9    5.06    1.58
   0  -1   9    3.56    2.38
   0  -1   8   16.24    2.29
   0   1  -8   13.77    2.49
   0  -1   8   18.10    2.62
   0  -1   8   16.66    5.47
   0   1  -7    2.74    2.66
   0  -1   7    0.32    1.70
   0   1  -6    3.45    2.16
   0  -1   6    4.15    2.35
   0  -1   5 1047.83   28.91
   0   1  -5 1013.72   28.27
   0   1  -4  769.70   11.54
   0   1  -4  806.59   22.62
   0  -1   4  790.37   22.34
   0  -1   3  173.63    9.19
   0   1  -3  168.71    9.21
   0   1  -3  159.69    4.15
   0  -1   2  927.19   18.26
   0   1  -2  922.50   18.73
   0  -1   1 1069.24   16.44
   0   1  -1 1033.61   16.65
   0  -1   0  582.04   10.14
   0   1   0  545.50    9.54
   0  -1  -1 1499.00   16.08
   0   1   1 1479.51   10.53
   0  -1  -2  146.58    6.10
   0  -1  -2  153.25    3.86
   0  -1  -3   12.46    2.28
   0  -1  -3   15.72    1.75
   0  -1  -4 1058.12   23.19
   0  -1  -4 1057.89   17.77
   0  -1  -4 1067.52   22.85
   0   1   4 1080.60   21.90
   0   1   5   17.43    3.47
   0  -1  -5   20.18    3.74
   0  -1  -5   21.36    3.53
   0  -1  -5   21.94    2.95
   0   1   6  151.97   10.89
   0  -1  -6  155.27   10.50
   0  -1  -6  173.68   12.21
   0  -1  -6  178.75    9.55
   0  -1  -7    2.54    1.48
   0   1   7    2.58    2.35
   0  -1  -7    2.05    1.42
   0   1   8  188.68   15.13
   0  -1  -8  188.44    8.33
   0   1   8  192.98    8.26
   0  -1  -8  196.06   15.96
   0  -1  -9   76.47   11.00
   0   1   9   80.74    5.75
   0  -1  -9   82.93    5.95
   0   1   9   80.23   10.39
   0  -1  -9   63.87    5.23
   0   1  10   71.20    5.60
   0  -1 -10   68.60    5.73
   0   1  11    9.87    2.20
   0  -1 -11    7.89    2.15
   0   1  12    0.01    0.89
   0  -1 -12   -0.27    1.05
   0  -1 -12    2.10    1.30
   0   1  13  112.98    5.60
   0  -1 -13  112.83    5.65
   0  -1 -13  113.57    5.84
  -1   1 -13  113.80    5.51
   1  -1  13  117.88    5.49
  -1   1 -12   19.15    2.69
   1  -1  12   21.31    2.89
   1  -1  11   11.63    2.44
  -1   1 -11    4.52    1.82
  -1   1 -11    5.59    1.54
  -1   1 -11    8.94    2.30
  -1   1 -10  538.99   15.67
  -1   1 -10  521.93   15.41
  -1   1 -10  544.19   14.38
   1  -1  10  542.25   15.78
  -1   1  -9    3.75    1.57
   1  -1   9    0.03    2.92
  -1   1  -9    3.03    1.27
   1  -1   8   35.46    7.67
  -1   1  -8   33.43    3.64
  -1   1  -8   36.12    6.44
  -1   1  -8   32.99    3.58
   1  -1   7    0.99    1.58
  -1   1  -7    0.31    1.48
   1  -1   6  495.72   22.53
  -1   1  -6  477.29   19.35
   1  -1   5  536.86   20.94
  -1   1  -5  544.41   13.97
  -1   1  -5  525.62   18.53
  -1   1  -4 2451.36   27.05
   1  -1   4 2411.03   39.84
  -1   1  -4 2408.01   35.49
   1  -1   3 6872.29   57.79
  -1   1  -3 6815.33   41.34
  -1   1  -3 6888.50   54.23
  -1   1  -2 6262.37   46.06
   1  -1   2 6224.66   47.21
  -1   1  -2 6163.79   37.20
  -1   1  -1 2223.02   24.11
   1  -1   1 2217.56   22.91
  -1   1   0  776.74   13.35
   1  -1   0  778.11   10.53
   1  -1  -1 1489.60   18.01
  -1   1   1 1504.40   19.87
  -1   1   2  440.03   12.58
   1  -1  -2  448.07   11.45
   1  -1  -3  458.30   13.79
   1  -1  -3  454.74   13.34
  -1   1   3  438.65   11.18
   1  -1  -4  105.72    7.73
   1  -1  -4  117.63    7.75
  -1   1   4  110.24    6.76
  -1   1   5 2941.36   40.60
   1  -1  -5 2913.18   43.92
  -1   1   6   69.83    7.53
   1  -1  -6   84.26    8.27
   1  -1  -6   86.02    8.83
   1  -1  -6   85.28    8.50
   1  -1  -7  141.20   12.68
   1  -1  -8    6.65    2.72
  -1   1   8    6.44    1.58
  -1   1   8    6.81    1.57
  -1   1   9    2.05    1.20
  -1   1   9    2.52    1.43
   1  -1  -9    5.84    3.22
  -1   1  10   28.63    3.54
   1  -1 -10   25.83    3.56
  -1   1  10   25.26    3.20
   1  -1 -11    1.33    1.14
  -1   1  11   -0.99    1.07
   1  -1 -12   64.18    4.77
  -1   1  12   65.56    4.71
   1  -1 -12   64.44    4.72
   1  -1 -13   10.69    1.60
  -1   1  13   11.03    1.62
   1  -1 -13    8.08    1.30
   2  -1  14   17.20    1.68
   2  -1  13   62.53    4.19
  -2   1 -13   63.32    4.28
  -2   1 -12  173.97    8.32
   2  -1  12  168.38    8.07
  -2   1 -12  166.50    8.03
   2  -1  11  281.60   11.08
  -2   1 -11  268.53   10.91
  -2   1 -11  301.29   11.46
  -2   1 -10  777.30   18.54
  -2   1 -10  728.86   18.03
  -2   1  -9    3.44    1.42
  -2   1  -9    4.56    1.57
   2  -1   9    6.25    4.27
   2  -1   8  314.32   21.85
  -2   1  -8  312.62   10.75
  -2   1  -8  349.24   18.96
  -2   1  -8  326.83   10.98
  -2   1  -7   75.77    8.39
   2  -1   7   80.10   10.37
  -2   1  -6  614.63   21.80
  -2   1  -6  622.76   19.17
   2  -1   6  624.09   25.45
  -2   1  -5    0.55    1.54
  -2   1  -5    2.77    1.41
   2  -1   5    2.33    1.38
  -2   1  -4  243.54   10.83
  -2   1  -4  241.05   11.60
   2  -1   4  238.55   12.64
   2  -1   3  185.26    9.71
  -2   1  -3  185.81    9.60
  -2   1  -3  183.26    9.14
   2  -1   2  544.49   14.29
  -2   1  -2  569.89   15.85
  -2   1  -1  556.69   15.02
   2  -1   1  539.26   11.58
   2  -1   0 2708.86   15.40
  -2   1   0 2800.29   34.66
   2  -1  -1   79.23    4.47
  -2   1   1   83.62    6.66
   2  -1  -2  388.68   11.65
  -2   1   2  381.34   15.48
   2  -1  -3  374.79   13.28
   2  -1  -3  385.91   15.48
  -2   1   3  392.59    7.84
   2  -1  -4  144.79   10.76
   2  -1  -4  147.22    9.62
   2  -1  -5  100.10    9.01
   2  -1  -5   94.82    9.52
   2  -1  -6  780.91   29.75
   2  -1  -6  721.31   26.79
   2  -1  -6  729.57   26.52
  -2   1   7   32.55    3.51
  -2   1   7   31.93    3.59
   2  -1  -7   31.39    5.97
  -2   1   7   35.34    3.64
   2  -1  -8  109.45   12.07
  -2   1   8  111.38    7.02
  -2   1   8  111.00    6.61
  -2   1   8  120.10    7.17
  -2   1   9  110.95    6.95
  -2   1   9  106.04    7.09
   2  -1 -10   10.38    2.30
  -2   1  10    5.61    1.53
  -2   1  10    8.53    2.06
  -2   1  11   19.83    2.68
  -2   1  11   15.71    2.42
   2  -1 -11   18.36    2.67
   2  -1 -12   85.32    4.82
   2  -1 -12   76.49    4.31
  -2   1  12   83.94    4.61
   3  -1  14    1.18    0.58
  -3   1 -13    9.75    1.68
  -3   1 -13    8.45    1.62
   3  -1  13   11.89    1.87
  -3   1 -12   16.40    2.65
   3  -1  12   11.72    2.14
  -3   1 -12   13.07    2.25
  -3   1 -11    5.64    1.89
  -3   1 -11    5.18    1.71
  -3   1 -10  227.81   10.04
  -3   1 -10  237.21   10.15
  -3   1  -9  157.39    8.11
  -3   1  -9  155.79    7.19
   3  -1   9  160.92   17.16
  -3   1  -9  154.81    8.06
  -3   1  -8  247.51    8.81
  -3   1  -8  281.89   10.50
   3  -1   8  278.61   21.16
  -3   1  -8  282.78   10.24
   3  -1   7   11.20    3.95
  -3   1  -7    7.51    2.55
  -3   1  -6  255.15   14.50
   3  -1   6  246.06   16.47
  -3   1  -6  253.43   14.38
   3  -1   5  469.74   20.46
  -3   1  -5  464.23   18.59
  -3   1  -5  465.88   18.80
   3  -1   4  276.40   14.04
  -3   1  -4  283.41   13.84
   3  -1   3   77.00    6.58
  -3   1  -3   85.95    7.39
  -3   1  -2  559.37   18.43
   3  -1   2  550.50   14.82
   3  -1   1  112.31    5.09
  -3   1  -1  119.86    8.91
   3  -1   0  261.78    7.53
  -3   1   0  267.85   14.04
  -3   1   1  981.68   29.13
   3  -1  -1  982.91   16.12
   3  -1  -2  414.19   18.59
   3  -1  -2  394.86   12.08
  -3   1   2  400.75   19.49
   3  -1  -3  135.07    8.34
   3  -1  -3  132.69   11.27
   3  -1  -4   -2.50    1.45
  -3   1   5  135.19    6.81
  -3   1   5  127.75    6.41
   3  -1  -5  121.87   12.83
  -3   1   6    1.68    1.01
  -3   1   6    2.14    0.99
  -3   1   6    3.29    1.27
   3  -1  -6    1.64    2.69
  -3   1   7  222.33    9.99
  -3   1   7  210.04    9.59
  -3   1   7  223.92    9.58
  -3   1   8   94.85    6.91
  -3   1   8   99.01    6.59
  -3   1   8   90.52    6.28
  -3   1   9  402.53   13.99
  -3   1   9  438.52   13.52
  -3   1  10   15.31    2.41
  -3   1  10   13.97    2.51
   3  -1 -10   15.75    2.37
  -3   1  11   53.98    3.96
  -3   1  11   57.09    3.89
   3  -1 -11   58.65    3.76
  -4   1 -13   14.29    1.96
  -4   1 -13   15.55    2.14
   4  -1  13   15.45    2.03
  -4   1 -12   17.21    2.45
  -4   1 -12   19.91    2.66
  -4   1 -11  133.10    6.49
  -4   1 -11  134.07    7.32
  -4   1 -11  142.42    7.68
  -4   1 -10   17.35    2.79
  -4   1 -10   17.82    2.61
  -4   1 -10   20.10    3.03
  -4   1  -9  239.78   10.12
  -4   1  -9  228.55    9.39
  -4   1  -9  242.61   10.00
  -4   1  -8   63.14    4.94
  -4   1  -8   62.97    5.06
   4  -1   8   64.32   10.95
  -4   1  -8   60.23    4.74
  -4   1  -8   56.54    4.99
  -4   1  -7   95.06    5.96
  -4   1  -7   88.53    5.42
  -4   1  -7   73.17    8.75
  -4   1  -7   91.09    5.55
   4  -1   7   73.34   10.15
  -4   1  -7   85.51    5.76
   4  -1   6   13.96    3.85
  -4   1  -6   13.48    3.76
   4  -1   5  127.35   11.19
  -4   1  -5  127.66   10.90
  -4   1  -4    7.75    2.93
   4  -1   4    3.73    1.48
  -4   1  -3  176.04   12.63
   4  -1   3  184.71   10.43
  -4   1  -2  252.48   15.18
  -4   1  -1   59.14    7.91
  -4   1   0  292.08   18.19
  -4   1   1  144.97   13.37
   4  -1  -2  151.52   13.50
  -4   1   2  157.74   14.64
   4  -1  -3    0.80    2.37
  -4   1   4  154.55    7.64
  -4   1   4  143.63    7.00
   4  -1  -4  142.49   14.77
  -4   1   4  141.97    7.73
   4  -1  -5   85.32   11.94
  -4   1   5   82.73    5.60
  -4   1   5   82.78    5.94
  -4   1   5   77.29    6.03
  -4   1   6  520.94   15.51
  -4   1   6  489.43   14.12
  -4   1   7  434.39   13.50
  -4   1   7  412.27   14.28
  -4   1   8    1.23    1.02
  -4   1   8    0.06    0.88
  -4   1   9    0.12    1.00
  -4   1   9    1.36    0.95
   4  -1 -10   12.33    1.65
  -4   1  10   13.53    1.89
  -4   1  10    9.91    1.84
  -5   1 -13   14.73    1.70
  -5   1 -13   14.83    1.91
   5  -1  13   12.29    1.53
  -5   1 -12    2.93    1.11
  -5   1 -12    2.32    0.96
  -5   1 -12    1.41    0.96
   5  -1  12    0.77    0.58
  -5   1 -11   43.82    3.82
  -5   1 -11   49.17    4.35
  -5   1 -11   50.92    4.30
  -5   1 -10   28.99    3.47
  -5   1 -10   32.54    3.73
  -5   1 -10   26.20    3.23
  -5   1  -9   14.20    2.53
  -5   1  -9   14.57    2.77
  -5   1  -9   15.10    2.67
  -5   1  -9   14.72    2.50
  -5   1  -8   82.23    5.65
   5  -1   8   77.99   11.48
  -5   1  -8   77.66    5.64
  -5   1  -8   70.19    5.77
  -5   1  -8   75.89    5.76
  -5   1  -7    1.40    1.04
   5  -1   7    2.26    2.11
  -5   1  -7   -0.58    1.00
  -5   1  -7    0.13    0.87
  -5   1  -7    2.09    1.56
  -5   1  -6  138.57    6.84
  -5   1  -6  128.18    6.86
  -5   1  -6  134.67    7.25
  -5   1  -6  125.74    7.01
  -5   1  -6  134.16    6.91
  -5   1  -6  128.13   12.76
  -5   1  -5    0.59    0.70
  -5   1  -5    2.24    1.02
  -5   1  -5    0.22    2.19
  -5   1  -5    0.50    0.63
  -5   1  -5   -0.69    1.02
  -5   1  -4   70.23    4.92
  -5   1  -4   54.15    8.40
  -5   1  -3  245.26   17.77
  -5   1  -2   40.94    7.87
  -5   1  -1   44.66    8.33
  -5   1   0   54.10    9.39
   5  -1   0   54.25    8.63
   5  -1  -1    7.16    3.46
  -5   1   1    8.91    1.80
  -5   1   1    3.03    3.14
  -5   1   1    9.51    1.90
   5  -1  -2   13.53    4.75
  -5   1   2    7.76    1.88
  -5   1   2    9.54    1.88
  -5   1   2    7.62    1.70
  -5   1   3  148.17    7.40
  -5   1   3  161.82    8.16
   5  -1  -3  158.72   16.49
   5  -1  -4  112.48   15.42
  -5   1   4  109.24    6.55
  -5   1   4  115.68    7.18
  -5   1   5   40.58    4.06
  -5   1   5   43.63    4.59
  -5   1   6  231.09    9.50
  -5   1   6  229.85   10.53
  -5   1   7   36.02    4.10
  -5   1   7   40.60    3.79
  -5   1   8   -0.69    0.75
  -5   1   8    0.03    0.75
  -5   1   8    0.16    0.69
  -5   1   9   35.82    2.68
  -5   1   9   40.47    3.04
  -6   1 -12   21.95    2.35
  -6   1 -12   19.82    2.20
  -6   1 -11   27.74    2.99
  -6   1 -11   24.66    2.87
  -6   1 -11   29.42    2.89
  -6   1 -10   -0.29    0.96
  -6   1 -10    0.56    0.89
  -6   1 -10   -0.49    0.74
  -6   1  -9  125.31    7.63
  -6   1  -9  121.83    7.15
  -6   1  -9  125.05    7.22
  -6   1  -9  135.94    7.06
  -6   1  -8    5.78    1.80
  -6   1  -8    7.21    2.25
  -6   1  -8    5.66    1.79
  -6   1  -8    8.31    1.75
  -6   1  -7   12.30    2.36
  -6   1  -7   10.94    2.30
  -6   1  -7   11.10    2.05
  -6   1  -7   11.92    2.51
  -6   1  -6  107.08    6.82
  -6   1  -6  115.22    6.97
  -6   1  -6  121.42    6.96
  -6   1  -6  109.10    7.04
  -6   1  -5  550.89   14.49
  -6   1  -5  549.17   14.98
  -6   1  -5  583.14   15.71
  -6   1  -5  567.92   30.71
  -6   1  -5  575.29   15.37
  -6   1  -4  599.74   15.89
  -6   1  -4  620.16   14.82
  -6   1  -4  596.29   15.37
  -6   1  -4  591.97   13.75
  -6   1  -4  591.98   15.64
  -6   1  -4  617.09   32.68
  -6   1  -3   53.20    9.61
  -6   1  -3   65.91    4.77
  -6   1  -3   68.43    5.25
  -6   1  -3   71.36    4.82
  -6   1  -3   68.02    5.08
  -6   1  -3   66.96    5.25
  -6   1  -2   10.42    2.19
   6  -1   2    5.60    3.82
  -6   1  -2   10.69    1.99
  -6   1  -2   10.50    2.18
  -6   1  -2    7.25    3.20
  -6   1  -1  155.98   17.58
   6  -1   1  150.16   15.49
  -6   1  -1  155.40    7.92
  -6   1  -1  142.00    7.61
  -6   1   0   62.67    4.91
  -6   1   0   66.75    4.93
   6  -1   0   66.94   11.08
  -6   1   0   62.62    5.14
  -6   1   0   71.34   12.36
  -6   1   1   -1.21    1.13
  -6   1   1    0.95    1.14
  -6   1   1    1.64    1.08
  -6   1   2    6.71    1.61
  -6   1   2    9.19    2.09
  -6   1   2   10.24    1.95
  -6   1   3   17.63    2.52
  -6   1   3   14.16    2.59
  -6   1   3   18.52    2.97
  -6   1   4   28.41    3.56
  -6   1   4   30.54    3.37
  -6   1   4   30.54    3.61
  -6   1   5   10.84    2.04
  -6   1   5    7.18    1.67
  -6   1   5    8.84    1.94
  -6   1   6    0.50    0.90
  -6   1   6    0.09    0.83
  -6   1   6   -0.06    0.67
  -6   1   7    1.24    0.75
  -6   1   7    0.24    0.54
  -6   1   7    1.60    0.66
  -6   1   8   24.42    2.45
  -6   1   8   28.11    2.19
  -7   1 -12    2.04    0.71
  -7   1 -11   34.44    2.75
  -7   1 -11   35.08    3.08
  -7   1 -10    2.40    1.11
  -7   1 -10   -0.06    0.92
  -7   1  -9   75.49    5.54
  -7   1  -9   74.31    5.07
  -7   1  -9   81.01    5.55
  -7   1  -8    2.43    1.35
  -7   1  -8    1.53    0.95
  -7   1  -8    2.10    0.87
  -7   1  -7   16.22    2.68
  -7   1  -7   14.83    2.52
  -7   1  -7   16.60    2.92
  -7   1  -6  171.34    8.30
  -7   1  -6  164.66    8.27
  -7   1  -6  168.71    8.80
  -7   1  -6  163.42    8.58
  -7   1  -5  110.05    6.79
  -7   1  -5   98.36    6.68
  -7   1  -5  115.06    6.73
  -7   1  -5  107.49    6.88
  -7   1  -4   46.48    4.75
  -7   1  -4   47.32    4.46
  -7   1  -4   47.65    4.65
  -7   1  -4   51.47    4.37
  -7   1  -3    2.30    1.32
  -7   1  -3    2.70    1.02
  -7   1  -3    2.17    1.33
  -7   1  -2   12.37    2.51
  -7   1  -2   10.85    2.19
  -7   1  -2    7.35    1.77
  -7   1  -1  417.64   12.98
  -7   1  -1  408.37   13.40
  -7   1  -1  445.31   13.45
  -7   1   0    8.94    2.03
  -7   1   0    9.66    2.06
  -7   1   1  269.49    9.57
  -7   1   1  269.53   10.74
  -7   1   2  108.19    6.69
  -7   1   3   14.79    2.43
  -7   1   3   13.54    2.32
  -7   1   4    2.10    1.12
  -7   1   4    0.10    0.79
  -7   1   5   11.02    1.77
  -7   1   5    8.55    1.67
  -7   1   6   52.36    3.12
   7  -1  -6   43.14    2.94
  -8   1 -11    0.31    0.36
  -8   1 -10   19.98    2.20
  -8   1  -9   10.16    1.79
  -8   1  -9    9.98    1.48
  -8   1  -9   10.64    1.90
  -8   1  -8  216.89    7.55
  -8   1  -8  204.38    7.95
  -8   1  -8  218.90    8.58
  -8   1  -7    8.12    1.59
  -8   1  -7    9.56    2.05
  -8   1  -7    9.10    1.86
  -8   1  -6  324.20   11.18
  -8   1  -6  311.67   10.01
  -8   1  -6  313.94   10.15
  -8   1  -5   64.32    5.29
  -8   1  -5   59.49    4.47
  -8   1  -5   57.92    4.28
  -8   1  -5   56.02    4.76
  -8   1  -4   16.97    2.42
  -8   1  -4   16.15    2.56
  -8   1  -4   13.33    2.56
  -8   1  -3    1.14    0.81
  -8   1  -3   -0.18    0.95
  -8   1  -3    1.33    0.97
  -8   1  -2   28.20    3.28
  -8   1  -2   26.04    3.40
  -8   1  -2   29.23    3.16
  -8   1  -1    0.18    0.87
  -8   1  -1   -0.36    0.75
  -8   1  -1    0.65    0.82
  -8   1   0   28.50    2.90
   8  -1   0   21.61    2.53
  -8   1   0   34.11    3.51
  -8   1   0   31.49    3.10
  -8   1   1    3.37    1.18
  -8   1   1    4.20    1.33
   8  -1  -1    4.56    1.18
  -8   1   2    7.36    1.38
  -8   1   2    7.22    1.54
   8  -1  -2    8.15    1.56
  -8   1   3   13.70    1.59
   8  -1  -3   15.86    2.02
  -8   1   4   30.60    2.22
   8  -1  -4   22.85    2.00
  -9   1  -8    0.59    0.50
  -9   1  -7    0.34    0.63
  -9   1  -6   29.98    2.74
  -9   1  -5   -0.49    0.69
  -9   1  -4    9.93    1.66
  -9   1  -3    9.55    1.59
  -9   1  -2   12.17    1.76
  -9   1  -1    1.67    0.67
  -9   1   0    0.00    0.47
  -9  -2  -2  113.29    4.61
  -9  -2  -2   98.56    4.14
  -9  -2  -3    9.37    1.39
  -9  -2  -3   13.10    1.80
  -9  -2  -4   10.16    1.61
  -9  -2  -4    9.83    1.43
  -9  -2  -5   25.87    2.34
  -9  -2  -5   28.17    2.63
  -9  -2  -6   44.86    3.03
  -9  -2  -6   46.92    3.28
  -9  -2  -7    2.51    0.72
  -9  -2  -7    5.48    1.13
  -9  -2  -8   26.98    2.08
  -8  -2   2    0.57    0.51
  -8  -2   1   48.09    3.10
  -8  -2   1   50.65    3.51
  -8  -2   0    6.07    1.47
  -8  -2   0    6.09    1.40
  -8  -2  -1    8.23    1.62
  -8  -2  -1    8.27    1.79
  -8  -2  -2   11.26    1.97
  -8  -2  -2   10.51    1.98
  -8  -2  -3   38.58    3.69
  -8  -2  -3   38.27    3.83
  -8  -2  -4  144.49    7.38
  -8  -2  -4  140.53    7.02
  -8  -2  -5    0.45    0.89
  -8  -2  -5   -1.23    1.10
  -8  -2  -6  212.80    8.58
  -8  -2  -6  209.92    8.52
  -8  -2  -7   -0.83    0.93
  -8  -2  -7    0.39    0.80
  -8  -2  -7    0.71    0.75
  -8  -2  -8   14.79    2.23
  -8  -2  -8   15.59    2.32
  -8  -2  -8   12.12    1.92
  -8  -2  -9   12.23    1.93
  -8  -2  -9   11.79    1.78
  -8  -2 -10   -0.10    0.44
  -8  -2 -11   24.56    2.00
  -7  -2   4   37.12    2.95
  -7  -2   4   31.31    2.67
  -7  -2   3   50.75    3.70
  -7  -2   3   48.99    3.83
  -7  -2   2   72.77    5.01
  -7  -2   2   77.25    4.69
  -7  -2   1   34.43    3.50
  -7  -2   1   29.76    3.36
  -7  -2   0   47.20    4.31
  -7  -2   0   39.69    3.97
  -7  -2  -1    0.45    0.96
  -7  -2  -1    0.14    0.85
  -7  -2  -2    7.31    1.92
  -7  -2  -2    3.91    1.27
  -7  -2  -3  491.80   14.32
  -7  -2  -3  508.70   14.82
  -7  -2  -4   66.12    5.38
  -7  -2  -4   72.38    5.48
  -7  -2  -4   73.64    5.75
  -7  -2  -5  465.98   14.12
  -7  -2  -5  487.71   14.24
  -7  -2  -5  482.89   14.20
  -7  -2  -6   38.21    4.01
  -7  -2  -6   38.88    4.28
  -7  -2  -6   39.32    4.07
  -7  -2  -6   39.29    4.11
  -7  -2  -7    9.49    2.33
  -7  -2  -7   14.20    2.59
  -7  -2  -7   12.83    2.33
  -7  -2  -7   13.63    2.61
  -7  -2  -8   45.54    4.57
  -7  -2  -8   50.64    4.97
  -7  -2  -8   53.25    4.63
  -7  -2  -8   46.92    4.41
  -7  -2  -8   42.74    3.89
  -7  -2  -9    3.08    1.23
  -7  -2  -9    3.65    1.18
  -7  -2  -9    1.00    0.75
  -7  -2  -9    2.40    1.30
  -7  -2 -10   20.64    2.79
  -7  -2 -10   19.58    2.59
  -7  -2 -10   18.84    2.82
  -7  -2 -10   20.20    2.82
  -7  -2 -11   25.04    2.64
  -7  -2 -11   26.21    2.93
  -7  -2 -12    2.44    0.98
  -7  -2 -12    1.44    0.66
  -6  -2   6  122.05    5.35
  -6  -2   6  119.34    5.58
  -6  -2   5   48.18    3.93
  -6  -2   5   47.41    3.91
  -6  -2   4   75.79    5.21
  -6  -2   4   73.63    5.22
  -6  -2   3   33.74    3.40
  -6  -2   3   34.87    3.60
  -6  -2   3   33.20    3.80
  -6  -2   2   50.21    4.29
  -6  -2   2   49.93    4.35
  -6  -2   2   45.58    4.46
  -6  -2   1   -0.14    0.94
  -6  -2   1   -0.02    0.73
  -6  -2   1    1.32    0.98
  -6  -2   0    0.54    1.02
  -6  -2   0    2.49    1.25
   6   2   1   97.69   12.87
  -6  -2  -1   91.04    6.27
  -6  -2  -1   93.10    6.17
   6   2   2   58.12   10.07
  -6  -2  -2   63.12    5.28
  -6  -2  -2   66.46    5.37
  -6  -2  -2   74.06    5.38
  -6  -2  -2   73.78    5.59
  -6  -2  -3  432.27   12.99
  -6  -2  -3  412.94   13.30
  -6  -2  -3  439.76   13.49
  -6  -2  -3  456.79   13.58
  -6  -2  -4    0.65    1.09
  -6  -2  -4    0.83    0.76
  -6  -2  -4    1.54    1.18
  -6  -2  -4    1.27    0.80
  -6  -2  -4    2.54    1.31
  -6  -2  -5   10.50    2.24
  -6  -2  -5    9.05    2.09
  -6  -2  -5   10.64    2.34
  -6  -2  -5    8.22    1.99
  -6  -2  -5    8.54    1.85
  -6  -2  -5   11.31    2.54
  -6  -2  -5   12.74    2.77
  -6  -2  -6    7.27    1.97
  -6  -2  -6    7.46    1.99
  -6  -2  -6    6.52    1.73
  -6  -2  -6    5.94    1.98
  -6  -2  -6    5.05    1.65
  -6  -2  -6    7.61    1.94
  -6  -2  -6    9.21    2.30
  -6  -2  -7   74.41    5.19
  -6  -2  -7   67.83    5.64
  -6  -2  -7   73.10    5.75
  -6  -2  -7   75.80    5.63
  -6  -2  -7   77.17    5.73
  -6  -2  -7   78.53    6.15
  -6  -2  -7   71.22    5.82
  -6  -2  -8    2.07    0.98
  -6  -2  -8    4.81    1.55
  -6  -2  -8    5.64    1.61
  -6  -2  -8    3.38    1.55
  -6  -2  -8    3.24    1.73
  -6  -2  -9  133.41    7.41
  -6  -2  -9  141.41    8.05
  -6  -2  -9  132.83    7.54
  -6  -2  -9  145.61    7.79
  -6  -2  -9  142.70    8.23
  -6  -2 -10   75.80    5.41
  -6  -2 -10   84.17    6.07
  -6  -2 -10   79.99    5.64
  -6  -2 -10   78.39    6.00
  -6  -2 -10   74.70    5.53
  -6  -2 -11    8.17    1.73
  -6  -2 -11   10.79    2.10
  -6  -2 -11   11.01    2.44
  -6  -2 -12   21.60    2.74
  -6  -2 -12   18.59    2.33
  -6  -2 -13   -0.81    0.79
  -6  -2 -13   -0.63    0.66
  -6  -2 -14   50.36    2.91
  -5  -2   8   77.17    4.31
  -5  -2   8   77.14    3.91
  -5  -2   7   48.40    3.94
  -5  -2   7   47.17    3.75
  -5  -2   6  491.73   13.49
  -5  -2   6  476.81   14.23
  -5  -2   5  116.30    7.43
  -5  -2   5  116.43    6.84
  -5  -2   4  287.15   10.72
  -5  -2   4  273.68   11.54
  -5  -2   3   12.72    2.52
  -5  -2   3    9.03    1.85
  -5  -2   3   13.63    2.31
  -5  -2   2   38.19    3.81
  -5  -2   2   42.74    3.91
  -5  -2   2   41.03    4.33
  -5  -2   2   37.68    4.01
   5   2  -2   38.43    8.81
  -5  -2   1  371.36   11.74
  -5  -2   1  375.66   11.84
   5   2  -1  382.12   26.23
  -5  -2   1  373.89   12.16
  -5  -2   1  387.46   10.95
  -5  -2   0   55.38    4.44
   5   2   0   51.60    9.17
  -5  -2   0   50.42    4.14
  -5  -2   0   54.48    4.38
  -5  -2  -1    0.54    0.85
  -5  -2  -1    2.73    1.08
  -5  -2  -1    2.30    1.18
   5   2   2   43.51    7.37
  -5  -2  -2   57.46    4.37
  -5  -2  -2   55.15    4.30
   5   2   3  238.11   16.34
  -5  -2  -3  258.64    9.71
  -5  -2  -3  266.74    9.40
  -5  -2  -3  259.54    9.32
  -5  -2  -4    7.94    1.98
  -5  -2  -4    7.14    1.72
  -5  -2  -4    6.89    1.61
  -5  -2  -4   12.32    4.75
  -5  -2  -4    8.61    1.76
  -5  -2  -4    8.23    1.99
  -5  -2  -4    8.08    1.87
  -5  -2  -5   25.62    2.91
  -5  -2  -5   32.46    3.62
  -5  -2  -5   24.43    5.87
  -5  -2  -5   27.27    3.03
  -5  -2  -5   28.78    3.13
  -5  -2  -5   27.94    3.38
  -5  -2  -5   29.28    3.24
  -5  -2  -5   29.98    3.48
   5   2   5   25.51    5.28
  -5  -2  -6  103.11    6.41
  -5  -2  -6   91.34    5.41
   5   2   6   80.71   10.09
  -5  -2  -6   98.92    6.17
  -5  -2  -6   95.58    6.22
  -5  -2  -6  100.42    6.12
  -5  -2  -6   98.41    5.93
  -5  -2  -6   85.36   10.99
  -5  -2  -6   99.42    6.39
   5   2   7  127.31   13.46
  -5  -2  -7  141.80    7.52
  -5  -2  -7  133.78    7.44
  -5  -2  -7  139.78    7.57
  -5  -2  -7  133.68    7.19
  -5  -2  -7  135.55    7.15
  -5  -2  -7  136.02   14.66
  -5  -2  -7  140.84    7.81
  -5  -2  -8    1.65    1.17
  -5  -2  -8    0.12    1.17
  -5  -2  -8   -1.07    2.89
  -5  -2  -8    0.81    1.33
   5   2   8   -0.45    2.48
  -5  -2  -8   -1.64    1.19
  -5  -2  -8   -0.49    0.79
  -5  -2  -8    0.53    1.07
  -5  -2  -9    4.34    1.60
  -5  -2  -9    4.13    1.58
  -5  -2  -9    6.90    2.05
  -5  -2  -9    2.99    1.51
  -5  -2  -9    4.61    1.44
  -5  -2  -9    3.48    1.53
  -5  -2 -10  169.29    8.38
  -5  -2 -10  173.29    9.05
  -5  -2 -10  175.98    8.23
  -5  -2 -10  168.89    8.49
  -5  -2 -11   19.01    3.02
  -5  -2 -11   23.50    3.14
  -5  -2 -11   23.73    3.11
  -5  -2 -12   96.52    6.21
  -5  -2 -12   96.15    5.79
  -5  -2 -13    2.29    0.96
  -5  -2 -13    1.80    0.79
  -5  -2 -14   88.35    4.50
  -5  -2 -14   81.36    3.75
  -4  -2   9   83.86    4.63
  -4  -2   8   62.50    4.64
  -4  -2   8   64.84    4.93
  -4  -2   7   14.13    2.55
  -4  -2   7   15.26    2.54
  -4  -2   6   52.56    4.87
  -4  -2   6   53.11    5.15
  -4  -2   5  199.75    8.98
  -4  -2   5  202.66    9.85
   4   2  -4   43.15    9.82
  -4  -2   4   36.37    3.78
  -4  -2   4   32.51    3.94
  -4  -2   3  201.77    8.16
  -4  -2   3  224.33    8.68
   4   2  -3  225.64   20.19
  -4  -2   3  220.05    9.48
  -4  -2   2    6.04    1.50
  -4  -2   2    6.23    1.51
   4   2  -1    2.72    1.70
   4   2   0   21.27    5.47
   4   2   1    5.10    2.90
  -4  -2  -2  114.56   10.21
   4   2   2  105.69    9.78
  -4  -2  -3  215.13   14.21
   4   2   3  210.14   12.78
   4   2   4   14.18    3.18
  -4  -2  -4   10.08    3.93
  -4  -2  -5 1292.91   37.34
  -4  -2  -6   24.61    5.57
   4   2   6   25.20    5.51
  -4  -2  -7  139.06    6.88
  -4  -2  -7  137.41    6.75
   4   2   7  114.62   12.29
  -4  -2  -7  139.65    7.00
  -4  -2  -7  141.99   13.63
  -4  -2  -7  133.84    7.02
  -4  -2  -8   97.42    6.42
  -4  -2  -8   91.39    5.77
  -4  -2  -8   88.30    5.62
  -4  -2  -8   94.02    5.72
   4   2   8  102.12   12.51
  -4  -2  -8   93.33   11.59
  -4  -2  -8   90.83    5.74
  -4  -2  -8   96.38    6.10
   4   2   9   16.09    5.94
  -4  -2  -9    9.76    4.33
  -4  -2  -9    9.66    2.34
  -4  -2  -9   10.37    1.98
  -4  -2  -9   10.85    2.26
  -4  -2  -9   10.19    2.23
  -4  -2  -9    9.58    1.97
  -4  -2 -10  186.68    9.34
  -4  -2 -10  181.54    8.25
  -4  -2 -10  187.71    9.04
  -4  -2 -11    7.85    2.27
  -4  -2 -11    6.50    1.61
  -4  -2 -12   37.25    4.12
  -4  -2 -12   35.67    3.80
  -4  -2 -13  345.15   11.23
  -4  -2 -13  332.47   10.32
  -4  -2 -14    3.32    1.02
  -4  -2 -14    2.29    0.76
  -3  -2  10   26.47    2.54
   3   2 -10   36.66    3.14
  -3  -2   9   40.62    3.82
  -3  -2   9   41.50    3.36
  -3  -2   9   40.24    3.75
  -3  -2   8   26.35    3.01
  -3  -2   8   27.78    3.38
  -3  -2   8   28.23    3.59
  -3  -2   7    0.55    1.08
  -3  -2   7    1.12    0.88
  -3  -2   7    1.58    1.03
  -3  -2   6    1.60    0.86
  -3  -2   6    3.61    1.02
   3   2  -5   45.32    9.59
  -3  -2   5   34.80    3.58
  -3  -2   5   41.04    4.33
   3   2  -4  464.82   27.65
  -3  -2   4  519.48   12.90
  -3  -2   4  478.15   13.50
   3   2  -3   22.82    5.93
   3   2  -2  251.71   17.94
   3   2  -1  202.47   14.69
   3   2   0   -2.59    1.98
   3   2   1    1.02    1.38
  -3  -2  -1    0.40    1.15
  -3  -2  -2   21.06    3.78
   3   2   2   21.57    3.80
  -3  -2  -3   23.98    4.50
   3   2   3   34.25    4.27
  -3  -2  -3   33.86    3.03
  -3  -2  -4  119.51    6.96
   3   2   4  122.12    6.77
  -3  -2  -4  115.74    9.65
  -3  -2  -5    1.08    1.87
  -3  -2  -5   -1.04    1.33
  -3  -2  -6    0.88    1.12
  -3  -2  -6   -1.41    2.39
  -3  -2  -7    3.82    1.58
  -3  -2  -7    0.60    1.31
   3   2   7   -0.19    1.26
   3   2   8    2.31    1.99
  -3  -2  -8    1.44    0.72
  -3  -2  -8    5.48    3.50
  -3  -2  -8    3.04    1.80
  -3  -2  -8    2.18    0.97
   3   2   9   75.93   11.03
  -3  -2  -9   78.29    9.95
  -3  -2  -9   80.14   10.49
  -3  -2  -9   82.10    5.70
  -3  -2  -9   86.37    5.97
  -3  -2 -10    0.94    1.08
   3   2  10    4.03    3.72
  -3  -2 -10    0.36    3.22
  -3  -2 -10    2.70    1.42
  -3  -2 -10    3.57    3.25
  -3  -2 -10    1.79    1.21
  -3  -2 -11  369.57   11.87
  -3  -2 -11  379.82   13.35
  -3  -2 -11  360.37   12.69
  -3  -2 -12    5.56    1.77
  -3  -2 -12    1.08    0.61
  -3  -2 -12    4.89    1.42
  -3  -2 -13   15.27    2.38
  -3  -2 -13   15.82    2.59
  -3  -2 -14    2.42    1.17
  -3  -2 -14    2.56    0.86
  -2  -2  11   56.33    3.29
   2   2 -11   61.54    3.94
  -2  -2  10    9.95    1.84
   2   2 -10   11.70    2.16
  -2  -2  10   12.62    1.95
  -2  -2  10   10.50    1.83
  -2  -2   9    0.21    0.87
  -2  -2   9    0.66    0.79
  -2  -2   9    0.81    0.75
  -2  -2   8  201.40    8.93
  -2  -2   8  203.62    8.91
  -2  -2   8  209.09    9.71
  -2  -2   7  125.17    6.92
  -2  -2   7  125.44    6.93
   2   2  -7  101.98   13.74
  -2  -2   7  121.51    7.47
  -2  -2   6    0.81    0.79
   2   2  -6   -1.33    2.12
  -2  -2   6    1.16    0.82
  -2  -2   6    0.58    0.75
   2   2  -5  206.70   17.72
  -2  -2   5  191.12    7.63
  -2  -2   5  185.37    8.18
  -2  -2   5  179.52   13.42
  -2  -2   4   19.82    4.23
   2   2  -4   21.89    5.45
  -2  -2   3   36.20    5.50
   2   2  -3   46.73    7.56
  -2  -2   2  125.47    8.79
   2   2  -2  129.37   11.23
   2   2  -1   58.49    6.63
  -2  -2   1   50.77    5.05
   2   2   0   31.85    4.57
  -2  -2   0   28.62    3.31
  -2  -2  -1  162.08    6.16
   2   2   1  184.76    9.53
  -2  -2  -1  169.83    8.57
   2   2   2   97.29    6.09
  -2  -2  -2   91.04    4.87
  -2  -2  -2   93.19    6.72
  -2  -2  -3 1064.05   19.10
   2   2   3 1049.60   16.38
  -2  -2  -4  177.66    9.02
  -2  -2  -4  184.82   10.89
  -2  -2  -5    2.74    1.65
  -2  -2  -5    2.09    1.29
  -2  -2  -6  219.42   12.96
  -2  -2  -6  234.06   14.07
   2   2   7    4.85    3.20
  -2  -2  -7    2.98    2.28
  -2  -2  -7    3.83    2.57
   2   2   8  364.11   21.57
  -2  -2  -8  367.46   20.77
  -2  -2  -8  364.62   20.62
  -2  -2  -9    0.01    0.75
  -2  -2  -9    2.42    1.58
  -2  -2  -9    2.66    1.89
   2   2   9   -0.22    0.89
   2   2   9    0.72    2.86
  -2  -2  -9    3.50    1.38
  -2  -2  -9    3.77    1.41
  -2  -2 -10  695.52   33.13
  -2  -2 -10  626.15   15.57
   2   2  10  631.96   15.14
   2   2  10  646.42   33.79
  -2  -2 -10  643.81   16.84
  -2  -2 -10  617.18   16.64
   2   2  11   49.36    4.46
  -2  -2 -11   44.76    4.20
  -2  -2 -11   49.32    4.82
  -2  -2 -11   48.89    4.82
  -2  -2 -12   20.15    3.15
   2   2  12   20.56    2.77
  -2  -2 -12   18.97    3.03
  -2  -2 -13    9.53    1.96
   2   2  13   13.45    2.07
  -2  -2 -13   11.80    2.09
  -2  -2 -14   70.67    4.19
  -2  -2 -14   67.80    4.27
   1   2 -12   78.31    4.07
  -1  -2  12   76.69    3.69
  -1  -2  11    6.47    1.42
   1   2 -11    7.67    1.70
  -1  -2  10    4.60    1.54
   1   2 -10    6.18    2.01
  -1  -2  10    4.31    1.33
  -1  -2   9   -0.03    0.86
  -1  -2   9    1.26    0.93
  -1  -2   9    0.49    0.84
  -1  -2   8   23.14    3.23
  -1  -2   8   30.16    3.32
  -1  -2   8   23.10    3.15
  -1  -2   7  562.47   28.23
   1   2  -7  535.03   14.60
  -1  -2   7  582.61   15.06
  -1  -2   7  603.08   14.09
   1   2  -7  623.51   31.53
  -1  -2   7  600.89   15.50
  -1  -2   6   37.49    6.88
  -1  -2   6   45.82    3.86
   1   2  -6   48.45    8.34
  -1  -2   6   42.92    3.87
   1   2  -5  268.97   18.11
  -1  -2   5  259.09   16.26
  -1  -2   4   -0.28    1.43
   1   2  -4    2.40    2.31
  -1  -2   3  469.93   18.14
   1   2  -3  486.27   20.44
  -1  -2   2   46.43    5.26
   1   2  -2   54.37    6.39
  -1  -2   1  837.17   19.94
   1   2  -1  823.44   21.58
  -1  -2   0 9981.28   47.10
   1   2   0 9999.00   67.01
  -1  -2  -1 1269.59   19.51
   1   2   1 1259.18   19.77
  -1  -2  -2   35.96    3.37
  -1  -2  -2   38.16    3.83
   1   2   2   34.45    2.57
  -1  -2  -3  184.05    8.44
  -1  -2  -3  190.13    9.46
  -1  -2  -4  287.59   12.10
  -1  -2  -4  287.03   12.78
  -1  -2  -5  218.38   11.83
  -1  -2  -5  245.46   12.82
   1   2   6 1490.98   35.57
  -1  -2  -6 1461.43   34.59
  -1  -2  -6 1435.50   33.76
   1   2   7   39.89    6.28
  -1  -2  -7   36.13    6.15
  -1  -2  -7   38.62    6.08
  -1  -2  -8  451.70   23.72
   1   2   8  422.79   22.96
  -1  -2  -8  418.03   21.19
   1   2   9    0.80    0.80
  -1  -2  -9   -1.77    2.72
   1   2   9    4.80    1.62
  -1  -2  -9    0.35    0.77
  -1  -2  -9    2.55    1.30
  -1  -2  -9    0.30    1.05
   1   2  10   85.27   12.00
  -1  -2 -10   85.50   12.21
   1   2  10   83.40    5.72
  -1  -2 -10   70.70    5.41
  -1  -2 -10   74.53    5.91
  -1  -2 -10   80.13    5.99
   1   2  11  234.69    9.86
  -1  -2 -11  250.73   10.91
  -1  -2 -11  233.26   10.46
   1   2  12   63.47    4.94
  -1  -2 -12   63.90    5.34
  -1  -2 -12   59.42    5.13
  -1  -2 -13   37.36    3.64
   1   2  13   32.90    3.18
  -1  -2 -13   38.50    3.70
   1   2  14   -0.08    0.50
  -1  -2 -14    0.81    0.56
  -1  -2 -14   -0.40    0.56
   0  -2  12   -1.73    0.98
   0   2 -12   -0.09    0.65
   0  -2  11  127.30    6.74
   0   2 -11  115.75    6.61
   0  -2  10    1.38    0.93
   0   2 -10    1.24    1.08
   0  -2  10    3.52    1.73
   0   2  -9   33.83    3.99
   0  -2   9   31.76    3.99
   0  -2   9   34.78    3.81
   0  -2   8   12.64    2.37
   0  -2   8    4.25    1.80
   0   2  -8   11.61    5.00
   0   2  -8    7.56    1.93
   0   2  -7  125.93    6.69
   0  -2   7  136.25   14.03
   0   2  -7  114.31   12.45
   0  -2   7  133.55    6.90
   0  -2   6   10.46    3.62
   0   2  -6    6.49    3.25
   0  -2   5  157.83   12.57
   0   2  -5  183.64   13.68
   0  -2   4  461.81   19.49
   0   2  -4  481.29   20.15
   0  -2   3   36.15    5.19
   0   2  -3   41.93    5.56
   0  -2   2 7323.41   63.39
   0   2  -2 7082.28   63.15
   0  -2   1 5828.64   50.82
   0   2  -1 5774.15   50.61
   0   2   0  157.77    7.26
   0  -2   0  153.53    7.43
   0   2   1  870.01   14.76
   0   2   1  883.06   13.43
   0  -2  -2  185.47    8.19
   0   2   2  186.77    5.24
   0  -2  -3   27.15    3.50
   0  -2  -4   -0.92    1.64
   0  -2  -4    2.06    1.55
   0  -2  -4    1.54    0.53
   0  -2  -5  720.01   23.02
   0  -2  -5  730.29   22.72
   0   2   6  203.10   12.53
   0  -2  -6  211.97   13.44
   0  -2  -6  227.26   14.35
   0   2   7  135.37   11.42
   0  -2  -7  133.05   12.05
   0  -2  -7  138.57   11.61
   0   2   8   62.60    8.55
   0  -2  -8   58.30    9.05
   0  -2  -8   53.44    4.28
   0   2   8   56.84    4.43
   0  -2  -8   52.90    7.93
   0  -2  -8   54.82    4.39
   0  -2  -9   53.58    9.31
   0   2   9   50.70    4.45
   0  -2  -9   43.60    4.20
   0   2  10  158.50    8.20
   0  -2 -10  158.22    8.36
   0  -2 -11    2.46    1.29
   0   2  11    3.10    1.37
   0  -2 -12    0.40    0.87
   0  -2 -12   -0.25    0.78
   0   2  12    0.67    0.90
   0  -2 -13    1.60    0.59
   0   2  13    0.64    0.64
   0  -2 -14   -0.61    0.61
  -1   2 -13    3.02    0.77
   1  -2  13    2.31    0.81
  -1   2 -12    1.18    0.86
   1  -2  12   -0.93    0.86
  -1   2 -11   13.67    2.33
  -1   2 -11   10.42    2.29
   1  -2  11   13.05    2.42
   1  -2  10   31.80    3.95
  -1   2 -10   39.80    4.24
  -1   2 -10   34.76    4.03
   1  -2   9    7.11    1.73
  -1   2  -9    6.92    2.16
  -1   2  -9    5.55    1.66
  -1   2  -8   44.77    7.92
  -1   2  -8   40.79    4.11
   1  -2   8   41.80    3.95
  -1   2  -8   46.05    7.98
   1  -2   8   52.92    9.63
  -1   2  -8   41.05    4.04
  -1   2  -7  216.30   15.88
   1  -2   7  222.34   17.92
  -1   2  -7  216.22    8.67
  -1   2  -7  208.67   16.03
  -1   2  -6  173.12   13.23
   1  -2   6  164.12   14.14
  -1   2  -5  991.13   29.44
   1  -2   5  961.65   31.02
   1  -2   4   82.41    8.36
  -1   2  -4   91.44    8.28
  -1   2  -3 5039.68   56.86
   1  -2   3 5189.79   58.32
  -1   2  -2 2497.87   35.79
  -1   2  -2 2504.73   35.75
   1  -2   2 2466.78   36.02
   1  -2   1 2170.53   29.99
  -1   2  -1 2166.26   30.03
   1  -2   0 4089.65   36.67
  -1   2   0 4038.69   37.22
  -1   2   1 1575.80   23.01
   1  -2  -2  863.72   19.18
  -1   2   2  858.01   17.50
   1  -2  -3   76.23    6.11
  -1   2   3   73.94    5.70
   1  -2  -4  240.70   12.13
   1  -2  -4  251.87   10.51
   1  -2  -5  640.80   22.26
  -1   2   5  675.83   19.29
   1  -2  -5  708.96   19.48
  -1   2   6  157.35   10.72
   1  -2  -6  174.45   12.98
   1  -2  -6  175.90   13.37
   1  -2  -7   37.34    6.53
   1  -2  -7   35.63    6.43
   1  -2  -8   -0.02    2.48
  -1   2   8    0.89    0.83
  -1   2   8    2.47    1.08
   1  -2  -8    2.95    2.44
  -1   2   9   51.66    4.71
  -1   2   9   42.69    4.42
   1  -2  -9   52.49    9.21
   1  -2  -9   53.66    4.81
   1  -2 -10    2.58    1.49
  -1   2  10    1.98    1.05
  -1   2  10    2.78    1.14
  -1   2  11  292.65   10.87
   1  -2 -11  289.00   10.71
   1  -2 -12    9.11    1.83
  -1   2  12    8.71    1.76
   1  -2 -12    7.93    1.93
  -1   2  13   22.10    2.29
   1  -2 -13   20.16    2.29
   1  -2 -13   20.24    2.10
  -2   2 -13    0.98    0.53
   2  -2  13    1.55    0.70
   2  -2  12  118.50    6.33
  -2   2 -12  112.01    5.86
  -2   2 -11   48.79    4.64
   2  -2  11   45.32    4.52
  -2   2 -11   42.83    4.04
  -2   2 -10    4.52    1.57
  -2   2 -10    3.37    1.55
  -2   2  -9   17.91    2.89
  -2   2  -9   18.44    2.96
  -2   2  -8   72.60    5.48
  -2   2  -8   66.84    4.46
  -2   2  -8   72.01    9.61
  -2   2  -8   70.94    5.20
   2  -2   8   68.00    4.87
   2  -2   8   70.26   10.82
  -2   2  -7  241.49    9.40
  -2   2  -7  239.23   16.61
   2  -2   7  220.20   18.04
   2  -2   6  549.94   26.13
  -2   2  -6  576.53   23.99
  -2   2  -5  604.41   22.79
   2  -2   5  615.95   25.02
   2  -2   4  951.14   28.05
  -2   2  -4  931.92   26.22
   2  -2   3  409.79   16.50
  -2   2  -3  417.47   16.30
   2  -2   2   67.99    5.91
  -2   2  -2   67.54    6.26
   2  -2   1  867.58   18.57
  -2   2  -1  920.67   21.87
   2  -2   0  271.45    8.73
  -2   2   0  291.89   12.12
  -2   2   1 3203.88   41.16
   2  -2  -1 3220.54   36.28
   2  -2  -2    3.21    1.53
  -2   2   2    0.82    1.01
   2  -2  -3   93.35    7.15
  -2   2   3   92.23    8.33
   2  -2  -4   -0.36    0.92
   2  -2  -4    1.28    1.05
   2  -2  -5   84.42    8.58
   2  -2  -5   80.46    8.45
   2  -2  -6   20.01    4.87
   2  -2  -7   20.74    5.22
  -2   2   7   21.78    2.81
  -2   2   7   24.07    3.27
   2  -2  -7   20.15    5.00
  -2   2   8   30.75    3.72
  -2   2   8   27.02    3.71
   2  -2  -8   28.11    6.58
  -2   2   9  103.95    7.12
  -2   2   9  110.73    7.00
   2  -2  -9  105.72    6.61
   2  -2 -10   14.49    2.53
  -2   2  10   14.18    2.54
  -2   2  10   12.38    2.51
  -2   2  11   17.89    2.74
  -2   2  11   12.68    2.30
   2  -2 -11   15.45    2.24
  -2   2  12   29.10    2.83
   2  -2 -12   30.44    3.03
   2  -2 -12   27.70    2.49
  -3   2 -13    0.66    0.54
   3  -2  13    0.92    0.68
  -3   2 -12  291.52    9.93
   3  -2  12  275.73    9.64
  -3   2 -12  268.17    8.80
  -3   2 -11   51.91    4.63
  -3   2 -11   48.06    4.19
  -3   2 -10   14.92    2.55
  -3   2 -10   19.74    3.02
  -3   2  -9  230.72   10.18
  -3   2  -9  217.35    9.30
   3  -2   8  133.87   15.45
  -3   2  -8  135.89    7.52
  -3   2  -8  126.49    6.60
  -3   2  -8  127.18   12.92
  -3   2  -8  136.84    7.11
  -3   2  -7  524.37   14.20
  -3   2  -7  499.79   12.54
   3  -2   7  497.69   27.45
  -3   2  -7  490.03   13.42
  -3   2  -7  529.80   24.98
   3  -2   6  512.87   25.54
  -3   2  -6  544.26   23.87
   3  -2   5    2.68    2.52
  -3   2  -5   -0.20    1.67
   3  -2   4    1.33    2.16
  -3   2  -4    0.17    1.63
   3  -2   3   41.78    5.44
  -3   2  -3   37.27    5.44
  -3   2  -2  180.33   11.74
   3  -2   2  180.63    9.73
   3  -2   1    1.59    0.80
  -3   2  -1    2.33    1.86
   3  -2   0 1435.11   25.03
  -3   2   0 1569.90   34.44
   3  -2  -1  372.98   12.87
  -3   2   1  363.74   17.85
   3  -2  -2   13.50    2.82
  -3   2   2   18.75    4.39
   3  -2  -3    0.01    1.89
   3  -2  -3   -0.41    1.32
   3  -2  -4   54.20    6.46
   3  -2  -4   44.18    6.73
  -3   2   5   32.75    3.49
   3  -2  -5   29.87    6.00
   3  -2  -5   29.46    5.23
  -3   2   5   35.00    3.66
  -3   2   6  127.21    7.55
  -3   2   6  124.04    7.03
  -3   2   7    1.96    1.20
  -3   2   7    0.75    0.99
  -3   2   8   35.19    4.18
  -3   2   8   36.85    4.14
  -3   2   9   38.00    4.54
  -3   2   9   36.34    4.06
   3  -2  -9   38.89    3.77
   3  -2 -10    1.82    1.06
  -3   2  10    2.72    1.10
  -3   2  10    0.88    0.95
  -3   2  11   26.68    2.76
  -3   2  11   16.74    2.38
  -3   2  12    8.31    1.25
   3  -2 -12    6.24    1.13
  -4   2 -13    6.41    1.23
   4  -2  13    5.95    1.21
  -4   2 -12   36.21    3.38
   4  -2  12   32.89    3.28
  -4   2 -12   37.47    3.06
  -4   2 -11   49.08    3.78
  -4   2 -11   59.35    5.01
  -4   2 -11   53.32    4.12
  -4   2 -10  257.32   10.64
  -4   2 -10  242.45    9.28
  -4   2 -10  247.07    9.53
  -4   2  -9    2.34    1.16
  -4   2  -9    1.68    1.07
  -4   2  -9    3.44    1.40
   4  -2   8  137.38   15.64
  -4   2  -8  151.95    8.17
  -4   2  -8  132.67    7.20
  -4   2  -7  109.96    6.79
  -4   2  -7  124.58    6.73
  -4   2  -7  128.37   13.21
  -4   2  -7  117.29    6.85
   4  -2   7   95.87   12.32
   4  -2   6    2.16    1.81
  -4   2  -6    1.90    1.10
  -4   2  -6    0.84    0.81
  -4   2  -6    2.66    1.25
  -4   2  -6    0.98    1.56
   4  -2   5  178.80   13.99
  -4   2  -5  202.51   15.08
   4  -2   4   45.07    6.09
  -4   2  -4   56.13    7.77
  -4   2  -3   75.55    8.95
   4  -2   3   69.98    6.97
  -4   2  -2    0.08    1.20
  -4   2  -1  606.91   25.99
  -4   2   0   -2.04    1.82
  -4   2   1  189.06   15.56
  -4   2   2   21.70    5.61
  -4   2   3    5.32    2.86
   4  -2  -3    8.10    4.14
  -4   2   3    9.50    1.96
   4  -2  -4   42.69    7.85
  -4   2   4   48.32    4.47
  -4   2   4   45.81    4.09
  -4   2   5  929.67   19.13
  -4   2   5  925.20   20.88
   4  -2  -5  912.11   38.40
  -4   2   6 1220.34   25.14
  -4   2   6 1214.52   22.81
  -4   2   7   48.66    4.67
  -4   2   7   43.64    4.92
  -4   2   8    1.44    1.06
  -4   2   8    0.56    1.10
   4  -2  -9    0.20    0.51
  -4   2   9    1.13    1.26
  -4   2   9   -0.78    1.08
  -4   2  10    4.02    1.17
  -4   2  10    4.12    1.09
  -4   2  10    2.44    1.11
  -5   2 -13    0.88    0.56
  -5   2 -12   34.02    3.05
  -5   2 -11   -0.07    0.87
  -5   2 -11    0.00    0.58
  -5   2 -10  105.95    6.25
  -5   2 -10  101.94    6.49
  -5   2  -9  211.13    9.70
  -5   2  -9  200.97    8.95
  -5   2  -8    4.62    1.59
  -5   2  -8    4.73    1.90
  -5   2  -8    6.64    1.93
  -5   2  -7   42.43    4.37
  -5   2  -7   43.95    4.48
  -5   2  -7   47.14    4.37
  -5   2  -7   41.79    8.11
  -5   2  -6   13.67    2.33
  -5   2  -6   17.26    2.88
  -5   2  -6   13.26    2.42
  -5   2  -6   13.32    4.43
  -5   2  -5   14.16    2.53
  -5   2  -5   13.34    2.46
  -5   2  -5   16.48    2.48
  -5   2  -5   15.11    2.32
  -5   2  -5    7.74    3.31
  -5   2  -4  422.49   24.23
  -5   2  -4  491.66   12.40
  -5   2  -4  440.68   12.78
  -5   2  -4  439.04   12.95
  -5   2  -4  441.76   12.55
  -5   2  -3  252.55    9.35
  -5   2  -3  253.85    9.56
  -5   2  -3  248.16   18.80
  -5   2  -3  251.61    9.20
  -5   2  -2   55.40    4.31
  -5   2  -2   47.45    8.54
  -5   2  -1  275.24   20.52
  -5   2   0   29.30    3.22
  -5   2   0   31.14    3.29
  -5   2   0   30.63    3.22
  -5   2   0   29.25    7.31
  -5   2   1  264.06    9.69
   5  -2  -1  258.06   19.62
  -5   2   1  279.48   22.02
  -5   2   1  253.25    9.37
  -5   2   2   15.51    5.47
   5  -2  -2   19.85    6.12
  -5   2   2   18.74    2.69
  -5   2   2   14.77    2.64
  -5   2   2   14.16    2.37
  -5   2   3  199.45    9.54
  -5   2   3  188.34    8.65
   5  -2  -3  216.41   19.67
  -5   2   3  193.46    8.66
  -5   2   4    4.26    1.65
  -5   2   4    3.17    1.53
  -5   2   4    2.61    1.33
  -5   2   5  309.40   12.66
  -5   2   5  321.04   11.68
  -5   2   5  303.40   11.19
  -5   2   6   58.41    5.60
  -5   2   6   54.61    4.85
  -5   2   6   52.60    4.66
  -5   2   7   85.96    6.61
  -5   2   7   82.79    5.63
  -5   2   7   83.94    5.50
   5  -2  -8   26.23    2.80
  -5   2   8   26.56    2.90
  -5   2   8   25.96    3.33
  -5   2   8   27.52    2.88
   5  -2  -9   12.46    1.51
  -5   2   9   15.98    1.99
  -5   2   9   15.14    2.20
  -5   2   9   15.60    1.83
  -6   2 -12   35.06    2.55
   6  -2  12   33.16    2.32
  -6   2 -11   74.06    4.63
  -6   2 -11   67.85    4.30
  -6   2 -10  134.15    7.02
  -6   2 -10  132.21    6.76
  -6   2  -9    7.88    2.11
  -6   2  -9    8.13    1.95
  -6   2  -8  163.31    8.55
  -6   2  -8  168.43    8.37
  -6   2  -8  159.41    8.51
  -6   2  -7   37.79    4.18
  -6   2  -7   43.10    4.52
  -6   2  -7   48.47    4.50
  -6   2  -6    9.93    2.24
  -6   2  -6   11.45    2.40
  -6   2  -6   12.35    2.16
  -6   2  -5    5.80    1.92
  -6   2  -5    5.45    1.65
  -6   2  -5    4.82    1.56
  -6   2  -5    4.12    1.39
  -6   2  -4   70.81    5.08
  -6   2  -4   67.43    5.45
  -6   2  -4   74.29    5.77
  -6   2  -4   67.79    5.39
  -6   2  -4   80.21   12.31
  -6   2  -3   60.82    5.13
  -6   2  -3   64.42    4.64
  -6   2  -3   74.93   12.60
  -6   2  -3   56.04    4.78
  -6   2  -3   60.46    5.10
  -6   2  -2    8.28    2.06
  -6   2  -2   12.28    2.36
  -6   2  -2    8.93    2.02
  -6   2  -2   13.64    4.90
  -6   2  -1   57.18    4.86
  -6   2  -1   52.62    4.66
  -6   2  -1   48.81    4.43
  -6   2  -1   52.72   10.24
  -6   2   0  291.94   10.46
  -6   2   0  291.51   10.85
   6  -2   0  302.71   22.92
  -6   2   0  285.18   10.78
  -6   2   0  301.37   24.98
  -6   2   1  120.97    6.50
  -6   2   1  122.94    7.11
  -6   2   1  112.26    6.83
  -6   2   2   37.53    3.95
  -6   2   2   36.06    3.98
  -6   2   2   38.75    4.18
  -6   2   3   50.27    4.93
  -6   2   3   50.42    4.61
  -6   2   3   52.51    4.71
  -6   2   4   38.78    3.99
  -6   2   4   36.51    4.18
  -6   2   4   41.72    4.09
  -6   2   5    2.09    1.10
  -6   2   5    3.38    1.32
  -6   2   5    1.55    1.20
  -6   2   6   35.00    3.30
  -6   2   6   32.39    3.70
  -6   2   6   34.94    3.32
   6  -2  -7    0.84    0.54
  -6   2   7    0.90    0.51
  -6   2   7    0.33    0.65
  -6   2   7   -0.01    0.60
  -7   2 -11    1.38    0.73
  -7   2 -11    0.43    0.64
  -7   2 -10    3.40    0.99
  -7   2 -10    4.05    1.27
  -7   2  -9   55.24    4.39
  -7   2  -9   59.20    4.48
  -7   2  -8   -0.31    1.14
  -7   2  -8    0.35    1.05
  -7   2  -8    1.34    1.07
  -7   2  -7   11.03    2.23
  -7   2  -7   12.09    2.35
  -7   2  -7   13.54    2.59
  -7   2  -6    2.83    1.45
  -7   2  -6    2.23    1.27
  -7   2  -6    0.82    0.95
  -7   2  -5  111.81    7.03
  -7   2  -5  121.79    6.80
  -7   2  -5  111.31    6.95
  -7   2  -4  223.81   10.12
  -7   2  -4  214.76    9.67
  -7   2  -4  219.57    9.89
  -7   2  -4  239.35    9.18
  -7   2  -3   18.40    2.88
  -7   2  -3   17.79    2.88
  -7   2  -3   20.96    3.06
  -7   2  -2    2.00    1.08
  -7   2  -2    0.12    1.15
  -7   2  -2   -0.22    0.99
  -7   2  -1  169.99    8.38
  -7   2  -1  183.41    8.97
   7  -2   1  173.08    7.91
  -7   2  -1  171.39    8.57
  -7   2   0  127.94    7.03
  -7   2   0  138.11    7.29
  -7   2   0  136.51    7.54
  -7   2   1   43.41    4.01
  -7   2   1   43.24    4.24
  -7   2   2    1.79    0.95
  -7   2   2    1.15    0.74
  -7   2   3   -0.04    0.71
  -7   2   3    0.12    0.83
  -7   2   4   63.08    4.19
  -7   2   4   74.06    4.74
   7  -2  -4   70.76    5.03
  -7   2   5    1.54    0.84
  -7   2   5   -0.90    0.68
   7  -2  -5    0.27    0.79
   7  -2  -6  139.56    5.35
  -7   2   6  133.28    4.65
  -8   2 -10    7.53    1.21
  -8   2  -9   59.51    3.55
  -8   2  -9   63.53    3.91
  -8   2  -8    3.15    1.01
  -8   2  -8    4.30    1.30
  -8   2  -8    2.97    0.95
  -8   2  -7   99.17    5.66
  -8   2  -7   89.84    5.23
  -8   2  -7   97.29    5.31
  -8   2  -6   -0.86    1.06
  -8   2  -6    2.48    1.02
  -8   2  -6    0.40    0.86
  -8   2  -5   39.64    3.77
  -8   2  -5   38.01    3.79
  -8   2  -5   39.80    3.35
  -8   2  -4  240.01    9.29
  -8   2  -4  246.72    9.61
  -8   2  -3    2.39    1.06
  -8   2  -3    1.88    0.79
  -8   2  -2   72.72    5.07
  -8   2  -2   71.44    5.13
  -8   2  -1   -0.39    0.94
  -8   2  -1   -0.03    0.75
   8  -2   0   40.35    3.37
  -8   2   0   53.07    4.17
  -8   2   0   46.19    3.92
  -8   2   1    4.70    1.27
   8  -2  -1    3.32    1.15
  -8   2   1    1.98    0.90
   8  -2  -2    5.56    1.32
  -8   2   2    4.18    1.13
   8  -2  -3   13.55    1.83
  -8   2   3   13.72    1.77
   8  -2  -4    1.96    0.62
  -9   2  -7    2.05    0.75
  -9   2  -6    9.12    1.31
  -9   2  -6    9.84    1.52
  -9   2  -5    2.01    0.59
  -9   2  -5    4.93    1.11
  -9   2  -4   15.67    1.78
  -9   2  -4   19.36    2.11
  -9   2  -3   28.32    2.34
  -9   2  -3   33.64    2.77
  -9   2  -2   18.56    1.89
  -9   2  -2   21.21    2.17
  -9   2  -1    9.10    1.25
  -9   2  -1   10.00    1.44
  -9   2   0    3.92    0.87
  -9  -3  -3   11.69    1.49
  -9  -3  -4   24.79    2.21
  -9  -3  -5    0.49    0.50
  -9  -3  -6    1.03    0.47
  -9  -3  -7   66.45    3.19
  -8  -3   1    0.27    0.47
  -8  -3   0    1.91    0.84
  -8  -3   0    1.70    0.66
  -8  -3  -1   58.95    4.06
  -8  -3  -1   62.46    3.82
  -8  -3  -2    6.59    1.61
  -8  -3  -2    8.69    1.51
  -8  -3  -3    1.92    1.06
  -8  -3  -3   -1.41    0.84
  -8  -3  -4  257.32    9.33
  -8  -3  -4  252.04    8.40
  -8  -3  -5    3.78    1.25
  -8  -3  -5    3.61    1.03
  -8  -3  -6    8.44    1.67
  -8  -3  -6    8.46    1.58
  -8  -3  -7   49.70    3.79
  -8  -3  -7   47.34    3.50
  -8  -3  -7   49.03    4.01
  -8  -3  -8   11.81    2.01
  -8  -3  -8   10.81    1.70
  -8  -3  -9    2.18    0.90
  -8  -3 -10   46.11    3.18
  -8  -3 -11   16.64    1.68
  -7  -3   3   10.70    1.51
  -7  -3   3    8.44    1.38
  -7  -3   2    0.23    0.70
  -7  -3   2    0.29    0.64
  -7  -3   1    1.80    0.94
  -7  -3   1    0.67    0.68
  -7  -3   0  178.14    8.13
  -7  -3   0  179.18    7.68
  -7  -3  -1   33.05    3.79
  -7  -3  -1   30.88    3.32
  -7  -3  -2  402.49   13.11
  -7  -3  -2  397.96   11.96
  -7  -3  -3  421.12   13.37
  -7  -3  -3  403.63   12.27
  -7  -3  -4  118.11    7.12
  -7  -3  -4  117.76    6.60
  -7  -3  -4  121.60    7.35
  -7  -3  -5   58.10    4.88
  -7  -3  -5   64.56    4.88
  -7  -3  -5   63.19    5.26
  -7  -3  -6   29.62    3.54
  -7  -3  -6   25.81    3.15
  -7  -3  -6   27.33    3.58
  -7  -3  -7   11.81    2.04
  -7  -3  -7   15.22    2.50
  -7  -3  -7   11.98    2.41
  -7  -3  -8   28.30    3.00
  -7  -3  -8   31.64    3.64
  -7  -3  -8   32.22    3.42
  -7  -3  -9   94.77    5.42
  -7  -3  -9   93.33    5.92
  -7  -3 -10    5.54    1.50
  -7  -3 -10    6.28    1.90
  -7  -3 -11  143.43    6.29
  -7  -3 -11  139.76    6.78
  -7  -3 -12    2.58    0.85
  -6  -3   6   31.60    2.50
  -6  -3   5    1.56    0.95
  -6  -3   5   -0.77    0.54
  -6  -3   4   23.92    2.68
  -6  -3   4   26.27    2.77
  -6  -3   3   -0.86    0.97
  -6  -3   3    0.19    0.64
  -6  -3   3   -0.97    0.93
  -6  -3   2    1.60    1.10
  -6  -3   2    0.07    0.82
  -6  -3   2   -0.03    0.96
  -6  -3   1   92.52    5.55
  -6  -3   1   90.59    5.90
  -6  -3   1   94.02    6.19
  -6  -3   0  106.38    6.73
  -6  -3   0   97.33    6.14
  -6  -3  -1  130.27    7.46
  -6  -3  -1  123.08    6.79
  -6  -3  -2    0.88    0.98
  -6  -3  -2    5.05    1.57
  -6  -3  -2    2.99    1.17
  -6  -3  -3  147.23    8.03
  -6  -3  -3  156.26    7.61
  -6  -3  -3  162.89    8.35
  -6  -3  -3  157.42    8.18
  -6  -3  -4  200.29    9.61
  -6  -3  -4  199.93    9.56
  -6  -3  -4  196.62    9.11
  -6  -3  -4  193.50    8.45
  -6  -3  -4  207.59    9.38
  -6  -3  -5    3.01    1.52
  -6  -3  -5    3.04    1.57
  -6  -3  -5    2.44    1.25
  -6  -3  -5    0.75    0.77
  -6  -3  -5    0.99    1.07
  -6  -3  -6  156.09    8.65
  -6  -3  -6  146.55    7.51
  -6  -3  -6  156.10    8.60
  -6  -3  -6  159.10    7.70
  -6  -3  -6  159.17    8.31
  -6  -3  -6  164.36    8.88
  -6  -3  -7    9.63    2.28
  -6  -3  -7    8.57    1.80
  -6  -3  -7   11.80    2.69
  -6  -3  -7   12.59    2.35
  -6  -3  -7    7.69    1.92
  -6  -3  -7    8.48    2.34
  -6  -3  -8  104.69    7.05
  -6  -3  -8  101.18    6.91
  -6  -3  -8  106.19    6.30
  -6  -3  -8  105.25    6.75
  -6  -3  -8  102.35    7.10
  -6  -3  -9   82.05    6.08
  -6  -3  -9   82.56    6.09
  -6  -3  -9   94.82    5.89
  -6  -3  -9   95.68    6.36
  -6  -3  -9   97.64    6.87
  -6  -3 -10  277.45   10.57
  -6  -3 -10  303.70   11.72
  -6  -3 -10  292.18   10.81
  -6  -3 -11   17.99    2.57
  -6  -3 -11   15.18    2.40
  -6  -3 -11   21.42    3.03
  -6  -3 -12   33.79    3.40
  -6  -3 -12   25.61    2.76
  -6  -3 -13   64.08    4.07
  -6  -3 -13   60.10    3.62
  -5  -3   7   39.75    2.78
  -5  -3   7   45.37    3.36
  -5  -3   6    0.14    0.84
  -5  -3   6    0.54    0.74
  -5  -3   5   73.40    5.21
  -5  -3   5   68.16    4.80
  -5  -3   5   68.12    5.44
  -5  -3   4   42.36    3.73
  -5  -3   4   49.97    4.41
  -5  -3   4   47.71    4.25
  -5  -3   4   41.34    4.48
  -5  -3   3   36.12    3.74
  -5  -3   3   32.70    3.61
  -5  -3   3   31.23    3.57
  -5  -3   3   31.54    3.84
  -5  -3   2   41.20    3.91
  -5  -3   2   37.36    3.89
  -5  -3   2   36.36    3.89
  -5  -3   2   40.37    4.17
   5   3  -1   64.31   11.46
  -5  -3   1   56.01    4.86
  -5  -3   1   57.92    4.42
  -5  -3   1   54.60    4.49
  -5  -3   1   54.97    4.75
  -5  -3   0   17.24    2.54
  -5  -3   0   14.91    2.57
  -5  -3   0   18.68    2.38
  -5  -3   0   18.24    2.59
   5   3   0   18.58    5.91
  -5  -3  -1  448.06   13.09
  -5  -3  -1  427.35   12.17
  -5  -3  -1  419.09   11.79
   5   3   1  447.35   26.95
  -5  -3  -2  102.88    6.18
  -5  -3  -2  110.68    6.46
  -5  -3  -2  101.18    6.13
  -5  -3  -2  106.78    5.85
   5   3   2  110.13   12.62
  -5  -3  -2  109.79    6.34
  -5  -3  -3  334.07   11.20
  -5  -3  -3  333.30   10.91
  -5  -3  -3  323.10   10.81
  -5  -3  -3  315.18   11.09
  -5  -3  -4   -0.41    0.85
  -5  -3  -4    2.42    3.35
  -5  -3  -4   -0.02    0.80
  -5  -3  -4    0.15    0.83
  -5  -3  -4    0.46    0.84
  -5  -3  -5   69.82    5.26
  -5  -3  -5   71.90    5.40
  -5  -3  -5   66.66    5.33
  -5  -3  -5   73.39    5.27
  -5  -3  -5   76.13   10.53
  -5  -3  -5   73.48    5.52
  -5  -3  -5   67.95    4.83
  -5  -3  -6    8.42    2.09
  -5  -3  -6    9.91    1.85
  -5  -3  -6    9.03    4.56
  -5  -3  -6    9.69    2.08
  -5  -3  -6    8.56    1.86
  -5  -3  -6   13.41    2.49
  -5  -3  -6   13.62    2.55
  -5  -3  -7    8.29    2.04
  -5  -3  -7   12.14    5.23
  -5  -3  -7    9.43    2.09
   5   3   7    0.87    2.77
  -5  -3  -7    8.99    2.19
  -5  -3  -7   11.06    2.21
  -5  -3  -7    9.50    2.33
  -5  -3  -8    1.75    1.39
   5   3   8   -3.30    4.46
  -5  -3  -8   -1.29    3.47
  -5  -3  -8    0.90    1.34
  -5  -3  -8   -0.66    0.78
  -5  -3  -8    1.53    1.12
  -5  -3  -8    1.12    1.21
  -5  -3  -9   36.40    4.11
  -5  -3  -9   26.77    3.42
  -5  -3  -9   26.74    3.50
  -5  -3  -9   30.98    3.43
  -5  -3  -9   34.24    3.98
  -5  -3  -9   32.74    4.03
  -5  -3 -10    1.72    1.17
  -5  -3 -10    2.80    1.55
  -5  -3 -10    1.66    1.26
  -5  -3 -10    2.46    1.57
  -5  -3 -11   78.80    5.37
  -5  -3 -11   89.02    6.15
  -5  -3 -11   92.35    6.43
  -5  -3 -12   28.72    3.24
  -5  -3 -12   30.10    3.49
  -5  -3 -13   -0.98    0.80
  -5  -3 -13    1.08    0.62
  -5  -3 -14    0.14    0.39
  -5  -3 -14    2.04    0.74
   4   3  -9    0.69    0.45
  -4  -3   8  141.04    6.17
  -4  -3   8  144.20    6.59
  -4  -3   7   68.04    4.80
  -4  -3   7   64.99    5.07
  -4  -3   6   19.02    3.17
  -4  -3   6   21.75    2.95
  -4  -3   5  207.21    9.19
  -4  -3   5  205.45    9.93
  -4  -3   4    2.53    1.45
  -4  -3   4    4.16    1.17
  -4  -3   4    3.84    1.60
  -4  -3   3  169.94    7.88
  -4  -3   3  151.25    7.56
   4   3  -3  147.90   17.37
  -4  -3   3  169.83    8.52
   4   3  -2   31.50    7.90
  -4  -3   2   33.76    3.59
  -4  -3   2   31.96    3.32
  -4  -3   2   31.79    3.59
  -4  -3   1  382.00   11.51
  -4  -3   1  380.67   10.62
   4   3  -1  352.17   24.07
  -4  -3   1  378.35   11.31
   4   3   0  285.49   19.96
   4   3   1   23.58    5.77
  -4  -3  -2    7.33    3.08
   4   3   2   15.22    4.08
   4   3   3   15.76    3.86
  -4  -3  -3   13.70    4.19
  -4  -3  -4   94.51   10.27
  -4  -3  -5  182.39   14.59
  -4  -3  -6    4.90    1.39
  -4  -3  -6    6.18    1.66
  -4  -3  -6    3.74    1.22
  -4  -3  -6    5.03    1.52
  -4  -3  -6    5.07    2.70
  -4  -3  -6    3.81    1.27
  -4  -3  -7    3.66    1.23
  -4  -3  -7    5.61    1.53
  -4  -3  -7    5.60    3.13
  -4  -3  -7    3.91    1.34
  -4  -3  -7    5.40    1.61
  -4  -3  -7    6.18    1.71
  -4  -3  -8   52.16    4.55
   4   3   8   42.41    8.41
  -4  -3  -8   47.11    4.34
  -4  -3  -8   52.04    4.46
  -4  -3  -8   42.49    7.87
  -4  -3  -8   51.76    4.57
  -4  -3  -8   54.92    4.81
  -4  -3  -9  176.92    8.34
   4   3   9  173.63   17.51
  -4  -3  -9  155.86   15.78
  -4  -3  -9  177.70    8.76
  -4  -3  -9  177.55    8.52
  -4  -3  -9  166.72    8.69
  -4  -3 -10   14.42    2.77
  -4  -3 -10   10.33    2.22
  -4  -3 -10   10.14    2.15
  -4  -3 -11   89.95    5.73
  -4  -3 -11   86.70    6.23
  -4  -3 -11   90.38    6.51
  -4  -3 -12    1.82    0.81
  -4  -3 -12    2.56    1.27
  -4  -3 -13    0.80    0.83
  -4  -3 -13    1.20    0.92
  -4  -3 -14   39.94    3.25
  -4  -3 -14   34.34    2.83
   3   3 -10   51.38    3.03
  -3  -3   9    1.07    0.85
  -3  -3   9    1.46    0.85
  -3  -3   8    0.96    1.20
  -3  -3   8    0.66    0.70
  -3  -3   7    1.18    1.16
  -3  -3   7    0.77    0.76
  -3  -3   6   96.86    6.25
  -3  -3   6  100.88    6.90
  -3  -3   5   23.73    3.40
  -3  -3   5   24.93    3.19
  -3  -3   4    0.68    0.95
  -3  -3   4    1.23    0.73
  -3  -3   4    0.99    0.89
   3   3  -4   -2.89    4.22
  -3  -3   3  674.63   14.91
  -3  -3   3  704.41   15.17
   3   3  -3  702.67   34.17
  -3  -3   3  696.86   16.12
   3   3  -2   18.11    5.21
   3   3  -1  125.33   12.70
   3   3   0  219.71   15.37
  -3  -3  -1    5.26    2.19
   3   3   1    2.25    1.75
   3   3   2  352.15   16.32
  -3  -3  -2  370.95   16.49
  -3  -3  -3 2257.83   29.54
   3   3   3 2136.89   35.90
  -3  -3  -3 2163.88   41.42
  -3  -3  -4  376.55   13.81
  -3  -3  -4  354.50   17.78
  -3  -3  -5   33.60    5.86
  -3  -3  -5   39.48    5.06
  -3  -3  -6  323.14   15.94
  -3  -3  -6  334.22   19.26
  -3  -3  -7   21.52    5.03
  -3  -3  -7   18.57    4.48
  -3  -3  -8  130.48   12.15
   3   3   8  139.92   14.29
  -3  -3  -8  150.10    7.29
  -3  -3  -8  129.39   13.54
  -3  -3  -8  151.00    7.56
  -3  -3  -8  140.45    7.30
  -3  -3  -9  572.68   27.52
   3   3   9  641.96   32.72
  -3  -3  -9  616.64   15.25
  -3  -3  -9  608.01   30.60
  -3  -3  -9  626.92   16.08
  -3  -3  -9  624.19   16.01
  -3  -3 -10 1590.31   24.55
  -3  -3 -10 1591.35   26.63
  -3  -3 -10 1586.37   26.57
  -3  -3 -11    2.53    1.63
  -3  -3 -11    0.91    1.13
  -3  -3 -12  122.33    7.25
  -3  -3 -12  111.95    7.00
  -3  -3 -13   76.40    5.26
  -3  -3 -13   69.39    5.04
  -3  -3 -14   -0.90    0.71
  -3  -3 -14   -0.87    0.60
   2   3 -10   22.73    2.52
  -2  -3  10   24.30    2.57
  -2  -3   9    1.93    1.07
  -2  -3   9    2.19    0.85
  -2  -3   9    3.70    1.25
  -2  -3   8   50.37    4.21
  -2  -3   8   48.17    4.22
  -2  -3   8   49.72    4.82
  -2  -3   7  172.43    8.11
  -2  -3   7  184.20    8.11
  -2  -3   7  174.93    9.10
  -2  -3   6    1.52    1.22
   2   3  -6   -1.10    2.34
  -2  -3   6    0.61    0.91
  -2  -3   5   29.72    3.25
   2   3  -5   23.52    5.75
  -2  -3   5   33.25    3.84
  -2  -3   4   64.33    4.48
   2   3  -4   68.71   10.50
  -2  -3   4   57.34    8.01
  -2  -3   4   67.97    4.94
   2   3  -3   22.38    5.68
  -2  -3   3   12.74    3.63
  -2  -3   2   18.76    4.06
   2   3  -2   24.89    5.67
  -2  -3   1  916.07   25.94
   2   3  -1  993.03   31.25
   2   3   0  101.33    8.96
  -2  -3   0  104.60    6.40
  -2  -3  -1  344.93   12.85
   2   3   1  334.78   14.81
  -2  -3  -2    1.51    1.25
  -2  -3  -2    2.12    0.79
   2   3   2    2.52    1.22
  -2  -3  -3  427.34   14.22
  -2  -3  -3  454.80   17.06
   2   3   3  423.67   11.83
  -2  -3  -4   10.12    3.23
  -2  -3  -4   12.46    2.81
  -2  -3  -5 1366.65   30.82
  -2  -3  -5 1399.72   34.72
  -2  -3  -6    3.00    1.29
  -2  -3  -6    6.66    2.39
  -2  -3  -7   31.04    5.97
  -2  -3  -7   29.33    5.59
  -2  -3  -8   38.86    7.38
  -2  -3  -8   42.43    7.42
  -2  -3  -8   46.54    3.94
   2   3   8   44.17    7.97
  -2  -3  -8   38.84    3.75
  -2  -3  -8   38.10    3.68
   2   3   9  274.35   20.63
  -2  -3  -9  262.08   19.53
  -2  -3  -9  269.91    9.73
  -2  -3  -9  264.88   19.65
  -2  -3  -9  275.74   10.72
  -2  -3  -9  267.68   10.26
   2   3  10   56.48    9.63
  -2  -3 -10   52.13    9.19
  -2  -3 -10   47.93    8.98
  -2  -3 -10   56.67    5.12
  -2  -3 -10   54.91    4.92
  -2  -3 -11   77.27    6.02
  -2  -3 -11   77.06    5.84
  -2  -3 -12    0.94    0.83
  -2  -3 -12    0.08    0.98
  -2  -3 -13    5.96    1.73
  -2  -3 -13    3.64    1.39
  -2  -3 -14    4.60    1.16
  -2  -3 -14    4.24    1.14
  -1  -3  11   -0.28    0.63
   1   3 -11    0.60    0.46
  -1  -3  10    2.71    1.47
   1   3 -10    4.94    1.51
  -1  -3  10    3.08    1.09
  -1  -3   9   25.74    2.97
  -1  -3   9   16.79    2.76
  -1  -3   9   21.42    3.10
  -1  -3   8   25.43    3.32
  -1  -3   8   30.86    3.31
  -1  -3   8   27.07    3.52
  -1  -3   7    7.11    1.83
  -1  -3   7   11.14    3.09
   1   3  -7    4.55    1.58
  -1  -3   7    5.18    1.33
  -1  -3   7    9.23    1.93
  -1  -3   6    9.60    2.00
  -1  -3   6    9.18    3.62
   1   3  -6    5.33    4.09
   1   3  -6    3.62    1.27
  -1  -3   6   10.92    2.16
  -1  -3   6    8.10    1.83
  -1  -3   5   85.05   10.58
  -1  -3   5   91.58    5.29
   1   3  -5   89.92   11.56
  -1  -3   5  101.19    6.04
  -1  -3   4  432.18   21.85
   1   3  -4  491.57   25.21
  -1  -3   3    2.52    1.42
   1   3  -3    3.01    2.53
  -1  -3   2    7.20    2.65
   1   3  -2    6.58    3.04
  -1  -3   1   10.56    2.93
   1   3  -1   17.90    3.93
  -1  -3   0    2.44    0.93
  -1  -3   0    2.55    1.27
   1   3   0    4.41    2.08
  -1  -3  -1  316.54   11.27
   1   3   1  330.82   12.56
  -1  -3  -2  146.80    8.26
  -1  -3  -2  135.08    8.27
   1   3   2  130.07    6.88
  -1  -3  -3  517.25   16.39
  -1  -3  -3  518.41   17.61
  -1  -3  -4 1277.64   27.88
  -1  -3  -4 1279.47   30.10
  -1  -3  -5  638.34   21.58
  -1  -3  -5  674.84   23.63
  -1  -3  -6  203.66   13.55
  -1  -3  -6  206.97   14.04
  -1  -3  -7   -7.80    3.12
  -1  -3  -7    0.73    1.23
  -1  -3  -8   24.66    5.59
   1   3   8   20.97    5.00
  -1  -3  -8   22.58    5.58
   1   3   9   92.46   11.68
  -1  -3  -9  110.16   13.04
  -1  -3  -9  102.15    5.90
   1   3   9  100.35    5.81
  -1  -3  -9  117.38   12.89
  -1  -3  -9  107.45    6.74
  -1  -3  -9   96.49    6.14
  -1  -3 -10    0.01    0.90
   1   3  10    1.21    1.07
  -1  -3 -10    1.36    0.97
  -1  -3 -11   33.62    4.14
   1   3  11   35.20    3.65
  -1  -3 -11   37.04    4.10
  -1  -3 -12   17.70    2.67
   1   3  12   20.54    2.68
  -1  -3 -12   22.24    3.21
  -1  -3 -13  184.47    8.10
   1   3  13  178.34    6.84
  -1  -3 -13  184.64    7.63
  -1  -3 -14   -1.22    0.66
  -1  -3 -14   -0.56    0.68
   0  -3  12   15.66    1.63
   0  -3  11    1.22    0.62
   0   3 -11    0.32    0.68
   0  -3  11   -0.17    0.63
   0  -3  10   38.59    3.78
   0   3 -10   42.40    3.98
   0  -3  10   36.73    3.70
   0  -3   9    2.15    1.27
   0   3  -9    3.76    1.44
   0  -3   9    0.25    1.07
   0   3  -9    1.58    1.21
   0  -3   8    5.51    1.73
   0   3  -8    5.32    1.57
   0  -3   7   88.44   12.34
   0   3  -7  100.15    6.20
   0  -3   7   98.75    5.53
   0  -3   7   99.00    6.46
   0   3  -7   96.15   12.35
   0  -3   6    2.50    1.25
   0   3  -6    1.91    1.01
   0  -3   6    4.09    3.52
   0   3  -6    6.23    3.81
   0  -3   6    2.50    1.19
   0  -3   5  202.57   15.97
   0   3  -5  231.79   17.27
   0  -3   4  201.58   14.74
   0   3  -4  216.87   15.46
   0  -3   3   43.50    6.49
   0   3  -3   39.04    6.11
   0  -3   2  373.70   17.22
   0   3  -2  365.21   17.28
   0  -3   1  913.05   24.66
   0  -3   1  947.92   13.75
   0   3  -1  911.83   24.06
   0  -3   0  672.23   15.26
   0   3   0  686.69   19.18
   0   3   1   72.01    5.38
   0  -3  -1   75.23    6.31
   0   3   1   74.21    5.08
   0  -3  -2  141.77    8.60
   0   3   2  124.29    5.78
   0  -3  -3   53.74    5.75
   0  -3  -3   51.51    5.83
   0   3   3   52.69    3.37
   0  -3  -4  970.81   25.72
   0  -3  -4  980.60   27.79
   0  -3  -5    3.72    2.52
   0  -3  -5    4.01    3.04
   0  -3  -6  161.62   12.57
   0  -3  -6  168.25   13.23
   0   3   7  148.52   12.14
   0  -3  -7  148.63   13.26
   0  -3  -7  127.93   12.32
   0  -3  -8   35.96    6.89
   0  -3  -8   34.92    7.21
   0  -3  -8   35.18    3.37
   0   3   8   41.30    7.18
   0   3   8   31.28    3.21
   0  -3  -8   29.90    3.24
   0  -3  -9    3.77    2.86
   0  -3  -9   -1.02    1.10
   0  -3  -9    0.58    1.96
   0   3   9    0.43    0.90
   0  -3 -10   14.70    2.48
   0   3  10   14.15    2.40
   0   3  11  104.38    6.50
   0  -3 -11   96.07    6.73
   0  -3 -11  102.96    6.49
   0  -3 -12    9.99    2.00
   0  -3 -12   12.94    2.34
   0   3  12    9.22    1.87
   0   3  13   47.13    3.48
   0  -3 -13   48.19    3.94
   0  -3 -13   48.87    3.51
   0  -3 -14    6.62    1.18
   1  -3  12  130.98    5.45
  -1   3 -12  122.38    4.78
   1  -3  11  285.97    9.69
  -1   3 -11  268.89    8.92
  -1   3 -10   28.38    3.51
   1  -3  10   25.76    3.46
  -1   3 -10   28.88    3.37
   1  -3  10   22.78    2.89
  -1   3  -9   21.64    3.17
  -1   3  -9   23.32    3.12
   1  -3   9   21.43    3.09
   1  -3   8    1.29    0.97
  -1   3  -8    1.16    0.80
  -1   3  -8    1.81    1.01
   1  -3   7   12.52    2.28
  -1   3  -7   11.84    2.29
   1  -3   7    6.79    3.37
  -1   3  -7    7.78    1.74
  -1   3  -7    2.33    2.62
  -1   3  -7   17.22    5.22
  -1   3  -6  274.54   18.72
   1  -3   6  264.45   19.78
  -1   3  -6  299.57   19.69
   1  -3   6  278.97    9.94
  -1   3  -5  304.04   18.51
   1  -3   5  314.09   19.84
  -1   3  -5  324.77   19.04
  -1   3  -4   82.66    8.91
   1  -3   4   82.70    9.60
  -1   3  -4   92.87    9.41
  -1   3  -3 2172.55   42.59
   1  -3   3 2131.97   43.90
  -1   3  -3 2211.64   42.25
  -1   3  -2  338.35   15.91
   1  -3   2  329.90   15.73
  -1   3  -2  352.56   15.74
   1  -3   1    2.48    1.25
  -1   3  -1   -0.33    1.02
   1  -3   0  718.20   19.54
  -1   3   0  737.15   19.11
  -1   3   1  130.74    7.59
   1  -3  -2   94.42    7.31
  -1   3   2   94.36    6.33
   1  -3  -3 1513.34   31.22
  -1   3   3 1503.02   26.50
   1  -3  -4 1135.34   28.80
  -1   3   4 1043.68   23.44
   1  -3  -5  319.03   16.65
   1  -3  -6    0.57    2.48
   1  -3  -6    2.01    1.98
   1  -3  -7   98.86   11.70
   1  -3  -7   95.20   11.10
  -1   3   7   99.31    5.75
   1  -3  -8    5.16    1.60
  -1   3   8    6.48    1.68
  -1   3   8    6.12    2.11
   1  -3  -8    3.50    2.26
   1  -3  -8    5.33    2.73
   1  -3  -9   13.53    2.35
  -1   3   9   12.52    2.38
  -1   3   9   10.19    2.38
  -1   3  10  322.80   12.45
  -1   3  10  359.63   12.31
   1  -3 -10  354.58   11.77
  -1   3  11   26.53    3.32
   1  -3 -11   29.50    3.26
  -1   3  12   79.00    5.03
   1  -3 -12   76.35    5.35
   1  -3 -12   77.24    4.56
  -1   3  13   40.00    2.94
   1  -3 -13   38.64    3.13
   2  -3  12  153.98    6.34
  -2   3 -11   57.55    4.62
  -2   3 -11   56.85    4.06
  -2   3 -10   21.74    3.12
  -2   3 -10   18.94    2.66
   2  -3  10   24.16    2.99
   2  -3   9   -0.42    0.98
  -2   3  -9   -2.15    1.23
  -2   3  -9    0.03    0.79
  -2   3  -8   76.21    5.74
  -2   3  -8   80.71    5.16
  -2   3  -8   73.86   10.88
  -2   3  -8   78.12    5.36
   2  -3   8   78.53    5.66
   2  -3   7  166.15   16.85
  -2   3  -7  186.28    7.68
  -2   3  -7  183.37    8.45
  -2   3  -7  203.85   17.04
   2  -3   7  180.97    8.31
   2  -3   6    0.36    0.69
   2  -3   6    3.03    2.71
  -2   3  -6    2.46    1.26
  -2   3  -6    2.31    0.69
  -2   3  -6    3.75    2.50
   2  -3   5 2296.20   53.72
  -2   3  -5 2452.52   51.72
   2  -3   4  200.49   14.45
  -2   3  -4  198.99   13.79
   2  -3   3   55.47    7.13
  -2   3  -3   53.34    6.81
   2  -3   2 1689.49   35.15
  -2   3  -2 1784.84   36.36
   2  -3   1   30.54    4.35
  -2   3  -1   10.73    2.45
   2  -3   0  547.25   16.02
  -2   3   0  485.71   17.50
   2  -3  -1  347.83   14.49
  -2   3   1  351.17   14.80
   2  -3  -2 1545.37   30.87
  -2   3   2 1513.62   32.78
   2  -3  -3   45.49    5.68
  -2   3   3   35.33    5.12
   2  -3  -4   97.00    8.83
   2  -3  -4   80.81    7.79
  -2   3   4   95.86    9.13
   2  -3  -5    1.41    1.24
  -2   3   6   -2.22    1.18
  -2   3   6   -0.56    0.80
   2  -3  -7    2.78    2.07
  -2   3   7    3.59    1.06
  -2   3   7    2.13    1.37
   2  -3  -7    0.53    2.70
   2  -3  -8   26.71    6.00
  -2   3   8   28.49    3.56
  -2   3   8   32.56    4.22
   2  -3  -8   34.26    7.82
  -2   3   9   10.98    2.20
  -2   3   9   13.11    2.72
  -2   3  10   73.45    5.52
  -2   3  10   60.56    5.53
  -2   3  11    6.16    1.56
  -2   3  12   19.54    2.23
   2  -3 -12   19.79    2.46
  -3   3 -12    0.17    0.71
   3  -3  12    0.49    0.68
  -3   3 -11    0.99    1.00
  -3   3 -10   41.18    3.52
  -3   3 -10   52.57    4.69
   3  -3   9    4.88    1.61
  -3   3  -9    4.31    1.64
  -3   3  -9    4.63    1.56
  -3   3  -8   98.03    6.65
  -3   3  -8   98.28    6.00
   3  -3   8   90.75    6.03
   3  -3   7   26.54    6.78
  -3   3  -7   23.02    2.93
  -3   3  -7   26.80    3.46
  -3   3  -7   36.18    7.30
   3  -3   7   22.22    3.02
   3  -3   6   13.29    2.23
  -3   3  -6   11.00    2.13
  -3   3  -6   15.51    2.28
   3  -3   6    7.70    2.97
  -3   3  -6   13.58    4.50
   3  -3   5  480.22   24.71
  -3   3  -5  519.33   24.65
   3  -3   4   -1.00    1.21
  -3   3  -4    5.34    2.92
   3  -3   3   60.65    7.32
  -3   3  -3   66.66    8.20
   3  -3   2    1.63    0.94
  -3   3  -2   11.63    3.52
   3  -3   1   -0.99    0.89
  -3   3  -1   -0.04    1.54
   3  -3   0    9.28    2.62
  -3   3   0    5.66    2.84
   3  -3  -1 1052.32   26.37
  -3   3   1 1062.47   31.84
   3  -3  -2   75.19    7.22
  -3   3   2   75.27    8.88
   3  -3  -3  316.07   15.59
  -3   3   3  377.39   20.66
   3  -3  -4  140.78   11.19
   3  -3  -4  142.92   12.15
  -3   3   4  134.82   13.10
   3  -3  -5   29.21    5.86
   3  -3  -5   26.61    5.35
  -3   3   5   25.84    3.10
  -3   3   5   27.40    3.62
  -3   3   6 1352.78   23.32
  -3   3   6 1342.98   25.85
   3  -3  -7    3.50    4.86
  -3   3   7    1.39    1.13
  -3   3   7    1.07    0.87
   3  -3  -8  105.41    6.33
  -3   3   8   98.80    6.62
  -3   3   8  106.28    7.77
  -3   3   9   77.49    5.90
  -3   3   9   69.00    6.11
  -3   3  10   -0.01    0.87
  -3   3  10   -0.78    1.17
  -3   3  11    0.23    0.74
  -3   3  12   86.48    3.78
   3  -3 -12   74.52    3.56
  -4   3 -12    6.93    1.41
   4  -3  12    4.28    1.15
  -4   3 -11   29.31    3.16
  -4   3 -11   25.62    2.56
  -4   3 -10    1.03    1.12
  -4   3 -10    2.11    0.96
  -4   3  -9   10.86    2.26
  -4   3  -9    7.83    1.77
   4  -3   8    0.46    0.81
  -4   3  -8   -0.24    1.02
  -4   3  -8    0.70    0.67
   4  -3   7   22.89    6.46
  -4   3  -7   24.64    3.38
  -4   3  -7   25.17    3.09
  -4   3  -7   26.62    3.43
  -4   3  -7   14.76    4.79
   4  -3   7   26.69    3.28
   4  -3   6    7.64    1.61
   4  -3   6    8.00    2.93
  -4   3  -6   10.25    2.27
  -4   3  -6   11.51    2.13
  -4   3  -6   10.17    2.09
  -4   3  -6    9.72    4.14
   4  -3   5   64.03    9.01
  -4   3  -5   75.76    5.52
  -4   3  -5   75.01    4.97
  -4   3  -5   76.49    9.87
  -4   3  -5   67.42    4.85
   4  -3   4   30.53    5.82
  -4   3  -4   42.29    3.52
  -4   3  -4   40.99    3.85
  -4   3  -4   29.48    6.35
  -4   3  -3   -0.33    1.66
  -4   3  -2  122.31   11.90
   4  -3   1  296.85   14.41
  -4   3  -1  337.62   19.98
  -4   3   0  486.64   24.64
  -4   3   1  217.69   17.29
  -4   3   2  392.84   11.68
  -4   3   2  363.56   22.89
  -4   3   3   95.97    5.97
   4  -3  -3   81.50   10.22
  -4   3   3   86.77    6.16
  -4   3   3   87.03   11.58
  -4   3   4   17.19    2.65
  -4   3   4   13.18    2.50
  -4   3   4   15.91    2.39
   4  -3  -4   14.31    4.90
  -4   3   5    1.54    1.25
  -4   3   5    0.43    1.14
  -4   3   6  101.39    6.70
  -4   3   6   89.49    7.18
  -4   3   7   21.08    3.13
  -4   3   7   20.78    3.59
   4  -3  -8   30.79    3.34
  -4   3   8   32.24    3.86
  -4   3   8   30.87    4.20
  -4   3   9   13.42    2.41
  -4   3   9    8.57    2.11
  -4   3   9   16.58    2.19
   4  -3  -9   13.32    1.88
  -4   3  10    1.64    0.63
  -4   3  11    0.86    0.55
  -5   3 -12   89.28    4.35
   5  -3  12   69.74    3.78
  -5   3 -11    0.99    0.91
  -5   3 -11   -0.44    0.63
  -5   3 -10   27.41    2.96
  -5   3 -10   29.88    3.31
  -5   3  -9  218.53    9.13
  -5   3  -9  240.02   10.24
  -5   3  -8  113.44    7.26
  -5   3  -8  113.89    6.77
  -5   3  -7  190.87    8.77
  -5   3  -7  177.72    9.18
  -5   3  -7  182.47    8.78
   5  -3   7  183.90    8.40
  -5   3  -6   41.15    4.36
  -5   3  -6   41.64    4.22
  -5   3  -6   44.24    4.19
  -5   3  -6   35.67    7.89
  -5   3  -5  266.86    9.87
  -5   3  -5  266.17   10.82
  -5   3  -5  238.98    9.57
  -5   3  -5  277.72   20.93
  -5   3  -4  365.23   12.46
  -5   3  -4  357.10   11.04
  -5   3  -4  358.99   11.39
  -5   3  -4  382.45   24.40
  -5   3  -3  174.50    8.46
  -5   3  -3  175.72    7.44
  -5   3  -3  174.21    7.73
  -5   3  -3  170.95   16.40
  -5   3  -2   33.43    3.59
  -5   3  -2   36.37    3.25
  -5   3  -2   36.13    3.81
  -5   3  -2   32.89    3.31
  -5   3  -2   31.93    7.36
  -5   3  -1   19.46    2.83
  -5   3  -1   20.22    2.76
   5  -3   1   13.68    2.15
  -5   3  -1   18.37    2.43
  -5   3  -1   15.48    5.37
  -5   3   0   14.58    2.41
   5  -3   0   13.28    2.29
  -5   3   0   15.67    2.58
  -5   3   0   12.89    2.10
  -5   3   0    9.47    3.36
  -5   3   1   16.54    2.65
  -5   3   1   18.06    2.60
  -5   3   1   25.20    7.01
  -5   3   2  228.33    9.72
  -5   3   2  223.58   20.55
   5  -3  -2  228.54   19.47
  -5   3   2  204.17    9.80
  -5   3   2  225.10    8.88
  -5   3   3   67.13    5.37
   5  -3  -3   67.36   10.49
  -5   3   3   57.21    5.33
  -5   3   3   54.64    4.56
  -5   3   4  218.37   10.68
  -5   3   4  229.76   10.04
  -5   3   4  230.21    9.34
  -5   3   5   27.52    3.65
  -5   3   5   25.30    3.83
  -5   3   5   29.87    3.42
  -5   3   6   58.71    5.59
  -5   3   6   60.52    5.17
  -5   3   6   59.98    4.63
   5  -3  -7    2.47    0.96
  -5   3   7    2.49    1.06
  -5   3   7    1.75    1.10
  -5   3   7    1.04    0.64
  -5   3   8   14.62    2.54
   5  -3  -8   17.10    2.30
  -5   3   8   20.77    2.60
  -5   3   8   19.60    2.16
  -5   3   9   10.99    1.69
  -6   3 -11    0.32    0.54
  -6   3 -11    0.01    0.44
  -6   3 -10   10.83    1.91
  -6   3 -10    9.06    1.76
  -6   3  -9    4.39    1.57
  -6   3  -9    2.48    1.52
  -6   3  -8    0.52    0.98
  -6   3  -8    1.19    0.88
  -6   3  -7   91.18    6.09
  -6   3  -7   91.96    6.12
  -6   3  -7   91.35    6.54
   6  -3   7   90.80    5.73
  -6   3  -6   37.35    4.26
  -6   3  -6   38.80    3.95
  -6   3  -6   40.91    4.30
  -6   3  -5  519.16   15.57
  -6   3  -5  520.82   14.12
  -6   3  -5  510.67   14.54
  -6   3  -4  463.64   12.94
  -6   3  -4  475.20   14.72
  -6   3  -4  461.37   13.61
  -6   3  -3   20.07    3.09
  -6   3  -3   22.32    2.78
  -6   3  -3   23.09    3.06
  -6   3  -2  115.13    7.11
  -6   3  -2  117.10    7.17
  -6   3  -2  115.52    6.83
   6  -3   1   43.25    3.99
  -6   3  -1   46.12    4.45
  -6   3  -1   43.88    4.35
  -6   3  -1   39.86    4.35
  -6   3  -1   44.61    4.20
  -6   3   0   40.92    4.10
   6  -3   0   39.62    4.01
  -6   3   0   38.32    4.23
  -6   3   0   43.46    4.10
   6  -3  -1    7.81    2.07
  -6   3   1   10.47    2.41
  -6   3   1    5.14    1.43
  -6   3   2  163.77    8.49
  -6   3   2  167.55    8.05
   6  -3  -3   16.90    2.87
  -6   3   3   23.67    3.30
  -6   3   3   18.61    3.10
  -6   3   3   23.11    3.03
   6  -3  -4   -0.39    0.93
  -6   3   4    0.52    0.94
  -6   3   4   -2.07    1.31
  -6   3   4   -0.33    0.67
   6  -3  -5   32.57    3.70
  -6   3   5   33.57    3.64
  -6   3   5   23.72    3.46
  -6   3   5   30.98    3.22
   6  -3  -6   39.81    3.71
  -6   3   6   38.58    3.52
  -6   3   6   37.65    3.15
   6  -3  -7    0.62    0.57
  -6   3   7    1.05    0.67
  -6   3   7    0.56    0.54
  -6   3   8   21.94    1.93
  -7   3 -10    8.73    1.44
  -7   3 -10    7.92    1.40
  -7   3  -9   10.48    1.78
  -7   3  -9   11.49    1.88
  -7   3  -8   23.13    2.70
  -7   3  -8   23.89    2.94
  -7   3  -7   30.07    3.46
  -7   3  -7   33.41    3.40
  -7   3  -7   35.39    3.61
  -7   3  -6  124.43    7.32
  -7   3  -6  106.71    6.13
  -7   3  -6  112.32    6.47
  -7   3  -5   -0.21    1.05
  -7   3  -5    0.44    0.77
  -7   3  -5    1.22    0.75
  -7   3  -4    1.54    0.90
  -7   3  -4    3.01    1.18
  -7   3  -3  284.58   11.31
  -7   3  -3  278.64   10.48
  -7   3  -2   16.15    2.78
  -7   3  -2   11.92    2.34
   7  -3   1  102.29    5.95
  -7   3  -1  106.22    6.79
  -7   3  -1  114.81    6.68
   7  -3   0  149.46    7.43
  -7   3   0  159.78    8.32
  -7   3   0  160.15    7.77
   7  -3  -1   92.56    6.00
  -7   3   1   92.26    6.08
  -7   3   1  100.48    5.99
   7  -3  -2    3.21    1.23
  -7   3   2    1.78    0.72
  -7   3   2    2.06    0.80
   7  -3  -3    5.45    1.48
  -7   3   3    7.61    1.75
  -7   3   3    9.61    1.82
   7  -3  -4    2.22    0.99
  -7   3   4    0.49    0.70
  -7   3   4    1.03    0.58
   7  -3  -5   13.57    1.96
  -7   3   5   12.59    1.77
  -7   3   5   13.65    1.62
   7  -3  -6   42.93    2.86
  -8   3  -9   40.98    2.68
  -8   3  -9   41.24    2.65
  -8   3  -8   46.74    3.28
  -8   3  -8   45.06    3.11
  -8   3  -7   20.19    2.37
  -8   3  -7   23.21    2.36
  -8   3  -7   22.16    2.37
  -8   3  -6   24.53    2.50
  -8   3  -6   27.62    2.96
  -8   3  -6   30.76    2.97
  -8   3  -5    8.46    1.78
  -8   3  -5    9.01    1.78
  -8   3  -4  196.21    8.29
  -8   3  -4  199.04    7.80
  -8   3  -3    6.64    1.67
  -8   3  -3    4.97    1.35
  -8   3  -2   51.88    4.31
  -8   3  -2   50.02    3.89
  -8   3  -1   35.95    3.57
  -8   3  -1   26.84    2.82
   8  -3   0   21.36    2.34
  -8   3   0   26.66    2.96
  -8   3   0   29.51    2.81
   8  -3  -1   19.55    2.26
  -8   3   1   26.38    2.86
  -8   3   1   20.37    2.21
   8  -3  -2    9.73    1.55
  -8   3   2   11.27    1.73
  -8   3   2    7.37    1.20
   8  -3  -3    6.27    1.19
  -8   3   3    8.23    1.40
  -9   3  -5   73.20    3.53
  -9   3  -4   20.38    1.93
  -9   3  -3    3.34    0.80
  -9   3  -2   -0.32    0.45
  -9   3  -1   19.39    1.81
  -8  -4   0   26.57    2.12
  -8  -4  -1    0.80    0.70
  -8  -4  -2   25.49    2.64
  -8  -4  -3   13.42    2.10
  -8  -4  -4   42.83    3.53
  -8  -4  -5   29.78    2.92
  -8  -4  -6    1.54    0.82
  -8  -4  -7   11.20    1.65
  -8  -4  -8    1.76    0.89
  -8  -4  -9   70.00    4.04
  -8  -4 -10    6.73    1.21
  -7  -4   2    0.42    0.59
  -7  -4   1    0.62    0.59
  -7  -4   0    0.95    0.95
  -7  -4  -1  117.13    6.55
  -7  -4  -2  145.98    7.51
  -7  -4  -3    3.00    1.54
  -7  -4  -4   -0.53    0.86
  -7  -4  -4    1.84    1.38
  -7  -4  -5    1.33    1.04
  -7  -4  -5    3.22    1.49
  -7  -4  -5    3.20    1.31
  -7  -4  -6   67.34    4.91
  -7  -4  -6   78.90    6.10
  -7  -4  -6   89.21    5.98
  -7  -4  -7   65.16    4.57
  -7  -4  -7   64.99    5.31
  -7  -4  -7   61.12    4.85
  -7  -4  -8   43.86    4.34
  -7  -4  -8   41.37    3.98
  -7  -4  -9    0.14    0.93
  -7  -4 -10   40.25    3.52
  -7  -4 -11   39.34    3.17
  -7  -4 -12   19.43    1.95
  -6  -4   5   -1.32    0.73
  -6  -4   4    0.14    0.47
  -6  -4   3   19.54    2.32
  -6  -4   3   17.88    2.26
  -6  -4   2   12.90    2.03
  -6  -4   2   11.69    2.16
  -6  -4   1   34.70    3.36
  -6  -4   1   33.46    3.71
  -6  -4   0  210.95    9.39
  -6  -4  -1   92.83    6.39
  -6  -4  -2  449.41   14.00
  -6  -4  -2  419.87   12.95
  -6  -4  -3    0.41    0.96
  -6  -4  -3    0.37    0.93
  -6  -4  -3    1.25    1.16
  -6  -4  -4   15.94    2.82
  -6  -4  -4   12.27    2.52
  -6  -4  -4   11.89    2.24
  -6  -4  -4   13.25    2.54
  -6  -4  -5  417.92   13.96
  -6  -4  -5  417.05   12.99
  -6  -4  -5  452.60   14.57
  -6  -4  -5  446.15   13.67
  -6  -4  -6    9.31    2.32
  -6  -4  -6   12.28    2.69
  -6  -4  -6    9.74    2.00
  -6  -4  -6    9.06    2.03
  -6  -4  -7  551.17   13.73
  -6  -4  -7  594.92   16.64
  -6  -4  -7  588.94   16.72
  -6  -4  -7  574.06   15.67
  -6  -4  -8  140.74    8.25
  -6  -4  -8  133.87    7.85
  -6  -4  -8  131.86    7.59
  -6  -4  -8  132.19    7.92
  -6  -4  -9    1.99    1.42
  -6  -4  -9    1.10    1.23
  -6  -4  -9    1.47    0.85
  -6  -4  -9    2.17    1.54
  -6  -4 -10   -0.72    0.80
  -6  -4 -10    0.98    1.08
  -6  -4 -10    2.01    1.18
  -6  -4 -10    1.40    1.46
  -6  -4 -11   17.52    2.49
  -6  -4 -11   20.31    2.62
  -6  -4 -11   20.66    2.85
  -6  -4 -12    1.73    0.72
  -6  -4 -12    2.14    1.09
  -6  -4 -13   17.97    1.92
  -6  -4 -13   17.94    2.02
  -5  -4   6   15.81    2.07
  -5  -4   6   14.41    2.06
  -5  -4   5    0.47    0.81
  -5  -4   5    1.19    0.87
  -5  -4   4   19.21    2.84
  -5  -4   4   19.01    2.48
  -5  -4   4   26.91    3.10
  -5  -4   3  229.52    9.14
  -5  -4   3  228.42    9.21
  -5  -4   3  216.00    9.52
  -5  -4   2    4.52    1.70
  -5  -4   2    3.02    1.01
  -5  -4   2    3.47    1.25
  -5  -4   1    2.82    1.25
  -5  -4   1    2.03    1.04
  -5  -4   1    3.07    1.14
  -5  -4   0   -0.08    0.97
  -5  -4   0    0.66    0.71
  -5  -4  -1  114.49    6.99
   5   4   1  101.30   13.14
  -5  -4  -2    0.90    0.97
  -5  -4  -2    0.26    0.78
  -5  -4  -2   -1.02    1.16
  -5  -4  -2    2.55    1.45
  -5  -4  -3  166.27    8.28
  -5  -4  -3  160.90    8.22
  -5  -4  -3  177.20    8.35
  -5  -4  -3  159.70    7.84
  -5  -4  -4  343.85   12.06
  -5  -4  -4  335.58   11.21
  -5  -4  -4  345.84   12.02
  -5  -4  -4  334.14   11.41
  -5  -4  -4  338.60   22.07
  -5  -4  -5  257.02   10.51
  -5  -4  -5  244.67    9.48
  -5  -4  -5  239.54    9.79
  -5  -4  -5  242.50   19.39
  -5  -4  -5  258.82   10.58
  -5  -4  -6  591.04   16.15
  -5  -4  -6  549.38   13.78
  -5  -4  -6  579.59   16.01
  -5  -4  -6  585.84   15.35
  -5  -4  -6  621.83   31.80
  -5  -4  -6  547.22   15.74
  -5  -4  -7    0.60    0.98
  -5  -4  -7    1.20    1.29
  -5  -4  -7    2.88    0.92
  -5  -4  -7    3.49    1.63
  -5  -4  -8  221.99   10.16
  -5  -4  -8  221.98    9.92
  -5  -4  -8  224.09    9.78
  -5  -4  -8  209.12    9.87
  -5  -4  -9    1.03    1.19
  -5  -4  -9    2.18    1.41
  -5  -4  -9    0.62    1.06
  -5  -4  -9   -0.26    1.04
  -5  -4 -10   11.47    2.41
  -5  -4 -10   10.15    2.01
  -5  -4 -10   14.50    2.60
  -5  -4 -10   14.44    2.65
  -5  -4 -11    1.27    0.69
  -5  -4 -11    1.95    1.23
  -5  -4 -11    0.10    0.95
  -5  -4 -12    0.98    0.67
  -5  -4 -12    0.87    0.99
  -5  -4 -12   -0.58    0.83
  -5  -4 -13   82.24    4.67
  -5  -4 -13   76.16    4.60
  -5  -4 -14   32.90    2.44
  -5  -4 -14   29.93    2.38
  -4  -4   8   22.38    2.03
  -4  -4   8   20.24    2.09
   4   4  -8   15.93    1.73
  -4  -4   7   41.10    3.39
  -4  -4   7   43.53    3.75
  -4  -4   6    2.60    1.35
  -4  -4   6    3.43    1.36
  -4  -4   5    4.76    1.81
  -4  -4   5    1.62    1.27
  -4  -4   4  159.15    7.80
  -4  -4   4  157.05    7.88
  -4  -4   4  154.71    8.47
  -4  -4   3    0.29    1.19
  -4  -4   3    0.42    1.13
  -4  -4   3   -0.30    0.85
  -4  -4   2    6.53    1.81
   4   4  -2    4.54    4.49
  -4  -4   2    4.41    1.69
  -4  -4   2    5.93    1.77
  -4  -4   1  279.95    9.81
   4   4  -1  290.78   22.99
  -4  -4   1  280.20   10.63
  -4  -4   1  280.65   10.16
  -4  -4   0   94.52    6.08
  -4  -4   0   89.93    5.42
   4   4   0   76.90   11.01
   4   4   1    8.49    4.21
  -4  -4  -1    4.76    1.22
  -4  -4  -1    6.87    1.77
  -4  -4  -1    7.02    1.54
  -4  -4  -1    9.35    1.83
  -4  -4  -2    1.45    0.83
  -4  -4  -2   -1.14    1.02
  -4  -4  -3   14.55    2.48
  -4  -4  -3   10.25    3.17
  -4  -4  -3   12.70    2.12
  -4  -4  -4   -1.23    2.83
  -4  -4  -4    0.93    0.57
  -4  -4  -4    1.63    0.97
  -4  -4  -4    0.55    0.84
  -4  -4  -4    3.38    1.46
  -4  -4  -4    3.07    1.43
  -4  -4  -5  176.61    8.25
  -4  -4  -5  175.21    8.19
  -4  -4  -5  173.35   14.98
  -4  -4  -5  173.39    7.62
  -4  -4  -5  163.88    7.83
  -4  -4  -6   30.69    3.52
  -4  -4  -6   28.34    6.47
  -4  -4  -6   31.26    3.59
  -4  -4  -6   27.89    3.22
  -4  -4  -6   26.18    3.28
  -4  -4  -7  127.96    7.18
  -4  -4  -7  137.18    7.55
  -4  -4  -7  136.77   14.57
  -4  -4  -7  133.94    7.25
  -4  -4  -7  120.78    6.93
  -4  -4  -8    2.66    1.34
  -4  -4  -8   -1.31    2.76
  -4  -4  -8    1.77    1.25
  -4  -4  -8    1.85    0.97
  -4  -4  -8    0.58    1.04
  -4  -4  -9    1.55    0.78
  -4  -4  -9    3.52    1.28
  -4  -4  -9    3.08    1.42
  -4  -4 -10  148.14    7.99
  -4  -4 -10  153.69    8.26
  -4  -4 -10  135.08    7.81
  -4  -4 -11   -0.28    1.18
  -4  -4 -11    0.36    0.90
  -4  -4 -11    0.48    1.15
  -4  -4 -12  113.20    5.96
  -4  -4 -12  115.59    6.71
  -4  -4 -12  108.12    6.42
  -4  -4 -13   54.45    4.14
  -4  -4 -13   53.74    4.06
  -4  -4 -14    0.59    0.53
  -4  -4 -14    1.15    0.69
  -3  -4   9    6.19    1.22
   3   4  -9    6.71    1.11
  -3  -4   8    0.81    0.94
  -3  -4   8    0.79    0.65
  -3  -4   7   36.56    3.61
  -3  -4   7   35.46    3.82
  -3  -4   6   11.54    2.46
  -3  -4   6    9.75    2.00
  -3  -4   5  100.43    6.11
  -3  -4   5  101.10    6.39
  -3  -4   5  104.45    7.05
  -3  -4   4   45.93    4.27
  -3  -4   4   42.84    4.20
  -3  -4   4   45.33    4.63
  -3  -4   3   86.80    5.96
  -3  -4   3   96.48    6.02
   3   4  -3   98.60   13.81
  -3  -4   3   97.15    6.34
  -3  -4   2    3.16    1.15
  -3  -4   2    4.83    1.12
   3   4  -1   54.01    9.00
  -3  -4   1   54.26    4.05
   3   4   0  107.51   11.93
   3   4   1   40.43    6.88
  -3  -4  -2   13.12    3.67
   3   4   2   23.02    4.90
  -3  -4  -3   65.91    7.74
  -3  -4  -4   55.13    7.69
  -3  -4  -5   89.22    8.34
  -3  -4  -5   92.10   10.26
  -3  -4  -6  686.30   25.10
  -3  -4  -6  686.89   29.54
  -3  -4  -7    1.34    0.85
  -3  -4  -7    1.72    1.11
  -3  -4  -7    2.32    2.89
  -3  -4  -7   -1.58    1.99
  -3  -4  -7   -0.21    0.66
  -3  -4  -7   -0.20    0.70
  -3  -4  -8   35.87    7.38
  -3  -4  -8   31.06    3.28
  -3  -4  -8   31.99    3.61
  -3  -4  -8   26.07    5.65
  -3  -4  -8   35.82    3.83
  -3  -4  -8   31.96    3.58
   3   4   9   35.76    8.15
  -3  -4  -9   36.29    7.62
  -3  -4  -9   44.08    4.37
  -3  -4  -9   28.56    6.55
  -3  -4  -9   41.54    4.40
  -3  -4  -9   40.03    4.18
  -3  -4 -10  107.91    6.67
  -3  -4 -10  109.15    6.97
  -3  -4 -10  105.91    6.75
  -3  -4 -11   19.74    3.02
  -3  -4 -11   18.71    2.74
  -3  -4 -11   19.81    3.17
  -3  -4 -12   50.59    4.58
  -3  -4 -12   47.33    4.24
  -3  -4 -13   30.72    3.28
  -3  -4 -13   34.03    3.29
  -3  -4 -14   45.62    3.31
  -3  -4 -14   44.27    3.07
  -2  -4  10   -0.17    0.49
  -2  -4   9   50.07    3.38
   2   4  -9   55.06    3.84
  -2  -4   9   53.93    4.08
  -2  -4   8    4.31    1.48
  -2  -4   8    6.12    1.60
  -2  -4   7   -0.79    1.15
  -2  -4   7   -0.68    1.19
  -2  -4   6   57.85    4.74
  -2  -4   6   58.19    5.26
  -2  -4   5  420.22   12.65
   2   4  -5  443.77   29.74
  -2  -4   5  451.17   14.31
  -2  -4   4  129.67   13.30
  -2  -4   4  146.16    7.32
   2   4  -4  135.27   15.77
  -2  -4   4  116.76    6.95
  -2  -4   3  100.27   11.18
  -2  -4   3  119.66    6.34
   2   4  -3  107.98   13.38
  -2  -4   3  115.19    6.53
  -2  -4   2   -0.72    1.46
   2   4  -2   -0.11    2.33
  -2  -4   1  250.45   15.99
   2   4  -1  271.72   18.10
   2   4   0  767.76   27.91
  -2  -4  -1   37.27    4.87
  -2  -4  -1   38.58    4.73
   2   4   1   30.12    5.25
  -2  -4  -2   98.81    7.83
   2   4   2  110.31    8.59
  -2  -4  -3  230.46   12.33
  -2  -4  -3  238.97   13.79
  -2  -4  -4   44.80    5.64
  -2  -4  -4   42.94    6.36
  -2  -4  -5   36.55    5.49
  -2  -4  -5   46.51    7.00
  -2  -4  -6  834.94   28.60
  -2  -4  -6  878.67   31.59
  -2  -4  -7    7.33    3.81
  -2  -4  -7    6.75    3.34
  -2  -4  -7    4.31    1.31
  -2  -4  -8 1009.26   36.73
  -2  -4  -8 1048.13   20.06
  -2  -4  -8 1041.91   39.02
  -2  -4  -8 1041.28   19.80
  -2  -4  -8  999.25   18.62
  -2  -4  -9  261.73   19.98
  -2  -4  -9  251.83   10.13
   2   4   9  275.41   21.32
  -2  -4  -9  270.96   20.75
  -2  -4  -9  242.12   10.05
  -2  -4  -9  243.40    9.69
  -2  -4 -10   18.24    2.89
  -2  -4 -10   17.56    2.88
  -2  -4 -10   19.00    3.15
  -2  -4 -11  158.59    7.66
  -2  -4 -11  147.47    8.29
  -2  -4 -11  167.40    8.28
  -2  -4 -12   10.47    2.18
  -2  -4 -12    9.02    2.11
  -2  -4 -13    6.73    1.58
  -2  -4 -13    6.24    1.53
  -2  -4 -14  118.40    5.35
  -2  -4 -14   97.13    4.22
  -1  -4  10    3.58    1.15
   1   4 -10    3.61    0.97
  -1  -4   9  130.30    5.92
   1   4  -9  123.53    6.24
  -1  -4   9  124.02    6.79
  -1  -4   8  223.02    8.58
  -1  -4   8  230.36    8.60
  -1  -4   8  238.49   10.22
  -1  -4   7    8.88    2.32
  -1  -4   7    6.14    1.61
  -1  -4   7    6.74    1.70
  -1  -4   6   15.69    2.72
  -1  -4   6   16.12    5.60
  -1  -4   6   17.59    2.73
  -1  -4   5   14.58    4.83
   1   4  -5   25.73    7.00
  -1  -4   5   25.03    3.01
  -1  -4   5   28.85    3.69
  -1  -4   4   25.99    3.08
  -1  -4   4   19.91    4.95
   1   4  -4   27.46    6.87
  -1  -4   4   22.43    2.73
  -1  -4   4   26.84    3.25
  -1  -4   3  846.16   32.24
   1   4  -3  937.15   35.51
  -1  -4   2  939.15   31.83
   1   4  -2 1055.57   34.97
  -1  -4   1 2058.99   44.15
   1   4  -1 2159.70   46.17
  -1  -4   0 1214.06   32.77
   1   4   0 1269.98   32.51
  -1  -4  -1  385.18   13.95
   1   4   1  386.23   16.18
   1   4   2  663.16   18.52
  -1  -4  -2  666.97   21.14
   1   4   2  660.04   16.30
  -1  -4  -2  678.25   20.48
  -1  -4  -3  108.32    8.81
  -1  -4  -3   94.82    8.46
  -1  -4  -4  256.61   14.11
  -1  -4  -4  256.47   14.91
  -1  -4  -5    3.08    2.42
  -1  -4  -5    5.93    1.75
  -1  -4  -6   -0.37    1.33
  -1  -4  -6    5.23    2.44
  -1  -4  -7   -1.76    2.13
  -1  -4  -7    1.56    1.67
   1   4   8  169.19   15.28
  -1  -4  -8  183.23   16.08
  -1  -4  -8  172.73   15.72
  -1  -4  -8  173.99    8.13
  -1  -4  -8  178.18    8.30
  -1  -4  -9    0.96    2.20
   1   4   9    4.79    3.27
  -1  -4  -9    5.66    3.54
  -1  -4  -9   -1.61    0.92
  -1  -4  -9    1.07    1.00
  -1  -4 -10  167.42    8.13
  -1  -4 -10  161.33    8.56
  -1  -4 -10  175.50    8.23
  -1  -4 -11   18.18    2.72
  -1  -4 -11   20.67    3.19
  -1  -4 -12   14.40    2.21
  -1  -4 -12   14.42    2.66
  -1  -4 -13    6.92    1.59
  -1  -4 -14   23.73    2.27
   0  -4  11    1.99    0.72
   0  -4  10   35.62    3.16
   0   4 -10   40.30    3.22
   0  -4  10   36.37    3.27
   0  -4   9   16.44    2.58
   0  -4   9   24.60    3.04
   0   4  -9   23.18    2.78
   0   4  -8   23.42    2.95
   0  -4   8   23.87    3.17
   0   4  -8   23.80    3.07
   0  -4   8   25.20    3.44
   0   4  -7   76.97    5.24
   0  -4   7   86.90    5.35
   0  -4   7   82.61    6.23
   0  -4   6   20.57    3.08
   0  -4   6   18.84    6.25
   0  -4   6   18.63    2.57
   0   4  -6   23.08    6.43
   0   4  -6   14.31    4.47
   0  -4   5   58.33    9.65
   0  -4   5   54.78    4.13
   0  -4   5   51.91    4.53
   0   4  -5   61.15    9.77
   0   4  -4    3.14    2.27
   0  -4   4    0.02    3.05
   0  -4   3   15.09    4.76
   0   4  -3   18.38    5.20
   0  -4   2  187.71   13.98
   0   4  -2  207.09   14.37
   0  -4   1    0.33    1.32
   0   4  -1   -1.23    1.43
   0   4  -1    1.33    1.20
   0   4   0    3.52    1.48
   0  -4   0    2.22    1.66
   0   4   0    1.79    1.51
   0  -4   0    5.87    1.71
   0  -4  -1  773.85   21.14
   0   4   1  744.24   19.74
   0  -4  -2  301.33   14.89
   0   4   2  278.36   10.78
   0  -4  -2  283.35   14.11
   0  -4  -3  144.29   10.56
   0  -4  -3  145.13   11.13
   0  -4  -4  801.93   26.04
   0  -4  -4  811.81   27.64
   0  -4  -5  413.66   19.82
   0  -4  -5  427.24   21.52
   0  -4  -6   12.73    4.26
   0  -4  -6   10.35    3.96
   0  -4  -7  235.15   17.70
   0  -4  -7  228.81    9.12
   0  -4  -7  225.56   17.79
   0  -4  -8  225.19   18.51
   0  -4  -8  221.63    9.38
   0  -4  -8  215.54   18.24
   0  -4  -9  107.07   13.58
   0  -4  -9  105.58    6.59
   0   4   9  117.20    6.52
   0  -4  -9  113.52   13.64
   0   4  10   26.75    3.25
   0  -4 -10   29.65    3.38
   0  -4 -10   30.12    3.80
   0   4  11  372.18   11.54
   0  -4 -11  375.44   12.91
   0   4  12    4.71    1.41
   0  -4 -12    3.26    1.45
   0  -4 -13    3.16    1.06
   0  -4 -14    9.83    1.29
   1  -4  11   34.28    2.86
   1  -4  11   28.54    2.38
   1  -4  10    1.62    1.04
  -1   4 -10   -0.18    0.66
   1  -4  10   -0.44    0.71
  -1   4  -9   26.83    3.14
   1  -4   9   25.68    3.25
   1  -4   8   11.68    2.46
  -1   4  -8    9.43    2.00
  -1   4  -7   42.09    4.05
  -1   4  -7   41.62    3.67
   1  -4   7   47.39    4.63
   1  -4   6   20.44    3.03
   1  -4   6   17.92    5.76
  -1   4  -6   20.84    2.79
  -1   4  -6   13.61    4.93
  -1   4  -5  263.92   19.37
   1  -4   5  234.46   19.05
  -1   4  -5  272.98   19.63
   1  -4   5  247.85    9.74
  -1   4  -4  260.16   18.00
   1  -4   4  238.19   18.05
  -1   4  -4  249.92   17.34
  -1   4  -3  223.26   15.76
   1  -4   3  207.64   15.64
  -1   4  -3  239.83   15.88
   1  -4   2    7.57    3.21
  -1   4  -2    5.34    2.73
   1  -4   1   48.86    6.62
  -1   4  -1   60.11    6.98
   1  -4   0   16.97    3.57
  -1   4   0   14.29    3.14
  -1   4   1  875.21   22.98
   1  -4  -2   73.45    7.63
  -1   4   2   66.22    6.17
   1  -4  -3   71.53    7.87
  -1   4   3   70.08    6.10
   1  -4  -4   72.41    8.09
   1  -4  -5    0.02    2.15
   1  -4  -5    0.18    2.42
   1  -4  -6   30.03    6.07
   1  -4  -6   25.60    5.94
   1  -4  -7   84.49   11.05
  -1   4   7   85.05    5.39
  -1   4   7   71.24    5.68
   1  -4  -7   84.20   11.67
   1  -4  -8    5.05    1.64
   1  -4  -8    2.54    3.19
  -1   4   8    4.93    1.60
   1  -4  -8   -0.79    3.91
   1  -4  -9  140.29    7.62
  -1   4   9  129.11    7.25
  -1   4  10   -0.78    1.16
   1  -4 -10   -1.70    1.34
  -1   4  11    1.62    1.06
   1  -4 -11    0.89    1.18
  -1   4  12   12.05    1.90
   1  -4 -12   12.20    2.14
  -1   4  13    0.47    0.53
   1  -4 -13    0.75    0.50
  -2   4 -11    8.41    1.60
   2  -4  11    7.93    1.50
   2  -4  10    8.72    1.81
  -2   4 -10    9.19    1.77
   2  -4   9    3.74    1.49
  -2   4  -9    1.12    0.96
  -2   4  -9    3.94    1.23
  -2   4  -8   29.57    3.51
  -2   4  -8   30.01    3.25
   2  -4   8   28.00    3.56
  -2   4  -7  181.43    8.09
  -2   4  -7  180.09    8.61
   2  -4   7  187.99    9.08
  -2   4  -6 1561.11   22.94
  -2   4  -6 1540.48   23.83
   2  -4   6 1592.06   52.50
   2  -4   6 1566.06   25.51
   2  -4   5  304.54   21.69
  -2   4  -5  285.77    9.88
  -2   4  -5  307.60   20.57
   2  -4   5  302.81   10.80
   2  -4   4  160.28   14.40
  -2   4  -4  168.28   14.37
   2  -4   3  582.36   25.84
  -2   4  -3  658.67   26.65
   2  -4   2    5.39    2.78
  -2   4  -2    6.36    2.58
   2  -4   1   45.98    6.12
  -2   4  -1   55.56    6.87
   2  -4   0    9.99    3.02
  -2   4   0    7.08    2.27
   2  -4  -1   92.98    8.75
  -2   4   1   90.00    8.39
   2  -4  -2  216.66   13.53
  -2   4   2  222.25   13.02
   2  -4  -3    5.10    1.86
  -2   4   3    9.20    3.16
   2  -4  -4   19.85    4.46
   2  -4  -5    2.02    1.94
  -2   4   5    4.42    1.69
   2  -4  -6  101.91   11.80
   2  -4  -6  115.20    6.28
  -2   4   6  108.73    6.32
  -2   4   6   95.83    7.02
   2  -4  -7   15.69    2.38
   2  -4  -7   19.79    5.12
  -2   4   7   18.92    2.84
  -2   4   7   16.37    3.07
   2  -4  -7   16.22    4.89
  -2   4   8   16.76    2.78
  -2   4   8   14.42    3.13
   2  -4  -9    1.56    1.04
  -2   4   9    0.23    0.82
  -2   4  10   23.63    3.04
  -2   4  11   70.66    4.76
   2  -4 -11   74.22    5.05
  -2   4  12    4.82    1.09
   2  -4 -12    6.28    1.34
   3  -4  12    0.08    0.41
  -3   4 -11   15.27    2.03
   3  -4  11   15.44    2.16
  -3   4 -10  109.97    6.05
  -3   4 -10  104.41    5.14
   3  -4  10   91.10    5.20
  -3   4  -9   22.85    2.95
  -3   4  -9   18.39    2.50
   3  -4   9   22.16    2.94
  -3   4  -8  139.70    7.17
  -3   4  -8  144.50    7.72
   3  -4   8  138.92    7.64
  -3   4  -7  230.78    9.26
  -3   4  -7  259.23   10.44
   3  -4   7  230.56   10.10
  -3   4  -6   73.81    5.58
   3  -4   6   77.89   11.67
  -3   4  -6   74.08    5.18
  -3   4  -6   81.86   11.42
   3  -4   6   78.17    5.86
   3  -4   5   33.55    7.37
  -3   4  -5   43.43    3.78
  -3   4  -5   42.74    4.15
  -3   4  -5   48.72    8.62
   3  -4   5   39.37    4.01
   3  -4   4   55.89    8.42
  -3   4  -4   66.89    4.90
  -3   4  -4   73.46    4.73
  -3   4  -4   62.97    9.19
   3  -4   3   79.92    9.40
  -3   4  -3   93.65   10.59
   3  -4   2  776.72   26.92
  -3   4  -2  921.72   32.59
   3  -4   1  273.19   14.07
  -3   4  -1  298.48   17.78
   3  -4   0    0.70    1.02
  -3   4   0   -0.93    2.74
   3  -4  -1  421.77   19.54
  -3   4   1  421.74   20.92
   3  -4  -2  259.29   15.43
  -3   4   2  284.05   17.88
   3  -4  -3  201.58   14.15
  -3   4   3  205.36   15.80
  -3   4   4    7.23    4.33
   3  -4  -4    6.17    1.54
   3  -4  -4    5.75    3.02
  -3   4   4    3.59    1.27
  -3   4   4    5.58    1.57
   3  -4  -5  211.15   16.12
   3  -4  -5  229.44    9.36
  -3   4   5  217.59    9.24
  -3   4   5  215.47   10.64
   3  -4  -6  266.90   10.37
  -3   4   6  247.96   10.25
  -3   4   6  236.82   11.49
   3  -4  -7   50.28    4.41
  -3   4   7   48.85    4.76
  -3   4   7   50.08    5.48
   3  -4  -8   57.47    4.63
  -3   4   8   63.05    5.29
  -3   4   8   50.82    5.49
   3  -4  -9   36.21    3.54
  -3   4   9   36.71    3.89
  -3   4  10   41.56    3.83
  -3   4  11   -0.39    0.56
   3  -4 -11    1.00    0.62
   4  -4  12   46.45    2.74
  -4   4 -11    6.21    1.33
  -4   4 -10    6.03    1.51
  -4   4 -10    4.30    1.10
  -4   4  -9   42.47    4.02
  -4   4  -9   41.45    3.73
   4  -4   9   48.36    4.08
   4  -4   8    2.30    1.11
  -4   4  -8    4.14    1.76
  -4   4  -8    2.30    0.98
   4  -4   7   11.44    2.34
  -4   4  -7    8.31    2.00
  -4   4  -7    9.95    1.99
   4  -4   6    6.91    1.89
   4  -4   6   13.50    5.59
  -4   4  -6    8.88    2.06
  -4   4  -6    8.56    1.81
   4  -4   5   40.78    8.07
  -4   4  -5   51.03    4.69
  -4   4  -5   50.13    4.25
  -4   4  -5   43.67    8.61
  -4   4  -4    8.42    2.02
  -4   4  -4    6.23    1.55
  -4   4  -4    2.96    4.06
  -4   4  -3  190.70    7.63
  -4   4  -3  211.89   17.32
  -4   4  -3  184.76    8.50
  -4   4  -2   49.74    4.20
  -4   4  -2   54.31    3.91
  -4   4  -2   53.45    8.50
   4  -4   1  142.88   11.60
  -4   4  -1  157.03    7.46
  -4   4  -1  145.07    7.47
  -4   4  -1  158.54   14.47
   4  -4   0   19.31    2.60
   4  -4   0   16.76    4.32
  -4   4   0   17.62    2.62
  -4   4   0   17.53    4.58
   4  -4  -1   85.76    5.46
  -4   4   1   76.42    5.49
  -4   4   1   79.79   11.09
   4  -4  -2  372.72   11.80
  -4   4   2  386.54   12.30
   4  -4  -3    4.74    1.61
  -4   4   3    1.94    0.77
   4  -4  -4  827.02   18.90
  -4   4   4  820.30   18.78
   4  -4  -5  315.55   11.71
  -4   4   5  303.13   11.63
  -4   4   5  294.10   12.94
   4  -4  -6    1.54    1.08
  -4   4   6    2.94    1.20
   4  -4  -7  128.60    7.17
  -4   4   7  136.79    7.83
   4  -4  -8    8.49    1.67
  -4   4   8    7.05    2.03
   4  -4  -9   33.39    2.91
  -4   4   9   31.50    3.28
  -4   4  10   34.88    2.96
   4  -4 -10   32.10    2.57
  -5   4 -11   15.13    1.78
  -5   4 -11   12.16    1.44
  -5   4 -10   13.40    1.99
  -5   4 -10   14.76    1.98
  -5   4  -9    2.31    1.21
  -5   4  -9    2.51    1.24
  -5   4  -8  174.85    8.63
  -5   4  -8  188.38    8.44
   5  -4   8  168.94    7.72
  -5   4  -7   91.19    6.54
  -5   4  -7   98.02    6.24
   5  -4   7   93.13    6.27
  -5   4  -6  107.34    7.09
  -5   4  -6  112.77    6.65
  -5   4  -6  108.83    6.34
   5  -4   6  114.55    7.01
  -5   4  -5  180.57    9.08
  -5   4  -5  166.36    7.94
  -5   4  -4   44.56    4.50
  -5   4  -4   36.97    3.69
  -5   4  -3   92.38    6.40
  -5   4  -3   89.00    5.46
  -5   4  -3   90.08   12.13
  -5   4  -2   -0.15    1.06
  -5   4  -2   -2.17    1.22
  -5   4  -2    1.79    1.96
   5  -4   1    0.18    0.64
  -5   4  -1    0.57    1.06
  -5   4  -1    0.34    0.84
   5  -4   0   55.33    4.63
  -5   4   0   53.24    5.00
  -5   4   0   66.73   11.36
   5  -4  -1   83.41    5.80
  -5   4   1   83.27    6.20
  -5   4   1   91.17   13.07
   5  -4  -2  214.82    9.58
  -5   4   2  201.95    9.59
  -5   4   2  191.62   19.95
   5  -4  -3   -0.09    0.93
  -5   4   3   -0.55    0.89
   5  -4  -4  797.09   19.35
  -5   4   4  787.66   18.96
   5  -4  -5    2.48    0.86
  -5   4   5    3.24    1.38
   5  -4  -6   47.91    4.44
  -5   4   6   48.11    4.56
   5  -4  -7   30.45    3.31
  -5   4   7   32.75    3.60
   5  -4  -8    1.22    0.55
  -5   4   8    0.45    0.64
  -5   4   9    6.40    1.20
  -6   4 -10    0.99    0.65
  -6   4 -10    2.81    0.91
  -6   4  -9   46.85    3.68
  -6   4  -9   47.06    3.76
   6  -4   8   -1.93    1.02
  -6   4  -8    0.03    0.75
  -6   4  -8    0.32    0.75
  -6   4  -7   92.24    6.24
  -6   4  -7   89.84    5.72
   6  -4   7   87.09    5.54
  -6   4  -6   59.80    5.17
  -6   4  -6   58.49    4.74
  -6   4  -6   61.51    4.72
   6  -4   6   48.28    4.44
  -6   4  -5    2.85    1.55
  -6   4  -5    0.89    1.17
  -6   4  -5    2.11    1.16
  -6   4  -4    0.26    1.17
  -6   4  -4   -0.22    0.63
  -6   4  -4    0.53    0.69
  -6   4  -3    5.81    2.09
  -6   4  -3    4.34    1.35
  -6   4  -2    4.43    1.51
   6  -4   1    5.62    1.41
  -6   4  -1    7.53    2.02
   6  -4   0   27.18    3.37
  -6   4   0   24.41    3.40
  -6   4   0   21.97    3.38
   6  -4  -1    4.75    1.51
  -6   4   1    4.33    1.63
   6  -4  -2   -0.18    0.97
  -6   4   2    0.67    0.93
   6  -4  -3    1.50    0.90
  -6   4   3    1.94    1.29
   6  -4  -4    2.89    1.29
  -6   4   4    2.68    1.14
   6  -4  -5    0.99    0.86
  -6   4   5   -0.10    1.06
   6  -4  -6    0.21    0.66
  -6   4   6    0.51    0.70
   6  -4  -7   46.90    3.26
  -6   4   7   47.72    3.41
  -7   4  -9    6.71    1.24
  -7   4  -9    7.13    1.26
  -7   4  -8  114.39    5.65
  -7   4  -8  114.37    5.43
  -7   4  -7   78.47    5.24
  -7   4  -7   78.18    4.74
   7  -4   7   77.84    4.41
  -7   4  -6  135.22    7.24
  -7   4  -6  149.85    6.72
  -7   4  -6  139.61    6.26
   7  -4   6  136.36    6.63
  -7   4  -5   -0.10    1.25
  -7   4  -5    0.15    0.60
  -7   4  -5    1.37    0.87
  -7   4  -4    4.74    1.87
  -7   4  -4    6.62    1.47
  -7   4  -4    6.11    1.56
  -7   4  -3    5.75    1.88
  -7   4  -3    2.31    0.78
  -7   4  -2    4.77    1.74
   7  -4   1    0.02    0.75
  -7   4  -1    0.56    1.28
   7  -4   0   67.67    4.83
  -7   4   0   68.53    5.26
   7  -4  -1   -0.18    0.67
  -7   4   1   -0.78    0.89
   7  -4  -2    3.19    1.29
  -7   4   2    5.04    1.46
  -7   4   2    4.69    1.49
   7  -4  -3    3.43    1.30
  -7   4   3    1.76    1.02
  -7   4   3    3.31    1.42
   7  -4  -4    5.84    1.38
  -7   4   4    5.95    1.35
   7  -4  -5  102.98    4.87
  -7   4   5   93.02    4.66
  -7   4   5  101.48    4.67
  -8   4  -8    3.82    0.82
  -8   4  -7   27.88    2.45
  -8   4  -7   21.40    1.88
  -8   4  -6   31.01    2.82
  -8   4  -6   29.77    2.28
  -8   4  -5   38.59    3.33
   8  -4   5   24.57    2.42
  -8   4  -4    7.49    1.65
  -8   4  -3    4.71    1.28
  -8   4  -2   18.18    2.46
  -8   4  -1   19.62    2.50
  -8   4   0    7.19    1.50
   8  -4  -1   43.62    2.96
  -8   4   1   55.84    3.79
   8  -4  -2    5.52    1.08
  -8   4   2    3.31    0.96
  -8   4   3   10.10    1.37
  -8  -5  -2  218.52    6.30
  -8  -5  -3  103.62    4.63
  -8  -5  -4    9.67    1.45
  -8  -5  -5    5.61    1.13
  -8  -5  -6    4.24    0.93
  -7  -5   1    1.55    0.63
  -7  -5   0   57.26    3.83
  -7  -5  -1    0.54    0.85
  -7  -5  -2   62.07    4.56
  -7  -5  -3   96.10    5.74
  -7  -5  -4   -1.78    1.11
  -7  -5  -4   -1.28    0.70
  -7  -5  -5    5.04    1.39
  -7  -5  -5    2.82    1.42
  -7  -5  -6    3.00    1.00
  -7  -5  -6    2.51    1.17
  -7  -5  -6    5.04    1.52
  -7  -5  -7   25.63    2.61
  -7  -5  -7   24.17    3.19
  -7  -5  -7   23.70    2.82
  -7  -5  -8    8.44    1.84
  -7  -5  -8    8.77    1.91
  -7  -5  -9   -0.14    0.74
  -7  -5 -10   -0.77    0.68
  -7  -5 -11   29.84    2.45
  -6  -5   3    5.15    1.12
  -6  -5   3    5.39    1.14
  -6  -5   2    3.01    1.08
  -6  -5   2    1.96    0.68
  -6  -5   1    6.58    1.49
  -6  -5   1    8.41    1.53
  -6  -5   0    2.18    1.00
  -6  -5   0    3.01    0.86
  -6  -5  -1   28.06    3.51
  -6  -5  -2   30.98    3.37
  -6  -5  -2   36.47    3.99
  -6  -5  -3    2.72    1.30
  -6  -5  -3    2.56    1.34
  -6  -5  -4   59.03    4.92
  -6  -5  -4   62.27    5.25
  -6  -5  -4   66.94    5.03
  -6  -5  -5   -0.61    0.93
  -6  -5  -5    1.64    1.21
  -6  -5  -5    1.83    1.57
  -6  -5  -5    1.89    1.24
  -6  -5  -6  102.69    6.89
  -6  -5  -6   98.82    5.95
  -6  -5  -6  107.77    7.06
  -6  -5  -6  109.33    6.52
  -6  -5  -7    8.74    2.24
  -6  -5  -7    8.89    2.38
  -6  -5  -7   11.03    2.11
  -6  -5  -8  331.15   12.21
  -6  -5  -8  342.13   12.17
  -6  -5  -8  335.20   11.27
  -6  -5  -9    4.87    1.85
  -6  -5  -9    3.52    1.51
  -6  -5  -9    1.01    0.98
  -6  -5 -10   31.61    3.54
  -6  -5 -10   29.17    3.18
  -6  -5 -10   33.00    3.36
  -6  -5 -11   -0.59    0.96
  -6  -5 -11   -0.78    0.71
  -6  -5 -12    0.87    0.77
  -6  -5 -12   -1.09    0.66
  -6  -5 -13    3.46    0.76
  -5  -5   5    3.03    0.89
  -5  -5   5    2.35    0.87
  -5  -5   4   10.01    1.82
  -5  -5   4    9.86    1.56
  -5  -5   4   10.57    1.83
  -5  -5   3   -1.06    0.74
  -5  -5   3   -0.58    0.86
  -5  -5   3   -1.73    1.26
  -5  -5   2  201.39    8.80
  -5  -5   2  188.68    8.05
  -5  -5   2  195.61    8.30
  -5  -5   1    0.72    0.93
  -5  -5   1    1.60    1.06
  -5  -5   0   45.06    4.50
  -5  -5   0   43.08    3.95
  -5  -5  -1  633.62   16.60
  -5  -5  -1  627.70   14.18
  -5  -5  -2   37.22    4.06
  -5  -5  -2   40.32    4.08
  -5  -5  -3  113.05    6.76
  -5  -5  -3  111.24    6.81
  -5  -5  -3  107.69    6.85
  -5  -5  -3  102.99    6.13
  -5  -5  -4    9.08    2.00
  -5  -5  -4    8.76    2.09
  -5  -5  -4    8.05    1.89
  -5  -5  -4   13.93    2.37
  -5  -5  -5   32.18    3.82
  -5  -5  -5   36.03    4.09
  -5  -5  -5   35.15    3.68
  -5  -5  -5   34.69    3.66
  -5  -5  -6    6.03    1.94
  -5  -5  -6    5.80    1.81
  -5  -5  -6    5.35    1.44
  -5  -5  -7  262.75   11.13
  -5  -5  -7  268.39   11.15
  -5  -5  -7  270.72   10.36
  -5  -5  -8   20.55    3.24
  -5  -5  -8   26.25    3.57
  -5  -5  -8   21.79    3.06
  -5  -5  -8   27.00    3.60
  -5  -5  -9    7.74    2.05
  -5  -5  -9    6.56    1.98
  -5  -5  -9    8.17    1.86
  -5  -5  -9    9.27    2.20
  -5  -5 -10    3.08    1.32
  -5  -5 -10    3.48    1.23
  -5  -5 -10    6.24    1.57
  -5  -5 -10    4.68    1.71
  -5  -5 -11   45.54    4.13
  -5  -5 -11   46.69    4.04
  -5  -5 -11   49.31    4.16
  -5  -5 -12    9.70    1.75
  -5  -5 -12    9.23    1.72
  -5  -5 -12    8.90    1.69
  -5  -5 -13   61.92    3.37
  -5  -5 -13   65.36    3.68
  -4  -5   7   19.23    1.84
  -4  -5   7   20.59    2.03
  -4  -5   6   -0.02    1.05
  -4  -5   6    2.55    0.93
  -4  -5   5   86.61    5.34
  -4  -5   5   71.55    4.35
  -4  -5   5   72.59    5.14
  -4  -5   4    0.09    0.78
  -4  -5   4    0.47    1.05
  -4  -5   4    0.78    0.93
  -4  -5   3  262.45   10.35
  -4  -5   3  254.90    9.90
  -4  -5   3  270.58   10.57
  -4  -5   2  425.11   13.62
  -4  -5   2  446.46   13.28
  -4  -5   1   48.00    4.66
  -4  -5   1   48.90    4.38
  -4  -5   1   41.40    3.89
  -4  -5   0  252.54   10.34
  -4  -5   0  238.30    9.25
  -4  -5  -1   30.76    3.67
  -4  -5  -1   27.72    3.30
  -4  -5  -1   23.62    2.85
  -4  -5  -2  113.41    6.73
  -4  -5  -2  115.33    6.70
  -4  -5  -2  117.48    5.95
  -4  -5  -3  447.71   12.92
  -4  -5  -3  464.85   13.70
  -4  -5  -3  466.26   13.18
  -4  -5  -4  251.24    9.89
  -4  -5  -4  243.60   10.19
  -4  -5  -4  247.22    9.38
  -4  -5  -4  251.17    9.06
  -4  -5  -4  240.31   17.49
  -4  -5  -5   15.35    4.25
  -4  -5  -5   10.58    2.23
  -4  -5  -5   11.18    2.04
  -4  -5  -5   10.64    2.15
  -4  -5  -5    9.49    1.98
  -4  -5  -6  111.21    6.90
  -4  -5  -6  113.87    7.00
  -4  -5  -6   90.88   11.80
  -4  -5  -6  106.22    6.27
  -4  -5  -6   97.28    6.29
  -4  -5  -7    1.34    1.08
  -4  -5  -7   -2.04    3.78
  -4  -5  -7    3.12    1.49
  -4  -5  -7   -0.86    1.15
  -4  -5  -7    1.22    1.18
  -4  -5  -8    1.89    1.19
  -4  -5  -8    0.48    0.90
  -4  -5  -8    1.59    1.17
  -4  -5  -8   -0.22    0.86
  -4  -5  -9  535.44   15.67
  -4  -5  -9  533.25   14.99
  -4  -5  -9  542.78   14.95
  -4  -5  -9  512.33   14.68
  -4  -5 -10  148.58    8.10
  -4  -5 -10  163.09    7.76
  -4  -5 -10  152.55    7.95
  -4  -5 -10  154.50    7.92
  -4  -5 -11   10.21    2.11
  -4  -5 -11   11.82    2.20
  -4  -5 -11   15.08    2.42
  -4  -5 -12   -0.30    0.84
  -4  -5 -12   -0.42    0.83
  -4  -5 -12    1.58    0.86
  -4  -5 -13    1.86    0.84
  -4  -5 -13    3.15    1.00
  -4  -5 -13    2.15    0.79
  -4  -5 -14    0.88    0.55
  -3  -5   8  159.77    5.10
  -3  -5   8  180.87    6.24
  -3  -5   7   54.05    3.78
  -3  -5   7   56.91    4.30
  -3  -5   6    1.96    0.90
  -3  -5   6   -0.42    0.90
  -3  -5   5   48.50    4.21
  -3  -5   5   46.67    4.30
  -3  -5   5   49.03    4.63
  -3  -5   4  156.75    8.03
  -3  -5   4  154.31    7.93
  -3  -5   4  155.34    8.36
  -3  -5   3   93.90    6.49
  -3  -5   3  106.60    6.62
  -3  -5   3  101.12    6.59
  -3  -5   2  174.03    8.22
   3   5  -2  190.56   19.03
  -3  -5   2  166.29    8.07
   3   5  -1   -0.39    2.80
  -3  -5   1   -2.14    1.11
  -3  -5   1    0.33    1.18
   3   5   0    2.22    4.22
  -3  -5   0   -0.50    0.96
  -3  -5   0   -0.80    0.67
   3   5   1   35.17    6.92
  -3  -5  -1   53.83    4.63
  -3  -5  -1   45.75    3.98
  -3  -5  -1   42.85    3.66
  -3  -5  -2  126.35    6.65
  -3  -5  -2  134.15    6.76
  -3  -5  -2  122.75    6.58
  -3  -5  -3    0.21    0.74
  -3  -5  -3    1.67    0.74
  -3  -5  -4   -1.12    1.33
  -3  -5  -4    0.62    1.11
  -3  -5  -4   -0.78    0.91
  -3  -5  -5    2.26    0.87
  -3  -5  -5    1.97    1.07
  -3  -5  -6    2.84    2.57
  -3  -5  -6    4.29    1.51
  -3  -5  -6    2.77    1.16
  -3  -5  -6    2.28    1.23
  -3  -5  -7  109.92    6.75
  -3  -5  -7  103.97    6.48
  -3  -5  -7  102.15   13.10
  -3  -5  -7   94.75    5.84
  -3  -5  -7   93.16    5.72
  -3  -5  -8  331.31   11.59
  -3  -5  -8  328.58   11.93
  -3  -5  -8  328.26   23.61
  -3  -5  -8  313.00   11.09
  -3  -5  -8  321.31   10.92
  -3  -5  -9  691.40   16.37
  -3  -5  -9  706.74   17.68
  -3  -5  -9  664.42   16.55
  -3  -5  -9  708.00   16.47
  -3  -5 -10    5.32    1.59
  -3  -5 -10    3.98    1.55
  -3  -5 -10    3.74    1.30
  -3  -5 -11    3.91    1.17
  -3  -5 -11    2.77    1.33
  -3  -5 -11    4.71    1.55
  -3  -5 -12    2.16    1.05
  -3  -5 -12    2.42    1.09
  -3  -5 -12    1.50    0.82
  -3  -5 -13   -0.28    0.71
  -3  -5 -14    3.49    0.83
  -2  -5   9   75.02    3.85
   2   5  -8   -0.10    0.47
  -2  -5   8    1.12    0.62
  -2  -5   7    0.01    0.86
  -2  -5   7   -0.85    1.01
  -2  -5   6   51.76    4.29
  -2  -5   6   50.78    4.35
  -2  -5   6   54.27    5.00
  -2  -5   5   45.90    4.29
  -2  -5   5   47.47    4.79
  -2  -5   4  494.09   14.01
  -2  -5   4  499.04   14.88
  -2  -5   3  215.01   18.28
  -2  -5   3  233.68    9.53
   2   5  -3  229.58   20.71
  -2  -5   3  243.67   10.04
  -2  -5   2  198.38    9.13
  -2  -5   2  199.07    8.54
   2   5  -2  213.06   18.70
  -2  -5   2  203.26    8.64
  -2  -5   1   -0.23    0.75
  -2  -5   1    1.53    0.95
  -2  -5   1   -0.01    0.88
  -2  -5   0  161.47    7.58
   2   5   0  142.20   13.41
  -2  -5  -1   10.00    3.01
   2   5   1   10.01    2.93
  -2  -5  -2  180.30   12.44
  -2  -5  -3  543.56   21.80
  -2  -5  -3  553.52   22.77
  -2  -5  -4    9.74    3.29
  -2  -5  -4    5.32    2.38
  -2  -5  -5   89.25    9.52
  -2  -5  -5   97.57    5.90
  -2  -5  -5  101.11   10.97
  -2  -5  -6   14.22    4.85
  -2  -5  -6    8.43    1.76
  -2  -5  -6    8.73    3.30
  -2  -5  -6    8.89    1.73
  -2  -5  -7   71.67    5.37
  -2  -5  -7   56.36    8.50
  -2  -5  -7   66.17    4.91
  -2  -5  -7   58.00    9.38
  -2  -5  -7   63.47    4.66
  -2  -5  -8  238.30   18.70
  -2  -5  -8  250.11   10.29
  -2  -5  -8  247.89    9.53
  -2  -5  -8  262.14   20.63
  -2  -5  -8  239.73    9.49
  -2  -5  -9   46.24    4.57
  -2  -5  -9   34.83    3.84
  -2  -5 -10   33.20    3.85
  -2  -5 -10   33.34    3.89
  -2  -5 -11  181.65    8.42
  -2  -5 -11  170.34    8.36
  -2  -5 -12   67.26    4.63
  -2  -5 -12   62.52    4.76
  -2  -5 -13   62.48    4.29
  -2  -5 -14   31.15    2.44
  -1  -5   9   22.88    2.53
  -1  -5   8    4.78    1.48
  -1  -5   8    1.67    0.72
  -1  -5   7   18.66    2.56
  -1  -5   7   23.63    3.38
  -1  -5   6   28.58    3.30
  -1  -5   6   26.44    3.67
  -1  -5   5    0.76    0.91
  -1  -5   5    1.45    1.05
   1   5  -4   81.15   11.71
  -1  -5   4   74.56    5.61
  -1  -5   4   81.78   11.63
  -1  -5   4   74.78    5.26
  -1  -5   4   90.50    6.24
  -1  -5   3   16.99    2.76
  -1  -5   3   15.82    4.92
   1   5  -3   14.83    5.15
  -1  -5   3   14.35    2.22
  -1  -5   3   18.16    2.83
  -1  -5   2    2.97    1.12
  -1  -5   2   -0.27    2.00
  -1  -5   2    2.48    0.90
   1   5  -2    1.65    2.50
  -1  -5   2    1.75    1.01
  -1  -5   1  523.46   25.98
   1   5  -1  552.40   26.26
   1   5   0  141.29   11.45
   1   5   0  125.49   11.63
   1   5   1  160.93   11.98
   1   5   1  163.54   10.99
  -1  -5  -2  289.20   16.34
  -1  -5  -2  283.82   14.68
  -1  -5  -3  436.04   20.26
  -1  -5  -3  445.14   20.09
  -1  -5  -4  153.65   12.38
  -1  -5  -4  158.95   12.73
  -1  -5  -5   93.19   10.09
  -1  -5  -5   99.63   10.81
  -1  -5  -6    0.91    1.87
  -1  -5  -6    2.18    1.14
  -1  -5  -6    1.62    1.48
  -1  -5  -6    1.25    0.81
  -1  -5  -7    8.80    4.06
  -1  -5  -7    5.96    1.68
  -1  -5  -7    3.02    3.21
  -1  -5  -7    2.15    1.31
  -1  -5  -7    4.36    1.36
  -1  -5  -8   98.18    6.58
  -1  -5  -8  108.80   13.16
  -1  -5  -8   95.59   12.55
  -1  -5  -8   94.92    5.96
  -1  -5  -9    8.18    2.04
  -1  -5  -9    6.64    1.96
  -1  -5 -10   37.91    4.06
  -1  -5 -10   40.07    4.10
  -1  -5 -11  228.88    9.28
  -1  -5 -11  233.92    9.69
  -1  -5 -12    4.73    1.21
  -1  -5 -12    4.14    1.62
  -1  -5 -13   74.58    4.48
  -1  -5 -14   -0.01    0.36
   0  -5  10   30.69    2.53
   0  -5   9   -0.64    0.70
   0  -5   8    4.72    1.53
   0  -5   8    6.50    1.47
   0  -5   7    0.67    1.18
   0  -5   7    1.88    0.80
   0  -5   7    2.81    1.02
   0  -5   6   -0.21    1.02
   0  -5   6    2.33    1.05
   0  -5   5   29.58    3.45
   0   5  -5   36.45    8.34
   0  -5   5   17.48    5.26
   0  -5   5   24.57    3.12
   0   5  -5   33.31    8.30
   0  -5   5   30.52    3.81
   0  -5   4   53.00    4.63
   0  -5   4   47.36    8.99
   0   5  -4   60.68   10.01
   0   5  -4   60.70   10.01
   0  -5   4   54.18    4.37
   0  -5   4   58.51    5.09
   0   5  -3  584.34   29.22
   0  -5   3  549.70   14.12
   0  -5   3  520.80   27.83
   0   5  -3  579.10   28.08
   0  -5   3  585.01   14.79
   0   5  -2  785.33   31.78
   0  -5   2  740.64   31.39
   0   5  -2  745.22   30.09
   0   5  -1   99.39   10.53
   0  -5   1   89.08   10.27
   0   5  -1   99.88   10.03
   0  -5   0   17.56    4.58
   0   5   0   29.61    5.09
   0   5   1   -0.54    0.97
   0  -5  -1    1.42    1.27
   0  -5  -2  359.65   18.78
   0  -5  -2  362.04   17.57
   0  -5  -3   46.85    6.80
   0  -5  -3   45.67    6.69
   0  -5  -4  580.97   24.95
   0  -5  -4  566.92   25.48
   0  -5  -5  166.34   13.75
   0  -5  -5  184.84   15.38
   0  -5  -6  278.99   18.98
   0  -5  -6  286.90   10.48
   0  -5  -6  273.82    9.45
   0  -5  -6  278.20   19.96
   0  -5  -7   -1.42    1.20
   0  -5  -7   -4.00    2.76
   0  -5  -7    2.41    2.10
   0  -5  -8   -1.74    1.54
   0  -5  -8    0.84    1.10
   0  -5  -8    1.38    2.04
   0  -5  -8   -1.20    0.79
   0  -5  -9   34.04    4.02
   0  -5  -9   30.79    3.42
   0  -5 -10  280.07   10.87
   0  -5 -10  258.59   10.34
   0  -5 -11    6.15    1.63
   0  -5 -11    3.96    1.40
   0  -5 -12   39.59    3.57
   0  -5 -13    0.72    0.55
   1  -5  10    0.33    0.49
   1  -5  10   -0.35    0.49
   1  -5   9    0.31    0.86
   1  -5   9    0.58    0.71
   1  -5   8   75.21    5.65
   1  -5   7   15.35    2.97
  -1   5  -7   17.29    2.38
   1  -5   6   16.48    2.76
   1  -5   5   13.94    2.57
   1  -5   5   10.12    5.04
  -1   5  -5   10.64    3.88
   1  -5   5   10.65    1.92
   1  -5   4  186.21    8.15
  -1   5  -4  202.08   17.51
   1  -5   4  192.23    7.83
   1  -5   4  193.95    8.95
   1  -5   4  199.04   18.18
   1  -5   3   14.17    2.34
   1  -5   3    8.66    3.97
   1  -5   3   13.59    2.28
  -1   5  -3   11.97    4.14
   1  -5   2  151.03   13.97
  -1   5  -2  179.68   14.37
   1  -5   1  427.20   22.06
  -1   5  -1  443.44   21.12
   1  -5   0    4.49    2.89
  -1   5   0    0.06    1.12
  -1   5   1   49.10    6.47
   1  -5  -2   67.39    8.29
  -1   5   2   70.74    7.04
   1  -5  -3   24.41    5.19
   1  -5  -4  205.96   15.32
   1  -5  -4  217.56   16.96
   1  -5  -5  250.11   17.79
   1  -5  -5  253.08    9.05
   1  -5  -5  257.35   19.25
   1  -5  -6  138.54   13.89
   1  -5  -6  132.31    6.60
   1  -5  -6  145.22   15.30
   1  -5  -7    0.81    2.46
  -1   5   7    1.09    0.82
   1  -5  -7    1.82    4.31
   1  -5  -8   14.09    2.59
  -1   5   8   14.17    2.37
   1  -5  -8    8.05    1.72
   1  -5  -9   30.99    3.86
  -1   5   9   32.23    3.47
   1  -5  -9   31.93    3.63
   1  -5 -10    0.03    0.88
  -1   5  10    0.67    0.63
   1  -5 -10   -1.58    0.79
   1  -5 -11   43.59    3.56
  -1   5  11   39.85    3.48
   1  -5 -11   44.09    3.87
   1  -5 -12    1.13    0.81
   2  -5  10    5.58    1.21
   2  -5  10    4.80    1.15
  -2   5  -9   41.25    3.38
  -2   5  -9   38.60    3.09
   2  -5   9   38.99    3.71
   2  -5   8   20.46    2.98
  -2   5  -8   15.90    2.36
  -2   5  -8   21.08    2.62
  -2   5  -7  296.85   10.23
  -2   5  -7  292.67   10.26
   2  -5   7  288.27   11.40
  -2   5  -6  164.13    7.60
  -2   5  -6  159.29    7.64
   2  -5   6  170.48    8.98
   2  -5   5   12.06    2.39
   2  -5   5    8.78    3.07
  -2   5  -5   12.70    4.31
   2  -5   4    6.00    1.80
   2  -5   4    6.41    2.66
  -2   5  -4    9.73    4.82
   2  -5   3    0.20    0.83
   2  -5   3    1.44    2.49
   2  -5   3    1.45    0.73
  -2   5  -3   -1.05    2.29
   2  -5   2    2.98    2.22
  -2   5  -2    3.97    1.92
   2  -5   1  125.59   11.80
  -2   5  -1  137.75   12.41
  -2   5   0  119.02   11.01
   2  -5  -1   40.20    6.62
  -2   5   1   37.55    5.88
   2  -5  -2  402.18   21.02
  -2   5   2  404.38   19.22
   2  -5  -3    3.13    1.72
   2  -5  -3    1.61    0.86
   2  -5  -4   34.39    3.56
   2  -5  -4   23.04    5.54
  -2   5   4   32.95    3.33
   2  -5  -5   86.77   10.94
   2  -5  -5   84.52    5.62
  -2   5   5   73.06    5.08
   2  -5  -6  153.66   15.50
   2  -5  -6  166.72    7.98
  -2   5   6  160.61    7.83
   2  -5  -6  154.82   17.29
   2  -5  -7   72.04    5.30
  -2   5   7   69.62    5.30
   2  -5  -8  199.98    8.55
  -2   5   8  174.60    8.54
   2  -5  -9   45.80    4.38
  -2   5   9   45.42    4.31
   2  -5 -10  109.95    6.10
  -2   5  10   99.97    5.90
   2  -5 -10   98.38    5.73
  -2   5  11    3.62    1.15
   2  -5 -11    4.06    1.14
   3  -5  11   13.11    1.53
  -3   5 -10  172.54    6.10
   3  -5  10  168.22    6.10
  -3   5  -9   53.09    3.90
  -3   5  -9   50.55    3.74
   3  -5   9   48.69    4.07
  -3   5  -8  352.26   10.92
  -3   5  -8  341.66   10.75
   3  -5   8  326.31   11.48
  -3   5  -7   35.02    3.69
  -3   5  -7   33.95    3.61
   3  -5   7   36.80    4.09
  -3   5  -6   52.80    4.57
  -3   5  -6   55.03    4.63
   3  -5   6   49.47    4.91
   3  -5   5  351.39   24.77
  -3   5  -5  367.07   12.03
  -3   5  -5  397.01   12.12
   3  -5   5  406.16   13.66
   3  -5   4   39.26    7.96
  -3   5  -4   38.37    3.87
  -3   5  -4   40.92    3.81
  -3   5  -4   53.63    9.43
   3  -5   4   43.86    4.36
   3  -5   3   20.13    5.71
  -3   5  -3   21.67    2.91
  -3   5  -3   21.82    5.85
   3  -5   2   72.32    8.90
   3  -5   2   72.81    4.99
  -3   5  -2   65.68    4.71
  -3   5  -2   64.53    9.34
   3  -5   1  448.66   12.45
  -3   5  -1  484.44   24.78
   3  -5   0   94.86   10.69
   3  -5   0  106.36    6.20
  -3   5   0   96.31    5.96
  -3   5   0  108.03   11.60
   3  -5  -1  217.61   15.98
   3  -5  -1  239.59    9.24
  -3   5   1  214.37    8.91
   3  -5  -2  237.66   16.89
   3  -5  -2  258.24    9.89
  -3   5   2  234.02    9.33
  -3   5   2  244.40   17.70
   3  -5  -3   18.40    2.66
   3  -5  -3   16.40    4.61
  -3   5   3   20.24    2.76
   3  -5  -4  143.94   13.56
   3  -5  -4  156.46    7.96
  -3   5   4  154.58    7.82
   3  -5  -5   21.92    3.08
   3  -5  -5   29.58    6.34
  -3   5   5   24.70    3.31
   3  -5  -6   -0.73    0.98
  -3   5   6    1.27    1.23
   3  -5  -7   35.20    3.80
  -3   5   7   30.54    3.70
   3  -5  -8    3.83    1.43
  -3   5   8    3.90    1.39
   3  -5  -9   11.22    2.03
  -3   5   9    7.80    1.73
  -3   5  10   14.28    2.09
  -3   5  11    2.56    0.75
  -4   5 -10    6.62    1.27
  -4   5 -10    9.03    1.39
   4  -5   9    5.50    1.41
  -4   5  -9    4.71    1.29
  -4   5  -9    4.03    1.01
  -4   5  -8   27.69    3.11
  -4   5  -8   29.16    3.21
   4  -5   8   28.10    3.21
  -4   5  -7   37.31    3.90
  -4   5  -7   39.56    4.00
   4  -5   7   36.64    3.98
  -4   5  -6  156.45    8.07
  -4   5  -6  158.04    7.85
   4  -5   6  161.14    8.57
   4  -5   5    5.32    1.80
  -4   5  -5    6.82    1.82
  -4   5  -5    4.35    1.30
  -4   5  -4   16.30    2.56
  -4   5  -4   17.74    2.61
  -4   5  -3   12.79    2.49
  -4   5  -3   11.36    1.89
  -4   5  -3   13.52    5.05
   4  -5   2  178.44    8.00
  -4   5  -2  179.28    8.52
  -4   5  -2  191.99    7.86
  -4   5  -2  190.58   17.39
   4  -5   1   82.44   10.02
   4  -5   1   80.82    5.54
  -4   5  -1   78.98    5.54
  -4   5  -1   86.04    5.03
  -4   5  -1   88.88   11.51
   4  -5   0  122.81   12.11
   4  -5   0  120.92    6.77
  -4   5   0  122.22    6.90
  -4   5   0  120.06    7.21
  -4   5   0  140.40   14.78
   4  -5  -1   77.92    5.59
  -4   5   1   67.29    5.44
  -4   5   1   75.25   11.33
   4  -5  -2   33.80    3.79
  -4   5   2   31.82    3.78
  -4   5   2   33.78    7.81
   4  -5  -3  382.12   12.82
  -4   5   3  358.44   12.63
   4  -5  -4    8.46    2.28
  -4   5   4    5.10    1.76
   4  -5  -5   78.99    6.06
  -4   5   5   80.21    6.07
   4  -5  -6  166.04    8.48
  -4   5   6  165.38    8.63
   4  -5  -7   16.60    2.60
  -4   5   7   28.94    3.46
   4  -5  -8   36.92    3.44
  -4   5   8   31.43    3.41
   4  -5  -9    1.49    0.85
   4  -5  -9    1.69    0.81
  -4   5   9    1.07    0.62
  -4   5  10    1.25    0.71
  -5   5 -10    1.44    0.61
  -5   5 -10    0.70    0.62
  -5   5  -9   20.79    2.32
  -5   5  -9   21.03    2.34
   5  -5   9   21.32    2.26
  -5   5  -8   54.12    4.21
  -5   5  -8   51.19    4.07
   5  -5   8   51.93    4.06
  -5   5  -7   76.93    5.41
  -5   5  -7   81.48    5.40
   5  -5   7   71.16    5.19
  -5   5  -6  122.43    7.17
  -5   5  -6  131.99    7.04
   5  -5   6  122.69    7.26
  -5   5  -5  160.51    8.39
  -5   5  -5  181.31    8.28
   5  -5   5  153.76    8.32
  -5   5  -4    2.24    1.42
  -5   5  -4    1.94    0.76
  -5   5  -3   39.84    4.21
  -5   5  -3   40.46    3.83
   5  -5   2   29.75    3.29
  -5   5  -2   31.90    3.76
  -5   5  -2   30.51    3.19
   5  -5   1    1.34    0.66
  -5   5  -1    0.96    0.83
   5  -5   0   56.43    4.85
  -5   5   0   53.04    4.84
   5  -5  -1   54.11    4.90
  -5   5   1   56.55    5.23
   5  -5  -2   17.08    2.79
  -5   5   2   15.41    2.75
   5  -5  -3  277.43   11.13
  -5   5   3  270.29   11.26
   5  -5  -4   -0.61    0.86
  -5   5   4   -0.81    0.94
   5  -5  -5   37.15    4.17
  -5   5   5   40.66    4.25
   5  -5  -6   -0.89    0.90
  -5   5   6   -1.13    1.14
   5  -5  -7   61.82    4.39
  -5   5   7   62.62    4.59
   5  -5  -8    6.26    1.17
   5  -5  -8    3.04    0.94
  -5   5   8    5.51    1.22
  -5   5   9   55.91    3.09
  -6   5  -9   24.25    2.23
  -6   5  -9   24.63    2.26
   6  -5   8    4.24    1.03
  -6   5  -8    4.53    1.25
  -6   5  -8    5.31    1.41
  -6   5  -7   52.32    4.19
  -6   5  -7   51.81    3.95
   6  -5   7   50.85    3.95
  -6   5  -6  497.54   13.70
  -6   5  -6  521.30   13.03
   6  -5   6  509.41   13.51
   6  -5   5   14.13    2.37
  -6   5  -5   21.10    2.61
  -6   5  -5   15.97    2.55
  -6   5  -4   16.70    2.80
  -6   5  -4   10.78    2.05
  -6   5  -3   33.09    3.85
  -6   5  -3   37.31    3.45
  -6   5  -2   32.32    3.84
   6  -5   1    3.97    1.23
  -6   5  -1    2.96    1.19
   6  -5   0  401.51   12.42
  -6   5   0  423.70   13.61
   6  -5  -1  137.21    7.53
  -6   5   1  152.53    8.07
   6  -5  -2  153.17    7.96
  -6   5   2  153.34    8.03
  -6   5   2  147.43    8.14
   6  -5  -3   21.71    3.10
  -6   5   3   20.73    3.09
   6  -5  -4    5.41    1.61
  -6   5   4    4.54    1.51
   6  -5  -5    7.57    1.62
  -6   5   5    5.45    1.41
   6  -5  -6   37.83    3.18
  -6   5   6   38.24    3.27
   6  -5  -7   -0.49    0.46
  -6   5   7   -0.21    0.45
  -7   5  -8   20.95    1.97
  -7   5  -8   20.09    1.86
   7  -5   7    9.22    1.32
  -7   5  -7    9.27    1.57
  -7   5  -7    8.24    1.33
  -7   5  -6   26.25    2.82
  -7   5  -6   27.68    2.57
   7  -5   6   26.52    2.66
   7  -5   5    0.02    0.80
  -7   5  -5    0.68    0.76
  -7   5  -5    0.95    0.63
  -7   5  -4   15.58    2.43
  -7   5  -3   44.94    4.07
  -7   5  -2    5.58    1.60
  -7   5  -1   -0.83    1.26
   7  -5   0   23.53    2.66
  -7   5   0   28.93    3.24
   7  -5  -1    0.97    0.82
  -7   5   1    0.93    0.79
   7  -5  -2    1.43    0.81
  -7   5   2    3.51    1.29
   7  -5  -3    3.13    0.96
  -7   5   3    4.54    1.28
   7  -5  -4    7.91    1.39
  -7   5   4    6.84    1.37
   7  -5  -5   32.67    2.42
  -7   5   5   28.56    2.21
  -8   5  -6   43.03    2.65
  -8   5  -5   30.69    2.51
  -8   5  -4   30.79    2.65
   8  -5   4   23.53    2.24
  -8   5  -3   18.61    2.16
  -8   5  -2   -0.60    0.63
  -8   5  -1    7.51    1.44
  -8   5   0    0.57    0.71
  -8   5   1    1.54    0.85
  -7  -6   0    3.43    0.76
  -7  -6  -1   88.41    4.28
  -7  -6  -2  171.10    6.38
  -7  -6  -3   11.42    1.79
  -7  -6  -4    4.44    1.24
  -7  -6  -5   15.97    2.25
  -7  -6  -5   16.37    2.00
  -7  -6  -6   16.62    1.92
  -7  -6  -6   13.93    2.13
  -7  -6  -7   40.06    3.51
  -7  -6  -8   63.80    4.29
  -7  -6  -9   30.84    2.41
  -7  -6 -10    0.29    0.49
  -6  -6   2    2.19    0.76
  -6  -6   1   11.18    1.71
  -6  -6   1   10.86    1.45
  -6  -6   0   63.20    4.43
  -6  -6  -1    2.43    1.25
  -6  -6  -2    5.53    1.36
  -6  -6  -3   45.88    4.12
  -6  -6  -3   42.54    3.81
  -6  -6  -4   21.62    2.84
  -6  -6  -4   18.64    2.70
  -6  -6  -5  146.65    7.26
  -6  -6  -5  144.85    6.96
  -6  -6  -5  142.97    7.55
  -6  -6  -6    1.54    1.17
  -6  -6  -6   -0.89    0.94
  -6  -6  -6    0.61    1.20
  -6  -6  -6   -0.16    0.64
  -6  -6  -7   18.36    2.79
  -6  -6  -7   16.99    2.78
  -6  -6  -7   19.94    2.52
  -6  -6  -8   10.65    2.19
  -6  -6  -8    9.06    1.99
  -6  -6  -8    8.49    1.67
  -6  -6  -9    0.12    0.90
  -6  -6  -9    0.29    0.68
  -6  -6  -9    0.20    0.79
  -6  -6 -10    4.34    1.19
  -6  -6 -10    5.30    1.36
  -6  -6 -10    5.47    1.22
  -6  -6 -11    6.60    1.38
  -6  -6 -11    5.51    1.13
  -6  -6 -12   57.29    3.22
  -5  -6   4    1.04    0.57
  -5  -6   3    0.64    0.57
  -5  -6   3    1.28    0.55
  -5  -6   2   11.03    1.96
  -5  -6   2   11.30    1.82
  -5  -6   1   21.43    2.92
  -5  -6   1   20.74    2.52
  -5  -6   0   35.77    3.87
  -5  -6   0   34.79    3.31
  -5  -6  -1    9.49    2.19
  -5  -6  -1   15.88    2.30
  -5  -6  -2  404.41   13.02
  -5  -6  -2  397.87   12.33
  -5  -6  -3   23.39    3.26
  -5  -6  -3   19.98    2.90
  -5  -6  -4  165.75    8.08
  -5  -6  -4  158.91    7.82
  -5  -6  -4  148.30    8.05
  -5  -6  -5    6.69    1.67
  -5  -6  -5    3.37    1.39
  -5  -6  -5    9.70    2.13
  -5  -6  -5    5.83    1.50
  -5  -6  -6   78.32    5.83
  -5  -6  -6   69.71    5.76
  -5  -6  -6   75.65    5.10
  -5  -6  -7   16.91    2.80
  -5  -6  -7   15.39    2.83
  -5  -6  -7   17.30    2.53
  -5  -6  -8    1.14    1.10
  -5  -6  -8   -0.53    0.93
  -5  -6  -8   -0.53    0.79
  -5  -6  -9    2.22    1.19
  -5  -6  -9    1.83    1.00
  -5  -6  -9    0.51    0.86
  -5  -6 -10    1.81    1.15
  -5  -6 -10    0.13    0.66
  -5  -6 -10    0.99    0.75
  -5  -6 -11    4.62    1.47
  -5  -6 -11    3.99    1.18
  -5  -6 -11    3.43    1.09
  -5  -6 -12   20.24    2.28
  -5  -6 -12   20.03    2.10
  -4  -6   5    9.30    1.53
  -4  -6   5    9.37    1.51
  -4  -6   4   16.04    2.15
  -4  -6   4   15.59    2.11
  -4  -6   4   16.36    2.22
  -4  -6   3    5.57    1.29
  -4  -6   3    4.71    1.37
  -4  -6   3    7.05    1.70
  -4  -6   2  301.98   11.08
  -4  -6   2  314.90   10.66
  -4  -6   2  309.39   10.27
  -4  -6   1    8.52    2.14
  -4  -6   1    5.78    1.61
  -4  -6   0   69.92    5.64
  -4  -6   0   76.56    5.38
  -4  -6  -1  161.37    8.42
  -4  -6  -1  164.24    7.85
  -4  -6  -1  162.01    7.58
  -4  -6  -2    1.61    0.80
  -4  -6  -2    2.42    1.32
  -4  -6  -2    2.80    1.25
  -4  -6  -3  227.76    9.57
  -4  -6  -3  227.38    9.99
  -4  -6  -3  236.52    8.68
  -4  -6  -4    9.13    2.18
  -4  -6  -4    5.70    1.72
  -4  -6  -4    6.54    1.77
  -4  -6  -5   64.26    5.26
  -4  -6  -5   67.42    4.86
  -4  -6  -5   66.97    5.58
  -4  -6  -6  474.99   14.55
  -4  -6  -6  490.84   15.09
  -4  -6  -7    9.82    2.36
  -4  -6  -7    8.17    2.22
  -4  -6  -7    4.88    1.38
  -4  -6  -8  337.22   12.56
  -4  -6  -8  342.90   12.36
  -4  -6  -8  344.59   11.04
  -4  -6  -9   -1.32    1.42
  -4  -6  -9   -0.40    1.00
  -4  -6  -9   -0.42    0.86
  -4  -6 -10   -0.72    0.79
  -4  -6 -10   -1.09    1.29
  -4  -6 -10   -0.76    0.79
  -4  -6 -11   15.03    2.48
  -4  -6 -11   15.66    2.22
  -4  -6 -12    2.93    1.03
  -4  -6 -12    3.38    1.01
  -4  -6 -13    7.97    1.24
  -4  -6 -13   11.96    1.51
  -3  -6   7   13.38    1.54
  -3  -6   6   13.39    1.94
  -3  -6   6   17.59    2.07
  -3  -6   5    1.79    1.01
  -3  -6   5    1.43    0.96
  -3  -6   5    1.41    0.98
  -3  -6   4   37.07    3.75
  -3  -6   4   39.91    3.79
  -3  -6   4   35.33    3.73
  -3  -6   3   26.37    3.54
  -3  -6   3   28.50    3.59
  -3  -6   3   26.89    3.50
  -3  -6   2    1.06    0.85
  -3  -6   2    1.95    1.10
  -3  -6   2    1.67    1.32
  -3  -6   1    6.81    1.81
  -3  -6   0  234.61   10.46
  -3  -6   0  230.51    9.49
  -3  -6  -1    7.98    2.12
  -3  -6  -1   10.16    2.13
  -3  -6  -1    8.28    1.89
  -3  -6  -2  289.03   10.94
  -3  -6  -2  291.45   10.79
  -3  -6  -2  282.81   10.80
  -3  -6  -2  286.29   10.13
  -3  -6  -3    0.23    0.74
  -3  -6  -3   -0.38    1.10
  -3  -6  -3    1.88    1.07
  -3  -6  -4   67.31    4.93
  -3  -6  -4   63.78    4.99
  -3  -6  -4   74.60    5.65
  -3  -6  -4   66.19    4.77
  -3  -6  -5   95.95    6.35
  -3  -6  -5   95.89    6.45
  -3  -6  -5  103.43   12.18
  -3  -6  -6  151.85    8.07
  -3  -6  -6  151.85    8.21
  -3  -6  -6  143.32   15.08
  -3  -6  -7  449.00   14.05
  -3  -6  -7  433.10   13.94
  -3  -6  -8   68.22    5.62
  -3  -6  -8   70.95    5.61
  -3  -6  -8   70.24    5.03
  -3  -6  -9   10.73    2.28
  -3  -6  -9    9.72    1.93
  -3  -6  -9    9.62    1.90
  -3  -6 -10   44.22    4.48
  -3  -6 -10   47.18    4.09
  -3  -6 -11    9.29    2.04
  -3  -6 -11   11.50    1.96
  -3  -6 -12   -0.21    0.81
  -3  -6 -12   -0.15    0.55
  -3  -6 -13   56.38    3.32
  -3  -6 -13   58.75    3.45
  -2  -6   8  168.63    5.50
  -2  -6   7  110.66    4.80
  -2  -6   7  122.29    5.83
  -2  -6   6    3.08    1.40
  -2  -6   6    0.21    0.72
  -2  -6   6    2.26    0.93
  -2  -6   5   15.15    2.52
  -2  -6   5   17.88    2.73
  -2  -6   5   12.74    2.25
  -2  -6   4   21.36    3.06
  -2  -6   4   20.71    3.17
  -2  -6   3  705.97   16.93
  -2  -6   3  672.93   17.01
  -2  -6   2  204.33    9.81
  -2  -6   2  214.98    9.40
  -2  -6   2  214.65    9.26
  -2  -6   1  105.12    6.94
  -2  -6   1  102.05    6.39
  -2  -6   1  100.62    6.09
   2   6  -1  108.00   13.39
  -2  -6   0    0.19    1.11
   2   6   0    3.01    2.13
  -2  -6   0   -1.34    1.27
  -2  -6   0    0.22    1.16
  -2  -6  -1    5.36    1.61
  -2  -6  -1    3.97    1.38
  -2  -6  -2   24.24    3.11
  -2  -6  -2   26.55    5.49
  -2  -6  -2   23.66    3.12
  -2  -6  -3   17.43    2.67
  -2  -6  -3   11.63    3.67
  -2  -6  -3   15.70    2.53
  -2  -6  -4    8.33    3.50
  -2  -6  -4   11.28    2.11
  -2  -6  -4   11.67    2.20
  -2  -6  -4   10.08    3.36
  -2  -6  -4   15.42    2.49
  -2  -6  -5   14.44    4.20
  -2  -6  -5   22.37    3.05
  -2  -6  -5   14.99    4.46
  -2  -6  -5   24.90    3.24
  -2  -6  -6   76.16   10.02
  -2  -6  -6   87.54    6.09
  -2  -6  -6   84.87    5.99
  -2  -6  -6   78.32   10.90
  -2  -6  -7  650.98   30.84
  -2  -6  -7  649.47   16.93
  -2  -6  -7  646.09   16.43
  -2  -6  -7  669.45   33.13
  -2  -6  -8  103.25    6.51
  -2  -6  -8  107.82    7.08
  -2  -6  -9   32.78    3.84
  -2  -6  -9   32.51    3.55
  -2  -6  -9   34.17    3.54
  -2  -6 -10  134.11    7.69
  -2  -6 -10  124.97    6.70
  -2  -6 -11   -0.29    0.79
  -2  -6 -11    1.28    1.02
  -2  -6 -12   46.52    3.77
  -2  -6 -12   45.85    3.57
  -2  -6 -13   38.60    2.66
  -2  -6 -13   41.24    2.88
  -1  -6   8   88.82    4.78
  -1  -6   7    2.30    1.17
  -1  -6   7    0.46    0.65
  -1  -6   7    2.77    1.00
  -1  -6   6   23.16    2.80
  -1  -6   6   22.98    3.36
  -1  -6   5   33.77    3.49
  -1  -6   5   36.41    4.14
  -1  -6   4    2.33    1.48
  -1  -6   4    0.56    0.93
  -1  -6   3   75.08    5.86
  -1  -6   3   79.03    5.64
  -1  -6   3   79.67    5.84
   1   6  -2 1083.15   42.55
  -1  -6   2 1109.74   22.09
   1   6  -2 1084.13   40.45
  -1  -6   2 1050.10   20.59
  -1  -6   2 1077.72   20.72
  -1  -6   1   34.31    3.91
   1   6  -1   25.82    5.96
  -1  -6   1   27.43    3.16
   1   6  -1   24.11    5.71
   1   6   0  124.33   12.93
  -1  -6   0  128.14    7.30
  -1  -6   0  128.85    6.84
  -1  -6  -1  201.82   15.68
  -1  -6  -1  193.98    8.82
  -1  -6  -1  187.27    8.36
  -1  -6  -2   18.43    2.72
  -1  -6  -2   15.95    2.50
  -1  -6  -3  216.61   16.19
  -1  -6  -3  220.00    8.94
  -1  -6  -3  220.49    8.56
  -1  -6  -3  225.20    9.26
  -1  -6  -4   47.00    7.18
  -1  -6  -4   55.31    8.44
  -1  -6  -4   58.65    4.56
  -1  -6  -4   50.71    4.26
  -1  -6  -4   55.28    4.75
  -1  -6  -5  245.05   18.09
  -1  -6  -5  236.39    8.96
  -1  -6  -5  247.66    9.88
  -1  -6  -5  252.49   10.07
  -1  -6  -5  237.76   18.00
  -1  -6  -6  110.22   12.68
  -1  -6  -6  117.46    7.09
  -1  -6  -6  114.18    6.84
  -1  -6  -6  111.66   13.26
  -1  -6  -7    5.49    2.46
  -1  -6  -7    5.23    1.66
  -1  -6  -7    0.49    1.32
  -1  -6  -7    1.77    1.16
  -1  -6  -8  306.99   12.05
  -1  -6  -8  350.70   11.56
  -1  -6  -9   52.38    4.92
  -1  -6 -10   15.31    2.86
  -1  -6 -10   14.64    2.32
  -1  -6 -11    5.93    1.73
  -1  -6 -11    3.68    1.10
  -1  -6 -12    8.86    1.61
  -1  -6 -12    8.83    1.63
  -1  -6 -13   25.16    2.11
   0  -6   9   16.39    1.87
   0  -6   8   48.39    3.87
   0  -6   7   11.93    2.31
   0   6  -6   63.53    4.44
   0  -6   6   62.54    4.43
   0  -6   6   72.02    5.74
   0  -6   5   48.18    4.23
   0  -6   5   53.60    5.02
   0  -6   4  150.18    7.91
   0  -6   4  148.63    7.46
   0  -6   4  155.11    8.48
   0  -6   3  278.91   10.89
   0  -6   3  286.04   22.22
   0   6  -3  276.03   20.93
   0  -6   3  277.70   10.33
   0  -6   3  294.30   11.41
   0  -6   2   98.07    6.35
   0  -6   2  106.80   13.54
   0   6  -2   76.23   10.48
   0  -6   2   98.49    6.24
   0  -6   1  149.91    7.88
   0   6  -1  161.68   14.26
   0  -6   1  146.76    7.20
   0  -6   0   11.54    2.05
   0  -6   0   14.23    2.48
   0   6   0   14.48    4.16
   0  -6  -1    4.10    2.11
   0  -6  -1    3.99    1.38
   0  -6  -2   -1.53    2.03
   0  -6  -2    4.81    1.53
   0  -6  -3   89.83   10.75
   0  -6  -3  102.42    6.11
   0  -6  -3   88.27    5.48
   0  -6  -3   91.53   10.19
   0  -6  -4   33.23    3.54
   0  -6  -4   38.18    3.84
   0  -6  -4   35.55    6.96
   0  -6  -4   38.15    3.95
   0  -6  -4   34.31    6.82
   0  -6  -5  299.54   20.57
   0  -6  -5  285.34   10.22
   0  -6  -5  292.78   10.93
   0  -6  -5  308.68   11.04
   0  -6  -5  285.52   20.43
   0  -6  -6    2.18    0.96
   0  -6  -6    2.21    1.19
   0  -6  -6    2.40    2.78
   0  -6  -6    0.90    1.06
   0  -6  -6    3.03    3.42
   0  -6  -7  252.90   20.56
   0  -6  -7  252.52   10.79
   0  -6  -7  247.85    9.83
   0  -6  -7  263.45   21.50
   0  -6  -8   20.27    3.20
   0  -6  -9  148.28    8.37
   0  -6 -10  116.19    7.02
   0  -6 -11    1.29    1.12
   0  -6 -11    1.21    1.03
   0  -6 -12   19.64    2.14
   0  -6 -12   17.19    1.90
   1  -6   9    2.78    0.96
   1  -6   8   -0.97    1.16
   1  -6   7    5.80    1.58
  -1   6  -7    8.06    1.64
   1  -6   6   20.33    3.08
  -1   6  -6   20.97    2.70
   1  -6   5    0.87    1.29
   1  -6   5    0.87    0.63
   1  -6   4   23.56    3.28
   1  -6   4   23.16    3.13
   1  -6   4   24.57    2.99
   1  -6   3   20.03    3.05
   1  -6   3   18.27    2.90
   1  -6   3   14.13    4.87
  -1   6  -3   14.77    5.13
   1  -6   2   37.89    3.91
   1  -6   2   36.67    7.72
  -1   6  -2   34.70    7.31
   1  -6   2   36.51    3.90
   1  -6   1    1.04    0.95
   1  -6   1    1.34    1.99
   1  -6   1   -0.10    0.88
  -1   6  -1    3.50    2.78
   1  -6   0   17.62    2.48
   1  -6   0   22.50    3.07
  -1   6   0   22.09    5.46
   1  -6  -1   34.51    3.73
   1  -6  -1   39.20    7.20
   1  -6  -2   23.69    3.10
   1  -6  -2   30.77    6.89
   1  -6  -2   17.75    5.33
   1  -6  -3  121.01   12.58
   1  -6  -3  126.18    6.98
   1  -6  -3  129.18   13.25
   1  -6  -4   24.01    3.13
   1  -6  -4   26.75    6.27
   1  -6  -4   17.14    5.06
   1  -6  -5  113.74   13.18
   1  -6  -5  129.99    7.12
   1  -6  -5  118.30   14.09
   1  -6  -6  261.97   20.48
   1  -6  -6  265.23   10.07
   1  -6  -6  262.56   10.22
   1  -6  -6  291.76   22.94
   1  -6  -7  114.84    6.59
   1  -6  -7  107.23    7.23
   1  -6  -8   70.53    5.86
   1  -6  -9    0.16    1.33
   1  -6 -10    0.90    0.98
   1  -6 -11   52.51    3.93
   2  -6   9    4.45    1.12
   2  -6   9    5.84    1.17
  -2   6  -8   92.36    4.83
   2  -6   8   90.52    5.56
  -2   6  -7  167.96    7.32
   2  -6   7  164.95    8.30
   2  -6   6    7.99    2.15
  -2   6  -6    8.61    1.88
   2  -6   5    0.10    1.12
  -2   6  -5   -0.28    0.66
   2  -6   4   30.01    3.88
   2  -6   3  168.51    8.10
   2  -6   3  171.95   16.73
  -2   6  -3  155.95   15.71
   2  -6   3  168.42    8.71
   2  -6   2  140.40    7.41
   2  -6   2  129.07   14.04
  -2   6  -2  144.80   14.75
   2  -6   2  145.43    7.77
   2  -6   1   15.62    2.40
  -2   6  -1   19.72    5.55
   2  -6   0  313.08   21.11
   2  -6   0  316.52   11.25
  -2   6   0  315.84   19.79
   2  -6  -1  145.99   14.34
   2  -6  -1  150.31    7.76
   2  -6  -2  399.45   23.48
   2  -6  -2  416.79   12.89
   2  -6  -3  214.19   17.52
   2  -6  -3  212.78    9.25
   2  -6  -3  207.06   18.00
   2  -6  -4   55.86    4.81
   2  -6  -4   47.87    8.33
  -2   6   4   50.42    4.31
   2  -6  -4   61.82   10.41
   2  -6  -5    1.02    0.81
   2  -6  -5   -1.20    2.68
  -2   6   5    0.36    0.85
   2  -6  -5    3.77    3.59
   2  -6  -6    0.84    0.93
  -2   6   6    0.59    0.89
   2  -6  -7   21.38    2.97
  -2   6   7   23.30    3.06
   2  -6  -8   19.06    2.72
   2  -6  -8   15.68    2.97
  -2   6   8   19.21    2.78
   2  -6  -9    8.55    2.11
  -2   6   9   10.96    1.96
   2  -6 -10   20.64    2.65
   2  -6 -11    2.82    0.85
  -3   6  -9   13.86    1.61
   3  -6   9   14.92    1.94
  -3   6  -8   87.03    4.82
   3  -6   8   83.65    5.18
   3  -6   7    2.51    1.37
  -3   6  -7   -0.19    0.74
  -3   6  -6   37.35    3.73
   3  -6   6   36.98    4.09
  -3   6  -5   56.72    4.64
   3  -6   5   62.43    5.39
  -3   6  -4  132.04    7.08
   3  -6   4  128.49    7.66
   3  -6   3   21.09    3.15
   3  -6   3   23.21    3.06
  -3   6  -3   22.17    2.97
   3  -6   2    6.13    1.59
  -3   6  -2    8.79    3.70
   3  -6   1   17.53    4.34
   3  -6   1   11.94    2.34
  -3   6  -1   15.16    4.34
   3  -6   0   10.19    2.64
   3  -6   0   10.88    2.14
  -3   6   0   17.67    5.64
   3  -6  -1    2.46    2.76
   3  -6  -1    1.50    1.18
   3  -6  -2   22.47    3.06
   3  -6  -2   21.32    5.53
  -3   6   2   21.03    2.85
   3  -6  -3   20.25    3.02
   3  -6  -3   15.86    4.35
  -3   6   3   20.59    2.89
   3  -6  -4  422.29   13.65
  -3   6   4  388.64   12.81
   3  -6  -5  800.09   19.06
  -3   6   5  794.75   18.34
   3  -6  -6   -0.43    0.76
  -3   6   6    0.10    1.03
   3  -6  -7   41.78    4.05
  -3   6   7   43.05    4.22
   3  -6  -8   55.64    4.28
   3  -6  -8   52.20    4.77
  -3   6   8   51.21    4.36
   3  -6  -9   -0.28    0.76
  -3   6   9    2.34    1.11
   3  -6 -10   23.40    2.26
  -3   6  10   20.79    2.10
   4  -6   9    1.87    0.80
  -4   6  -9    1.67    0.65
  -4   6  -8  118.70    5.00
  -4   6  -8  121.38    5.60
   4  -6   8  123.54    5.88
  -4   6  -7   53.45    3.85
  -4   6  -7   55.10    4.20
   4  -6   7   55.11    4.49
  -4   6  -6   76.27    4.94
  -4   6  -6   73.43    5.06
   4  -6   6   68.89    5.36
  -4   6  -5  322.53   10.79
  -4   6  -5  341.29   11.31
   4  -6   5  338.32   12.52
   4  -6   4    0.52    1.09
  -4   6  -4    0.59    1.05
  -4   6  -4    0.16    0.82
  -4   6  -3  186.44    8.47
  -4   6  -3  196.50    8.38
   4  -6   2    2.62    1.26
  -4   6  -2    1.29    1.06
  -4   6  -2    0.91    0.76
   4  -6   1    1.54    1.06
  -4   6  -1    1.77    1.17
  -4   6  -1    0.68    0.66
   4  -6   0   45.92    4.51
  -4   6   0   50.81    4.40
   4  -6  -1   12.16    2.25
  -4   6   1    6.97    1.55
   4  -6  -2    6.73    1.97
  -4   6   2    8.83    2.06
  -4   6   2    6.77    1.97
   4  -6  -3   55.59    5.08
  -4   6   3   47.53    4.71
   4  -6  -4  164.97    8.65
  -4   6   4  159.33    8.44
   4  -6  -5   86.16    6.11
  -4   6   5   87.78    6.25
   4  -6  -6    7.29    1.77
  -4   6   6    6.34    1.62
   4  -6  -7   -0.40    0.63
  -4   6   7    1.88    1.10
   4  -6  -8   37.70    3.19
   4  -6  -8   36.64    3.41
  -4   6   8   31.21    3.07
   4  -6  -9   71.98    3.91
  -4   6   9   73.85    3.99
  -5   6  -9    6.95    1.07
   5  -6   8    1.12    0.60
  -5   6  -8    1.73    0.74
  -5   6  -8    0.28    0.44
   5  -6   7    5.04    1.45
  -5   6  -7    6.91    1.49
  -5   6  -7    5.36    1.34
   5  -6   6   10.31    1.98
  -5   6  -6   10.93    1.94
  -5   6  -6   11.14    1.97
   5  -6   5    3.60    1.49
  -5   6  -5    3.39    1.30
  -5   6  -5    2.81    0.88
   5  -6   4   16.86    2.70
  -5   6  -4   16.16    2.60
  -5   6  -4   13.32    2.12
  -5   6  -3    1.64    1.01
  -5   6  -3    0.05    0.58
   5  -6   2   -0.71    1.00
  -5   6  -2    0.62    1.12
  -5   6  -2   -0.75    0.67
   5  -6   1   21.06    2.83
  -5   6  -1   24.39    3.27
   5  -6   0    7.86    2.00
  -5   6   0    5.97    1.73
   5  -6  -1  143.68    7.77
  -5   6   1  152.35    7.79
   5  -6  -2  309.47   11.57
  -5   6   2  319.44   11.23
  -5   6   2  303.07   11.73
   5  -6  -3   28.20    3.70
  -5   6   3   22.66    2.99
  -5   6   3   26.64    3.50
   5  -6  -4  129.69    7.25
  -5   6   4  128.63    7.33
   5  -6  -5   -0.29    1.21
  -5   6   5   -0.36    1.00
   5  -6  -6    1.93    0.97
  -5   6   6    1.39    1.08
   5  -6  -7    1.75    0.83
   5  -6  -7    4.67    1.27
  -5   6   7    3.80    1.09
   5  -6  -8    7.28    1.18
  -5   6   8    7.16    1.18
  -6   6  -8    0.50    0.37
  -6   6  -7   55.71    3.36
  -6   6  -7   59.97    3.53
   6  -6   7   59.52    3.59
   6  -6   6   10.50    1.73
  -6   6  -6   13.59    1.91
  -6   6  -6   12.80    1.77
  -6   6  -5   50.31    3.91
  -6   6  -5   52.20    3.70
   6  -6   5   51.01    4.15
   6  -6   4   12.97    2.24
  -6   6  -4   14.36    2.04
  -6   6  -4   11.05    1.92
  -6   6  -3   17.85    2.69
  -6   6  -3   15.29    2.01
  -6   6  -2   54.19    4.48
   6  -6   1  191.78    7.79
  -6   6  -1  202.97    8.66
   6  -6   0   44.49    3.90
  -6   6   0   46.55    4.16
   6  -6  -1  285.48   10.08
  -6   6   1  299.06   10.29
   6  -6  -2    1.08    0.84
  -6   6   2    2.07    0.85
   6  -6  -3   76.83    5.13
  -6   6   3   81.70    5.07
   6  -6  -4    1.24    0.79
  -6   6   4    2.10    0.99
   6  -6  -5   18.33    2.28
  -6   6   5   17.75    2.10
   6  -6  -6    1.33    0.60
  -7   6  -6   19.18    1.81
   7  -6   6   13.08    1.48
   7  -6   5    9.07    1.47
  -7   6  -5   10.51    1.59
   7  -6   4    1.04    0.77
  -7   6  -4    2.06    0.86
  -7   6  -3   21.42    2.41
   7  -6   3   20.22    2.61
  -7   6  -2   -1.01    0.93
  -7   6  -1  133.76    6.07
   7  -6   0    6.81    1.26
  -7   6   0    5.70    1.39
   7  -6  -1    6.43    1.20
  -7   6   1    7.49    1.49
   7  -6  -2    0.35    0.61
  -7   6   2    0.32    0.48
   7  -6  -3   43.96    2.93
  -7   6   3   39.36    2.76
  -6  -7   0   24.25    2.15
  -6  -7  -1   20.85    2.22
  -6  -7  -2    5.79    1.29
  -6  -7  -3   -0.09    0.72
  -6  -7  -4   12.02    1.89
  -6  -7  -4   13.55    2.05
  -6  -7  -5    1.85    0.86
  -6  -7  -5    1.69    0.73
  -6  -7  -6   -0.32    0.95
  -6  -7  -7    7.56    1.46
  -6  -7  -7    4.66    1.43
  -6  -7  -8    3.55    1.24
  -6  -7  -8    2.22    0.91
  -6  -7  -9   32.80    2.90
  -6  -7  -9   29.49    2.80
  -6  -7 -10    3.92    1.03
  -6  -7 -10    4.60    0.97
  -6  -7 -11    4.66    0.97
  -5  -7   2    0.10    0.47
  -5  -7   2    3.29    0.83
  -5  -7   1   25.20    2.61
  -5  -7   1   28.23    2.48
  -5  -7   0   -1.48    1.01
  -5  -7   0   -0.18    0.59
  -5  -7  -1   -0.42    1.06
  -5  -7  -1   -0.35    0.48
  -5  -7  -2   23.83    2.92
  -5  -7  -3    3.40    1.44
  -5  -7  -3    3.01    1.18
  -5  -7  -4   31.04    3.20
  -5  -7  -4   25.49    3.21
  -5  -7  -5   90.27    5.50
  -5  -7  -5   89.21    5.18
  -5  -7  -5   87.33    5.96
  -5  -7  -6   11.79    2.15
  -5  -7  -6   13.40    2.44
  -5  -7  -7   17.90    2.61
  -5  -7  -7   11.60    2.35
  -5  -7  -8   10.95    2.12
  -5  -7  -8   11.10    2.16
  -5  -7  -9   51.58    4.24
  -5  -7  -9   46.81    3.95
  -5  -7 -10   57.72    4.22
  -5  -7 -10   51.49    3.80
  -5  -7 -11    1.53    0.88
  -5  -7 -11   -0.41    0.67
  -5  -7 -12   63.51    3.34
  -4  -7   4   70.93    3.55
  -4  -7   3   33.62    2.90
  -4  -7   3   36.47    2.97
  -4  -7   2  120.50    6.21
  -4  -7   2  124.60    5.89
  -4  -7   1   11.10    2.23
  -4  -7   1    9.54    1.88
  -4  -7   0  195.87    8.80
  -4  -7   0  191.84    8.04
  -4  -7  -1   51.64    4.61
  -4  -7  -1   46.88    4.02
  -4  -7  -2  178.39    8.45
  -4  -7  -2  173.55    8.18
  -4  -7  -2  178.02    7.67
  -4  -7  -3    2.65    1.26
  -4  -7  -3    1.77    1.30
  -4  -7  -3    2.33    1.00
  -4  -7  -4    5.14    1.74
  -4  -7  -4    6.20    1.71
  -4  -7  -5    4.74    1.19
  -4  -7  -5    7.82    2.22
  -4  -7  -6    4.46    1.68
  -4  -7  -6    2.20    1.08
  -4  -7  -7  365.78   12.32
  -4  -7  -7  382.17   12.98
  -4  -7  -8  168.55    8.36
  -4  -7  -8  156.65    8.01
  -4  -7  -9   62.44    4.99
  -4  -7  -9   63.22    4.83
  -4  -7 -10    6.51    1.61
  -4  -7 -10    5.33    1.40
  -4  -7 -11    6.04    1.55
  -4  -7 -12    1.35    0.72
  -3  -7   5  111.38    4.34
  -3  -7   5  124.91    4.92
  -3  -7   5  114.19    4.70
  -3  -7   4  120.47    5.73
  -3  -7   4  129.90    5.80
  -3  -7   4  119.73    5.53
  -3  -7   3   13.95    2.13
  -3  -7   3   17.03    2.50
  -3  -7   3   18.38    2.48
  -3  -7   2   49.80    4.46
  -3  -7   2   48.58    4.21
  -3  -7   2   43.80    3.65
  -3  -7   1   16.26    2.89
  -3  -7   1   15.60    2.53
  -3  -7   0   -0.71    1.04
  -3  -7   0    2.14    1.36
  -3  -7  -1   17.76    3.04
  -3  -7  -1   19.96    2.85
  -3  -7  -1   17.43    2.91
  -3  -7  -1   16.29    2.67
  -3  -7  -2   14.74    2.81
  -3  -7  -2   13.62    2.47
  -3  -7  -2   14.18    2.43
  -3  -7  -2   12.55    2.26
  -3  -7  -3   15.94    2.63
  -3  -7  -3   17.58    2.89
  -3  -7  -3   18.92    2.78
  -3  -7  -3   17.13    2.50
  -3  -7  -4    8.49    1.93
  -3  -7  -4    8.92    2.00
  -3  -7  -4    5.57    1.61
  -3  -7  -5    7.20    1.75
  -3  -7  -5    6.08    1.88
  -3  -7  -6    6.22    1.67
  -3  -7  -6    3.29    1.51
  -3  -7  -7   56.04    5.00
  -3  -7  -7   57.42    5.01
  -3  -7  -8  430.62   13.69
  -3  -7  -8  395.31   13.01
  -3  -7  -9   14.90    2.66
  -3  -7  -9   12.10    2.24
  -3  -7 -10   13.37    2.38
  -3  -7 -10   12.27    2.02
  -3  -7 -11   12.03    2.05
  -3  -7 -12    2.34    0.92
  -2  -7   6   33.01    2.30
  -2  -7   6   41.90    2.72
  -2  -7   6   40.90    3.01
  -2  -7   5    2.47    0.82
  -2  -7   5    4.96    1.24
  -2  -7   5    3.64    1.01
  -2  -7   4   -1.49    0.98
  -2  -7   4    1.31    1.19
  -2  -7   4   -0.44    0.71
  -2  -7   3    0.20    0.67
  -2  -7   3    0.93    0.81
  -2  -7   2   33.11    3.76
  -2  -7   2   35.73    3.75
  -2  -7   1    9.82    2.34
  -2  -7   1   10.64    2.20
  -2  -7   0   -1.26    1.29
  -2  -7   0    0.65    1.15
  -2  -7   0   -0.59    1.11
  -2  -7  -1   -1.41    1.14
  -2  -7  -1    0.06    0.73
  -2  -7  -2    8.88    2.27
  -2  -7  -2   10.18    2.15
  -2  -7  -3   94.30    6.33
  -2  -7  -3   89.69    6.44
  -2  -7  -4   20.41    2.89
  -2  -7  -4   19.79    2.72
  -2  -7  -4   22.36    3.25
  -2  -7  -5   18.87    2.82
  -2  -7  -5   19.55    2.91
  -2  -7  -5   18.60    2.98
  -2  -7  -6   15.32    2.71
  -2  -7  -6   14.12    2.65
  -2  -7  -7   -0.74    1.12
  -2  -7  -7   -0.40    0.92
  -2  -7  -8   11.57    2.48
  -2  -7  -8   10.78    2.31
  -2  -7  -9   17.80    3.00
  -2  -7  -9    9.52    1.90
  -2  -7 -10    4.71    1.72
  -2  -7 -11   23.82    2.92
  -2  -7 -12   12.09    1.88
  -1  -7   7   77.40    4.03
  -1  -7   6   12.90    2.00
  -1  -7   6   14.09    1.91
  -1  -7   6   13.66    1.77
  -1  -7   5   15.15    2.15
  -1  -7   5   17.30    2.65
  -1  -7   4   -0.13    0.97
  -1  -7   4   -0.18    0.70
  -1  -7   3  551.47   15.52
  -1  -7   3  566.78   14.86
  -1  -7   3  562.33   15.01
  -1  -7   2  216.71   10.09
  -1  -7   2  220.64    9.49
  -1  -7   2  223.61    9.42
  -1  -7   1   19.08    3.11
  -1  -7   1   16.00    2.73
  -1  -7   1   19.82    2.84
  -1  -7   0   27.07    3.71
  -1  -7   0   19.24    2.80
  -1  -7  -1   14.82    2.83
  -1  -7  -1   19.67    5.33
  -1  -7  -1   14.78    2.67
  -1  -7  -2   16.92    2.86
  -1  -7  -2   16.65    4.96
  -1  -7  -2   13.00    2.47
  -1  -7  -3   51.48    4.67
  -1  -7  -3   59.13    9.49
  -1  -7  -3   47.51    4.63
  -1  -7  -4  157.94   15.39
  -1  -7  -4  165.82    8.25
  -1  -7  -4  151.78    7.72
  -1  -7  -4  161.93    8.64
  -1  -7  -5   88.97    5.91
  -1  -7  -5   92.21    6.24
  -1  -7  -5   90.82    6.46
  -1  -7  -6    1.61    0.90
  -1  -7  -6    1.53    1.10
  -1  -7  -6    1.50    1.18
  -1  -7  -7  290.35   11.56
  -1  -7  -7  302.56   11.44
  -1  -7  -8  144.96    8.25
  -1  -7  -8  150.65    7.79
  -1  -7  -9    8.40    2.41
  -1  -7 -10    5.81    1.62
  -1  -7 -11    1.10    0.87
  -1  -7 -12   30.71    2.68
   0  -7   8    2.52    0.71
   0  -7   7   18.45    1.97
   0  -7   7   21.76    2.42
   0  -7   6    0.29    0.72
   0   7  -6    0.84    0.48
   0  -7   6    1.07    0.53
   0  -7   5    4.61    1.61
   0  -7   5    7.64    1.62
   0  -7   4   34.28    3.71
   0  -7   4   35.30    3.54
   0  -7   4   37.57    4.11
   0  -7   3   25.62    3.41
   0  -7   3   22.92    3.02
   0  -7   3   24.41    3.28
   0  -7   2    7.92    2.05
   0  -7   2    6.90    2.04
   0  -7   2    7.25    1.87
   0  -7   1   65.81    5.52
   0  -7   1   67.01    5.14
   0  -7   1   64.18    5.01
   0  -7   0    2.00    1.15
   0  -7   0    6.13    1.76
   0  -7  -1   11.40    3.18
   0  -7  -1   16.79    2.83
   0  -7  -1   15.94    2.73
   0  -7  -2   34.22    3.94
   0  -7  -2   24.97    6.31
   0  -7  -2   33.72    3.99
   0  -7  -3  657.83   32.10
   0  -7  -3  631.87   16.55
   0  -7  -3  571.79   14.50
   0  -7  -3  606.64   16.54
   0  -7  -4   -0.10    0.95
   0  -7  -4    2.36    1.02
   0  -7  -4    1.03    1.11
   0  -7  -5  137.70    7.49
   0  -7  -5  135.59    7.66
   0  -7  -5  139.34    8.01
   0  -7  -6    7.12    1.73
   0  -7  -6    8.14    2.13
   0  -7  -6    5.23    1.57
   0  -7  -7  190.75    9.45
   0  -7  -7  185.48    8.85
   0  -7  -8  160.47    8.73
   0  -7  -8  163.69    7.79
   0  -7  -9   11.63    2.34
   0  -7 -10    4.27    1.47
   0  -7 -11    1.40    0.72
   0  -7 -12   35.40    2.57
   1  -7   8   33.48    2.62
  -1   7  -7   39.02    2.81
   1  -7   7   32.93    3.13
   1  -7   6    9.54    1.97
  -1   7  -6   10.31    1.75
   1  -7   5    4.75    1.73
  -1   7  -5    4.85    1.34
   1  -7   5    8.63    1.70
   1  -7   4   14.06    2.63
   1  -7   4   15.33    2.51
   1  -7   4   15.12    2.28
   1  -7   3   48.04    4.53
   1  -7   3   47.91    4.23
   1  -7   3   41.45    4.25
   1  -7   2   82.22    6.06
   1  -7   2   83.65    5.97
   1  -7   1    7.69    1.88
   1  -7   1   11.28    2.38
   1  -7   0   53.57    4.97
   1  -7   0   58.12    4.68
   1  -7  -1    8.66    3.90
   1  -7  -1    2.81    1.69
   1  -7  -2   75.62   11.15
   1  -7  -2   76.03    5.90
   1  -7  -3   91.73   12.15
   1  -7  -3   87.14    6.19
   1  -7  -3   84.92    5.79
   1  -7  -4  130.30    7.56
   1  -7  -4  135.68    7.67
   1  -7  -5    0.79    0.94
   1  -7  -5    1.83    1.33
   1  -7  -5    0.92    1.36
   1  -7  -6   32.50    3.60
   1  -7  -6   27.60    3.72
   1  -7  -6   27.19    3.51
   1  -7  -7   49.89    4.31
   1  -7  -7   50.22    4.95
   1  -7  -7   47.89    4.37
   1  -7  -8  112.41    7.28
   1  -7  -9    0.91    1.04
   1  -7 -10    0.88    0.68
   1  -7 -11    4.71    1.12
   2  -7   8    1.21    0.67
   2  -7   7    1.16    0.76
  -2   7  -7    3.09    0.98
   2  -7   6   10.43    2.03
  -2   7  -6    9.40    1.77
   2  -7   5    3.10    1.35
  -2   7  -5    2.79    1.20
   2  -7   4    2.12    1.20
   2  -7   4    1.44    0.89
  -2   7  -4    3.14    1.55
   2  -7   3    5.42    1.71
   2  -7   3    7.49    1.85
   2  -7   2   46.11    4.44
   2  -7   2   38.84    4.13
   2  -7   1   -0.16    0.77
   2  -7   1    0.76    1.17
   2  -7   0   53.93    4.83
   2  -7   0   56.73    4.82
   2  -7  -1  141.28    8.12
   2  -7  -1  144.12    7.35
   2  -7  -2    1.32    1.01
   2  -7  -3  395.95   13.36
   2  -7  -4  113.50    7.16
   2  -7  -5   38.24    4.13
   2  -7  -6   -0.69    0.93
   2  -7  -6   -1.07    1.21
   2  -7  -6   -0.20    0.68
   2  -7  -7   97.95    6.03
   2  -7  -7   96.27    6.85
   2  -7  -8   -0.52    0.72
   2  -7  -8   -1.67    1.02
   2  -7  -9    4.32    1.48
   2  -7 -10   15.86    2.16
   3  -7   8    4.52    0.97
  -3   7  -8    2.88    0.73
  -3   7  -7   14.55    1.85
   3  -7   7   15.29    2.13
   3  -7   6    2.09    1.17
  -3   7  -6    0.23    0.77
   3  -7   5    1.19    0.94
  -3   7  -5    0.41    0.89
   3  -7   4    3.09    1.29
  -3   7  -4    3.88    1.52
   3  -7   3  181.36    8.14
  -3   7  -3  183.81    8.15
   3  -7   3  181.29    8.88
   3  -7   2   47.08    4.46
  -3   7  -2   46.97    4.10
   3  -7   2   42.46    4.39
   3  -7   1  273.60   10.85
  -3   7  -1  287.96    9.90
   3  -7   1  281.96   11.06
   3  -7   0   10.44    2.29
  -3   7   0   11.84    2.07
   3  -7  -1   17.18    2.99
   3  -7  -2   13.28    2.59
   3  -7  -3   54.61    5.02
   3  -7  -4    3.99    1.68
  -3   7   4    4.06    1.33
   3  -7  -5    0.85    1.13
  -3   7   5    0.93    1.02
   3  -7  -6   11.53    2.28
  -3   7   6   14.33    2.23
   3  -7  -7    1.16    0.85
   3  -7  -7   -0.20    0.87
  -3   7   7    1.51    0.85
   3  -7  -8    7.34    1.38
   3  -7  -8    8.86    1.96
   3  -7  -9    3.27    1.07
  -4   7  -8  271.37    6.31
  -4   7  -7   91.72    4.45
   4  -7   7   90.97    4.72
   4  -7   6   14.05    2.21
  -4   7  -6   15.23    2.14
   4  -7   5    0.63    0.84
  -4   7  -5    0.20    0.82
  -4   7  -4  126.47    6.40
   4  -7   4  137.17    7.38
   4  -7   3   10.55    2.44
  -4   7  -3    4.30    1.29
   4  -7   2    0.16    1.35
   4  -7   2    1.00    1.00
  -4   7  -2    0.46    0.54
   4  -7   1   -0.23    0.67
  -4   7  -1   -0.34    0.68
   4  -7   0   24.44    3.37
   4  -7  -1   -0.06    1.09
   4  -7  -2   44.30    4.40
   4  -7  -3  144.56    8.03
   4  -7  -4  203.47    9.32
   4  -7  -5    7.82    1.83
  -4   7   5    4.98    1.42
   4  -7  -6   -0.63    1.02
  -4   7   6   -0.29    0.62
   4  -7  -7    4.72    1.20
   4  -7  -7    5.48    1.40
  -4   7   7    2.76    0.87
   4  -7  -8    0.50    0.51
   4  -7  -8    0.95    0.73
  -4   7   8   -0.04    0.59
  -5   7  -7  150.92    5.06
   5  -7   7  138.19    5.03
  -5   7  -6  199.57    6.58
   5  -7   6  197.05    7.02
  -5   7  -5   58.67    3.83
   5  -7   5   71.49    4.77
   5  -7   4    2.91    1.09
  -5   7  -4    2.03    0.70
  -5   7  -3   43.89    3.42
   5  -7   3   42.15    4.13
   5  -7   2   15.20    2.40
  -5   7  -2   17.22    2.10
   5  -7   1   47.04    3.94
   5  -7   0  187.10    8.15
   5  -7  -1   43.58    4.03
   5  -7  -2   42.10    3.99
   5  -7  -3   44.60    4.10
   5  -7  -4    0.44    0.95
   5  -7  -5    4.33    1.08
   5  -7  -6   11.21    1.73
   5  -7  -6    9.09    1.61
   5  -7  -7    2.29    0.72
   5  -7  -7    1.06    0.63
   6  -7   6   -0.07    0.43
   6  -7   5   -0.47    0.50
  -6   7  -5    0.47    0.33
   6  -7   4    8.70    1.60
  -6   7  -4    8.11    1.19
   6  -7   3    0.29    0.71
  -6   7  -3   -0.20    0.61
   6  -7   2    0.31    0.68
  -6   7  -2    0.87    0.52
  -6   7  -1  122.88    5.44
   6  -7   0   69.33    4.22
  -6   7   0   74.67    4.23
   6  -7  -1   27.54    2.83
  -6   7   1   23.15    2.30
   6  -7  -2    6.52    1.42
  -6   7   2    6.56    1.28
   6  -7  -3   12.27    1.80
   6  -7  -4   70.99    3.94
   6  -7  -5    0.83    0.48
   6  -7  -5    2.24    0.71
   7  -7   3   20.69    1.95
   7  -7   2    4.77    1.06
   7  -7   1   14.44    1.72
   7  -7   0    9.68    1.37
  -6  -8  -6    0.68    0.44
  -6  -8  -7    3.14    0.87
  -6  -8  -8   18.26    1.82
  -5  -8   0    5.61    1.01
  -5  -8  -1   30.14    2.54
  -5  -8  -2    6.49    1.27
  -5  -8  -3   16.96    1.98
  -5  -8  -4    4.72    1.23
  -5  -8  -4    2.61    0.95
  -5  -8  -5    3.31    1.09
  -5  -8  -6   25.11    2.78
  -5  -8  -7   12.28    1.81
  -5  -8  -7   11.69    1.89
  -5  -8  -8   84.99    4.47
  -5  -8  -8   82.86    4.78
  -5  -8  -9    0.83    0.52
  -5  -8  -9    0.84    0.56
  -5  -8 -10    1.06    0.63
  -5  -8 -10    0.87    0.50
  -4  -8   2   25.58    2.17
  -4  -8   2   26.37    2.08
  -4  -8   1   33.29    2.81
  -4  -8   1   30.23    2.47
  -4  -8   0    5.24    1.30
  -4  -8   0    4.80    1.14
  -4  -8  -1  109.14    5.77
  -4  -8  -1  102.93    5.08
  -4  -8  -2   53.68    4.13
  -4  -8  -2   49.84    3.72
  -4  -8  -2   54.74    3.77
  -4  -8  -3   60.40    4.35
  -4  -8  -3   52.08    4.11
  -4  -8  -3   66.70    4.07
  -4  -8  -4   46.63    3.65
  -4  -8  -4   40.69    3.82
  -4  -8  -5   10.89    2.17
  -4  -8  -6   56.80    4.13
  -4  -8  -6   51.97    4.45
  -4  -8  -7   18.60    2.49
  -4  -8  -7   22.77    2.96
  -4  -8  -8   12.45    2.05
  -4  -8  -8   10.82    2.00
  -4  -8  -9    4.05    1.18
  -4  -8  -9    3.27    1.12
  -4  -8 -10    3.08    1.01
  -4  -8 -10   -0.31    0.50
  -4  -8 -11   11.15    1.56
  -3  -8   3  190.47    6.37
  -3  -8   3  194.03    6.15
  -3  -8   2   49.52    3.74
  -3  -8   2   47.36    3.49
  -3  -8   1    9.51    1.88
  -3  -8   1    8.03    1.59
  -3  -8   0  139.94    7.03
  -3  -8   0  138.64    6.66
  -3  -8  -1    7.92    1.80
  -3  -8  -1    9.58    1.88
  -3  -8  -2   14.54    2.37
  -3  -8  -2   16.22    2.50
  -3  -8  -2   12.70    2.11
  -3  -8  -3  198.57    8.73
  -3  -8  -3  219.81    8.69
  -3  -8  -3  213.37    9.19
  -3  -8  -3  215.18    8.37
  -3  -8  -4    0.85    0.83
  -3  -8  -4    0.07    1.13
  -3  -8  -4   -0.69    0.78
  -3  -8  -5   81.87    5.33
  -3  -8  -5   80.65    5.99
  -3  -8  -5   85.61    4.98
  -3  -8  -6    0.96    0.68
  -3  -8  -6   -0.81    0.90
  -3  -8  -7  164.67    7.71
  -3  -8  -7  181.55    8.53
  -3  -8  -8  286.82   10.11
  -3  -8  -8  295.80   10.43
  -3  -8  -9   15.58    2.36
  -3  -8  -9   18.12    2.40
  -3  -8 -10    6.62    1.46
  -3  -8 -10    3.30    0.97
  -3  -8 -11   22.20    2.34
  -2  -8   4   85.51    4.32
  -2  -8   4   84.49    4.08
  -2  -8   4   78.76    3.72
  -2  -8   3   63.57    4.39
  -2  -8   3   69.22    4.27
  -2  -8   3   60.63    3.65
  -2  -8   2  203.98    8.42
  -2  -8   2  190.24    7.72
  -2  -8   1   12.37    2.19
  -2  -8   0   52.00    4.98
  -2  -8   0   48.94    4.29
  -2  -8  -1    8.88    2.21
  -2  -8  -1    9.97    2.02
  -2  -8  -1    7.05    1.81
  -2  -8  -2  165.22    8.49
  -2  -8  -2  168.51    7.96
  -2  -8  -2  155.07    7.93
  -2  -8  -2  160.96    7.77
  -2  -8  -3   13.45    2.66
  -2  -8  -3   18.08    2.71
  -2  -8  -3   16.06    2.64
  -2  -8  -4  257.13   10.13
  -2  -8  -4  268.30   11.01
  -2  -8  -5   17.44    2.51
  -2  -8  -5   16.65    2.52
  -2  -8  -5   24.60    3.56
  -2  -8  -6  149.67    7.61
  -2  -8  -6  155.42    8.35
  -2  -8  -7   68.36    5.15
  -2  -8  -7   84.22    5.98
  -2  -8  -8   13.68    2.44
  -2  -8  -8   15.05    2.37
  -2  -8  -9    3.44    1.26
  -2  -8  -9    5.56    1.40
  -2  -8 -10    6.26    1.64
  -2  -8 -11    1.53    0.70
  -2  -8 -12   22.62    1.97
  -1  -8   5    5.98    1.13
  -1  -8   5    6.11    1.20
  -1  -8   5    6.79    1.12
  -1  -8   4  139.22    5.76
  -1  -8   4  132.50    5.77
  -1  -8   3    0.78    0.60
  -1  -8   3    0.26    0.64
  -1  -8   2   10.81    1.96
  -1  -8   2    5.42    1.65
  -1  -8   2    8.33    1.82
  -1  -8   1   97.11    6.70
  -1  -8   1  100.55    6.14
  -1  -8   0   33.65    4.10
  -1  -8   0   30.01    3.42
  -1  -8   0   33.59    3.79
  -1  -8  -1  157.86    8.51
  -1  -8  -1  151.50    7.92
  -1  -8  -2   28.65    3.59
  -1  -8  -2   26.79    3.42
  -1  -8  -3    3.87    1.49
  -1  -8  -3    3.76    1.59
  -1  -8  -4  219.73    9.58
  -1  -8  -4  220.21   10.22
  -1  -8  -5    8.75    1.96
  -1  -8  -5    6.57    1.68
  -1  -8  -5    5.32    1.83
  -1  -8  -6   29.51    3.30
  -1  -8  -6   27.81    3.33
  -1  -8  -6   21.11    3.36
  -1  -8  -7   61.04    5.06
  -1  -8  -7   63.42    5.24
  -1  -8  -8   16.88    2.64
  -1  -8  -8   18.29    2.62
  -1  -8  -9    1.12    0.98
  -1  -8  -9    0.86    0.61
  -1  -8 -10    4.33    1.27
  -1  -8 -11    2.02    0.78
   0  -8   6   40.34    2.59
   0  -8   6   39.94    2.72
   0   8  -5   28.83    2.43
   0  -8   5   27.33    2.21
   0  -8   5   31.68    2.83
   0  -8   4    5.40    1.47
   0  -8   4    3.64    0.93
   0  -8   3   42.52    3.88
   0  -8   3   44.31    3.77
   0  -8   3   44.07    3.84
   0  -8   2  235.95    9.78
   0  -8   2  215.54    8.69
   0  -8   2  243.08    9.08
   0  -8   1    0.81    0.71
   0  -8   1    2.54    1.24
   0  -8   1    1.43    0.87
   0  -8   1    1.57    1.10
   0  -8   0    9.79    2.27
   0  -8   0    8.28    1.80
   0  -8  -1   13.75    2.77
   0  -8  -1   10.84    2.37
   0  -8  -2   34.80    4.06
   0  -8  -2   37.61    4.26
   0  -8  -3    7.56    2.16
   0  -8  -3    7.55    1.81
   0  -8  -4   61.61    5.16
   0  -8  -4   65.52    4.97
   0  -8  -4   58.74    5.39
   0  -8  -5  158.38    8.09
   0  -8  -5  152.66    7.83
   0  -8  -5  159.72    8.53
   0  -8  -6    0.08    0.71
   0  -8  -6    1.70    1.04
   0  -8  -6    0.09    1.00
   0  -8  -7    9.28    1.87
   0  -8  -7    9.42    2.07
   0  -8  -7    5.58    1.53
   0  -8  -8   31.52    3.63
   0  -8  -8   33.65    3.37
   0  -8  -9   17.92    2.63
   0  -8 -10   14.77    2.02
   0  -8 -11   -1.34    0.55
  -1   8  -6   58.54    3.11
   1  -8   6   65.32    3.73
  -1   8  -5   54.56    3.60
   1  -8   5   50.76    3.73
   1  -8   4   15.88    2.26
  -1   8  -4   17.06    2.28
   1  -8   4   16.84    2.00
   1  -8   3  320.42   10.58
   1  -8   3  325.52    9.85
   1  -8   3  312.47   10.47
   1  -8   2    7.30    1.81
   1  -8   2    5.86    1.66
   1  -8   2    4.62    1.13
   1  -8   1   41.91    4.30
   1  -8   1   37.78    3.86
   1  -8   1   40.04    3.88
   1  -8   0    3.57    1.47
   1  -8   0    7.68    2.05
   1  -8   0    5.70    1.65
   1  -8  -1   57.75    5.23
   1  -8  -1   51.95    4.89
   1  -8  -2   21.67    3.14
   1  -8  -2   23.08    3.42
   1  -8  -3   25.52    3.51
   1  -8  -3   25.74    3.66
   1  -8  -4   42.51    4.36
   1  -8  -4   46.53    4.25
   1  -8  -4   47.00    4.80
   1  -8  -5   16.30    2.76
   1  -8  -5   17.34    2.73
   1  -8  -5   14.82    2.77
   1  -8  -6   11.58    2.12
   1  -8  -6   11.56    2.44
   1  -8  -6    8.32    2.06
   1  -8  -7   -0.09    0.56
   1  -8  -7    0.54    0.96
   1  -8  -7    0.90    1.00
   1  -8  -8   18.32    2.67
   1  -8  -9   42.70    3.76
   1  -8 -10    2.31    0.95
   2  -8   6    6.00    1.26
  -2   8  -6    5.59    1.12
  -2   8  -5   17.60    2.13
   2  -8   5   19.15    2.35
   2  -8   4   10.02    1.96
  -2   8  -4    9.97    1.75
   2  -8   3   10.51    1.96
   2  -8   3   11.21    2.02
  -2   8  -3    9.27    1.78
   2  -8   3    9.24    1.67
   2  -8   2  280.07   10.27
   2  -8   2  266.91    9.71
   2  -8   2  280.25   10.13
   2  -8   1    3.02    1.37
   2  -8   1    8.29    2.02
   2  -8   0   25.69    3.41
   2  -8   0   23.70    2.98
   2  -8  -1   46.49    4.53
   2  -8  -2   65.48    5.45
   2  -8  -3    5.30    1.75
   2  -8  -3    4.85    1.43
   2  -8  -4   28.40    3.58
   2  -8  -4   26.80    3.30
   2  -8  -4   27.82    3.83
   2  -8  -5  254.71   10.21
   2  -8  -5  242.24    9.89
   2  -8  -5  254.96   10.16
   2  -8  -6   36.20    3.66
   2  -8  -6   43.14    4.18
   2  -8  -6   49.15    4.13
   2  -8  -7   14.00    2.17
   2  -8  -7   11.03    2.09
   2  -8  -8   48.99    3.34
   2  -8  -8   57.75    4.41
   2  -8  -9    2.45    0.97
   2  -8 -10    2.76    0.76
   3  -8   6   11.24    1.56
  -3   8  -6    9.81    1.38
   3  -8   5    3.73    1.05
  -3   8  -5    6.28    1.32
  -3   8  -4   34.39    3.08
   3  -8   4   35.25    3.32
   3  -8   3   56.35    3.94
  -3   8  -3   57.33    4.16
   3  -8   3   48.88    3.76
   3  -8   3   57.27    4.50
   3  -8   2    6.50    1.66
  -3   8  -2    6.80    1.45
   3  -8   1  107.40    6.28
  -3   8  -1  119.82    6.03
   3  -8   1  111.64    6.32
   3  -8   0   24.67    3.29
  -3   8   0   23.91    2.64
   3  -8   0   24.03    3.01
   3  -8  -1    1.12    0.92
   3  -8  -1    0.30    0.92
   3  -8  -2   66.47    5.50
   3  -8  -3  260.98   10.38
   3  -8  -3  274.38    9.80
   3  -8  -4  298.06   10.87
   3  -8  -4  282.41   10.18
   3  -8  -4  291.63   10.73
   3  -8  -5   30.83    3.40
   3  -8  -5   34.59    3.59
   3  -8  -5   33.00    3.35
   3  -8  -6   12.00    1.96
   3  -8  -6   15.12    2.35
   3  -8  -6   15.24    2.03
   3  -8  -7    2.69    0.85
   3  -8  -7    5.48    1.36
   3  -8  -8    4.09    0.91
   3  -8  -8    4.95    1.26
   3  -8  -9    2.84    0.78
  -4   8  -6   85.62    3.59
   4  -8   6   78.07    3.67
  -4   8  -5   37.55    2.71
   4  -8   5   39.05    3.05
  -4   8  -4   52.69    3.45
   4  -8   4   45.40    3.51
   4  -8   3    2.63    1.09
  -4   8  -3    0.57    0.62
   4  -8   2    5.47    1.44
   4  -8   2    7.10    1.43
  -4   8  -2    6.08    1.25
   4  -8   1   -0.32    0.84
   4  -8   1    0.24    0.57
  -4   8  -1    1.62    0.66
   4  -8   0    5.54    1.52
   4  -8   0    3.62    1.36
   4  -8  -1    1.39    0.84
   4  -8  -1    3.55    1.33
   4  -8  -2   12.55    2.24
   4  -8  -2   17.56    2.35
   4  -8  -3   14.62    2.40
   4  -8  -3   15.72    2.32
   4  -8  -4    0.29    0.79
   4  -8  -4    0.99    0.79
   4  -8  -4    0.01    0.72
   4  -8  -5   35.32    3.26
   4  -8  -5   37.83    3.39
   4  -8  -5   34.56    2.92
   4  -8  -6   37.17    3.03
   4  -8  -6   40.20    3.27
   4  -8  -7   10.78    1.41
   4  -8  -7   11.80    1.64
   5  -8   5    2.18    0.65
  -5   8  -4   23.32    1.89
   5  -8   4   25.66    2.35
  -5   8  -3   45.78    2.71
   5  -8   3   51.75    3.62
   5  -8   2   36.32    3.14
   5  -8   1    3.98    1.15
   5  -8   1    2.54    0.76
   5  -8   0    7.93    1.59
   5  -8   0    7.55    1.43
   5  -8  -1   -0.42    0.52
   5  -8  -1    0.24    0.65
   5  -8  -2   11.92    1.72
   5  -8  -2   14.01    1.99
   5  -8  -3   29.04    2.78
   5  -8  -3   28.16    2.54
   5  -8  -4    0.42    0.54
   5  -8  -4    0.85    0.63
   5  -8  -5    7.87    1.27
   5  -8  -5    7.36    1.22
   6  -8   2  116.35    4.51
   6  -8   1    2.76    0.79
   6  -8   0    0.39    0.43
  -4  -9  -1    1.44    0.56
  -4  -9  -2   35.88    2.46
  -4  -9  -3    4.40    0.94
  -4  -9  -4   13.28    1.77
  -4  -9  -5    1.08    0.68
  -4  -9  -6   53.44    3.69
  -4  -9  -7   50.50    3.50
  -4  -9  -8  110.51    4.83
  -3  -9   1   17.42    1.74
  -3  -9   1   19.12    1.75
  -3  -9   0    2.12    0.78
  -3  -9   0    2.39    0.80
  -3  -9  -1    0.27    0.59
  -3  -9  -1   -0.57    0.71
  -3  -9  -2   -1.18    0.97
  -3  -9  -2    1.71    0.81
  -3  -9  -2    0.12    0.62
  -3  -9  -3   21.13    2.18
  -3  -9  -3   18.89    2.34
  -3  -9  -3   20.16    2.15
  -3  -9  -4    7.71    1.57
  -3  -9  -4    7.79    1.33
  -3  -9  -5   23.03    2.69
  -3  -9  -5   27.58    2.36
  -3  -9  -6   64.43    4.53
  -3  -9  -7   -0.02    0.60
  -3  -9  -7    1.90    0.92
  -3  -9  -8    1.38    0.64
  -3  -9  -8    2.16    0.99
  -3  -9  -9   16.74    1.85
  -3  -9  -9   14.59    1.77
  -2  -9   2    2.93    0.87
  -2  -9   2    1.99    0.71
  -2  -9   1    1.13    0.67
  -2  -9   1    0.81    0.53
  -2  -9   0   11.29    1.74
  -2  -9   0    9.88    1.68
  -2  -9  -1   22.97    2.59
  -2  -9  -1   24.30    2.69
  -2  -9  -2    1.98    0.97
  -2  -9  -2    1.92    0.91
  -2  -9  -2    2.37    1.06
  -2  -9  -2    1.86    0.97
  -2  -9  -3   23.14    2.83
  -2  -9  -3   27.27    3.06
  -2  -9  -3   26.01    2.78
  -2  -9  -4   15.38    2.26
  -2  -9  -4   11.31    2.14
  -2  -9  -4   15.80    2.21
  -2  -9  -5   22.50    2.59
  -2  -9  -5   18.98    2.63
  -2  -9  -5   22.93    2.53
  -2  -9  -6    4.67    1.55
  -2  -9  -7   20.66    2.35
  -2  -9  -7   24.79    2.87
  -2  -9  -8   14.88    1.99
  -2  -9  -8   16.55    2.21
  -2  -9  -9    7.52    1.39
  -2  -9  -9    6.62    1.24
  -2  -9 -10   -1.13    0.68
  -1  -9   3   39.62    2.82
   1   9  -3   35.19    2.36
  -1  -9   3   37.52    2.47
  -1  -9   2    2.57    0.90
  -1  -9   2    3.07    0.94
  -1  -9   1   17.27    2.18
  -1  -9   0    0.37    0.82
  -1  -9   0    0.00    0.78
  -1  -9  -1    0.31    0.74
  -1  -9  -1   -0.42    0.74
  -1  -9  -1    0.07    0.86
  -1  -9  -2   74.47    5.33
  -1  -9  -2   80.07    4.79
  -1  -9  -2   70.96    4.97
  -1  -9  -2   82.54    5.25
  -1  -9  -3   37.38    3.71
  -1  -9  -3   31.47    3.51
  -1  -9  -4    1.32    0.66
  -1  -9  -4    0.86    1.60
  -1  -9  -5    5.45    1.49
  -1  -9  -5    4.97    1.54
  -1  -9  -6    4.50    1.26
  -1  -9  -6    1.88    0.80
  -1  -9  -6    2.42    1.10
  -1  -9  -7   38.49    3.31
  -1  -9  -7   43.17    3.75
  -1  -9  -8   72.03    4.50
  -1  -9  -8   70.32    4.37
  -1  -9  -9   17.90    2.09
  -1  -9  -9   16.86    1.79
  -1  -9 -10   58.82    3.38
   0  -9   4    7.20    1.18
   0   9  -3   20.33    2.10
   0  -9   3   17.50    1.78
   0  -9   2    0.15    0.53
   0  -9   1    4.78    1.23
   0  -9   1    5.64    1.39
   0  -9   0    1.56    1.02
   0  -9   0   -0.27    0.62
   0  -9   0    0.44    0.74
   0  -9  -1   -0.42    0.92
   0  -9  -1    0.79    1.02
   0  -9  -2  226.29    9.33
   0  -9  -2  213.87    8.99
   0  -9  -3    7.87    1.88
   0  -9  -3    5.29    1.44
   0  -9  -4   13.73    2.24
   0  -9  -4   12.37    2.00
   0  -9  -5  166.36    7.48
   0  -9  -5  167.93    8.03
   0  -9  -6    7.13    1.50
   0  -9  -6    6.15    1.42
   0  -9  -6    7.94    1.82
   0  -9  -7    4.58    1.18
   0  -9  -7    5.23    1.35
   0  -9  -8   88.81    4.90
   0  -9  -8   90.20    4.60
   0  -9  -9    4.46    1.12
   0  -9 -10    0.40    0.49
  -1   9  -4    5.97    1.05
   1  -9   3    1.09    0.71
  -1   9  -3    0.82    0.65
   1  -9   3    0.59    0.42
   1  -9   2   58.78    4.02
  -1   9  -2   65.09    4.06
   1  -9   2   60.06    3.70
   1  -9   2   59.38    3.61
   1  -9   1   22.42    2.76
   1  -9   1   23.96    2.50
   1  -9   1   24.34    2.65
   1  -9   0   56.54    4.51
   1  -9   0   53.52    4.21
   1  -9  -1   14.44    2.41
   1  -9  -1   14.50    2.38
   1  -9  -2  137.85    7.29
   1  -9  -2  125.25    7.03
   1  -9  -3  103.87    6.24
   1  -9  -3  107.46    6.52
   1  -9  -4  183.86    8.08
   1  -9  -4  188.50    8.61
   1  -9  -5    1.77    0.95
   1  -9  -5    1.81    0.83
   1  -9  -5    1.98    1.08
   1  -9  -6   29.14    2.91
   1  -9  -6   33.13    3.16
   1  -9  -6   30.86    3.22
   1  -9  -7   13.87    1.79
   1  -9  -7   16.90    2.20
   1  -9  -7   16.75    2.23
   1  -9  -8    4.61    1.13
   1  -9  -9   14.33    1.70
   2  -9   4    6.63    1.09
  -2   9  -4    7.20    1.12
   2  -9   3    1.49    0.77
  -2   9  -3    0.80    0.61
   2  -9   2    4.05    1.10
   2  -9   2    2.85    0.93
  -2   9  -2    2.44    0.91
   2  -9   2    3.76    0.88
   2  -9   1   42.14    3.56
  -2   9  -1   44.65    3.35
   2  -9   1   45.03    3.54
   2  -9   1   42.94    3.22
   2  -9   1   49.14    3.44
   2  -9   0   35.46    3.46
  -2   9   0   37.94    3.10
   2  -9   0   39.25    3.60
   2  -9  -1   11.26    2.08
  -2   9   1   16.84    2.02
   2  -9  -1   12.61    2.23
   2  -9  -2    0.72    0.73
   2  -9  -2    1.73    1.37
   2  -9  -3    3.51    1.35
   2  -9  -3    7.29    1.89
   2  -9  -4   24.49    2.91
   2  -9  -4   26.78    3.12
   2  -9  -5    0.49    0.71
   2  -9  -5    0.23    0.52
   2  -9  -5   -0.67    0.84
   2  -9  -6   15.24    2.07
   2  -9  -6   11.57    1.76
   2  -9  -6   11.98    1.86
   2  -9  -7   -0.65    0.62
   2  -9  -7    0.03    0.58
   2  -9  -8    2.83    0.79
  -3   9  -4   -0.49    0.34
  -3   9  -3   14.45    1.60
   3  -9   3   11.67    1.49
   3  -9   2   81.18    3.97
  -3   9  -2   86.78    4.09
   3  -9   2   76.43    3.93
   3  -9   2   89.00    4.38
   3  -9   1    2.06    0.79
   3  -9   1    2.35    0.87
   3  -9   1    0.60    0.53
  -3   9  -1   -0.21    0.68
   3  -9   1    0.26    0.47
   3  -9   0  121.22    5.81
   3  -9   0  113.92    5.96
   3  -9  -1    3.91    1.27
   3  -9  -1    3.61    1.33
   3  -9  -2    2.05    1.28
   3  -9  -2    1.47    1.04
   3  -9  -3  211.71    8.06
   3  -9  -3  229.52    8.51
   3  -9  -4    9.30    1.72
   3  -9  -4   10.02    1.75
   3  -9  -5   18.21    2.22
   3  -9  -5   14.52    1.78
   3  -9  -5   15.83    2.04
   3  -9  -6    0.87    0.63
   3  -9  -6    2.03    0.72
   4  -9   2    1.24    0.62
   4  -9   2    3.87    0.97
   4  -9   1   21.14    1.92
   4  -9   1   24.42    2.34
   4  -9   1   23.29    2.12
   4  -9   0    6.46    1.15
   4  -9   0    8.33    1.36
   4  -9   0    7.01    1.36
   4  -9  -1    0.50    0.63
   4  -9  -1    1.16    0.83
   4  -9  -2   27.12    2.56
   4  -9  -2   29.59    2.76
   4  -9  -3    5.53    1.11
   4  -9  -3    7.23    1.34
   4  -9  -4    4.80    1.03
   4  -9  -4    3.33    0.87
   4  -9  -5    9.46    1.31
  -2 -10  -2  192.38    5.42
  -2 -10  -3    1.82    0.74
  -2 -10  -3    0.58    0.39
  -2 -10  -4   -0.70    0.52
  -2 -10  -4    1.04    0.47
  -2 -10  -5    1.59    0.77
  -2 -10  -6   24.29    2.28
  -2 -10  -7    1.52    0.66
  -1 -10   0    1.86    0.60
  -1 -10  -1   29.57    2.31
  -1 -10  -2   49.78    3.40
  -1 -10  -2   45.40    2.94
  -1 -10  -2   51.19    3.19
  -1 -10  -3   18.93    2.06
  -1 -10  -3   16.83    1.98
  -1 -10  -3   18.21    1.94
  -1 -10  -4   16.05    1.87
  -1 -10  -4   19.29    2.14
  -1 -10  -4   19.57    2.02
  -1 -10  -5    7.19    1.17
  -1 -10  -5    8.02    1.49
  -1 -10  -5    7.67    1.22
  -1 -10  -6    3.35    1.04
  -1 -10  -6    3.19    0.82
  -1 -10  -7    9.87    1.42
   0  10   0    0.27    0.39
   0 -10   0    0.19    0.33
   0 -10  -1   74.05    4.14
   0 -10  -1   68.86    3.47
   0 -10  -1   82.46    4.00
   0 -10  -2    1.20    0.65
   0 -10  -2    1.74    0.73
   0 -10  -2    1.45    0.61
   0 -10  -3   10.19    1.64
   0 -10  -3    9.84    1.65
   0 -10  -3   12.32    1.64
   0 -10  -4   28.77    2.58
   0 -10  -4   28.66    2.74
   0 -10  -5    1.86    0.67
   0 -10  -5    2.61    0.93
   0 -10  -6   15.31    1.87
   1 -10   0    7.09    1.25
  -1  10   0    6.92    1.06
   1 -10   0    8.94    1.23
   1 -10  -1    1.50    0.73
   1 -10  -1    2.86    0.84
  -1  10   1    2.32    0.64
   1 -10  -1    1.00    0.60
   1 -10  -2  141.08    5.83
   1 -10  -2  138.98    5.64
   1 -10  -2  140.65    5.39
   1 -10  -3    3.35    0.96
   1 -10  -3    1.90    0.84
   1 -10  -4    0.73    0.59
   1 -10  -4    1.38    0.80
   1 -10  -5    1.26    0.67
   1 -10  -5    0.48    0.53
   1 -10  -6   17.55    1.79
   2 -10   0   11.21    1.40
   2 -10  -1    1.88    0.76
   2 -10  -1    0.68    0.51
   2 -10  -1    1.47    0.66
   2 -10  -2  102.38    4.62
   2 -10  -2  100.30    4.62
   2 -10  -3  203.94    6.48
   2 -10  -3  202.98    6.63
   2 -10  -4   89.76    4.14
   2 -10  -4   92.61    4.35
   0   0   0    0.00    0.00


TITL exp_6290 in P-1
REM P-1 (#2 in standard setting)
CELL 1.54184   7.816987   8.493320  12.075949  76.5286  72.0194  89.6459
ZERR    6.00   0.000549   0.000573   0.000674   0.0052   0.0056   0.0056
LATT  1
SFAC C H N O
UNIT 66.00 60.00 6.00 6.00
TREF
HKLF 4
END
_computing_structure_solution     'SHELXT 2014/5 (Sheldrick, 2014)'
;
_shelx_hkl_checksum              9629
_olex2_submission_original_sample_id 164
_olex2_submission_special_instructions 'No special instructions were received'
_oxdiff_exptl_absorpt_empirical_details
;
Empirical correction (ABSPACK) includes:
- Absorption correction using spherical harmonics
- Frame scaling
;
_oxdiff_exptl_absorpt_empirical_full_max 1.322
_oxdiff_exptl_absorpt_empirical_full_min 0.826
loop_
_space_group_symop_operation_xyz
'x, y, z'
'-x, -y, -z'
loop_
_atom_site_label
_atom_site_type_symbol
_atom_site_fract_x
_atom_site_fract_y
_atom_site_fract_z
_atom_site_U_iso_or_equiv
_atom_site_adp_type
_atom_site_occupancy
_atom_site_site_symmetry_order
_atom_site_calc_flag
_atom_site_refinement_flags_posn
O001 O 0.17072(13) 0.83277(12) 0.14365(8) 0.0270(2) Uani 1 1 d .
O002 O 0.35870(14) 0.98787(12) 0.18910(9) 0.0303(2) Uani 1 1 d .
O003 O -0.04685(13) 0.54702(13) 0.38585(9) 0.0313(2) Uani 1 1 d .
O004 O 0.10338(16) 0.93107(15) 0.75042(10) 0.0416(3) Uani 1 1 d .
N005 N 0.24656(16) 0.51269(13) 0.29285(10) 0.0251(2) Uani 1 1 d .
C006 C 0.21879(18) 0.83072(16) 0.52673(12) 0.0239(3) Uani 1 1 d .
H006 H 0.1018 0.8636 0.5481 0.029 Uiso 1 1 calc R
C007 C 0.10896(18) 0.60177(16) 0.34636(11) 0.0241(3) Uani 1 1 d .
C008 C 0.24728(17) 0.87767(15) 0.21771(11) 0.0225(3) Uani 1 1 d .
C009 C 0.46127(17) 0.72457(15) 0.39021(11) 0.0221(3) Uani 1 1 d .
C00A C 0.32567(18) 0.83682(16) 0.59969(11) 0.0249(3) Uani 1 1 d .
C00B C 0.43194(18) 0.55868(16) 0.24707(11) 0.0238(3) Uani 1 1 d .
C00C C 0.28510(17) 0.77626(15) 0.42270(11) 0.0222(3) Uani 1 1 d .
C00D C 0.16546(17) 0.77318(16) 0.34579(11) 0.0226(3) Uani 1 1 d .
H00D H 0.0547 0.8221 0.3821 0.027 Uiso 1 1 calc R
C00E C 0.53555(17) 0.65751(16) 0.28391(11) 0.0230(3) Uani 1 1 d .
C00F C 0.56727(18) 0.73039(16) 0.46431(12) 0.0246(3) Uani 1 1 d .
H00F H 0.6835 0.6957 0.4443 0.029 Uiso 1 1 calc R
C00G C 0.50060(18) 0.78739(16) 0.56714(12) 0.0254(3) Uani 1 1 d .
H00G H 0.5732 0.7926 0.6146 0.031 Uiso 1 1 calc R
C00H C 0.5101(2) 0.46795(17) 0.16202(12) 0.0291(3) Uani 1 1 d .
C00I C 0.72038(19) 0.67600(17) 0.22070(12) 0.0278(3) Uani 1 1 d .
H00I H 0.7938 0.7461 0.2381 0.033 Uiso 1 1 calc R
C00J C 0.2563(2) 0.89400(18) 0.71024(13) 0.0305(3) Uani 1 1 d .
H00J H 0.3357 0.9024 0.7526 0.037 Uiso 1 1 calc R
C00K C 0.3672(2) 0.36420(17) 0.15927(13) 0.0337(3) Uani 1 1 d .
H00K H 0.3796 0.2908 0.1114 0.040 Uiso 1 1 calc R
C00L C 0.2129(2) 0.39196(17) 0.23786(13) 0.0311(3) Uani 1 1 d .
H00L H 0.1008 0.3395 0.2536 0.037 Uiso 1 1 calc R
C00M C 0.6954(2) 0.48581(19) 0.10437(13) 0.0342(3) Uani 1 1 d .
H00M H 0.7489 0.4270 0.0482 0.041 Uiso 1 1 calc R
C00N C 0.7983(2) 0.59303(19) 0.13251(13) 0.0334(3) Uani 1 1 d .
H00N H 0.9214 0.6101 0.0920 0.040 Uiso 1 1 calc R
C00O C 0.2229(2) 0.9360(2) 0.02310(13) 0.0353(3) Uani 1 1 d .
H00A H 0.1558 0.8997 -0.0219 0.053 Uiso 1 1 calc GR
H00B H 0.3495 0.9309 -0.0153 0.053 Uiso 1 1 calc GR
H00C H 0.1980 1.0459 0.0266 0.053 Uiso 1 1 calc GR
loop_
_atom_site_aniso_label
_atom_site_aniso_U_11
_atom_site_aniso_U_22
_atom_site_aniso_U_33
_atom_site_aniso_U_23
_atom_site_aniso_U_13
_atom_site_aniso_U_12
O001 0.0285(5) 0.0304(5) 0.0228(5) -0.0039(4) -0.0107(4) 0.0000(4)
O002 0.0324(5) 0.0261(5) 0.0312(5) -0.0010(4) -0.0123(4) -0.0040(4)
O003 0.0244(5) 0.0353(5) 0.0316(5) 0.0003(4) -0.0112(4) -0.0066(4)
O004 0.0394(6) 0.0534(7) 0.0366(6) -0.0233(5) -0.0094(5) 0.0100(5)
N005 0.0286(6) 0.0226(5) 0.0254(5) -0.0036(4) -0.0118(5) -0.0009(4)
C006 0.0231(6) 0.0232(6) 0.0235(6) -0.0037(5) -0.0060(5) 0.0000(5)
C007 0.0247(7) 0.0277(6) 0.0198(6) -0.0008(5) -0.0107(5) -0.0010(5)
C008 0.0217(6) 0.0219(6) 0.0243(6) -0.0051(5) -0.0085(5) 0.0041(5)
C009 0.0215(6) 0.0212(6) 0.0219(6) -0.0022(5) -0.0064(5) -0.0006(5)
C00A 0.0290(7) 0.0220(6) 0.0216(6) -0.0030(5) -0.0069(5) -0.0015(5)
C00B 0.0266(6) 0.0225(6) 0.0216(6) -0.0017(5) -0.0092(5) 0.0035(5)
C00C 0.0225(6) 0.0207(6) 0.0224(6) -0.0025(5) -0.0075(5) -0.0012(5)
C00D 0.0195(6) 0.0256(6) 0.0224(6) -0.0054(5) -0.0064(5) 0.0022(5)
C00E 0.0234(6) 0.0235(6) 0.0216(6) -0.0021(5) -0.0087(5) 0.0035(5)
C00F 0.0229(6) 0.0254(6) 0.0247(6) -0.0029(5) -0.0087(5) 0.0006(5)
C00G 0.0277(7) 0.0256(6) 0.0235(6) -0.0024(5) -0.0114(5) -0.0013(5)
C00H 0.0411(8) 0.0256(6) 0.0225(6) -0.0048(5) -0.0138(6) 0.0083(6)
C00I 0.0248(7) 0.0324(7) 0.0252(6) -0.0043(5) -0.0084(5) 0.0042(5)
C00J 0.0348(8) 0.0308(7) 0.0266(7) -0.0080(6) -0.0099(6) 0.0006(6)
C00K 0.0533(9) 0.0245(7) 0.0290(7) -0.0076(6) -0.0202(7) 0.0044(6)
C00L 0.0426(8) 0.0231(6) 0.0313(7) -0.0034(5) -0.0191(6) -0.0030(6)
C00M 0.0412(8) 0.0370(8) 0.0244(7) -0.0100(6) -0.0086(6) 0.0149(6)
C00N 0.0282(7) 0.0427(8) 0.0262(7) -0.0064(6) -0.0061(5) 0.0092(6)
C00O 0.0394(8) 0.0416(8) 0.0227(7) -0.0010(6) -0.0118(6) -0.0020(7)
loop_
_atom_type_symbol
_atom_type_description
_atom_type_scat_dispersion_real
_atom_type_scat_dispersion_imag
_atom_type_scat_source
C C 0.0181 0.0091 'International Tables Vol C Tables 4.2.6.8 and 6.1.1.4'
H H 0.0000 0.0000 'International Tables Vol C Tables 4.2.6.8 and 6.1.1.4'
N N 0.0311 0.0180 'International Tables Vol C Tables 4.2.6.8 and 6.1.1.4'
O O 0.0492 0.0322 'International Tables Vol C Tables 4.2.6.8 and 6.1.1.4'
loop_
_geom_angle_atom_site_label_1
_geom_angle_atom_site_label_2
_geom_angle_atom_site_label_3
_geom_angle
C008 O001 C00O 115.06(11)
C007 N005 C00B 127.26(11)
C007 N005 C00L 121.29(12)
C00B N005 C00L 107.80(12)
C00A C006 H006 119.6
C00C C006 H006 119.6
C00C C006 C00A 120.80(12)
O003 C007 N005 121.29(12)
O003 C007 C00D 122.80(13)
N005 C007 C00D 115.83(11)
O001 C008 C00D 110.51(10)
O002 C008 O001 124.88(12)
O002 C008 C00D 124.55(12)
C00C C009 C00E 122.36(11)
C00F C009 C00C 118.76(12)
C00F C009 C00E 118.82(12)
C006 C00A C00J 121.14(13)
C00G C00A C006 119.30(12)
C00G C00A C00J 119.56(12)
N005 C00B C00H 107.27(12)
C00E C00B N005 129.78(12)
C00E C00B C00H 122.46(13)
C006 C00C C009 120.04(12)
C006 C00C C00D 119.04(12)
C009 C00C C00D 120.93(12)
C007 C00D C008 111.52(11)
C007 C00D H00D 106.4
C008 C00D H00D 106.4
C00C C00D C007 112.83(10)
C00C C00D C008 112.62(10)
C00C C00D H00D 106.4
C00B C00E C009 123.06(12)
C00I C00E C009 121.11(12)
C00I C00E C00B 115.52(12)
C009 C00F H00F 119.6
C00G C00F C009 120.72(12)
C00G C00F H00F 119.6
C00A C00G H00G 119.8
C00F C00G C00A 120.37(12)
C00F C00G H00G 119.8
C00B C00H C00K 107.06(13)
C00M C00H C00B 119.72(14)
C00M C00H C00K 133.15(14)
C00E C00I H00I 118.8
C00N C00I C00E 122.32(13)
C00N C00I H00I 118.8
O004 C00J C00A 124.99(13)
O004 C00J H00J 117.5
C00A C00J H00J 117.5
C00H C00K H00K 125.9
C00L C00K C00H 108.12(13)
C00L C00K H00K 125.9
N005 C00L H00L 125.1
C00K C00L N005 109.74(13)
C00K C00L H00L 125.1
C00H C00M H00M 120.7
C00N C00M C00H 118.51(14)
C00N C00M H00M 120.7
C00I C00N H00N 119.5
C00M C00N C00I 121.08(14)
C00M C00N H00N 119.5
O001 C00O H00A 109.5
O001 C00O H00B 109.5
O001 C00O H00C 109.5
H00A C00O H00B 109.5
H00A C00O H00C 109.5
H00B C00O H00C 109.5
loop_
_geom_bond_atom_site_label_1
_geom_bond_atom_site_label_2
_geom_bond_distance
O001 C008 1.3401(16)
O001 C00O 1.4482(17)
O002 C008 1.1948(17)
O003 C007 1.2133(17)
O004 C00J 1.2131(19)
N005 C007 1.3912(18)
N005 C00B 1.4035(18)
N005 C00L 1.4107(18)
C006 H006 0.9300
C006 C00A 1.3975(19)
C006 C00C 1.3880(19)
C007 C00D 1.5219(18)
C008 C00D 1.5315(17)
C009 C00C 1.4080(19)
C009 C00E 1.4785(18)
C009 C00F 1.4030(18)
C00A C00G 1.392(2)
C00A C00J 1.4711(19)
C00B C00E 1.4012(19)
C00B C00H 1.413(2)
C00C C00D 1.5118(17)
C00D H00D 0.9800
C00E C00I 1.4003(19)
C00F H00F 0.9300
C00F C00G 1.3876(19)
C00G H00G 0.9300
C00H C00K 1.440(2)
C00H C00M 1.392(2)
C00I H00I 0.9300
C00I C00N 1.395(2)
C00J H00J 0.9300
C00K H00K 0.9300
C00K C00L 1.344(2)
C00L H00L 0.9300
C00M H00M 0.9300
C00M C00N 1.383(2)
C00N H00N 0.9300
C00O H00A 0.9600
C00O H00B 0.9600
C00O H00C 0.9600
