#------------------------------------------------------------------------------
#$Date: 2019-11-08 02:18:48 +0200 (Fri, 08 Nov 2019) $
#$Revision: 224719 $
#$URL: file:///home/coder/svn-repositories/cod/cif/4/03/46/4034693.cif $
#------------------------------------------------------------------------------
#
# This file is available in the Crystallography Open Database (COD),
# http://www.crystallography.net/
#
# All data on this site have been placed in the public domain by the
# contributors.
#
data_4034693
loop_
_publ_author_name
'Yuan, Yumeng'
'Pan, Guoshuai'
'Zhang, Xiaofeng'
'Li, Buhong'
'Xiang, Shengchang'
'Huang, Qiufeng'
_publ_section_title
;
 Synthesis of seven-membered azepino[3,2,1-hi]indoles via
 rhodium-catalyzed regioselectively C-H activation/DBU-catalyzed
 intramolecualr amidation of 7-phenylindoles in one pot.
;
_journal_name_full               'The Journal of organic chemistry'
_journal_paper_doi               10.1021/acs.joc.9b02289
_journal_year                    2019
_chemical_formula_moiety         'C19 H15 N O3'
_chemical_formula_sum            'C19 H15 N O3'
_chemical_formula_weight         305.32
_chemical_name_systematic        1
_space_group_crystal_system      triclinic
_space_group_IT_number           2
_space_group_name_Hall           '-P 1'
_space_group_name_H-M_alt        'P -1'
_atom_sites_solution_hydrogens   geom
_atom_sites_solution_primary     dual
_audit_creation_date             2019-05-16
_audit_creation_method
;
Olex2 1.2
(compiled 2018.05.29 svn.r3508 for OlexSys, GUI svn.r5506)
;
_cell_angle_alpha                78.813(4)
_cell_angle_beta                 87.457(4)
_cell_angle_gamma                86.807(4)
_cell_formula_units_Z            2
_cell_length_a                   7.9444(3)
_cell_length_b                   8.8275(4)
_cell_length_c                   10.9655(5)
_cell_measurement_reflns_used    4416
_cell_measurement_temperature    295.5(6)
_cell_measurement_theta_max      72.7230
_cell_measurement_theta_min      4.1130
_cell_volume                     752.78(6)
_computing_cell_refinement       'CrysAlisPro 1.171.39.46e (Rigaku OD, 2018)'
_computing_data_collection       'CrysAlisPro 1.171.39.46e (Rigaku OD, 2018)'
_computing_data_reduction        'CrysAlisPro 1.171.39.46e (Rigaku OD, 2018)'
_computing_molecular_graphics    'Olex2 (Dolomanov et al., 2009)'
_computing_publication_material  'Olex2 (Dolomanov et al., 2009)'
_computing_structure_refinement  'ShelXL (Sheldrick, 2015)'
_computing_structure_solution    'ShelXT (Sheldrick, 2015)'
_diffrn_ambient_environment      air
_diffrn_ambient_temperature      295.5(6)
_diffrn_detector                 'CCD plate'
_diffrn_detector_area_resol_mean 10.5148
_diffrn_detector_type            Atlas
_diffrn_measured_fraction_theta_full 0.998
_diffrn_measured_fraction_theta_max 0.972
_diffrn_measurement_details
;
List of Runs (angles in degrees, time in seconds):

  # Type    Start    End  Width  t~exp~   \w     \q     \k     \f   Frames
--------------------------------------------------------------------------
  1  \w   -115.00 -16.00   1.00    1.00    --  -40.45 -38.00-120.00   99
  2  \w    -92.00  -2.00   1.00    1.00    --  -40.45 125.00 120.00   90
  3  \w   -117.00  -8.00   1.00    1.00    --  -40.45 -77.00   0.00  109
  4  \w    -92.00  -2.00   1.00    1.00    --  -40.45 125.00  60.00   90
  5  \w     75.00 178.00   1.00    3.00    --  103.24  30.00 -30.00  103
  6  \w     27.00 132.00   1.00    3.00    --  103.24 -30.00 150.00  105
  7  \w     27.00 132.00   1.00    3.00    --  103.24 -30.00 -30.00  105
  8  \w     94.00 176.00   1.00    3.00    --  103.24 125.00-120.00   82
  9  \w     21.00 109.00   1.00    3.00    --  103.24 -94.00   0.00   88
 10  \w     30.00 117.00   1.00    3.00    --  103.24-125.00   0.00   87
 11  \w    101.00 178.00   1.00    3.00    --  103.24  93.00  14.00   77
 12  \w     30.00 117.00   1.00    3.00    --  103.24-125.00-180.00   87
 13  \w     31.00 132.00   1.00    3.00    --  103.24 -61.00 -30.00  101
 14  \w     27.00 136.00   1.00    3.00    --  103.24 -77.00 150.00  109
 15  \w     16.00 115.00   1.00    1.00    --   40.45  38.00 120.00   99
 16  \w      1.00  81.00   1.00    1.00    --   40.45 -99.00   0.00   80
 17  \w      8.00 117.00   1.00    1.00    --   40.45  77.00-120.00  109
 18  \w      8.00 117.00   1.00    1.00    --   40.45  77.00 150.00  109
;
_diffrn_measurement_device       'four-circle diffractometer'
_diffrn_measurement_device_type  'SuperNova, Dual, Cu at home/near, Atlas'
_diffrn_measurement_method       '\w scans'
_diffrn_orient_matrix_type
'CrysAlisPro convention (1999,Acta A55,543-557)'
_diffrn_orient_matrix_UB_11      -0.0979541000
_diffrn_orient_matrix_UB_12      -0.1125174000
_diffrn_orient_matrix_UB_13      0.0995279000
_diffrn_orient_matrix_UB_21      -0.1492577000
_diffrn_orient_matrix_UB_22      0.0143643000
_diffrn_orient_matrix_UB_23      -0.0872047000
_diffrn_orient_matrix_UB_31      0.0767660000
_diffrn_orient_matrix_UB_32      -0.1373131000
_diffrn_orient_matrix_UB_33      -0.0549871000
_diffrn_radiation_monochromator  mirror
_diffrn_radiation_probe          x-ray
_diffrn_radiation_type           CuK\a
_diffrn_radiation_wavelength     1.54184
_diffrn_reflns_av_R_equivalents  0.0152
_diffrn_reflns_av_unetI/netI     0.0137
_diffrn_reflns_Laue_measured_fraction_full 0.998
_diffrn_reflns_Laue_measured_fraction_max 0.972
_diffrn_reflns_limit_h_max       9
_diffrn_reflns_limit_h_min       -8
_diffrn_reflns_limit_k_max       8
_diffrn_reflns_limit_k_min       -10
_diffrn_reflns_limit_l_max       11
_diffrn_reflns_limit_l_min       -13
_diffrn_reflns_number            7649
_diffrn_reflns_point_group_measured_fraction_full 0.998
_diffrn_reflns_point_group_measured_fraction_max 0.972
_diffrn_reflns_theta_full        67.684
_diffrn_reflns_theta_max         72.651
_diffrn_reflns_theta_min         4.112
_diffrn_source                   'micro-focus sealed X-ray tube'
_diffrn_source_type              'SuperNova (Cu) X-ray Source'
_exptl_absorpt_coefficient_mu    0.745
_exptl_absorpt_correction_T_max  1.00000
_exptl_absorpt_correction_T_min  0.68916
_exptl_absorpt_correction_type   multi-scan
_exptl_absorpt_process_details
;
CrysAlisPro 1.171.39.46e (Rigaku Oxford Diffraction, 2018)
Empirical absorption correction using spherical harmonics,
 implemented in SCALE3 ABSPACK scaling algorithm.
;
_exptl_crystal_colour            'clear light colourless'
_exptl_crystal_colour_lustre     clear
_exptl_crystal_colour_modifier   light
_exptl_crystal_colour_primary    colourless
_exptl_crystal_density_diffrn    1.347
_exptl_crystal_description       block
_exptl_crystal_F_000             320
_exptl_crystal_size_max          0.1
_exptl_crystal_size_mid          0.1
_exptl_crystal_size_min          0.1
_refine_diff_density_max         0.239
_refine_diff_density_min         -0.260
_refine_diff_density_rms         0.063
_refine_ls_extinction_method     none
_refine_ls_goodness_of_fit_ref   1.081
_refine_ls_hydrogen_treatment    constr
_refine_ls_matrix_type           full
_refine_ls_number_parameters     210
_refine_ls_number_reflns         2903
_refine_ls_number_restraints     0
_refine_ls_restrained_S_all      1.081
_refine_ls_R_factor_all          0.0460
_refine_ls_R_factor_gt           0.0435
_refine_ls_shift/su_max          0.000
_refine_ls_shift/su_mean         0.000
_refine_ls_structure_factor_coef Fsqd
_refine_ls_weighting_details
'w=1/[\s^2^(Fo^2^)+(0.0726P)^2^+0.1016P] where P=(Fo^2^+2Fc^2^)/3'
_refine_ls_weighting_scheme      calc
_refine_ls_wR_factor_gt          0.1150
_refine_ls_wR_factor_ref         0.1191
_reflns_Friedel_coverage         0.000
_reflns_number_gt                2664
_reflns_number_total             2903
_reflns_threshold_expression     'I > 2\s(I)'
_cod_data_source_file            jo9b02289_si_004.cif
_cod_data_source_block           1
_cod_database_code               4034693
_shelx_shelxl_version_number     2014/7
_chemical_oxdiff_formula         'C H O N'
_shelx_space_group_comment
;
The symmetry employed for this shelxl refinement is uniquely defined
by the following loop, which should always be used as a source of
symmetry information in preference to the above space-group names.
They are only intended as comments.
;
_shelx_estimated_absorpt_t_max   0.929
_shelx_estimated_absorpt_t_min   0.929
_reflns_odcompleteness_completeness 99.96
_reflns_odcompleteness_iscentric 1
_reflns_odcompleteness_theta     66.97
_olex2_refinement_description
;
1. Fixed Uiso
 At 1.2 times of:
  All C(H) groups
 At 1.5 times of:
  All C(H,H,H) groups
2.a Ternary CH refined with riding coordinates:
 C008(H008)
2.b Aromatic/amide H refined with riding coordinates:
 C00D(H00D), C00F(H00F), C00G(H00G), C00H(H00H), C00I(H00I), C00J(H00J),
 C00K(H00K), C00L(H00L)
2.c Idealised Me refined as rotating group:
 C00M(H00A,H00B,H00C), C00N(H00E,H00M,H00N)
;
_shelx_res_file
;
    1.res created by SHELXL-2014/7

TITL 1_a.res in P-1
REM Old TITL xzl-0515 in P-1
REM SHELXT solution in P-1
REM R1 0.149, Rweak 0.007, Alpha 0.035, Orientation as input
REM Formula found by SHELXT: C19 N O3
CELL 1.54184 7.9444 8.8275 10.9655 78.813 87.457 86.807
ZERR 2 0.0003 0.0004 0.0005 0.004 0.004 0.004
LATT 1
SFAC C H N O
UNIT 38 30 2 6

L.S. 10
PLAN  20
SIZE 0.1 0.1 0.1
BOND $H
list 4
fmap 2 53
ACTA
OMIT -7 2 1
OMIT 1 0 1
OMIT 1 1 0
OMIT 3 1 0
REM <olex2.extras>
REM <HklSrc "%.\\1.hkl">
REM </olex2.extras>

WGHT    0.072600    0.101600
FVAR       1.72963
O001  4    0.526165    0.943894    0.203867    11.00000    0.04387    0.06272 =
         0.04983   -0.00249   -0.00440    0.00503
O002  4    0.936499    1.002777    0.188716    11.00000    0.05922    0.04859 =
         0.05802   -0.00136    0.01098   -0.02051
O003  4    0.443146    0.867396    0.402850    11.00000    0.04473    0.06948 =
         0.06464    0.01146    0.01132    0.00343
N004  3    0.852380    0.761897    0.190000    11.00000    0.03733    0.03712 =
         0.03547    0.00163    0.00437   -0.00338
C005  1    0.762941    0.628393    0.237021    11.00000    0.03199    0.03376 =
         0.03717   -0.00011   -0.00020    0.00038
C006  1    0.715980    0.564966    0.359863    11.00000    0.03469    0.03323 =
         0.03862    0.00019    0.00273    0.00212
C007  1    0.769344    0.624796    0.468055    11.00000    0.03347    0.04122 =
         0.03479   -0.00088    0.00391    0.00226
C008  1    0.738918    0.902360    0.352359    11.00000    0.04274    0.03340 =
         0.04225   -0.00350    0.00130   -0.00364
AFIX  13
H008  2    0.753936    1.003101    0.374306    11.00000   -1.20000
AFIX   0
C009  1    0.852415    0.895986    0.238313    11.00000    0.03789    0.03770 =
         0.04086    0.00205   -0.00081   -0.00512
C00A  1    0.551933    0.899216    0.324998    11.00000    0.04196    0.03137 =
         0.04752    0.00094    0.00346    0.00234
C00B  1    0.746408    0.551061    0.137912    11.00000    0.04063    0.04036 =
         0.03941   -0.00349   -0.00403    0.00298
C00C  1    0.788999    0.782169    0.464643    11.00000    0.03564    0.04375 =
         0.03770   -0.00421    0.00362   -0.00063
C00D  1    0.631273    0.427591    0.374608    11.00000    0.04320    0.03739 =
         0.04754    0.00100    0.00746   -0.00301
AFIX  43
H00D  2    0.591629    0.382749    0.453724    11.00000   -1.20000
AFIX   0
C00E  1    0.664585    0.411270    0.156338    11.00000    0.04400    0.04028 =
         0.05360   -0.00910   -0.00777    0.00274
C00F  1    0.810081    0.519975    0.577593    11.00000    0.04578    0.04715 =
         0.03937    0.00176    0.00325    0.00800
AFIX  43
H00F  2    0.795930    0.415085    0.582386    11.00000   -1.20000
AFIX   0
C00G  1    0.892742    0.762598    0.063514    11.00000    0.05065    0.04921 =
         0.03613    0.00414    0.00898   -0.00193
AFIX  43
H00G  2    0.953367    0.837511    0.010902    11.00000   -1.20000
AFIX   0
C00H  1    0.852211    0.830572    0.566364    11.00000    0.04886    0.05670 =
         0.04560   -0.01342    0.00206   -0.00572
AFIX  43
H00H  2    0.866205    0.935224    0.562968    11.00000   -1.20000
AFIX   0
C00I  1    0.604011    0.355601    0.276234    11.00000    0.04555    0.03597 =
         0.06330   -0.00548    0.00072   -0.00595
AFIX  43
H00I  2    0.542837    0.266667    0.291136    11.00000   -1.20000
AFIX   0
C00J  1    0.830953    0.639764    0.030685    11.00000    0.06028    0.05121 =
         0.03373   -0.00376    0.00210    0.00266
AFIX  43
H00J  2    0.840700    0.615303   -0.048168    11.00000   -1.20000
AFIX   0
C00K  1    0.870668    0.569949    0.678086    11.00000    0.04895    0.06997 =
         0.03565   -0.00081   -0.00114    0.01341
AFIX  43
H00K  2    0.895648    0.498822    0.750106    11.00000   -1.20000
AFIX   0
C00L  1    0.894515    0.724912    0.672527    11.00000    0.05200    0.07852 =
         0.03943   -0.01266   -0.00391   -0.00025
AFIX  43
H00L  2    0.938601    0.758015    0.739501    11.00000   -1.20000
AFIX   0
C00M  1    0.648156    0.326145    0.051569    11.00000    0.07024    0.05343 =
         0.06511   -0.01970   -0.01402   -0.00043
AFIX 137
H00A  2    0.639616    0.399097   -0.025440    11.00000   -1.50000
H00B  2    0.548773    0.267230    0.065993    11.00000   -1.50000
H00C  2    0.745590    0.257757    0.047260    11.00000   -1.50000
AFIX   0
C00N  1    0.352355    0.949466    0.167955    11.00000    0.05144    0.09714 =
         0.07510   -0.01720   -0.01840    0.01055
AFIX 137
H00E  2    0.346596    0.984243    0.079619    11.00000   -1.50000
H00M  2    0.286339    1.019707    0.209695    11.00000   -1.50000
H00N  2    0.308913    0.848140    0.190746    11.00000   -1.50000
AFIX   0
HKLF 4

REM  1_a.res in P-1
REM R1 =  0.0435 for    2664 Fo > 4sig(Fo)  and  0.0460 for all    2903 data
REM    210 parameters refined using      0 restraints

END

WGHT      0.0726      0.1016

REM Highest difference peak  0.239,  deepest hole -0.260,  1-sigma level  0.063
Q1    1   0.6423  0.1944  0.0901  11.00000  0.05    0.24
Q2    1   0.9864  0.5232  0.0243  11.00000  0.05    0.17
Q3    1   0.5000  1.0000  0.5000  10.50000  0.05    0.15
Q4    1   0.4257  1.0127  0.4332  11.00000  0.05    0.15
Q5    1   0.9611  0.8925  0.0199  11.00000  0.05    0.15
Q6    1   0.7166  0.4809  0.1433  11.00000  0.05    0.15
Q7    1   0.9453  0.5645 -0.0413  11.00000  0.05    0.15
Q8    1   0.1154  1.1019  0.1664  11.00000  0.05    0.15
Q9    1   0.9419  0.6769  0.3897  11.00000  0.05    0.15
Q10   1   0.4178  1.0733  0.3948  11.00000  0.05    0.14
Q11   1   0.8269  0.6990  0.4522  11.00000  0.05    0.14
Q12   1   0.8136  0.7042  0.2249  11.00000  0.05    0.14
Q13   1   0.4384  0.1234  0.4162  11.00000  0.05    0.13
Q14   1   0.4520  0.8449  0.5395  11.00000  0.05    0.13
Q15   1   0.7636  0.5997  0.3052  11.00000  0.05    0.13
Q16   1   0.6970  1.1146  0.2481  11.00000  0.05    0.13
Q17   1   0.8993  0.6228  0.3412  11.00000  0.05    0.13
Q18   1   0.4948  0.7168  0.4317  11.00000  0.05    0.13
Q19   1   0.7573  0.5668  0.8176  11.00000  0.05    0.12
Q20   1   0.4401  0.7048  0.3400  11.00000  0.05    0.12
;
_shelx_res_checksum              2590
_shelx_hkl_file
;
   0   0  -1 1396.13    8.39
   0   0  -2 2331.28   14.89
   0   0   3   41.34    2.53
   0   0   3   44.56    2.31
   0   0  -3   43.24    2.47
   0   0  -4  167.18    5.38
   0   0   4  155.08    5.53
   0   0  -4  160.88    5.03
   0   0  -5 2844.99   24.73
   0   0   5 2751.54   26.55
   0   0  -5 2792.84   23.26
   0   0  -5 2916.84   18.56
   0   0  -5 2693.89   21.38
   0   0   5 2808.96   24.35
   0   0   6  375.53   11.13
   0   0  -6  382.26    8.92
   0   0  -6  384.58    9.59
   0   0   6  384.14   10.26
   0   0  -6  375.91    9.95
   0   0  -7  306.24    8.79
   0   0   7  321.98   10.41
   0   0  -7  294.05    9.14
   0   0   7  307.13   11.25
   0   0   8  550.49   14.96
   0   0  -8  566.92    8.40
   0   0  -8  570.65   13.56
   0   0  -8  585.26    8.54
   0   0   8  542.82   16.15
   0   0  -8  563.76    8.24
   0   0  -8  593.79   13.24
   0   0  -9   22.74    1.77
   0   0   9   16.28    3.21
   0   0  -9   16.18    1.56
   0   0 -10  172.99    4.95
   0   0 -11   14.14    1.68
   0   0 -11   13.17    1.33
   0   0 -12    0.84    0.60
   0   0 -13    0.92    0.44
   0   0 -13    0.43    0.37
   0   1 -12   26.71    1.72
   0   1 -11    1.12    0.51
   0   1 -11    0.35    0.62
   0   1 -10  284.66    6.38
   0   1  -9   18.43    1.69
   0   1  -9   19.42    1.63
   0  -1   8    9.54    2.30
   0   1  -8    8.97    1.15
   0   1  -8    9.57    1.15
   0   1  -8    9.88    1.86
   0   1  -8    6.85    1.76
   0   1  -7  572.68   14.47
   0   1  -7  602.16    8.49
   0  -1   7  564.84   14.89
   0  -1   7  567.88   15.26
   0   1  -7  573.45   13.71
   0   1  -7  610.10   12.71
   0  -1   6  512.11   12.65
   0   1  -6  506.31   12.76
   0  -1   6  503.88   12.86
   0   1  -6  503.75   12.19
   0   1  -6  514.03   10.94
   0   1  -6  555.32   10.57
   0  -1   5  379.40    9.71
   0  -1   5  374.20    9.82
   0   1  -5  404.42   10.77
   0  -1   4 2062.25   20.28
   0   1  -4 2129.95   23.22
   0  -1   4 2108.49   19.89
   0  -1   3 2243.82   18.40
   0   1  -3 2266.73   21.32
   0   1  -2 4088.12   23.13
   0  -1   2 4006.95   19.97
   0   1  -1 1150.21    9.47
   0   1  -1 1166.05    5.36
   0   1   0  283.27    3.68
   0  -1   0  287.07    3.16
   0  -1  -1 2269.36    9.91
   0  -1  -1 2261.58   10.00
   0  -1  -2  812.56    7.37
   0  -1  -2  788.11    7.22
   0   1   2  802.12    7.06
   0  -1  -3 1489.16    6.27
   0  -1  -3 1508.70   11.98
   0   1   3 1509.82   12.56
   0  -1  -4 1165.13    7.09
   0  -1  -4 1115.77   12.06
   0  -1  -4 1143.01   12.25
   0   1   4 1156.97   13.25
   0   1   4 1130.91   14.82
   0   1   5 2450.64   25.61
   0   1   5 2432.44   21.70
   0  -1  -5 2396.47   19.76
   0  -1  -6  817.87   13.25
   0  -1  -6  830.61   13.00
   0   1   6  848.15   14.39
   0   1   6  824.10   16.77
   0  -1  -7  134.06    5.87
   0  -1  -7  130.96    5.75
   0   1   7  132.59    6.37
   0   1   7  136.23    7.44
   0   1   8  946.82   18.44
   0  -1  -8  965.77   10.40
   0  -1  -8  911.58   16.64
   0  -1  -8  946.66   10.48
   0   1   8  905.47   21.39
   0  -1  -8  954.10   11.08
   0  -1  -8  938.96   16.86
   0  -1  -9  174.47    4.70
   0  -1  -9  171.34    5.06
   0   1   9  179.86    8.66
   0  -1  -9  173.83    7.80
   0   1   9  181.77   10.26
   0  -1 -10   49.74    3.05
   0  -1 -10   47.62    2.77
   0  -1 -11  173.66    5.40
   0  -1 -11  160.68    4.79
   0  -1 -12   -0.23    0.65
   0  -1 -12    0.15    0.38
   0  -1 -13    3.49    0.62
   0  -1 -13    3.27    0.64
   0   2 -12   23.11    1.22
   0   2 -12   25.19    1.44
   0   2 -11    4.51    0.84
   0   2 -11    5.78    0.87
   0   2 -10   14.29    1.53
   0   2  -9  217.94    5.87
   0   2  -8   46.85    4.68
   0  -2   8   48.83    5.05
   0   2  -8   51.25    4.65
   0   2  -8   52.61    2.84
   0   2  -7    0.28    0.96
   0   2  -7   -0.07    0.56
   0   2  -7   -0.19    0.90
   0  -2   7   -0.42    1.06
   0   2  -7    2.09    1.17
   0   2  -6    0.52    1.04
   0  -2   6    1.06    0.91
   0  -2   5 2422.94   26.42
   0   2  -5 2483.09   30.57
   0   2  -4 2147.99   26.08
   0  -2   4 2149.40   21.91
   0  -2   3  227.50    6.23
   0   2  -3  222.43    7.28
   0   2  -2  760.78   11.28
   0  -2   2  703.08    9.53
   0   2  -1 7743.23   30.80
   0  -2   1 7646.26   27.90
   0  -2   0 1755.22   11.27
   0   2   0 1763.29   13.29
   0  -2  -1 5240.70   20.04
   0  -2  -1 5129.97   20.37
   0   2   2 5645.50   20.51
   0  -2  -2 5646.22   23.03
   0   2   3 1302.45   11.35
   0  -2  -3 1299.79   12.21
   0  -2  -3 1337.06   13.92
   0  -2  -3 1339.02   12.49
   0   2   4  635.22    9.50
   0  -2  -4  644.05    9.68
   0  -2  -4  633.37    9.44
   0  -2  -5   22.97    2.12
   0  -2  -5   23.93    2.09
   0   2   5   26.33    2.28
   0   2   5   21.67    2.45
   0  -2  -6 1016.28   15.02
   0  -2  -6 1020.97   15.00
   0   2   6 1038.76   15.66
   0   2   6 1050.56   19.07
   0  -2  -7   46.22    3.55
   0   2   7   55.58    3.95
   0  -2  -7   49.74    3.65
   0   2   7   55.56    4.97
   0  -2  -8  157.60    4.79
   0  -2  -8  152.05    4.58
   0  -2  -8  147.09    6.88
   0  -2  -8  150.23    6.72
   0   2   8  154.00    8.95
   0   2   8  156.40    7.22
   0  -2  -8  159.94    4.25
   0  -2  -9  101.53    4.01
   0   2   9  100.27    7.71
   0  -2  -9  100.84    4.11
   0  -2  -9   99.73    3.53
   0  -2  -9   92.05    5.59
   0  -2  -9   95.18    5.96
   0  -2 -10    1.21    0.67
   0  -2 -10    2.84    0.97
   0  -2 -11   25.66    2.17
   0  -2 -11   22.41    1.94
   0  -2 -12    5.40    0.93
   0  -2 -12    6.87    1.08
   0  -2 -12    5.88    1.00
   0  -2 -13    0.82    0.47
   0  -2 -13    1.59    0.44
   0  -2 -13    0.52    0.38
   0   3 -11   21.92    1.49
   0   3 -11   19.12    1.43
   0   3 -10  139.37    4.41
   0   3  -9  292.95    6.86
   0   3  -8   37.39    2.51
   0   3  -7   23.18    1.92
   0   3  -7   25.44    3.86
   0   3  -7   23.26    3.02
   0  -3   7   24.18    3.42
   0   3  -7   25.52    3.65
   0   3  -6   22.72    3.53
   0   3  -6   22.24    1.76
   0  -3   6   18.50    2.77
   0  -3   5   18.94    2.51
   0   3  -5   17.26    2.95
   0   3  -4  896.77   18.60
   0  -3   4  910.99   15.14
   0   3  -3    6.25    1.79
   0  -3   3    3.08    1.07
   0  -3   2   23.32    2.05
   0   3  -2   30.07    2.68
   0   3  -1  239.33    6.67
   0  -3   1  259.91    6.31
   0  -3   1  242.86    6.82
   0   3   0  267.26    2.35
   0  -3   0  270.92    5.56
   0   3   0  273.55    6.62
   0  -3   0  263.29    6.66
   0  -3  -1 9115.52   32.82
   0  -3  -1 9041.74   37.48
   0  -3  -2 2170.07   16.78
   0  -3  -2 2202.31   18.79
   0  -3  -2 2185.21   17.23
   0  -3  -3  636.51    9.77
   0  -3  -3  621.48    9.73
   0  -3  -3  629.01   10.73
   0   3   3  633.19    8.60
   0  -3  -4 2484.41   23.49
   0  -3  -4 2414.10   20.42
   0   3   4 2427.09   18.74
   0  -3  -4 2423.92   20.96
   0   3   5   67.13    3.57
   0   3   5   60.57    4.15
   0  -3  -5   61.41    3.57
   0  -3  -5   59.89    3.63
   0   3   6  780.31   16.59
   0  -3  -6  799.67   14.32
   0   3   6  834.28   14.09
   0  -3  -6  797.17   13.79
   0  -3  -7  447.88    7.18
   0   3   7  419.35   13.81
   0  -3  -7  449.50    7.64
   0   3   7  458.31   11.25
   0  -3  -7  427.08   11.28
   0  -3  -7  449.54    7.65
   0  -3  -7  430.70   10.97
   0   3   8  293.93   12.78
   0  -3  -8  285.01    6.59
   0  -3  -8  288.31   10.09
   0  -3  -8  288.75    6.59
   0  -3  -8  288.64    5.76
   0  -3  -8  270.48    9.27
   0  -3  -9   17.57    1.81
   0   3   9   16.85    3.47
   0  -3  -9   13.75    1.61
   0  -3  -9   15.32    2.71
   0  -3  -9   15.92    1.41
   0  -3 -10  216.46    6.09
   0  -3 -10  221.50    6.19
   0  -3 -11   -1.11    0.92
   0  -3 -11   -0.46    0.66
   0  -3 -11   -0.03    0.56
   0  -3 -12   13.49    1.37
   0  -3 -12   14.67    1.38
   0  -3 -12   15.27    1.50
   0  -3 -13    2.69    0.60
   0  -3 -13    2.35    0.49
   0  -3 -13    1.26    0.40
   0   4 -11   46.98    1.93
   0   4 -10    0.38    0.45
   0   4  -9    0.71    0.62
   0   4  -8  292.95    7.07
   0   4  -7   45.35    2.82
   0   4  -6    2.17    1.41
   0   4  -6    0.76    0.47
   0  -4   6    3.25    1.45
   0  -4   5  108.49    6.23
   0   4  -5  115.07    3.99
   0  -4   4   12.09    2.06
   0   4  -4   10.16    2.38
   0  -4   3  456.64   10.83
   0   4  -3  473.38   13.36
   0  -4   3  457.01   12.58
   0  -4   2   20.31    2.18
   0  -4   2   17.86    2.51
   0   4  -2   23.31    2.82
   0  -4   1    0.38    0.77
   0   4  -1    0.24    0.91
   0  -4   0  656.47   12.53
   0   4   0  658.62   12.33
   0   4   1 2275.85   22.74
   0   4   1 2220.37   11.67
   0  -4  -1 2240.32   19.25
   0  -4  -1 2239.43   22.08
   0   4   2  301.87    8.31
   0  -4  -2  301.10    8.10
   0  -4  -2  315.20    7.46
   0  -4  -3 2309.43   21.39
   0   4   3 2310.79   18.92
   0  -4  -3 2370.55   23.49
   0  -4  -3 2363.35   21.73
   0   4   4 1102.40   13.66
   0  -4  -4 1072.63   16.90
   0  -4  -4 1074.74   15.42
   0  -4  -4 1103.68   15.52
   0  -4  -5   10.56    1.71
   0   4   5    9.76    1.42
   0  -4  -5   11.17    1.80
   0   4   6  329.07   11.31
   0  -4  -6  324.77    9.58
   0  -4  -6  336.76   10.01
   0  -4  -7   11.28    1.33
   0  -4  -7    8.82    1.66
   0  -4  -7   11.39    1.19
   0  -4  -7    9.91    1.98
   0  -4  -7   10.60    1.31
   0  -4  -7   12.09    1.41
   0   4   7    8.48    2.24
   0  -4  -8  443.47    7.96
   0  -4  -8  453.00    7.34
   0  -4  -8  432.39   12.13
   0  -4  -8  441.86    8.59
   0   4   8  439.42   16.03
   0  -4  -8  437.95   12.85
   0  -4  -8  439.00    7.83
   0  -4  -8  446.96    8.52
   0  -4  -9  118.43    4.52
   0  -4  -9  118.54    4.58
   0  -4  -9  123.32    4.27
   0  -4 -10  273.00    6.92
   0  -4 -10  272.86    6.31
   0  -4 -10  274.36    6.78
   0  -4 -11    6.31    1.15
   0  -4 -11    5.70    1.12
   0  -4 -11    7.18    1.05
   0  -4 -12    2.01    0.67
   0  -4 -12    2.25    0.65
   0  -4 -12    2.05    0.53
   0  -4 -13    0.45    0.34
   0  -4 -13   -0.14    0.30
   0   5 -10   55.66    2.24
   0  -5   9    7.91    0.98
   0   5  -9    5.52    0.86
   0   5  -8    0.57    0.61
   0   5  -7   53.42    3.06
   0   5  -6   48.24    2.87
   0   5  -5   56.99    2.98
   0  -5   5   60.95    5.88
   0  -5   5   59.70    4.96
   0   5  -5   56.72    6.24
   0  -5   4  121.00    7.80
   0   5  -4  126.08    8.57
   0  -5   4  133.89    6.95
   0   5  -4  125.93    4.18
   0  -5   3  467.31   14.29
   0   5  -3  469.29   15.17
   0   5  -2  586.60   15.52
   0  -5   2  554.31   14.53
   0  -5   1   53.62    4.38
   0   5  -1   55.40    4.53
   0  -5   0  389.60   11.11
   0   5   0  389.23   11.37
   0  -5  -1  371.35   10.49
   0   5   1  367.36   10.66
   0  -5  -2 1564.92   21.35
   0   5   2 1621.65   22.46
   0  -5  -2 1614.75   19.50
   0   5   3 1366.09   21.06
   0  -5  -3 1346.83   18.86
   0   5   4   22.29    2.22
   0  -5  -4   20.95    2.49
   0  -5  -4   27.66    2.85
   0  -5  -4   23.47    2.86
   0  -5  -5   24.95    2.83
   0  -5  -5   27.53    3.08
   0  -5  -5   27.43    3.35
   0  -5  -6  102.84    3.70
   0  -5  -6   98.43    5.78
   0  -5  -6  105.77    3.80
   0  -5  -6   97.20    5.90
   0  -5  -6  104.90    4.02
   0   5   6   96.99    6.72
   0  -5  -6  102.49    3.87
   0  -5  -6  101.43    3.43
   0  -5  -7   80.15    3.70
   0  -5  -7   87.51    3.60
   0   5   7   85.11    6.83
   0  -5  -7   75.63    5.46
   0  -5  -7   82.19    3.17
   0  -5  -7   85.88    3.73
   0  -5  -7   76.51    5.29
   0  -5  -7   84.17    3.54
   0  -5  -8    8.31    1.36
   0  -5  -8    7.14    1.26
   0   5   8    6.42    2.00
   0  -5  -8    7.54    1.01
   0  -5  -8    8.21    2.17
   0  -5  -8    7.66    1.24
   0  -5  -9  118.43    4.51
   0  -5  -9  119.02    4.25
   0  -5  -9  115.86    4.64
   0  -5 -10   92.46    3.88
   0  -5 -10   88.43    3.96
   0  -5 -11   44.57    2.65
   0  -5 -11   48.12    2.61
   0  -5 -12    0.08    0.48
   0  -5 -12    0.39    0.49
   0  -6   9    0.92    0.46
   0   6  -9    0.14    0.32
   0  -6   8   18.34    1.38
   0   6  -8   15.56    1.41
   0  -6   7   -0.15    0.50
   0   6  -7    0.24    0.50
   0  -6   6  311.27    6.87
   0   6  -6  301.51    6.97
   0   6  -5  108.18    4.17
   0  -6   5  109.87    4.17
   0  -6   4  453.36    8.30
   0  -6   4  466.54   16.38
   0   6  -4  454.17    8.18
   0  -6   3   42.02    4.75
   0   6  -3   41.71    5.24
   0  -6   3   44.57    2.57
   0  -6   2   63.05    2.95
   0   6  -2   60.15    5.76
   0  -6   2   61.00    5.50
   0   6  -1    6.11    2.09
   0  -6   1    4.18    1.51
   0  -6   1    6.16    1.05
   0   6   0  612.03   16.33
   0  -6   0  619.62    9.11
   0  -6   0  586.34   15.56
   0  -6  -1   52.26    4.51
   0  -6  -1   48.88    2.54
   0   6   1   47.61    4.45
   0   6   2  790.67   17.87
   0  -6  -2  770.86   15.57
   0  -6  -2  781.82   17.39
   0  -6  -2  822.49   10.24
   0  -6  -3   28.56    1.91
   0  -6  -3   30.37    3.27
   0  -6  -3   30.34    2.02
   0  -6  -3   27.02    3.39
   0  -6  -3   31.07    1.98
   0   6   3   27.72    3.58
   0  -6  -4   49.36    2.53
   0  -6  -4   40.71    3.83
   0  -6  -4   41.06    4.14
   0  -6  -4   48.53    2.70
   0   6   4   49.79    4.88
   0  -6  -4   46.19    2.50
   0  -6  -4   48.54    2.61
   0  -6  -4   45.31    2.39
   0  -6  -5  499.81   13.87
   0  -6  -5  501.17    7.93
   0  -6  -5  514.19    8.63
   0  -6  -5  519.98   15.15
   0  -6  -5  517.52    8.36
   0   6   5  491.85   16.38
   0  -6  -5  514.63    9.11
   0  -6  -5  509.24    8.57
   0  -6  -6  201.10    5.89
   0  -6  -6  207.39    5.59
   0   6   6  210.01   10.54
   0  -6  -6  211.33    9.31
   0  -6  -6  196.56    5.36
   0  -6  -6  193.12    5.56
   0  -6  -6  198.61    5.04
   0  -6  -7  940.66   13.05
   0   6   7  982.91   24.19
   0  -6  -7  950.50   10.99
   0  -6  -7  901.18   11.85
   0  -6  -7  926.52   12.00
   0  -6  -7  904.16   12.33
   0  -6  -8  107.52    4.46
   0  -6  -8  108.63    4.32
   0  -6  -8  108.84    4.08
   0  -6  -9   19.70    1.98
   0  -6  -9   19.29    1.81
   0  -6  -9   21.82    1.97
   0  -6 -10    6.60    1.25
   0  -6 -10    6.87    1.13
   0  -6 -11   10.19    1.26
   0  -6 -11    8.97    1.06
   0  -6 -12   11.67    1.08
   0  -6 -12   11.00    0.97
   0   7  -8    2.94    0.49
   0  -7   8    3.30    0.61
   0  -7   7   16.75    1.48
   0   7  -7   15.75    1.33
   0   7  -6  127.43    4.04
   0  -7   6  135.46    4.56
   0  -7   6  132.84    3.89
   0  -7   5  299.20    7.18
   0   7  -5  292.74    6.37
   0  -7   5  292.97    6.29
   0  -7   4  471.51    8.30
   0  -7   4  468.32    9.13
   0  -7   3  109.59    4.06
   0  -7   3  111.60    4.48
   0  -7   2  238.16    5.94
   0  -7   2  243.30    6.45
   0  -7   1   83.58    3.76
   0   7  -1   86.21    7.18
   0  -7   1   87.04    6.83
   0  -7   1   82.89    3.47
   0  -7   0    7.61    1.99
   0  -7   0   11.23    1.41
   0   7   0   15.79    3.21
   0  -7   0   14.10    1.59
   0  -7   0   13.04    1.41
   0  -7  -1  379.37    7.52
   0  -7  -1  392.09   13.86
   0  -7  -1  366.01    7.20
   0  -7  -1  393.99    7.82
   0   7   1  392.45   14.37
   0  -7  -2   69.39    3.15
   0   7   2   69.94    6.14
   0  -7  -2   68.31    5.79
   0  -7  -2   67.45    3.15
   0  -7  -2   67.74    3.29
   0  -7  -2   74.39    3.23
   0  -7  -3    0.20    0.60
   0   7   3   -1.94    1.59
   0  -7  -3    0.70    0.64
   0  -7  -3    1.68    1.61
   0  -7  -3   -0.44    0.77
   0  -7  -3    1.53    0.80
   0  -7  -3   -1.52    0.96
   0   7   4  805.48   21.31
   0  -7  -4  800.24   10.57
   0  -7  -4  792.00   18.19
   0  -7  -4  851.78   20.31
   0  -7  -4  801.16   11.62
   0  -7  -4  816.37   11.07
   0  -7  -4  781.90   10.74
   0  -7  -4  807.46   11.30
   0  -7  -5  179.91    5.66
   0  -7  -5  188.87    5.44
   0  -7  -5  185.65    5.10
   0  -7  -5  182.78    5.25
   0  -7  -5  184.63    9.71
   0  -7  -5  189.45    5.54
   0  -7  -6    4.45    1.04
   0  -7  -6    4.65    0.91
   0  -7  -6    4.41    1.02
   0  -7  -6    5.14    1.11
   0  -7  -6    5.38    1.14
   0  -7  -7    5.05    1.08
   0  -7  -7    5.04    1.01
   0  -7  -7    5.85    1.27
   0  -7  -7    5.02    0.87
   0  -7  -7    5.14    1.25
   0  -7  -8   61.56    3.32
   0  -7  -8   64.64    3.16
   0  -7  -8   62.27    3.15
   0  -7  -9    1.08    0.63
   0  -7  -9    0.28    0.65
   0  -7  -9   -0.22    0.79
   0  -7 -10   -0.11    0.39
   0  -7 -10   -0.26    0.53
   0  -7 -11    3.31    0.71
   0  -7 -11    3.60    0.65
   0  -8   7   47.14    1.82
   0  -8   7   47.24    1.83
   0  -8   6   16.79    1.36
   0  -8   5    3.18    0.86
   0  -8   4  194.09    4.63
   0  -8   4  192.81    5.40
   0  -8   3    6.88    1.26
   0  -8   3   10.25    1.18
   0  -8   2    6.52    1.27
   0  -8   2    5.96    1.22
   0  -8   2    8.93    1.14
   0  -8   1  205.22    5.87
   0  -8   1  198.38    5.35
   0  -8   1  198.25    5.72
   0  -8   0   95.41    3.76
   0  -8   0   94.45    3.92
   0  -8   0   94.31    4.00
   0  -8  -1  190.85    5.67
   0  -8  -1  182.56    5.37
   0  -8  -1  181.00    5.20
   0  -8  -2    2.15    0.84
   0  -8  -2    1.04    0.75
   0  -8  -3   37.49    2.42
   0  -8  -3   39.67    2.47
   0  -8  -3   41.98    2.72
   0  -8  -4  203.92    5.45
   0  -8  -4  187.92    5.34
   0  -8  -4  195.61    5.72
   0  -8  -4  193.47    5.30
   0  -8  -5   73.99    3.52
   0  -8  -5   76.17    3.41
   0  -8  -5   77.30    3.27
   0  -8  -5   76.48    3.37
   0  -8  -6   21.26    1.82
   0  -8  -6   17.12    1.86
   0  -8  -6   18.35    1.72
   0  -8  -6   20.26    1.62
   0  -8  -6   18.07    1.86
   0  -8  -7   88.56    3.86
   0  -8  -7   95.03    3.79
   0  -8  -7   91.12    3.53
   0  -8  -7   84.76    3.43
   0  -8  -8   15.24    1.59
   0  -8  -8   13.12    1.44
   0  -8  -8   15.03    1.42
   0  -8  -9   22.46    1.54
   0  -8  -9   20.50    1.64
   0  -8  -9   18.32    1.45
   0  -8 -10    0.24    0.38
   0  -8 -10    0.09    0.28
   0  -9   5    9.81    0.89
   0  -9   5    8.69    0.84
   0  -9   4    0.82    0.53
   0  -9   4    2.38    0.64
   0  -9   3    2.42    0.73
   0  -9   3    2.24    0.71
   0  -9   2  158.73    4.53
   0  -9   2  160.96    4.64
   0  -9   1    1.65    0.77
   0  -9   1    2.53    0.84
   0  -9   1    1.69    0.63
   0  -9   0  206.28    4.93
   0  -9   0  220.60    5.74
   0  -9   0  204.13    5.39
   0  -9  -1   14.74    1.55
   0  -9  -1   15.26    1.64
   0  -9  -1   15.28    1.42
   0  -9  -2   29.50    2.23
   0  -9  -2   26.69    1.88
   0  -9  -2   27.02    1.97
   0  -9  -3  126.31    4.45
   0  -9  -3  129.19    4.17
   0  -9  -3  118.85    3.90
   0  -9  -4   96.17    3.50
   0  -9  -4  104.68    3.60
   0  -9  -4   99.45    3.93
   0  -9  -5   -1.03    0.56
   0  -9  -5   -0.10    0.76
   0  -9  -5   -0.34    0.52
   0  -9  -6   78.19    3.00
   0  -9  -6   80.96    3.28
   0  -9  -7    8.41    1.12
   0  -9  -8   21.53    1.44
   0 -10   2    3.30    0.56
   0 -10   2    3.45    0.58
   0 -10   1   17.66    1.30
   0 -10   1   17.46    1.26
   0 -10   0    1.66    0.57
   0 -10   0    2.61    0.59
   0 -10  -1   23.24    1.62
   0 -10  -1   19.55    1.38
   0 -10  -2   29.52    1.84
   0 -10  -2   25.91    1.56
   0 -10  -3   12.34    1.06
   0 -10  -3   11.57    0.98
   0 -10  -3   10.29    1.13
   0 -10  -4    8.44    0.86
   0 -10  -4   10.04    1.12
   0 -10  -5    0.96    0.42
   0 -10  -5    1.06    0.51
   0 -10  -6    0.44    0.42
   0 -10  -7    7.44    0.75
   1 -10  -7    5.61    0.58
   1 -10  -6    7.39    0.79
   1 -10  -5    2.57    0.54
   1 -10  -5    4.41    0.71
   1 -10  -4    2.97    0.62
   1 -10  -4    3.07    0.62
   1 -10  -3    0.78    0.47
   1 -10  -3   -0.54    0.46
   1 -10  -2    2.46    0.59
   1 -10  -2    0.96    0.50
   1 -10  -1    4.80    0.76
   1 -10  -1    4.42    0.68
   1 -10   0   16.40    1.13
   1 -10   0   18.11    1.31
   1 -10   0   17.59    1.11
   1 -10   1    0.53    0.30
   1 -10   1    1.23    0.38
   1 -10   1    1.56    0.49
   1 -10   2   88.38    2.47
   1  -9  -8    7.06    0.80
   1  -9  -8    6.75    0.82
   1  -9  -7    0.38    0.51
   1  -9  -7    0.30    0.37
   1  -9  -6   16.54    1.47
   1  -9  -6   19.53    1.56
   1  -9  -6   17.55    1.51
   1  -9  -5  194.38    4.98
   1  -9  -5  201.14    5.10
   1  -9  -4  113.66    3.99
   1  -9  -4  111.94    3.89
   1  -9  -3  704.50    9.78
   1  -9  -3  728.83   10.13
   1  -9  -2    4.70    0.95
   1  -9  -2    6.48    0.91
   1  -9  -2    6.66    1.14
   1  -9  -1    2.86    0.67
   1  -9  -1    1.96    0.64
   1  -9  -1    1.03    0.65
   1  -9   0   59.66    2.81
   1  -9   0   56.02    2.63
   1  -9   0   58.92    2.88
   1  -9   1  378.30    6.67
   1  -9   1  389.46    7.16
   1  -9   1  383.26    6.82
   1  -9   2   15.79    1.37
   1  -9   2   15.69    1.40
   1  -9   2   15.93    1.43
   1  -9   3   31.17    1.87
   1  -9   3   30.40    1.69
   1  -9   3   31.72    1.86
   1  -9   4   -0.58    0.49
   1  -9   4   -0.24    0.40
   1  -9   4   -0.74    0.37
   1  -9   5   10.07    0.83
   1  -9   5    9.11    0.80
   1  -8 -10   13.64    1.05
   1  -8  -9    0.47    0.59
   1  -8  -9    0.13    0.39
   1  -8  -8    3.72    0.96
   1  -8  -8    3.57    0.79
   1  -8  -8    3.06    0.72
   1  -8  -7  177.94    5.48
   1  -8  -7  180.18    5.15
   1  -8  -7  169.49    4.87
   1  -8  -7  183.00    5.00
   1  -8  -6    3.74    0.99
   1  -8  -6    3.77    1.01
   1  -8  -6    3.24    1.00
   1  -8  -6    4.20    1.08
   1  -8  -5  219.86    5.91
   1  -8  -5  217.53    5.94
   1  -8  -5  221.43    5.85
   1  -8  -4   91.76    3.84
   1  -8  -4   89.81    3.88
   1  -8  -4   94.05    3.94
   1  -8  -3   86.90    3.78
   1  -8  -3   85.09    3.73
   1  -8  -3   87.74    3.41
   1  -8  -3   83.81    3.70
   1  -8  -2   89.86    3.82
   1  -8  -2   92.15    3.57
   1  -8  -2   86.63    3.79
   1  -8  -1    0.64    0.59
   1  -8  -1   -0.44    0.84
   1  -8  -1    0.48    0.58
   1  -8   0   36.18    2.33
   1  -8   0   34.40    2.41
   1  -8   0   35.52    2.41
   1  -8   1  350.80    7.29
   1  -8   1  357.79    7.54
   1  -8   1  353.11    7.45
   1  -8   2   24.38    1.98
   1  -8   2   21.55    1.94
   1  -8   3  154.87    4.69
   1  -8   3  147.23    4.68
   1  -8   4    1.48    0.62
   1  -8   4    0.99    0.69
   1  -8   5  365.93    6.17
   1  -8   5  365.62    6.58
   1  -8   6    2.01    0.50
   1  -8   6    1.07    0.51
   1  -7 -11    1.23    0.44
   1  -7 -11    1.78    0.52
   1  -7 -10   89.10    3.18
   1  -7 -10   87.38    3.42
   1  -7  -9   37.09    2.30
   1  -7  -9   38.00    2.54
   1  -7  -9   37.58    2.20
   1  -7  -8  128.29    4.88
   1  -7  -8  130.79    4.30
   1  -7  -8  127.68    4.55
   1  -7  -7  516.07    8.77
   1  -7  -7  503.28    9.73
   1  -7  -7  519.84    9.35
   1  -7  -7  498.73    8.78
   1  -7  -6    9.29    1.59
   1  -7  -6   11.65    1.56
   1  -7  -6   10.94    1.46
   1  -7  -6   13.53    1.65
   1  -7  -5  150.92    4.85
   1  -7  -5  149.51    5.08
   1  -7  -5  145.55    4.89
   1  -7  -5  136.23    5.14
  -1   7   4  180.29    9.81
   1  -7  -4  193.90    5.51
   1  -7  -4  188.33    5.45
   1  -7  -4  193.88    5.69
   1  -7  -4  209.59   10.19
   1  -7  -4  191.58    5.97
   1  -7  -3  112.33    4.29
   1  -7  -3  123.55    7.73
   1  -7  -3  115.67    3.88
   1  -7  -3  110.08    4.16
   1  -7  -3  112.15    4.24
   1  -7  -2  449.07   14.88
  -1   7   2  434.75   14.69
   1  -7  -2  433.84    8.30
   1  -7  -2  417.38    8.12
   1  -7  -2  406.01    7.98
   1  -7  -2  418.78    7.50
   1  -7  -1    6.50    1.88
   1  -7  -1    8.93    1.25
  -1   7   1    4.69    1.83
   1  -7  -1    9.37    1.27
   1  -7  -1    8.27    1.13
   1  -7   0  106.18    7.34
  -1   7   0   85.53    5.98
   1  -7   0   99.76    3.99
  -1   7   0   92.67    7.01
   1  -7   0   96.73    3.97
   1  -7   1    9.54    2.50
  -1   7  -1    7.84    2.28
   1  -7   1    7.66    1.27
  -1   7  -1    4.35    2.33
   1  -7   1    8.94    1.28
   1  -7   2   19.25    1.92
   1  -7   2   19.35    1.86
   1  -7   3    4.06    1.06
   1  -7   3    6.40    1.13
   1  -7   4  316.27    7.29
   1  -7   4  319.74    7.19
   1  -7   5  186.27    5.31
  -1   7  -5  183.73    5.04
   1  -7   5  191.52    5.56
   1  -7   6  107.90    3.97
  -1   7  -6   97.92    3.50
   1  -7   6  106.29    3.72
   1  -7   7   20.06    1.44
   1  -7   7   20.29    1.57
  -1   7  -7   16.74    1.32
  -1   7  -8    0.14    0.23
   1  -7   8    0.45    0.33
   1  -6 -12    9.78    0.96
   1  -6 -12   10.09    0.90
   1  -6 -11    1.50    0.58
   1  -6 -11    1.27    0.65
   1  -6 -10    1.99    0.87
   1  -6 -10    2.17    0.65
   1  -6  -9   13.55    1.62
   1  -6  -9   15.31    1.77
   1  -6  -9   11.15    1.30
   1  -6  -8   15.41    1.76
   1  -6  -8   16.41    1.64
   1  -6  -8   18.19    1.99
   1  -6  -7   12.54    1.60
   1  -6  -7   12.02    1.52
   1  -6  -7   12.09    1.69
   1  -6  -7   12.74    1.55
   1  -6  -6    8.21    2.02
   1  -6  -6    7.55    1.32
   1  -6  -6    5.52    1.69
   1  -6  -6    6.78    1.18
   1  -6  -6    7.86    1.28
   1  -6  -6    5.43    1.18
  -1   6   6    5.52    1.96
  -1   6   6    5.41    1.58
   1  -6  -5   46.66    2.92
   1  -6  -5   45.46    4.33
   1  -6  -5   46.70    2.62
   1  -6  -5   45.38    4.35
  -1   6   5   40.17    4.50
   1  -6  -5   46.81    2.62
  -1   6   5   41.07    4.38
   1  -6  -5   42.76    2.65
   1  -6  -5   49.99    4.83
   1  -6  -4   55.11    2.78
   1  -6  -4   52.17    2.96
   1  -6  -4   56.30    2.91
   1  -6  -4   53.69    4.60
   1  -6  -4   55.58    4.89
  -1   6   4   47.88    4.63
   1  -6  -4   53.26    2.75
   1  -6  -3   13.88    2.35
   1  -6  -3   13.94    2.52
   1  -6  -3   14.86    1.48
   1  -6  -3   14.28    1.43
   1  -6  -3   15.48    1.51
   1  -6  -3   15.67    1.63
  -1   6   3   13.55    2.50
   1  -6  -2  102.47    6.47
   1  -6  -2  104.39    3.69
   1  -6  -2  108.51    3.87
  -1   6   2   91.91    5.99
   1  -6  -2   96.67    3.57
   1  -6  -1  329.17    6.67
   1  -6  -1  330.50    6.59
   1  -6  -1  306.23   11.18
  -1   6   1  307.40   11.14
   1  -6  -1  324.17    6.55
   1  -6   0   56.46    2.76
   1  -6   0   52.40    4.85
  -1   6   0   53.39    4.84
   1  -6   0   53.18    2.69
  -1   6  -1  781.74   19.09
   1  -6   1  774.72   10.49
   1  -6   1  767.36   10.37
   1  -6   1  801.57   19.11
   1  -6   2  948.59   11.96
   1  -6   2 1014.58   22.25
  -1   6  -2 1019.76   23.34
   1  -6   2 1008.95   12.23
   1  -6   3  981.31   22.66
  -1   6  -3  918.57   11.13
  -1   6  -3  987.95   24.26
   1  -6   3  958.67   12.29
   1  -6   4  157.16    9.48
   1  -6   4  159.09    5.19
  -1   6  -4  162.19    4.90
  -1   6  -5  296.25    6.83
   1  -6   5  297.96    7.13
   1  -6   6    3.71    0.94
  -1   6  -6    2.55    0.70
  -1   6  -7   23.99    1.90
   1  -6   7   22.39    1.85
  -1   6  -8    0.38    0.41
   1  -6   8    0.98    0.48
   1  -6   9    0.05    0.29
  -1   6  -9    0.12    0.30
   1  -6   9   -0.01    0.38
   1  -5 -12    2.45    0.65
   1  -5 -12    2.25    0.63
   1  -5 -11   31.63    2.18
   1  -5 -11   35.05    2.25
   1  -5 -11   35.81    1.92
   1  -5 -10   34.33    2.12
   1  -5 -10   31.95    2.41
   1  -5 -10   33.07    2.47
   1  -5  -9   20.38    1.99
   1  -5  -9   19.33    1.98
   1  -5  -9   21.24    1.76
   1  -5  -8  293.87    6.62
   1  -5  -8  302.72    7.44
   1  -5  -8  294.73    7.21
   1  -5  -7  376.87    7.44
   1  -5  -7  361.67    7.86
  -1   5   7  367.41   14.42
   1  -5  -7  370.24    7.30
   1  -5  -7  372.48   12.12
   1  -5  -7  382.69   12.41
   1  -5  -7  367.39    8.09
  -1   5   6  181.19    9.35
   1  -5  -6  201.64    5.20
   1  -5  -6  197.48    5.55
   1  -5  -6  196.45    8.51
   1  -5  -6  195.27    5.19
   1  -5  -6  203.68    5.79
   1  -5  -6  189.63    8.42
   1  -5  -5   33.14    3.73
   1  -5  -5   34.09    3.41
   1  -5  -5   31.59    3.34
   1  -5  -5   31.24    2.00
   1  -5  -5   34.59    2.30
  -1   5   5   35.25    3.76
   1  -5  -5   33.98    2.09
   1  -5  -5   34.01    2.24
   1  -5  -4    2.31    1.18
   1  -5  -4    4.49    1.27
   1  -5  -4    4.24    1.17
  -1   5   3  184.38    7.55
   1  -5  -3  182.22    7.58
  -1   5   3  171.76    5.72
   1  -5  -3  179.86    7.09
   1  -5  -3  182.22    7.14
   1  -5  -2  240.51    8.51
   1  -5  -2  232.62    7.88
  -1   5   2  240.07    8.45
   1  -5  -1  481.28   12.23
  -1   5   1  456.31   11.60
  -1   5   0 1372.94   21.00
   1  -5   0 1479.50   22.02
  -1   5  -1  481.49   13.07
   1  -5   1  472.03   12.88
   1  -5   2    6.22    1.63
  -1   5  -2    2.56    1.38
  -1   5  -3   28.70    3.96
   1  -5   3   25.43    3.44
  -1   5  -4  589.63    8.99
  -1   5  -4  591.67   18.56
   1  -5   4  554.39   16.66
  -1   5  -5    2.14    1.69
  -1   5  -5    5.54    0.99
   1  -5   5    5.43    1.83
  -1   5  -5    6.60    2.02
  -1   5  -6   21.48    1.93
  -1   5  -7   36.97    2.53
  -1   5  -8  260.56    6.30
  -1   5  -9    3.20    0.71
   1  -5   9    2.87    0.73
  -1   5 -10   11.02    1.02
   1  -5  10   10.45    0.92
   1  -4 -13   12.04    0.97
   1  -4 -12   10.80    1.17
   1  -4 -12   10.59    1.19
   1  -4 -12   12.10    1.12
   1  -4 -11   29.95    2.21
   1  -4 -11   32.21    2.11
   1  -4 -11   33.79    2.27
   1  -4 -10  306.14    6.83
   1  -4 -10  313.86    7.34
   1  -4 -10  310.79    7.25
   1  -4  -9  117.07    4.60
   1  -4  -9  108.49    4.16
   1  -4  -9  116.01    4.54
   1  -4  -8    1.18    1.04
   1  -4  -8    1.01    0.98
   1  -4  -8    1.02    0.62
  -1   4   8   -0.70    2.10
   1  -4  -8    0.58    0.63
   1  -4  -8    0.05    0.72
   1  -4  -8   -0.52    0.83
   1  -4  -7  392.49    7.87
   1  -4  -7  385.51    7.34
  -1   4   7  371.38   13.88
   1  -4  -7  375.48   11.49
   1  -4  -7  397.23    7.84
   1  -4  -7  398.03    7.19
   1  -4  -7  382.54   11.57
   1  -4  -7  394.85    7.39
   1  -4  -6   14.56    2.13
  -1   4   6   12.86    2.41
   1  -4  -6   12.92    2.10
   1  -4  -5 1389.20   19.40
  -1   4   5 1416.21   21.78
   1  -4  -5 1440.34   19.83
   1  -4  -4  250.83    8.28
   1  -4  -4  245.40    7.67
   1  -4  -4  247.90    7.71
   1  -4  -3   51.58    3.39
   1  -4  -3   52.70    3.64
   1  -4  -3   56.57    3.53
   1  -4  -2 3385.36   27.49
   1  -4  -2 3305.41   25.88
   1  -4  -2 3331.14   25.89
  -1   4   1    8.60    0.98
  -1   4   1    5.05    1.12
   1  -4  -1    6.12    1.28
   1  -4  -1    5.61    1.05
  -1   4   0  597.20   11.83
   1  -4   0  621.90   12.37
  -1   4  -1  165.45    6.59
   1  -4   1  165.58    6.72
   1  -4   2   17.73    2.45
  -1   4  -2   13.84    2.25
   1  -4   3  114.29    6.35
  -1   4  -3  114.74    6.61
   1  -4   3  115.53    5.01
   1  -4   4  922.20   15.22
  -1   4  -4  861.00   20.19
  -1   4  -5   91.39    6.05
  -1   4  -5   97.29    3.65
  -1   4  -5   82.96    6.87
   1  -4   5   93.66    3.40
  -1   4  -6  138.64    8.90
  -1   4  -6  136.33    4.61
  -1   4  -6  142.01    8.04
  -1   4  -7    8.06    1.18
  -1   4  -8   45.56    2.80
  -1   4  -9  403.84    7.85
  -1   4 -10   17.52    1.50
   1  -4  11   36.79    1.64
  -1   4 -11   33.28    1.53
  -1   4 -11   39.27    1.74
   1  -3 -13    1.43    0.42
   1  -3 -13    2.62    0.56
   1  -3 -12    1.21    0.51
   1  -3 -12    1.00    0.62
   1  -3 -12    0.11    0.44
   1  -3 -11   58.75    3.06
   1  -3 -11   60.80    3.11
   1  -3 -11   58.87    3.10
   1  -3 -10   86.11    3.85
   1  -3 -10   81.74    3.77
   1  -3 -10   84.80    3.88
   1  -3  -9  987.57   12.83
   1  -3  -9  979.28   12.90
   1  -3  -9  949.35   12.76
  -1   3   9  973.85   24.06
   1  -3  -8  134.03    6.98
  -1   3   8  134.38    8.70
   1  -3  -8  138.84    4.73
   1  -3  -8  137.92    6.91
   1  -3  -8  135.73    4.63
   1  -3  -7  763.99   15.67
   1  -3  -7  810.43   10.62
  -1   3   7  771.19   19.41
   1  -3  -7  764.89   15.34
   1  -3  -7  790.25   10.44
   1  -3  -7  808.07    9.65
   1  -3  -6   40.50    3.28
   1  -3  -6   39.25    3.28
  -1   3   6   39.89    4.00
   1  -3  -5 1148.55   15.89
   1  -3  -5 1175.90   16.52
  -1   3   4   26.52    1.69
   1  -3  -4   18.65    2.18
   1  -3  -4   22.20    2.13
   1  -3  -4   24.23    2.28
  -1   3   4   22.29    2.37
   1  -3  -3  306.71    7.21
   1  -3  -3  282.98    6.86
  -1   3   3  308.81    4.87
   1  -3  -3  292.95    7.45
   1  -3  -2   17.50    1.77
   1  -3  -2   18.83    1.72
   1  -3  -2   20.83    1.82
  -1   3   2   19.33    1.28
  -1   3   1 3748.59   19.02
   1  -3  -1 3849.72   24.94
  -1   3   1 3827.01   23.48
   1  -3  -1 3768.01   22.71
   1  -3  -1 3833.77   23.54
  -1   3   0   52.53    2.01
  -1   3   0   53.36    2.85
   1  -3   0   53.84    3.12
  -1   3  -1  584.01   10.20
  -1   3  -1  578.96    6.50
   1  -3   1  556.74   10.52
  -1   3  -2  162.42    6.06
  -1   3  -2  167.72    3.63
   1  -3   2  155.35    4.70
  -1   3  -3 1982.76   14.31
  -1   3  -3 1948.20   24.06
  -1   3  -4  703.26   16.43
   1  -3   4  690.16   12.03
  -1   3  -5  747.39   18.09
   1  -3   5  744.22   14.09
  -1   3  -6  444.95   12.87
   1  -3   6  408.14   11.55
  -1   3  -6  422.09   14.24
   1  -3   6  447.06    7.39
  -1   3  -6  429.09    7.63
  -1   3  -7   33.37    2.31
  -1   3  -7   37.15    4.26
  -1   3  -7   32.11    3.65
  -1   3  -8  267.37    6.60
  -1   3  -9   19.84    1.83
  -1   3 -10    1.78    0.67
  -1   3 -11   30.74    1.78
   1  -2 -13    1.95    0.50
   1  -2 -13    1.59    0.45
   1  -2 -12    0.03    0.61
   1  -2 -12   -0.13    0.38
   1  -2 -12    0.22    0.52
   1  -2 -11    9.57    1.42
   1  -2 -11   10.77    1.51
   1  -2 -11    8.95    1.19
   1  -2 -10    3.43    0.89
   1  -2 -10    3.51    1.01
   1  -2  -9  137.18    7.23
   1  -2  -9  141.57    7.01
   1  -2  -9  145.35    4.97
   1  -2  -9  140.15    4.71
  -1   2   9  156.46    9.73
  -1   2   8   41.43    4.79
   1  -2  -8   49.70    2.76
   1  -2  -8   49.92    2.68
   1  -2  -8   48.13    3.89
   1  -2  -8   46.83    4.11
   1  -2  -7  392.68   10.31
  -1   2   7  400.52   13.51
   1  -2  -7  405.07   11.01
   1  -2  -6  579.65   11.41
  -1   2   6  588.45   14.95
  -1   2   6  588.19   10.45
   1  -2  -6  595.44   12.13
  -1   2   5 1164.46   18.73
   1  -2  -5 1131.34   14.53
   1  -2  -5 1148.09   15.48
  -1   2   5 1175.86   12.82
   1  -2  -4  172.11    5.44
   1  -2  -4  178.15    5.22
  -1   2   4  179.02    4.35
  -1   2   4  169.14    6.19
  -1   2   3   23.59    1.99
   1  -2  -3   24.68    1.79
   1  -2  -3   22.89    1.93
   1  -2  -3   20.17    1.73
  -1   2   3   24.94    1.31
   1  -2  -2  776.92    9.72
   1  -2  -2  771.42    9.26
   1  -2  -2  768.77    9.10
  -1   2   2  792.08    5.53
  -1   2   2  775.70    5.68
   1  -2  -1 3944.72   20.56
   1  -2  -1 3901.14   18.80
   1  -2   0 1009.74    9.21
  -1   2   0 1009.96    8.01
  -1   2   0  993.42    9.49
  -1   2  -1 2109.96   15.82
   1  -2   1 2069.48   12.32
  -1   2  -2 1309.66   14.87
  -1   2  -2 1297.92   10.47
   1  -2   2 1270.73   13.38
   1  -2   3  306.91    6.45
  -1   2  -3  317.92    8.75
   1  -2   3  335.56    7.84
  -1   2  -3  321.15    5.90
   1  -2   4   52.10    3.56
  -1   2  -4   53.16    4.14
  -1   2  -4   52.47    2.75
   1  -2   4   50.44    3.17
   1  -2   5 1167.43   17.18
  -1   2  -5 1191.03   20.43
   1  -2   5 1164.60   18.80
  -1   2  -5 1179.40   17.12
   1  -2   6    6.96    1.58
  -1   2  -6    7.76    1.84
   1  -2   6    3.96    1.54
  -1   2  -6    8.50    1.73
  -1   2  -7   -0.46    0.91
   1  -2   7   -0.84    1.47
  -1   2  -7    0.60    0.40
  -1   2  -7   -0.07    1.02
  -1   2  -7    0.55    0.46
  -1   2  -8   59.85    5.18
  -1   2  -8   61.79    3.09
  -1   2  -8   65.55    5.03
  -1   2  -9   12.46    1.47
  -1   2  -9   11.35    1.29
  -1   2 -10    0.84    0.48
  -1   2 -10    0.47    0.54
  -1   2 -11   33.16    1.94
  -1   2 -12   26.99    1.57
  -1   2 -12   22.38    1.19
   1  -1 -13   28.50    1.59
   1  -1 -13   28.32    1.48
   1  -1 -12   29.25    1.94
   1  -1 -12   29.03    2.01
   1  -1 -11  188.88    5.47
   1  -1 -11  170.81    4.62
   1  -1 -10  989.23   11.88
   1  -1 -10  995.87   13.09
   1  -1  -9 1073.56   12.37
   1  -1  -9 1090.83   20.54
   1  -1  -9 1074.26   13.29
   1  -1  -8  229.18    5.44
   1  -1  -8  226.65    8.88
   1  -1  -8  244.80    8.32
  -1   1   8  239.01   11.35
   1  -1  -8  232.86    5.88
  -1   1   7  148.47    8.06
   1  -1  -7  150.63    5.98
   1  -1  -7  143.95    6.53
  -1   1   7  146.74    6.31
   1  -1  -6   98.31    4.93
  -1   1   6   93.27    4.47
  -1   1   6   89.73    5.76
   1  -1  -6   91.17    4.27
   1  -1  -5  450.97    9.63
  -1   1   5  446.52    8.57
  -1   1   5  452.56   11.55
   1  -1  -5  440.89    8.28
  -1   1   4  568.95    8.04
  -1   1   4  570.65   11.47
   1  -1  -4  557.62    8.26
   1  -1  -4  578.15    3.10
   1  -1  -4  571.91    9.69
   1  -1  -3    7.57    1.07
   1  -1  -3    9.68    0.99
   1  -1  -2 6852.53   24.87
  -1   1   2 6844.63   27.46
   1  -1  -1    4.79    0.57
   1  -1  -1    4.72    0.55
  -1   1   1    5.10    0.58
   1  -1  -1    4.07    0.55
  -1   1   1    4.79    0.47
  -1   1   0 5103.75   16.48
   1  -1   0 5135.16   17.05
   1  -1   0 5082.54   14.99
   1  -1   1 1525.35   10.25
  -1   1  -1 1545.46   11.53
  -1   1  -1 1586.83   10.01
   1  -1   1 1598.01    7.27
  -1   1  -1 1515.46   10.73
   1  -1   2 5276.50   19.44
  -1   1  -2 5190.02   20.98
   1  -1   2 5270.05   23.77
  -1   1  -2 5208.72   26.30
   1  -1   3 1708.81   16.23
  -1   1  -3 1646.43   13.54
  -1   1  -3 1739.40   17.94
   1  -1   3 1636.58   14.29
   1  -1   4  658.09   10.74
  -1   1  -4  700.66   10.54
  -1   1  -4  648.09    9.83
  -1   1  -4  692.09   12.46
   1  -1   4  685.73   11.73
   1  -1   5  372.11    9.79
   1  -1   5  359.99    9.24
  -1   1  -5  376.20    8.78
  -1   1  -5  354.74    9.68
  -1   1  -6    3.32    1.04
  -1   1  -6    4.53    1.23
   1  -1   6    3.98    1.46
  -1   1  -6    3.48    1.22
   1  -1   6    7.93    1.74
  -1   1  -7  125.34    3.94
   1  -1   7  110.71    6.69
  -1   1  -7  110.92    6.08
  -1   1  -7  121.20    3.73
   1  -1   7  116.47    6.64
  -1   1  -7  120.91    5.76
   1  -1   7  123.93    3.76
  -1   1  -7  112.66    6.34
   1  -1   8  160.00    8.80
   1  -1   8  177.46    8.91
  -1   1  -8  176.66    8.04
  -1   1  -8  163.07    4.71
  -1   1  -8  164.03    4.88
  -1   1  -9  311.81    6.69
  -1   1  -9  313.39    6.78
  -1   1 -10   18.52    1.66
  -1   1 -10   20.83    1.75
  -1   1 -11    7.76    1.00
  -1   1 -11    7.65    0.98
  -1   1 -12    2.06    0.67
   1   0 -13    8.78    0.86
   1   0 -12   33.91    2.09
   1   0 -12   33.75    1.97
   1   0 -11   56.77    2.92
   1   0 -10  119.76    4.47
   1   0  -9  514.50    8.28
   1   0  -9  503.57    9.14
  -1   0   8    0.18    1.12
   1   0  -8    0.18    0.49
   1   0  -8   -0.17    0.78
   1   0  -7  224.70    6.99
  -1   0   7  228.37   10.02
   1   0  -7  238.72    8.75
   1   0  -6  478.25    9.27
   1   0  -6  484.50   11.19
   1   0  -6  499.03   11.56
  -1   0   6  495.19   13.30
  -1   0   6  486.48   11.12
   1   0  -5  109.23    4.89
  -1   0   5  112.39    4.71
   1   0  -5  114.85    4.04
  -1   0   5  115.63    5.77
   1   0  -4  593.60    7.97
   1   0  -4  607.41   10.60
  -1   0   4  603.36   11.43
  -1   0   4  565.72    9.07
   1   0  -4  634.64   10.72
  -1   0   3  105.89    3.24
   1   0  -3  111.90    4.01
   1   0  -3  104.69    3.99
   1   0  -3  107.91    2.86
   1   0  -2  689.17    8.72
  -1   0   2  683.14    6.52
   1   0  -2  700.87    5.66
  -1   0   1 5299.39   18.22
   1   0  -1 5397.58   17.38
  -1   0   0   60.96    1.70
  -1   0   0   63.71    1.25
   1   0   0   64.35    1.39
  -1   0  -1 7444.70   21.11
  -1   0  -2 2827.54   15.11
  -1   0  -2 2841.54   14.98
   1   0   2 2855.67   14.35
  -1   0  -3  151.75    3.88
  -1   0  -3  150.33    3.58
  -1   0  -3  145.92    4.18
  -1   0  -3  147.73    4.12
   1   0   3  144.71    4.33
  -1   0  -4  933.94   11.84
  -1   0  -4  987.85   10.97
   1   0   4  998.70   13.67
   1   0   4  944.62   13.25
  -1   0  -4  966.97   12.35
  -1   0  -4  970.96   10.88
  -1   0  -5    0.67    0.60
   1   0   5    0.12    0.73
   1   0   5    0.35    0.80
  -1   0  -5    0.39    0.47
  -1   0  -5    0.60    0.47
   1   0   6  719.30   14.40
  -1   0  -6  742.27   11.38
   1   0   6  697.47   14.50
  -1   0  -6  749.12   12.01
  -1   0  -6  716.58   13.43
  -1   0  -7  110.46    5.74
   1   0   7  113.79    6.43
  -1   0  -7  114.24    5.13
   1   0   7  114.71    6.61
  -1   0  -8  756.64   10.08
   1   0   8  723.91   18.24
  -1   0  -8  756.65   16.08
  -1   0  -8  735.08    9.36
  -1   0  -8  750.49    9.90
   1   0   9 1667.93   28.40
  -1   0  -9 1743.20   15.03
  -1   0  -9 1702.96   15.96
  -1   0  -9 1725.72   25.44
  -1   0  -9 1680.66   15.78
   1   0   9 1711.62   29.43
  -1   0 -10  332.98    7.14
  -1   0 -11   17.55    1.59
  -1   0 -11   21.19    2.02
  -1   0 -12    2.26    0.71
  -1   0 -12    2.98    0.63
  -1   0 -13   33.72    1.67
  -1   0 -13   31.07    1.57
   1   1 -12   16.42    1.25
   1   1 -12   14.99    1.30
   1   1 -11   94.51    3.24
   1   1 -11   89.11    3.47
   1   1 -10   28.73    2.07
   1   1 -10   27.66    2.16
   1   1  -9  146.39    4.67
  -1  -1   8  450.13   15.47
   1   1  -8  441.12    7.86
   1   1  -8  442.96   13.47
  -1  -1   7   62.86    5.40
   1   1  -7   60.45    2.73
   1   1  -7   60.43    4.82
   1   1  -7   60.71    4.82
  -1  -1   6  459.59   12.88
   1   1  -6  470.69   12.55
   1   1  -6  473.29   12.40
   1   1  -6  475.00    9.03
   1   1  -5  854.95   16.04
  -1  -1   5  813.90   15.32
   1   1  -5  856.01   10.95
   1   1  -4 1109.84   11.08
   1   1  -4 1101.01   17.00
  -1  -1   4 1069.30   15.48
  -1  -1   3  427.03    8.45
   1   1  -3  407.46    9.17
   1   1  -2  410.15    7.59
  -1  -1   1 4995.30   14.20
   1   1  -1 4875.69   20.90
  -1  -1   0 7436.81   21.16
   1   1   0 7288.63   21.02
  -1  -1  -1  539.89    5.20
  -1  -1  -1  532.97    5.26
  -1  -1  -1  523.92    5.58
  -1  -1  -1  516.48    5.64
  -1  -1  -2  402.29    4.23
  -1  -1  -2  413.79    5.34
   1   1   3 1338.67   12.93
  -1  -1  -3 1337.17    9.64
  -1  -1  -4  141.49    3.66
   1   1   4  133.68    4.86
  -1  -1  -4  141.11    4.62
   1   1   4  145.17    5.01
  -1  -1  -4  133.22    3.67
   1   1   5  846.55   14.43
  -1  -1  -5  882.94    9.74
  -1  -1  -5  839.90   12.66
   1   1   5  855.65   14.02
  -1  -1  -5  825.07   10.59
   1   1   6    1.54    0.98
  -1  -1  -6    0.04    0.42
  -1  -1  -6    0.81    0.68
   1   1   6    0.85    0.80
   1   1   7  305.24   10.08
  -1  -1  -7  320.21    8.21
  -1  -1  -7  308.63    9.20
   1   1   7  294.80   10.80
   1   1   8   91.34    6.61
  -1  -1  -8   90.94    3.40
  -1  -1  -8   97.64    3.62
  -1  -1  -8   86.27    5.40
   1   1   8   78.20    5.60
  -1  -1  -8   91.10    3.32
   1   1   9 1087.67   22.17
  -1  -1  -9 1137.63   12.42
  -1  -1  -9 1127.31   12.58
  -1  -1  -9 1140.03   20.65
   1   1   9 1120.90   24.56
  -1  -1  -9 1134.81   13.20
  -1  -1 -10    1.89    0.74
  -1  -1 -10    2.73    0.78
  -1  -1 -10    2.45    0.94
  -1  -1 -11   51.73    3.00
  -1  -1 -11   47.79    2.70
  -1  -1 -12    1.01    0.53
  -1  -1 -12   -0.06    0.62
  -1  -1 -13    0.44    0.39
  -1  -1 -13    0.56    0.30
  -1  -1 -13   -0.07    0.39
   1   2 -12    1.52    0.46
   1   2 -11    3.04    0.69
   1   2 -11    2.27    0.57
   1   2 -10    0.22    0.53
   1   2 -10    0.37    0.50
   1   2  -9  112.43    4.23
   1   2  -8  341.56    7.29
   1   2  -8  362.87   12.96
  -1  -2   8  345.14   13.72
   1   2  -8  359.66   12.75
   1   2  -7  587.16   16.11
   1   2  -7  570.35    8.91
   1   2  -7  605.44   16.63
  -1  -2   7  552.99   16.29
   1   2  -6    8.76    2.12
  -1  -2   6   10.86    2.37
  -1  -2   5 1092.12   18.78
   1   2  -5 1088.95   20.82
   1   2  -4  109.68    6.10
  -1  -2   4  121.09    5.63
  -1  -2   3  613.94   11.13
   1   2  -3  627.06   12.28
   1   2  -2  168.75    5.52
  -1  -2   2  161.21    5.02
   1   2  -1 1783.68   15.49
  -1  -2   1 1759.71    5.62
   1   2   0 1322.32   12.34
  -1  -2   0 1324.42    8.21
  -1  -2  -1 1694.17   10.71
  -1  -2  -1 1692.76   12.69
   1   2   2   71.35    2.81
  -1  -2  -2   67.70    2.22
  -1  -2  -2   66.96    2.55
  -1  -2  -2   65.52    2.27
  -1  -2  -2   70.58    2.77
  -1  -2  -2   69.81    2.51
  -1  -2  -3 1358.73   12.74
   1   2   3 1396.76   13.38
  -1  -2  -3 1421.16   14.26
  -1  -2  -3 1322.69    9.84
  -1  -2  -3 1340.45   11.40
  -1  -2  -4 1346.75   14.36
   1   2   4 1336.08   14.97
  -1  -2  -4 1321.41   12.61
  -1  -2  -4 1374.78    9.95
  -1  -2  -5 2504.70   19.23
  -1  -2  -5 2469.68   21.75
   1   2   5 2515.42   23.30
   1   2   5 2557.11   25.07
   1   2   6   84.70    4.87
   1   2   6   86.91    5.35
  -1  -2  -6   84.43    4.43
  -1  -2  -6   89.56    4.04
   1   2   7   36.18    3.51
   1   2   7   37.77    4.03
  -1  -2  -7   38.96    2.94
  -1  -2  -7   36.46    3.21
  -1  -2  -8   28.11    2.01
  -1  -2  -8   22.35    1.60
   1   2   8   24.86    3.14
  -1  -2  -8   20.98    2.71
  -1  -2  -8   21.67    1.68
   1   2   9  193.65   10.38
  -1  -2  -9  207.17    5.75
  -1  -2  -9  216.81    9.10
  -1  -2  -9  196.13    4.96
  -1  -2  -9  207.96    5.88
   1   2   9  191.07    9.03
  -1  -2  -9  208.38    5.38
  -1  -2 -10   80.23    3.26
  -1  -2 -10   81.67    3.75
  -1  -2 -10   83.78    3.72
  -1  -2 -11  106.66    4.15
  -1  -2 -11  102.78    3.47
  -1  -2 -11  105.67    4.18
  -1  -2 -12    0.90    0.65
  -1  -2 -12    0.80    0.63
  -1  -2 -13   -0.06    0.31
  -1  -2 -13    0.52    0.35
  -1  -2 -13    0.42    0.38
   1   3 -11   20.84    1.38
   1   3 -11   22.11    1.49
   1   3 -10   41.02    2.39
   1   3 -10   39.24    2.14
   1   3  -9  552.73    9.42
   1   3  -8  434.40    8.46
   1   3  -7  161.26    5.08
  -1  -3   7  167.59    9.21
   1   3  -7  160.38    9.31
   1   3  -7  169.50    9.36
   1   3  -6  298.52    6.49
   1   3  -6  300.59   12.72
  -1  -3   6  270.18   10.84
  -1  -3   5  201.01    8.53
   1   3  -5  190.89    9.67
  -1  -3   4  240.66    8.44
   1   3  -4  229.58    9.56
   1   3  -3  480.77   12.10
  -1  -3   3  463.26   10.60
   1   3  -2  535.89   11.35
  -1  -3   2  522.09   10.33
  -1  -3   1  230.12    6.44
  -1  -3   1  222.79    6.42
   1   3  -1  228.01    6.72
  -1  -3   0  430.04    8.32
  -1  -3   0  432.73    6.31
  -1  -3  -1   50.61    2.28
  -1  -3  -1   54.27    2.89
  -1  -3  -2  162.46    5.08
  -1  -3  -2  161.53    4.38
   1   3   3  609.31    9.68
  -1  -3  -3  619.47    9.60
  -1  -3  -3  603.96    9.13
  -1  -3  -3  612.89   10.47
   1   3   4  709.33   11.31
  -1  -3  -4  717.05   10.60
  -1  -3  -4  728.14   11.40
  -1  -3  -5 2920.58   23.00
   1   3   5 2923.47   25.57
  -1  -3  -5 2882.19   24.81
  -1  -3  -6   67.39    4.16
   1   3   6   62.81    4.68
   1   3   6   62.53    4.19
  -1  -3  -6   68.76    3.83
  -1  -3  -7   88.27    3.32
  -1  -3  -7   89.62    3.23
   1   3   7   83.44    5.34
  -1  -3  -7   89.09    4.61
   1   3   7   83.55    6.05
  -1  -3  -7   79.91    4.90
  -1  -3  -8    9.80    1.23
  -1  -3  -8    8.36    1.15
  -1  -3  -8    8.68    1.01
  -1  -3  -8   11.24    1.22
   1   3   8    6.78    1.72
   1   3   8   10.49    2.60
  -1  -3  -8   10.47    2.05
  -1  -3  -9   12.84    1.39
  -1  -3  -9   12.66    1.25
  -1  -3  -9   10.66    1.47
  -1  -3  -9    9.35    1.37
   1   3   9    9.86    2.63
  -1  -3  -9   10.29    2.33
  -1  -3 -10  269.59    6.72
  -1  -3 -10  271.76    6.15
  -1  -3 -10  273.06    6.88
  -1  -3 -11   14.68    1.63
  -1  -3 -11   14.73    1.65
  -1  -3 -12    7.36    1.09
  -1  -3 -12    7.17    0.96
  -1  -3 -12    7.86    1.14
  -1  -3 -13   16.56    1.06
  -1  -3 -13   20.00    1.35
  -1  -3 -13   18.63    1.32
   1   4 -11    0.06    0.29
   1   4 -10   31.11    1.95
   1   4  -9   25.43    2.04
   1   4  -8  658.46   10.61
   1   4  -7   38.02    2.60
   1   4  -6   82.10    7.18
   1   4  -6   80.41    3.61
  -1  -4   6   71.76    5.84
  -1  -4   5    1.90    1.20
   1   4  -5    2.14    0.70
   1   4  -5   -0.01    1.41
   1   4  -4  215.22   10.20
  -1  -4   4  225.08    8.85
  -1  -4   3  583.50   14.14
  -1  -4   3  573.07   13.17
  -1  -4   2   61.81    4.09
   1   4  -2   64.92    4.61
  -1  -4   2   61.51    4.31
   1   4  -1  644.72   13.30
  -1  -4   1  613.65   12.15
   1   4   0 5412.05   36.51
  -1  -4   0 5308.01   34.92
  -1  -4  -1 2318.82   22.18
  -1  -4  -1 2330.79   18.36
  -1  -4  -2   34.54    2.73
  -1  -4  -2   35.92    2.46
   1   4   2   36.91    3.02
  -1  -4  -3   59.95    3.71
  -1  -4  -3   57.09    3.30
   1   4   3   61.35    3.49
   1   4   4  189.88    6.41
  -1  -4  -4  190.07    6.29
  -1  -4  -4  195.72    6.57
  -1  -4  -4  184.65    7.06
  -1  -4  -5   65.42    4.13
   1   4   5   72.43    4.25
  -1  -4  -5   73.64    4.12
   1   4   6    4.42    1.33
  -1  -4  -6    5.18    1.31
  -1  -4  -6    5.80    1.46
   1   4   7    1.42    1.03
  -1  -4  -7    2.93    0.74
  -1  -4  -7    3.07    0.81
  -1  -4  -7    4.13    1.24
  -1  -4  -7    4.76    0.83
   1   4   7    2.38    0.81
  -1  -4  -7    3.65    0.77
  -1  -4  -7    2.77    1.23
  -1  -4  -8  145.58    4.56
  -1  -4  -8  148.57    7.56
  -1  -4  -8  147.31    4.46
  -1  -4  -8  141.97    4.71
  -1  -4  -8  143.08    4.80
   1   4   8  159.27    9.54
  -1  -4  -9  284.47    6.30
  -1  -4  -9  269.56    6.69
  -1  -4  -9  278.56    6.90
  -1  -4 -10    9.04    1.42
  -1  -4 -10    8.87    1.14
  -1  -4 -10    7.89    1.29
  -1  -4 -11    5.09    1.08
  -1  -4 -11    7.03    0.94
  -1  -4 -11    7.24    1.17
  -1  -4 -12    4.60    0.84
  -1  -4 -12    4.41    0.86
  -1  -4 -13   62.68    2.29
  -1  -4 -13   62.86    2.16
   1   5 -10  127.45    3.31
   1   5  -9    6.54    0.99
   1   5  -8   68.93    3.29
   1   5  -7   -0.35    0.62
   1   5  -6    3.49    0.91
   1   5  -5   28.93    4.80
   1   5  -5   27.95    2.16
  -1  -5   5   28.52    4.11
  -1  -5   5   31.05    3.97
  -1  -5   4 1157.98   22.00
   1   5  -4 1196.07   26.70
  -1  -5   4 1160.08   23.80
   1   5  -4 1196.95   12.94
  -1  -5   3  861.53   18.00
  -1  -5   3  878.70   19.48
  -1  -5   2   70.76    5.21
   1   5  -2   73.10    5.69
   1   5  -1   -0.44    1.25
  -1  -5   1    0.43    0.95
   1   5   0    1.65    1.17
  -1  -5   0    0.83    0.91
  -1  -5  -1   15.88    2.28
   1   5   1   14.31    2.38
  -1  -5  -1   15.88    1.83
   1   5   2   28.88    3.17
  -1  -5  -2   26.64    2.43
  -1  -5  -2   29.66    2.98
  -1  -5  -3  397.31   10.86
   1   5   3  392.84    9.91
  -1  -5  -3  396.86    9.78
   1   5   3  400.54   11.64
   1   5   4  272.62    8.43
  -1  -5  -4  274.81    9.41
  -1  -5  -4  273.13    8.60
   1   5   5  118.70    5.87
  -1  -5  -5  121.44    6.76
  -1  -5  -5  108.25    5.77
  -1  -5  -6    7.39    1.05
   1   5   6    7.38    1.62
  -1  -5  -6    9.42    1.25
  -1  -5  -6    7.53    1.62
  -1  -5  -6    7.77    1.10
  -1  -5  -6    7.44    1.07
  -1  -5  -6    6.55    1.65
  -1  -5  -6    9.60    1.25
  -1  -5  -7   16.12    1.63
  -1  -5  -7   17.82    1.76
   1   5   7   15.57    2.89
  -1  -5  -7   13.86    1.46
  -1  -5  -7   13.70    2.23
  -1  -5  -7   16.32    1.62
  -1  -5  -7   16.97    2.57
  -1  -5  -8   13.64    1.53
  -1  -5  -8   12.64    1.51
  -1  -5  -8   13.83    1.62
   1   5   8   16.36    3.14
  -1  -5  -8   13.59    1.45
  -1  -5  -9    2.17    0.70
  -1  -5  -9    2.23    0.78
  -1  -5  -9    2.18    0.81
  -1  -5 -10   65.86    2.86
  -1  -5 -10   60.40    3.07
  -1  -5 -10   57.36    3.20
  -1  -5 -11    4.95    1.00
  -1  -5 -11    5.25    0.91
  -1  -5 -11    5.49    0.76
  -1  -5 -12    5.06    0.84
  -1  -5 -12    3.35    0.64
  -1  -5 -13    1.13    0.36
  -1  -6   9   53.67    2.20
   1   6  -9   53.59    2.15
   1   6  -8   21.84    1.65
   1   6  -7    0.88    0.63
   1   6  -6  392.55    7.99
   1   6  -5    2.94    0.90
  -1  -6   4 1504.48   29.06
   1   6  -4 1463.57   14.68
   1   6  -3   18.47    1.59
   1   6  -3   23.19    4.03
  -1  -6   3   17.54    3.23
  -1  -6   2  175.82    5.19
  -1  -6   2  162.55    8.80
  -1  -6   1   59.21    5.12
  -1  -6   1   61.14    2.97
   1   6  -1   60.21    5.56
  -1  -6   0   42.95    4.22
   1   6   0   46.16    4.75
  -1  -6   0   46.99    2.53
   1   6   1  199.43    9.45
  -1  -6  -1  196.52    8.61
  -1  -6  -1  211.62    5.22
  -1  -6  -1  205.40    5.22
  -1  -6  -2  671.59   15.94
   1   6   2  683.45   17.08
  -1  -6  -2  685.50    9.31
  -1  -6  -2  712.20    9.57
  -1  -6  -2  684.72   13.82
   1   6   3    1.05    0.76
  -1  -6  -3    3.46    1.44
   1   6   3    0.64    1.13
  -1  -6  -3    1.74    0.68
  -1  -6  -3    2.65    0.70
  -1  -6  -3    3.57    1.12
  -1  -6  -4   10.00    2.18
  -1  -6  -4    9.13    1.20
  -1  -6  -4   10.22    1.28
  -1  -6  -4    9.11    1.09
   1   6   4   11.12    1.93
   1   6   4   12.54    2.66
  -1  -6  -4   10.50    1.96
   1   6   5  239.74   11.50
  -1  -6  -5  248.64   10.50
  -1  -6  -5  243.63    5.59
  -1  -6  -5  244.30    5.81
  -1  -6  -5  244.70    6.04
  -1  -6  -5  246.44    5.90
  -1  -6  -5  238.83    9.40
  -1  -6  -6   43.72    2.50
  -1  -6  -6   34.40    2.43
  -1  -6  -6   37.44    2.36
  -1  -6  -6   37.88    3.94
  -1  -6  -6   38.24    2.46
  -1  -6  -6   35.81    2.28
  -1  -6  -7  197.05    5.56
  -1  -6  -7  201.14    5.35
  -1  -6  -7  205.74    5.98
  -1  -6  -7  201.95    5.59
   1   6   7  211.34   11.15
  -1  -6  -8   65.12    3.41
  -1  -6  -8   65.26    3.05
  -1  -6  -8   67.68    3.31
  -1  -6  -8   65.73    3.21
  -1  -6  -9   -0.57    0.56
  -1  -6  -9    0.31    0.54
  -1  -6  -9   -0.45    0.86
  -1  -6  -9   -0.38    0.77
  -1  -6 -10   20.80    1.87
  -1  -6 -10   21.71    1.54
  -1  -6 -10   20.92    1.73
  -1  -6 -11   13.59    1.38
  -1  -6 -11   12.08    1.20
  -1  -6 -12    0.95    0.46
  -1  -6 -12    1.06    0.36
  -1  -7   8  122.65    3.01
  -1  -7   8  122.13    3.12
  -1  -7   7   14.42    1.37
   1   7  -7   12.42    1.16
  -1  -7   6   49.86    2.73
   1   7  -6   44.61    2.38
  -1  -7   5  222.01    6.06
   1   7  -5  208.28    5.33
  -1  -7   4   69.45    3.55
  -1  -7   3   29.69    2.31
  -1  -7   2  161.14    5.25
  -1  -7   1  305.21   12.53
  -1  -7   1  297.24    7.02
   1   7  -1  320.01   14.01
  -1  -7   0  234.87   10.75
  -1  -7   0  219.05    6.03
   1   7   0  243.91   11.88
  -1  -7   0  222.75    5.97
  -1  -7  -1   12.24    1.51
  -1  -7  -1   13.68    2.74
   1   7   1   14.11    2.99
  -1  -7  -1   12.50    1.50
   1   7   2  707.61   19.57
  -1  -7  -2  680.11   10.30
  -1  -7  -2  671.56   10.26
  -1  -7  -2  716.74   18.41
  -1  -7  -2  668.74    9.15
  -1  -7  -3   84.28    3.64
  -1  -7  -3   83.80    3.61
  -1  -7  -3   80.21    3.23
  -1  -7  -3   81.24    6.21
   1   7   3   79.32    6.55
   1   7   4  670.81   19.69
  -1  -7  -4  662.73   17.85
  -1  -7  -4  637.26    9.95
  -1  -7  -4  630.76    9.78
  -1  -7  -4  624.63   15.55
  -1  -7  -4  641.57    9.21
  -1  -7  -5  763.35   11.00
  -1  -7  -5  707.39   10.71
  -1  -7  -5  792.34   19.96
  -1  -7  -5  703.35   10.34
  -1  -7  -5  726.60   10.05
  -1  -7  -6   83.22    3.55
  -1  -7  -6   83.78    3.70
  -1  -7  -6   90.71    3.95
  -1  -7  -6   87.49    3.57
  -1  -7  -7  477.90    9.10
  -1  -7  -7  474.27    8.22
  -1  -7  -7  480.20    8.27
  -1  -7  -7  470.38    8.57
  -1  -7  -8    2.13    0.75
  -1  -7  -8    2.53    0.69
  -1  -7  -8    1.91    0.66
  -1  -7  -8    3.24    1.02
  -1  -7  -9   10.61    1.38
  -1  -7  -9   11.67    1.17
  -1  -7  -9    9.96    1.26
  -1  -7  -9   11.63    1.24
  -1  -7 -10   -0.59    0.54
  -1  -7 -10   -0.03    0.39
  -1  -7 -11   -0.25    0.39
  -1  -8   6   54.11    2.32
  -1  -8   6   55.60    2.34
  -1  -8   5   66.02    2.91
  -1  -8   5   66.60    2.92
  -1  -8   4    1.16    0.65
  -1  -8   4    0.88    0.76
  -1  -8   3   11.47    1.49
  -1  -8   3   13.75    1.59
  -1  -8   2   31.74    2.39
  -1  -8   2   28.21    2.27
  -1  -8   1   45.07    2.85
  -1  -8   1   46.64    2.86
  -1  -8   0  776.81   11.43
  -1  -8   0  781.85   11.39
  -1  -8  -1   76.30    3.60
  -1  -8  -1   71.85    3.52
  -1  -8  -2   19.12    1.87
  -1  -8  -2   17.97    1.83
  -1  -8  -3  408.28    8.11
  -1  -8  -3  418.21    8.31
  -1  -8  -3  403.83    7.21
  -1  -8  -4   45.18    2.46
  -1  -8  -4   43.60    2.73
  -1  -8  -4   44.38    2.67
  -1  -8  -5  246.00    6.31
  -1  -8  -5  237.85    6.00
  -1  -8  -5  241.30    5.68
  -1  -8  -6   20.59    1.77
  -1  -8  -6   21.67    1.97
  -1  -8  -6   22.82    1.78
  -1  -8  -7   30.63    2.16
  -1  -8  -7   32.44    2.07
  -1  -8  -7   31.31    2.25
  -1  -8  -8   10.30    1.12
  -1  -8  -8   10.23    1.28
  -1  -8  -8    9.39    1.28
  -1  -8  -9    9.13    1.09
  -1  -8  -9    9.28    1.11
  -1  -8  -9   10.93    0.96
  -1  -8 -10   10.32    0.99
  -1  -9   5    2.64    0.52
  -1  -9   5    2.87    0.55
  -1  -9   4    9.97    1.03
  -1  -9   4   10.50    1.06
  -1  -9   3   23.31    1.73
  -1  -9   3   21.78    1.64
  -1  -9   2   43.60    2.40
  -1  -9   2   43.57    2.46
  -1  -9   1  137.22    4.48
  -1  -9   1  131.09    4.33
  -1  -9   0   17.79    1.72
  -1  -9   0   19.56    1.83
  -1  -9  -1  206.76    5.59
  -1  -9  -1  199.56    5.48
  -1  -9  -2  107.20    4.00
  -1  -9  -2  112.42    4.19
  -1  -9  -3    1.38    0.79
  -1  -9  -3    1.22    0.76
  -1  -9  -4   52.59    2.84
  -1  -9  -4   53.49    2.74
  -1  -9  -5    1.23    0.55
  -1  -9  -5    0.46    0.51
  -1  -9  -5    0.61    0.79
  -1  -9  -6   17.97    1.47
  -1  -9  -6   15.82    1.54
  -1  -9  -7    2.82    0.78
  -1  -9  -7    4.01    0.68
  -1  -9  -8    1.73    0.56
  -1 -10   2    1.03    0.38
  -1 -10   2    0.65    0.33
  -1 -10   1   24.25    1.52
  -1 -10   1   26.20    1.59
  -1 -10   0   51.27    2.30
  -1 -10   0   49.06    2.25
  -1 -10  -1    2.15    0.62
  -1 -10  -1    1.96    0.64
  -1 -10  -2   11.57    1.16
  -1 -10  -2   12.12    1.21
  -1 -10  -3    2.42    0.62
  -1 -10  -3    3.47    0.75
  -1 -10  -4    1.43    0.62
  -1 -10  -4    1.25    0.47
  -1 -10  -5   23.16    1.54
  -1 -10  -5   22.49    1.37
  -1 -10  -6   15.60    1.00
  -1 -10  -6   16.89    1.26
  -1 -10  -7   19.32    1.17
   2 -10  -5    0.74    0.38
   2 -10  -5    0.65    0.27
   2 -10  -4    2.31    0.55
   2 -10  -4    2.59    0.51
   2 -10  -3    1.99    0.56
   2 -10  -3    1.59    0.44
   2 -10  -2    6.01    0.73
   2 -10  -2    6.68    0.83
   2 -10  -1   26.97    1.43
   2 -10  -1   28.36    1.55
   2 -10   0   15.66    1.10
   2 -10   0   16.08    1.06
   2 -10   1   20.52    1.15
   2  -9  -8   26.42    1.43
   2  -9  -7   -0.23    0.35
   2  -9  -7    0.29    0.38
   2  -9  -6    4.23    0.80
   2  -9  -6    5.74    0.91
   2  -9  -6    3.56    0.68
   2  -9  -5   42.88    2.18
   2  -9  -5   45.20    2.39
   2  -9  -4  278.88    5.68
   2  -9  -4  283.66    6.03
   2  -9  -3   57.09    2.81
   2  -9  -3   57.97    2.68
   2  -9  -2   80.23    3.14
   2  -9  -2   81.52    3.35
   2  -9  -1   31.73    1.99
   2  -9  -1   28.81    1.97
   2  -9   0    4.82    0.83
   2  -9   0    5.62    0.94
   2  -9   1   19.30    1.51
   2  -9   1   16.44    1.45
   2  -9   2  125.00    3.53
   2  -9   2  125.59    3.23
   2  -9   2  129.60    3.76
   2  -9   3   18.27    1.19
   2  -9   3   16.80    1.25
   2  -9   3   17.41    1.31
   2  -9   4    0.75    0.30
   2  -9   4    1.99    0.44
   2  -8 -10    3.84    0.57
   2  -8  -9   29.59    1.73
   2  -8  -8    0.11    0.44
   2  -8  -8    0.71    0.60
   2  -8  -7    4.71    1.01
   2  -8  -7    4.21    0.79
   2  -8  -7    3.97    1.01
   2  -8  -6    0.66    0.73
   2  -8  -6    0.73    0.67
   2  -8  -6    0.81    0.62
   2  -8  -5   33.16    2.19
   2  -8  -5   32.49    2.42
   2  -8  -5   34.03    2.37
   2  -8  -4  585.36    9.27
   2  -8  -4  579.52    9.98
   2  -8  -4  587.26    9.73
   2  -8  -3    0.65    0.77
   2  -8  -3    1.89    0.87
   2  -8  -3    0.57    0.73
   2  -8  -2   -0.09    0.66
   2  -8  -2    0.25    0.58
   2  -8  -1  120.99    4.23
   2  -8  -1  116.18    4.37
   2  -8   0    5.09    1.00
   2  -8   0    3.58    1.00
   2  -8   1    4.80    1.09
   2  -8   1    2.87    0.81
   2  -8   1    4.61    0.92
   2  -8   2    2.92    0.74
   2  -8   2    2.20    0.79
   2  -8   2    1.63    0.60
   2  -8   3  117.38    3.89
   2  -8   3  117.83    4.09
   2  -8   4  327.15    6.16
   2  -8   4  332.85    6.48
   2  -8   5    4.33    0.78
   2  -8   5    5.64    0.84
   2  -8   6  292.15    4.67
   2  -8   6  295.21    4.60
   2  -8   6  300.85    4.74
   2  -7 -11    1.05    0.37
   2  -7 -10    1.98    0.60
   2  -7 -10    1.39    0.55
   2  -7  -9   86.23    3.42
   2  -7  -9   80.34    3.53
   2  -7  -8  191.36    5.47
   2  -7  -8  188.28    4.79
   2  -7  -8  186.92    5.77
   2  -7  -7  184.25    5.62
   2  -7  -7  191.07    5.10
   2  -7  -7  185.61    6.02
   2  -7  -7  192.98    5.48
   2  -7  -6    6.89    1.28
   2  -7  -6    5.69    1.36
   2  -7  -6    5.03    1.09
   2  -7  -6    6.07    1.11
   2  -7  -5   12.90    1.78
   2  -7  -5   15.67    1.70
   2  -7  -5   13.75    1.53
   2  -7  -5   13.95    1.67
   2  -7  -4   11.25    1.55
   2  -7  -4   11.05    1.40
   2  -7  -4   10.67    1.46
   2  -7  -3   75.58    6.14
   2  -7  -3   73.92    3.68
   2  -7  -3   74.93    3.37
   2  -7  -3   67.83    3.38
   2  -7  -2   84.20    6.50
   2  -7  -2   77.77    3.47
   2  -7  -2   79.15    3.78
   2  -7  -2   80.45    3.71
   2  -7  -1    5.34    1.05
   2  -7  -1    8.02    2.07
   2  -7  -1    6.37    1.15
   2  -7   0   -0.53    1.48
   2  -7   0    0.29    0.54
   2  -7   0   -0.35    0.60
   2  -7   0   -0.68    0.81
   2  -7   1  452.65    8.68
   2  -7   1  417.07    7.99
   2  -7   2  322.85    7.06
   2  -7   2  341.23    7.54
   2  -7   3    0.67    0.64
   2  -7   3    0.38    0.56
   2  -7   4   36.22    2.38
   2  -7   4   40.93    2.63
   2  -7   5   26.72    1.98
  -2   7  -5   24.88    1.85
   2  -7   5   24.92    2.01
  -2   7  -6   93.43    3.28
   2  -7   6   96.86    3.46
   2  -7   6  100.74    3.62
   2  -7   7    1.18    0.56
   2  -7   7    0.49    0.42
  -2   7  -7    0.88    0.39
   2  -6 -12   -0.10    0.31
   2  -6 -11   24.19    1.65
   2  -6 -11   22.73    1.56
   2  -6 -10   43.18    2.55
   2  -6 -10   40.13    2.36
   2  -6  -9  124.84    4.48
   2  -6  -9  125.41    4.69
   2  -6  -8   52.91    2.69
   2  -6  -8   51.29    3.08
   2  -6  -8   52.55    3.24
   2  -6  -7   82.30    4.02
   2  -6  -7   82.68    3.89
   2  -6  -7   84.12    3.45
   2  -6  -7   83.70    3.65
   2  -6  -6  323.32    6.75
   2  -6  -6  302.23    7.70
   2  -6  -6  314.57    7.49
   2  -6  -6  313.60    7.00
   2  -6  -5   13.41    1.44
   2  -6  -5   14.18    1.75
   2  -6  -5   13.20    2.71
   2  -6  -5   17.24    2.75
   2  -6  -5   15.95    1.81
   2  -6  -5   15.67    1.65
   2  -6  -5   14.42    2.58
   2  -6  -4    0.61    0.85
   2  -6  -4    1.31    0.87
   2  -6  -4    0.83    0.58
   2  -6  -4    0.81    0.74
   2  -6  -4    2.32    1.13
   2  -6  -3  173.18    5.23
   2  -6  -3  166.32    4.69
   2  -6  -3  168.51    5.46
   2  -6  -3  174.31    8.48
   2  -6  -3  165.63    4.94
   2  -6  -2  364.87    7.52
   2  -6  -2  355.06   12.15
   2  -6  -2  351.88    6.81
   2  -6  -1    1.90    0.83
   2  -6  -1    0.49    0.57
   2  -6  -1    1.13    1.08
   2  -6  -1    1.57    0.65
  -2   6   0  185.75    8.20
   2  -6   0  194.62    9.13
   2  -6   0  192.31    5.11
   2  -6   0  201.09    5.47
   2  -6   1  119.56    7.37
  -2   6  -1  111.37    6.77
   2  -6   1  119.54    4.12
   2  -6   1  120.50    4.32
   2  -6   2  431.40   14.39
  -2   6  -2  430.32   13.87
   2  -6   2  390.80    7.62
   2  -6   2  408.01    8.08
  -2   6  -3   10.88    1.29
  -2   6  -3   11.50    2.82
   2  -6   3    8.99    2.38
   2  -6   3   12.02    1.49
   2  -6   4    7.57    1.29
  -2   6  -4    9.57    1.26
  -2   6  -5   31.42    2.25
   2  -6   5   29.26    2.32
  -2   6  -6   60.10    3.02
   2  -6   6   64.73    3.33
  -2   6  -7   10.97    1.25
   2  -6   7   10.14    1.32
   2  -6   8    3.91    0.79
   2  -6   8    3.72    0.71
  -2   6  -8    4.29    0.74
   2  -6   9    0.46    0.30
   2  -6   9    0.72    0.32
  -2   6  -9    0.81    0.36
   2  -5 -12    7.42    0.81
   2  -5 -12    7.36    0.84
   2  -5 -11    2.01    0.55
   2  -5 -11    1.59    0.63
   2  -5 -11    2.06    0.71
   2  -5 -10   28.33    1.94
   2  -5 -10   24.33    2.06
   2  -5 -10   28.88    2.20
   2  -5  -9    0.68    0.79
   2  -5  -9    1.30    0.79
   2  -5  -9    3.30    0.86
   2  -5  -8   47.70    2.59
   2  -5  -8   48.56    3.02
   2  -5  -8   46.89    3.01
   2  -5  -8   47.24    2.73
   2  -5  -7  384.97    8.26
   2  -5  -7  417.80   13.31
   2  -5  -7  390.33    7.68
  -2   5   7  367.74   14.42
   2  -5  -7  394.18    7.31
   2  -5  -7  384.86    8.48
   2  -5  -7  390.10   12.72
   2  -5  -7  385.37    7.66
   2  -5  -6  126.42    4.07
   2  -5  -6  130.01    7.23
   2  -5  -6  123.01    4.75
   2  -5  -6  122.18    4.57
  -2   5   6  121.81    7.77
   2  -5  -6  126.80    4.26
   2  -5  -6  124.59    7.04
   2  -5  -6  129.09    4.33
   2  -5  -5  238.02    6.05
  -2   5   5  232.14    9.85
   2  -5  -5  235.01    5.55
   2  -5  -5  250.88    9.64
   2  -5  -5  238.69    6.29
   2  -5  -5  224.53    9.10
   2  -5  -5  237.95    5.39
   2  -5  -5  248.34    5.75
  -2   5   4  730.13   14.50
   2  -5  -4  729.11   16.04
  -2   5   4  731.21   15.70
   2  -5  -4  735.29   10.55
   2  -5  -4  745.24   15.76
   2  -5  -4  745.87   10.22
   2  -5  -4  702.99   15.44
   2  -5  -4  753.51    9.69
  -2   5   4  733.46   15.59
  -2   5   3  431.58   11.45
  -2   5   3  423.79   10.01
   2  -5  -3  420.25   11.65
   2  -5  -3  430.91   11.44
   2  -5  -3  431.74   11.72
  -2   5   2  183.56    7.14
   2  -5  -2  184.23    7.70
   2  -5  -1  125.92    6.30
  -2   5   1  127.42    6.08
  -2   5   1  120.34    5.50
   2  -5   0  155.88    7.34
  -2   5   0  161.90    7.11
  -2   5   0  149.65    6.68
   2  -5   1  116.89    6.53
  -2   5  -1  119.62    6.25
  -2   5  -1  120.49    6.49
  -2   5  -2  139.83    7.63
   2  -5   2  126.04    7.12
   2  -5   2  131.65    4.23
  -2   5  -2  133.36    7.04
   2  -5   3  144.24    4.63
   2  -5   3  139.13    7.84
  -2   5  -3  137.25    4.13
  -2   5  -3  150.56    8.65
   2  -5   3  144.04    3.94
  -2   5  -4   72.18    6.37
  -2   5  -4   69.01    3.13
   2  -5   4   62.64    5.54
  -2   5  -4   75.98    5.96
   2  -5   4   81.93    3.13
   2  -5   5   90.58    6.97
  -2   5  -5   84.94    3.64
   2  -5   5   97.25    3.56
  -2   5  -6   24.43    2.04
  -2   5  -7   16.49    1.71
  -2   5  -8   45.83    2.60
   2  -5   8   47.62    2.77
   2  -5   9   24.62    1.76
  -2   5  -9   24.52    1.70
   2  -5  10    0.14    0.28
  -2   5 -10    0.79    0.37
   2  -4 -12   23.96    1.45
   2  -4 -12   23.37    1.57
   2  -4 -12   22.86    1.47
   2  -4 -11   38.64    2.30
   2  -4 -11   38.67    2.37
   2  -4 -11   41.25    2.33
   2  -4 -10    3.15    0.88
   2  -4 -10    4.63    0.97
   2  -4 -10    4.92    1.13
   2  -4  -9   55.64    3.08
   2  -4  -9   55.36    3.18
   2  -4  -9   54.06    3.10
   2  -4  -8    5.30    1.11
  -2   4   8    7.93    2.37
   2  -4  -8    3.86    0.91
   2  -4  -8    4.42    0.99
   2  -4  -8    5.43    1.79
   2  -4  -7  600.56    8.69
   2  -4  -7  601.40    9.93
   2  -4  -7  597.89   10.05
   2  -4  -7  624.85   15.50
   2  -4  -7  591.09    9.54
   2  -4  -7  596.29   14.74
   2  -4  -7  605.42    9.16
   2  -4  -6   11.90    1.43
   2  -4  -6    8.86    1.10
  -2   4   6    7.54    2.23
   2  -4  -6    9.57    1.21
   2  -4  -6    6.47    1.05
   2  -4  -6    7.65    1.74
   2  -4  -6    8.43    1.13
   2  -4  -6    5.62    1.57
   2  -4  -5    0.08    0.84
  -2   4   5    0.76    0.72
   2  -4  -5   -0.59    0.69
  -2   4   4  693.07   14.36
   2  -4  -4  729.05   14.14
   2  -4  -4  702.65   14.19
   2  -4  -4  700.46   13.71
  -2   4   3    0.96    0.75
  -2   4   3   -0.17    0.63
   2  -4  -3    0.47    0.64
   2  -4  -3   -0.60    0.61
  -2   4   2  747.93   12.42
   2  -4  -2  732.98   12.72
   2  -4  -2  744.46   13.37
  -2   4   2  748.98   10.74
   2  -4  -2  716.44   13.15
  -2   4   1  789.11   12.24
  -2   4   1  778.07   12.49
   2  -4  -1  800.67   13.82
  -2   4   1  768.20   11.11
  -2   4   0    8.07    1.11
   2  -4   0    6.72    1.44
  -2   4   0    9.95    1.54
  -2   4   0   11.00    1.72
  -2   4  -1 1332.95   18.31
  -2   4  -1 1342.88   18.44
  -2   4  -2    0.51    0.94
  -2   4  -2    1.31    1.02
   2  -4   2   -0.90    1.04
  -2   4  -3    6.14    1.67
   2  -4   3    4.88    1.46
  -2   4  -3    3.84    1.60
   2  -4   4  749.74    9.03
  -2   4  -4  787.79   17.56
  -2   4  -4  748.07    9.57
  -2   4  -4  725.65   18.25
   2  -4   4  777.09    9.06
  -2   4  -5   61.50    5.49
   2  -4   5   58.89    5.39
  -2   4  -5   58.58    5.05
   2  -4   5   60.70    2.73
  -2   4  -5   60.68    2.95
   2  -4   6    0.51    0.50
  -2   4  -6    1.28    1.32
  -2   4  -6    2.01    1.10
  -2   4  -6    1.14    0.65
  -2   4  -7    8.68    1.24
  -2   4  -8  186.38    5.56
  -2   4  -9   71.94    3.24
  -2   4 -10  329.45    6.00
   2  -4  11    6.22    0.71
  -2   4 -11    8.59    0.78
   2  -3 -12   31.77    1.90
   2  -3 -12   32.09    1.90
   2  -3 -11   29.11    1.97
   2  -3 -11   28.38    2.12
   2  -3 -11   29.63    2.13
   2  -3 -10   18.85    1.76
   2  -3 -10   18.39    1.86
   2  -3 -10   17.49    1.85
   2  -3  -9  272.04    6.76
   2  -3  -9  271.36    6.98
   2  -3  -9  274.05    6.87
   2  -3  -8   90.05    6.00
   2  -3  -8   84.81    3.72
   2  -3  -8   90.09    3.92
   2  -3  -8   90.67    3.89
  -2   3   8   92.11    7.31
   2  -3  -8   92.80    5.65
   2  -3  -7  330.33    6.18
   2  -3  -7  340.96    7.12
   2  -3  -7  339.58    7.26
   2  -3  -7  337.99    7.09
   2  -3  -7  338.22   11.03
   2  -3  -7  329.86   10.18
  -2   3   7  308.07   12.50
   2  -3  -6    2.15    1.04
  -2   3   6    1.17    1.21
   2  -3  -6    1.27    0.66
   2  -3  -5  519.13   11.76
  -2   3   5  483.68   13.05
   2  -3  -5  508.45   11.18
  -2   3   4   67.57    4.33
   2  -3  -4   80.97    4.29
   2  -3  -4   70.41    3.94
  -2   3   3 1257.06   16.18
   2  -3  -3 1295.06   15.81
   2  -3  -3 1272.09   15.81
   2  -3  -3 1255.35   15.59
  -2   3   2  248.34    6.09
  -2   3   2  235.47    6.26
  -2   3   2  231.84    5.08
   2  -3  -2  234.42    6.46
   2  -3  -2  230.55    6.47
   2  -3  -2  232.62    6.25
  -2   3   1  139.08    4.34
   2  -3  -1  142.94    4.68
   2  -3  -1  131.55    4.75
  -2   3   1  132.60    4.35
  -2   3   1  125.58    4.25
  -2   3   0  500.82    8.49
   2  -3   0  518.07    9.73
  -2   3   0  498.64    8.19
  -2   3   0  528.49    9.58
  -2   3  -1   98.54    3.62
   2  -3   1   84.88    4.19
  -2   3  -1   92.59    4.05
  -2   3  -1   98.63    4.45
  -2   3  -2  295.90    8.32
   2  -3   2  299.83    8.50
  -2   3  -2  317.84    6.78
  -2   3  -2  330.03    8.68
  -2   3  -3    5.15    0.99
  -2   3  -3    6.07    1.41
  -2   3  -3    6.08    1.52
  -2   3  -4  199.95    8.56
  -2   3  -4  180.92    7.44
   2  -3   5    4.16    0.76
  -2   3  -5    5.22    1.66
  -2   3  -5    5.05    0.89
  -2   3  -5    7.26    1.84
   2  -3   6    2.92    0.70
  -2   3  -6    3.08    0.76
  -2   3  -6    2.50    1.31
  -2   3  -6    1.62    1.29
   2  -3   7  171.96    4.91
  -2   3  -7  170.69    5.16
  -2   3  -7  150.21    7.95
  -2   3  -7  163.65    8.44
  -2   3  -8   32.14    2.32
  -2   3  -9  193.59    5.52
  -2   3 -10    4.87    0.91
  -2   3 -10    5.04    0.78
  -2   3 -11   26.22    1.57
   2  -2 -13   -0.01    0.26
   2  -2 -12   33.20    2.03
   2  -2 -12   32.04    1.88
   2  -2 -11  193.98    5.58
   2  -2 -11  186.38    5.17
   2  -2 -10  104.06    3.84
   2  -2 -10  107.65    4.25
   2  -2 -10  109.27    4.49
   2  -2  -9   46.79    2.83
   2  -2  -9   49.28    2.73
   2  -2  -9   49.48    3.02
   2  -2  -8  150.81    4.69
   2  -2  -8  162.74    5.02
  -2   2   8  167.06    9.74
   2  -2  -8  155.31    7.74
   2  -2  -7   39.41    2.31
   2  -2  -7   36.84    3.17
  -2   2   7   34.88    4.19
   2  -2  -7   38.77    2.32
   2  -2  -7   40.49    3.77
   2  -2  -6   30.54    2.72
  -2   2   6   24.69    3.23
   2  -2  -6   31.44    3.09
  -2   2   5 1917.51   25.37
   2  -2  -5 1934.64   21.51
  -2   2   4   93.81    5.08
   2  -2  -4   95.94    4.47
   2  -2  -4   87.29    3.78
  -2   2   3 1476.73   17.37
  -2   2   3 1494.03    8.71
   2  -2  -3 1484.11   14.65
   2  -2  -2  613.37    9.09
  -2   2   2  602.68    9.23
   2  -2  -2  610.23    8.79
  -2   2   2  627.63    7.13
   2  -2  -2  610.14    9.02
  -2   2   1 1268.52    9.82
  -2   2   1 1233.48   12.51
  -2   2   1 1222.42   10.29
   2  -2  -1 1255.97   11.71
   2  -2  -1 1204.25   11.60
  -2   2   1 1254.32   11.68
   2  -2  -1 1243.69   12.78
   2  -2   0 1307.96   11.22
  -2   2   0 1287.11   10.35
   2  -2   0 1327.83   12.65
  -2   2   0 1324.89   12.42
  -2   2  -1 2987.34   21.84
   2  -2   1 2964.99   20.80
   2  -2   1 2932.99   17.76
  -2   2  -1 2866.79   18.65
  -2   2  -1 2857.94   18.29
  -2   2  -2  519.29    8.45
  -2   2  -2  492.12    9.27
   2  -2   2  507.08    8.79
  -2   2  -2  536.57   10.04
  -2   2  -3 5153.18   28.73
   2  -2   3 4970.67   31.64
  -2   2  -3 5168.79   33.59
   2  -2   3 5130.23   21.70
  -2   2  -3 4949.98   33.48
  -2   2  -4 1464.79   16.64
   2  -2   4 1504.50   19.52
  -2   2  -4 1517.87   20.34
  -2   2  -4 1497.45   19.11
  -2   2  -5  164.38    6.15
   2  -2   5  166.76    7.27
  -2   2  -5  171.45    6.99
  -2   2  -5  169.57    7.17
   2  -2   6  647.28    8.38
   2  -2   6  616.15   15.52
  -2   2  -6  610.22    8.90
  -2   2  -6  605.16   14.27
  -2   2  -6  642.23    8.77
  -2   2  -6  596.32   14.02
  -2   2  -7   78.58    3.43
   2  -2   7   75.88    6.05
  -2   2  -7   79.67    3.35
  -2   2  -7   73.76    5.28
   2  -2   7   81.55    3.26
  -2   2  -7   75.54    5.33
   2  -2   8    2.72    0.73
  -2   2  -8    3.68    0.89
  -2   2  -8    0.59    0.74
  -2   2  -8   -0.10    1.68
  -2   2  -9   11.65    1.43
  -2   2 -10   33.84    2.09
  -2   2 -10   33.07    2.17
  -2   2 -11   -0.31    0.40
  -2   2 -11    0.39    0.42
  -2   2 -12    5.99    0.76
   2  -1 -13    4.26    0.59
   2  -1 -12    0.36    0.53
   2  -1 -12    0.99    0.52
   2  -1 -11   36.78    2.50
   2  -1 -11   35.89    2.29
   2  -1 -10   41.57    2.85
   2  -1 -10   36.63    2.50
   2  -1  -9  257.74    6.44
   2  -1  -8  200.79    5.46
  -2   1   8  214.11   10.91
   2  -1  -8  208.75    8.94
  -2   1   7   53.32    5.16
   2  -1  -7   61.53    2.83
   2  -1  -7   60.28    4.46
   2  -1  -6    0.32    0.75
  -2   1   6    0.60    1.13
   2  -1  -6    0.01    0.44
  -2   1   5 1694.90   23.18
   2  -1  -5 1745.42   16.57
   2  -1  -5 1728.50   20.02
   2  -1  -4  484.47    8.04
  -2   1   4  507.89   11.17
   2  -1  -4  523.01   10.04
  -2   1   3  219.21    6.40
   2  -1  -3  229.21    4.93
   2  -1  -3  237.38    6.06
   2  -1  -2   18.64    1.50
  -2   1   2   19.44    1.24
  -2   1   2   16.68    1.47
  -2   1   1 6117.17   23.60
   2  -1  -1 6151.56   19.44
   2  -1   1 8045.66   27.82
  -2   1  -1 8060.41   22.52
  -2   1  -2  134.35    3.86
   2  -1   2  129.71    4.22
  -2   1  -2  135.93    4.59
   2  -1   2  124.19    2.09
  -2   1  -2  126.29    4.06
  -2   1  -3  589.34    9.60
  -2   1  -3  609.70   10.35
  -2   1  -3  593.49    9.48
   2  -1   3  622.79    7.29
   2  -1   3  598.51   10.32
   2  -1   4  231.56    7.19
  -2   1  -4  226.04    6.51
  -2   1  -4  235.09    6.88
   2  -1   4  218.09    5.60
  -2   1  -4  224.45    6.50
  -2   1  -5  649.95   12.13
   2  -1   5  666.31   13.77
  -2   1  -5  630.78   12.08
  -2   1  -5  623.67   12.23
   2  -1   5  688.00   11.60
  -2   1  -6    1.30    0.67
  -2   1  -6    0.32    0.70
   2  -1   6    0.73    0.69
   2  -1   6   -0.24    1.01
  -2   1  -7   11.80    1.24
  -2   1  -7   11.00    1.27
   2  -1   7    9.69    2.24
  -2   1  -7   10.08    1.91
   2  -1   7   13.60    1.30
  -2   1  -8  470.01    8.38
   2  -1   8  486.75   15.60
  -2   1  -8  481.54    8.14
  -2   1  -8  506.00   14.55
   2  -1   8  475.10    8.03
  -2   1  -9  120.13    4.22
  -2   1  -9  121.99    4.36
  -2   1 -10  134.47    4.31
  -2   1 -10  131.13    4.40
  -2   1 -11   98.09    3.23
  -2   1 -11   87.94    3.26
  -2   1 -12   15.08    1.10
  -2   1 -12   17.06    1.39
   2   0 -12   13.65    1.29
   2   0 -12   13.82    1.11
   2   0 -11  104.86    3.64
   2   0 -11  102.00    3.91
   2   0 -10  868.19   11.39
   2   0  -9   43.78    2.46
   2   0  -9   39.33    2.51
   2   0  -8  275.64    6.30
  -2   0   8  304.78   13.11
   2   0  -8  285.52    6.22
   2   0  -8  291.59   10.88
  -2   0   7   15.54    2.86
   2   0  -7   16.82    1.48
   2   0  -7   17.90    2.60
   2   0  -7   15.78    1.46
  -2   0   6  835.67   17.87
   2   0  -6  823.61   14.55
   2   0  -6  857.78   16.02
  -2   0   5  141.47    6.73
   2   0  -5  133.84    5.39
   2   0  -5  133.67    5.82
   2   0  -5  151.86    4.40
   2   0  -4 2085.04   19.00
   2   0  -4 2123.04   21.04
   2   0  -4 2153.94   14.45
  -2   0   4 2123.33   22.72
  -2   0   3  683.65   11.14
   2   0  -3  721.11   11.06
   2   0  -3  675.41    9.75
   2   0  -3  708.04    7.04
   2   0  -2 9961.59   31.47
   2   0  -2 9975.94   36.19
   2   0  -2 9999.00   22.78
  -2   0   1 2050.38   13.28
  -2   0   1 2066.83   14.17
   2   0  -1 2008.71   13.66
   2   0  -1 2078.24   10.49
  -2   0   1 1991.45   13.70
   2   0   0 3820.31   15.12
  -2   0   0 3870.01   13.43
  -2   0  -1    4.71    0.82
   2   0   1    1.48    0.44
  -2   0  -2 1957.30   15.78
   2   0   2 1950.74   11.10
   2   0   2 1932.31   15.64
   2   0   3   11.44    1.18
   2   0   3   10.40    1.50
  -2   0  -3   13.08    1.53
  -2   0  -3   12.50    1.42
   2   0   4 1280.30   16.86
   2   0   4 1263.89   14.57
  -2   0  -4 1283.36    9.32
  -2   0  -4 1263.42   14.65
  -2   0  -4 1233.98   15.28
   2   0   5  831.36   13.65
   2   0   5  846.42   15.14
  -2   0  -5  809.09   12.59
  -2   0  -6  372.45    9.10
   2   0   6  377.37   10.42
   2   0   6  388.57   11.27
   2   0   7   14.43    2.36
   2   0   7    9.19    2.02
  -2   0  -7   14.19    1.31
  -2   0  -7   13.64    1.35
  -2   0  -7   10.52    2.14
  -2   0  -8  210.87    5.08
  -2   0  -8  213.35    9.19
   2   0   8  205.82    5.09
  -2   0  -8  205.86    5.36
   2   0   8  206.18    9.80
  -2   0  -9    8.56    1.39
  -2   0  -9    6.20    0.96
  -2   0  -9    8.20    1.27
  -2   0 -10  124.39    4.44
  -2   0 -10  127.20    4.42
  -2   0 -11   31.68    2.12
  -2   0 -12    6.51    1.00
  -2   0 -12    6.16    0.86
  -2   0 -13   -0.24    0.29
   2   1 -12    1.82    0.53
   2   1 -11    9.17    1.00
   2   1 -11    9.32    1.17
   2   1 -11    8.54    0.99
   2   1 -10   56.43    2.80
   2   1 -10   53.96    2.69
   2   1  -9  560.17    9.21
   2   1  -9  559.77    8.96
  -2  -1   8   75.72    6.69
   2   1  -8   68.72    3.22
   2   1  -8   70.52    3.16
   2   1  -8   68.35    5.52
   2   1  -7  112.93    3.90
   2   1  -7  115.04    6.56
  -2  -1   7  115.92    7.64
   2   1  -7  112.39    6.79
   2   1  -6   56.90    4.36
   2   1  -6   63.06    4.77
  -2  -1   6   63.76    5.17
   2   1  -5 1196.16   18.84
   2   1  -5 1166.04   19.01
  -2  -1   5 1183.73   19.69
  -2  -1   4   16.61    2.23
   2   1  -4   22.55    2.65
   2   1  -3 1967.93    8.34
  -2  -1   3 1978.91   19.91
  -2  -1   2  374.89    6.14
   2   1  -2  363.93    7.43
  -2  -1   2  368.97    7.68
  -2  -1   1 3381.60   16.92
   2   1  -1 3369.86   18.53
  -2  -1   1 3410.52   20.04
  -2  -1   1 3394.90   19.12
  -2  -1   0 2062.89   13.84
  -2  -1   0 2067.79   13.28
  -2  -1   0 2117.54    8.05
  -2  -1   0 2107.64   14.99
  -2  -1  -1 2486.25   15.84
  -2  -1  -1 2520.68   16.71
  -2  -1  -2  210.30    5.04
  -2  -1  -2  195.58    5.01
   2   1   2  212.16    5.18
   2   1   3  308.77    7.04
  -2  -1  -3  296.99    3.12
  -2  -1  -3  303.42    6.31
  -2  -1  -3  296.78    6.71
   2   1   4  681.86   10.84
  -2  -1  -4  675.26   11.38
   2   1   4  689.61   12.03
  -2  -1  -4  695.48   10.10
  -2  -1  -4  697.54    6.56
   2   1   5   72.77    4.22
   2   1   5   77.09    4.55
  -2  -1  -5   76.40    4.31
  -2  -1  -5   80.20    4.30
  -2  -1  -5   83.07    3.75
   2   1   6  659.64   14.50
   2   1   6  641.18   14.47
  -2  -1  -6  689.06   11.27
  -2  -1  -6  658.11   13.40
   2   1   7   45.30    4.21
  -2  -1  -7   47.42    3.92
   2   1   7   38.08    3.86
  -2  -1  -7   45.31    2.35
   2   1   8  907.76   19.97
  -2  -1  -8  907.27   11.45
  -2  -1  -8  893.02   10.81
  -2  -1  -8  907.55   18.25
   2   1   8  866.30    9.94
  -2  -1  -8  904.19   11.09
   2   1   9   94.01    6.81
  -2  -1  -9   89.58    3.69
  -2  -1  -9   87.99    3.80
  -2  -1  -9   89.60    3.61
  -2  -1 -10   29.06    2.22
  -2  -1 -10   23.69    1.91
  -2  -1 -11   90.30    3.67
  -2  -1 -11   89.31    3.45
  -2  -1 -11   92.49    3.83
  -2  -1 -12   35.08    2.03
  -2  -1 -12   37.87    2.19
  -2  -1 -13    0.34    0.28
  -2  -1 -13    0.54    0.31
  -2  -1 -13    0.53    0.35
   2   2 -11    0.43    0.34
   2   2 -11   -0.08    0.37
   2   2 -10    3.89    0.87
   2   2  -9   10.86    1.36
   2   2  -8  228.45    6.05
   2   2  -7   84.74    6.31
   2   2  -7   85.15    3.62
  -2  -2   7   85.80    6.69
   2   2  -7   83.46    6.32
   2   2  -6  952.67   11.25
   2   2  -6  923.53   20.08
  -2  -2   6  907.01   20.15
   2   2  -6  918.58   19.98
  -2  -2   5  299.20   10.41
   2   2  -5  285.34   10.73
  -2  -2   4 1395.46   20.21
   2   2  -4 1442.59   22.47
   2   2  -3  277.77    8.62
  -2  -2   3  288.45    5.47
  -2  -2   3  284.24    8.23
  -2  -2   2  137.79    5.23
  -2  -2   2  142.86    3.39
   2   2  -2  139.66    5.37
  -2  -2   1    3.28    0.55
   2   2  -1    3.43    0.87
   2   2   0  909.44   10.86
  -2  -2   0  932.84   11.50
  -2  -2   0  940.25    9.45
  -2  -2   0  952.43    8.82
  -2  -2   0  966.36    5.65
  -2  -2   0  997.15   11.32
  -2  -2  -1 3157.15   19.73
  -2  -2  -1 3171.60   14.65
  -2  -2  -1 3139.12   17.61
  -2  -2  -2  216.64    5.24
   2   2   2  218.57    5.60
  -2  -2  -2  209.80    4.80
  -2  -2  -2  217.50    4.71
  -2  -2  -3   63.86    2.91
  -2  -2  -3   63.04    3.14
   2   2   3   68.65    3.46
  -2  -2  -3   69.55    3.07
  -2  -2  -4  881.17   12.31
  -2  -2  -4  870.03   13.06
  -2  -2  -4  868.49    8.82
   2   2   4  883.48   13.58
  -2  -2  -4  897.13   11.30
   2   2   5   64.97    4.01
   2   2   5   62.09    4.06
  -2  -2  -5   63.20    2.67
  -2  -2  -5   66.14    4.01
  -2  -2  -5   64.12    3.71
  -2  -2  -5   66.25    3.13
   2   2   6  405.68   11.37
  -2  -2  -6  404.23   10.12
   2   2   6  386.52   11.17
   2   2   7  177.21    8.58
   2   2   7  171.88    8.17
  -2  -2  -7  186.41    4.74
  -2  -2  -7  184.94    4.50
  -2  -2  -7  188.74    4.76
  -2  -2  -7  173.34    7.26
   2   2   8  267.54   11.44
   2   2   8  246.14   10.39
  -2  -2  -8  267.90    5.80
  -2  -2  -8  274.73    6.28
  -2  -2  -8  269.12    6.10
  -2  -2  -8  273.78    9.93
   2   2   9    0.14    1.15
   2   2   9    1.73    1.42
  -2  -2  -9   -0.30    0.51
  -2  -2  -9   -0.25    0.59
  -2  -2  -9    0.59    0.71
  -2  -2 -10  217.31    6.01
  -2  -2 -10  215.95    5.70
  -2  -2 -10  212.84    5.48
  -2  -2 -10  220.69    6.05
  -2  -2 -11    7.76    1.25
  -2  -2 -11    8.29    1.07
  -2  -2 -11    6.40    1.19
  -2  -2 -12   74.70    3.10
  -2  -2 -12   76.19    3.06
  -2  -2 -13    9.96    0.93
  -2  -2 -13    8.08    0.75
  -2  -2 -13    9.33    0.89
   2   3 -11   22.65    1.39
   2   3 -10   13.33    1.24
   2   3 -10   13.95    1.35
   2   3  -9  396.50    7.85
   2   3  -8  592.20    9.94
  -2  -3   7  687.84   19.43
   2   3  -7  704.24   19.23
   2   3  -7  720.67   19.74
   2   3  -7  666.48   10.46
  -2  -3   6  179.26    9.38
   2   3  -6  188.83    5.36
   2   3  -6  173.59    9.75
   2   3  -5   -0.23    1.63
  -2  -3   5    0.06    1.07
   2   3  -4  510.91   14.69
  -2  -3   4  516.33   13.27
  -2  -3   3  448.68   11.32
   2   3  -3  453.52   12.29
  -2  -3   2  225.59    7.40
  -2  -3   2  227.48    7.04
   2   3  -2  226.02    7.73
  -2  -3   1   36.08    2.56
   2   3  -1   39.12    3.03
  -2  -3   1   35.51    2.91
  -2  -3   0    0.67    0.27
   2   3   0    0.44    0.60
   2   3   1   57.07    3.29
  -2  -3  -1   53.79    2.81
  -2  -3  -1   55.91    2.24
  -2  -3  -1   57.87    2.28
  -2  -3  -2  237.32    6.01
  -2  -3  -2  232.54    5.39
  -2  -3  -2  224.72    5.26
  -2  -3  -3  284.13    6.36
  -2  -3  -3  290.08    6.79
   2   3   3  293.54    7.57
  -2  -3  -3  284.18    7.12
  -2  -3  -3  284.90    6.77
   2   3   4 2175.69   22.13
  -2  -3  -4 2149.04   20.06
  -2  -3  -4 2171.60   17.31
  -2  -3  -5   48.05    2.68
   2   3   5   49.59    3.68
  -2  -3  -5   44.93    3.25
   2   3   6  134.77    6.81
   2   3   6  124.16    6.37
  -2  -3  -6  127.15    5.85
   2   3   7    0.73    0.96
   2   3   7    2.59    1.38
  -2  -3  -7    2.38    0.69
  -2  -3  -7    2.05    0.59
  -2  -3  -7    3.89    0.73
  -2  -3  -7    1.50    0.56
  -2  -3  -7    1.67    0.81
  -2  -3  -7    2.61    0.69
  -2  -3  -8  291.27    6.57
   2   3   8  292.23   12.46
  -2  -3  -8  295.62    6.03
  -2  -3  -8  288.81    6.44
  -2  -3  -8  297.99   10.54
  -2  -3  -8  300.20    6.61
   2   3   8  286.49   11.46
   2   3   9  103.67    7.93
   2   3   9  104.39    7.04
  -2  -3  -9  117.91    3.95
  -2  -3  -9  114.68    4.29
  -2  -3  -9  116.53    4.39
  -2  -3  -9  111.59    4.16
  -2  -3 -10  123.45    4.60
  -2  -3 -10  113.82    3.88
  -2  -3 -10  116.59    4.19
  -2  -3 -10  114.38    4.27
  -2  -3 -11   98.39    3.37
  -2  -3 -11   92.59    3.70
  -2  -3 -11   98.24    4.01
  -2  -3 -12    3.35    0.63
  -2  -3 -12    2.51    0.71
  -2  -3 -12    1.72    0.73
  -2  -3 -13   15.73    1.17
  -2  -3 -13   15.52    1.08
   2   4 -11    1.05    0.35
   2   4 -10   80.00    2.91
   2   4  -9   76.16    3.33
   2   4  -8   21.55    2.01
   2   4  -7  850.90   12.17
  -2  -4   6   33.37    4.26
   2   4  -6   36.12    2.54
   2   4  -6   39.21    4.91
  -2  -4   5  402.00   13.71
   2   4  -5  413.44    7.93
   2   4  -5  380.65   15.42
  -2  -4   5  411.26   13.83
  -2  -4   4  125.12    7.10
   2   4  -4  120.42    7.93
   2   4  -4  128.98    4.13
  -2  -4   4  123.83    7.13
  -2  -4   3   30.83    3.25
   2   4  -3   36.84    4.08
  -2  -4   3   35.59    3.61
  -2  -4   2 1492.81   21.64
  -2  -4   2 1448.90   20.49
   2   4  -1 1346.20   20.02
  -2  -4   1 1304.63   19.18
  -2  -4   0 1199.44   16.38
   2   4   0 1161.13   17.74
   2   4   1  756.72   14.02
  -2  -4  -1  754.92    9.66
  -2  -4  -2  417.79    7.99
  -2  -4  -2  410.96    9.48
   2   4   2  415.17   10.38
   2   4   3  308.01    8.54
  -2  -4  -3  293.20    8.33
  -2  -4  -3  300.24    7.45
  -2  -4  -4  113.01    5.60
  -2  -4  -4  113.06    5.07
   2   4   4  111.07    5.35
   2   4   5    6.22    1.52
  -2  -4  -5    5.82    1.33
   2   4   6   81.86    5.41
  -2  -4  -6   82.56    5.10
  -2  -4  -6   93.23    3.45
  -2  -4  -7   80.51    3.25
   2   4   7   79.53    5.71
  -2  -4  -7   76.23    5.24
  -2  -4  -7   82.49    3.42
  -2  -4  -7   84.20    3.13
  -2  -4  -7   85.07    3.45
  -2  -4  -7   80.40    3.28
   2   4   7   77.24    6.03
  -2  -4  -8   70.48    3.39
  -2  -4  -8   68.32    3.13
   2   4   8   68.51    6.24
   2   4   8   69.26    5.68
  -2  -4  -8   71.34    3.31
  -2  -4  -8   71.52    3.27
  -2  -4  -8   73.30    5.42
  -2  -4  -8   70.46    2.95
  -2  -4  -9    0.55    0.71
  -2  -4  -9    0.48    0.57
  -2  -4  -9    0.15    0.39
  -2  -4  -9   -0.10    0.56
  -2  -4 -10  203.73    5.37
  -2  -4 -10  215.90    5.03
  -2  -4 -10  211.32    5.70
  -2  -4 -10  201.30    5.85
  -2  -4 -11   37.24    2.15
  -2  -4 -11   39.16    2.32
  -2  -4 -11   38.19    2.49
  -2  -4 -12    0.32    0.49
  -2  -4 -12    1.14    0.54
  -2  -4 -13   25.37    1.41
   2   5 -10    0.98    0.38
   2   5  -9   37.14    2.10
   2   5  -8  126.33    4.37
   2   5  -7   96.17    4.05
   2   5  -6  230.20    6.32
  -2  -5   5   78.49    6.55
   2   5  -5   69.87    3.43
  -2  -5   5   64.47    5.97
   2   5  -5   81.88    7.81
  -2  -5   4   41.53    4.42
   2   5  -4   42.25    2.54
   2   5  -4   47.28    5.58
  -2  -5   4   42.99    4.57
  -2  -5   3  364.11   12.61
   2   5  -3  387.46   14.42
  -2  -5   3  360.70   12.23
   2   5  -3  371.34    6.90
  -2  -5   2  154.04    7.58
   2   5  -2  154.31    8.45
  -2  -5   1   47.30    4.04
   2   5  -1   50.84    4.58
   2   5   0  296.43   10.48
  -2  -5   0  268.40    9.02
   2   5   1  150.71    7.24
  -2  -5  -1  143.14    6.40
   2   5   2  377.97   11.47
  -2  -5  -2  365.81   10.38
  -2  -5  -2  369.39    8.52
  -2  -5  -3    5.80    1.62
   2   5   3    5.39    1.64
  -2  -5  -3    6.35    1.21
   2   5   3    9.29    1.75
  -2  -5  -4  135.19    6.73
  -2  -5  -4  135.12    6.01
   2   5   4  129.19    6.35
  -2  -5  -5  777.56   10.06
  -2  -5  -5  734.55   15.11
  -2  -5  -5  754.62    9.59
   2   5   5  732.46   15.86
  -2  -5  -6   23.64    1.84
   2   5   6   22.21    3.02
  -2  -5  -6   23.54    1.90
  -2  -5  -6   22.30    1.60
  -2  -5  -6   24.46    1.92
  -2  -5  -6   22.14    2.78
  -2  -5  -7  387.99    7.39
  -2  -5  -7  388.48    7.77
   2   5   7  396.29   13.10
   2   5   7  408.46   14.60
  -2  -5  -7  389.02    6.74
  -2  -5  -7  387.09    7.65
  -2  -5  -7  391.57   12.30
  -2  -5  -8    3.81    0.95
  -2  -5  -8    3.09    0.91
  -2  -5  -8    2.71    0.66
  -2  -5  -8    3.55    0.83
  -2  -5  -8    3.87    0.97
  -2  -5  -9   89.87    3.93
  -2  -5  -9   90.31    3.66
  -2  -5  -9   96.84    3.79
  -2  -5 -10   -1.31    0.88
  -2  -5 -10    0.43    0.52
  -2  -5 -10    0.22    0.53
  -2  -5 -11   26.71    1.99
  -2  -5 -11   23.61    1.65
  -2  -5 -11   23.57    1.61
  -2  -5 -12    5.05    0.81
  -2  -5 -12    3.62    0.58
  -2  -6   9    8.13    0.76
   2   6  -9    9.12    0.84
   2   6  -8   45.34    2.26
  -2  -6   8   44.24    2.22
   2   6  -7   18.28    1.64
   2   6  -6   40.69    2.57
   2   6  -5 1712.99   16.55
   2   6  -4  409.76    7.80
   2   6  -3    9.00    1.16
  -2  -6   3   10.83    2.46
   2   6  -3    7.51    2.33
  -2  -6   2  105.09    6.87
   2   6  -2  119.28    8.41
  -2  -6   2  100.37    3.87
  -2  -6   1  150.40    7.99
   2   6  -1  152.73    9.11
  -2  -6   1  149.68    4.57
  -2  -6   0   16.30    2.65
   2   6   0   15.28    3.04
  -2  -6   0   18.20    1.64
  -2  -6   0   19.24    1.64
  -2  -6  -1   20.00    2.87
  -2  -6  -1   19.67    1.61
  -2  -6  -1   20.18    1.74
   2   6   1   16.84    2.98
  -2  -6  -2   77.38    5.46
  -2  -6  -2   82.55    3.39
  -2  -6  -2   79.79    2.97
   2   6   2   75.04    5.87
  -2  -6  -2   79.93    3.18
   2   6   3   37.51    4.25
  -2  -6  -3   37.88    2.25
  -2  -6  -3   44.26    4.17
  -2  -6  -3   40.28    2.41
  -2  -6  -3   38.51    2.08
   2   6   3   41.91    3.91
  -2  -6  -3   41.41    3.40
  -2  -6  -4   20.20    1.72
   2   6   4   15.40    3.03
  -2  -6  -4   20.70    3.06
  -2  -6  -4   20.55    1.77
  -2  -6  -4   19.54    1.52
   2   6   4   20.31    2.84
  -2  -6  -4   16.23    2.29
  -2  -6  -5 1176.36   12.88
   2   6   5 1207.31   21.73
  -2  -6  -5 1194.23   13.42
  -2  -6  -5 1169.50   11.58
  -2  -6  -5 1204.29   20.60
   2   6   5 1219.49   25.62
  -2  -6  -6  106.48    4.00
  -2  -6  -6  113.72    4.17
  -2  -6  -6  102.20    4.04
  -2  -6  -6  106.43    6.48
   2   6   6  104.99    6.71
   2   6   6  112.09    8.25
  -2  -6  -7   24.62    1.99
  -2  -6  -7   27.36    2.16
  -2  -6  -7   26.35    2.15
  -2  -6  -8   14.36    1.55
  -2  -6  -8   13.63    1.62
  -2  -6  -8   15.96    1.64
  -2  -6  -9   12.62    1.54
  -2  -6  -9   11.31    1.31
  -2  -6 -10    5.78    1.03
  -2  -6 -10    4.65    0.85
  -2  -6 -11    4.32    0.81
  -2  -6 -11    4.08    0.61
  -2  -6 -12    4.19    0.64
  -2  -7   7    1.34    0.49
  -2  -7   7    0.75    0.44
   2   7  -7    0.53    0.38
  -2  -7   6    9.46    1.18
   2   7  -6    7.24    0.95
   2   7  -5   12.54    1.30
  -2  -7   5   12.73    1.44
  -2  -7   4  429.61    8.29
  -2  -7   3    4.68    0.99
  -2  -7   2    3.07    0.85
  -2  -7   2   -0.36    0.88
  -2  -7   1   -0.11    0.89
  -2  -7   1    0.41    0.60
  -2  -7   1   -0.12    0.76
  -2  -7   0  233.84   10.41
  -2  -7   0  234.50    6.22
  -2  -7   0  226.42    5.96
  -2  -7  -1    2.24    0.75
  -2  -7  -1    2.07    1.11
   2   7   1    3.70    1.88
  -2  -7  -1    3.38    0.94
  -2  -7  -1    2.84    0.71
  -2  -7  -2   26.60    3.49
  -2  -7  -2   25.31    2.01
   2   7   2   21.70    3.54
  -2  -7  -2   28.06    2.25
  -2  -7  -2   26.41    1.84
   2   7   2   25.53    3.40
  -2  -7  -3  467.27    8.49
  -2  -7  -3  491.22   14.85
   2   7   3  473.41   14.10
  -2  -7  -3  478.71    8.82
  -2  -7  -3  476.61    7.58
   2   7   3  465.42   16.03
  -2  -7  -4   19.71    1.89
  -2  -7  -4   20.32    3.22
   2   7   4   26.70    3.54
  -2  -7  -4   17.83    1.83
  -2  -7  -5  427.58    8.21
  -2  -7  -5  457.15    8.52
  -2  -7  -6    2.25    0.90
  -2  -7  -6    4.58    1.02
  -2  -7  -7  151.44    4.82
  -2  -7  -7  143.68    4.66
  -2  -7  -7  139.83    4.60
  -2  -7  -8    2.91    0.85
  -2  -7  -8    5.74    1.09
  -2  -7  -8    3.79    0.86
  -2  -7  -9    7.17    1.09
  -2  -7  -9    9.32    1.13
  -2  -7 -10    0.57    0.44
  -2  -7 -10    0.75    0.42
  -2  -7 -11    7.25    0.81
  -2  -7 -11    8.19    0.71
  -2  -8   6  151.62    3.42
  -2  -8   6  151.67    3.54
  -2  -8   5   -0.34    0.52
  -2  -8   5   -0.03    0.47
  -2  -8   4   40.22    2.39
  -2  -8   4   39.77    2.31
  -2  -8   3   20.75    1.87
  -2  -8   3   20.89    1.79
  -2  -8   2   13.09    1.57
  -2  -8   2   12.51    1.44
  -2  -8   1  115.51    4.42
  -2  -8   1  112.57    4.22
  -2  -8   0   26.45    2.11
  -2  -8   0   29.50    2.33
  -2  -8   0   26.96    1.93
  -2  -8  -1  545.44    9.31
  -2  -8  -1  549.26    9.75
  -2  -8  -1  557.68    8.38
  -2  -8  -2   18.02    1.77
  -2  -8  -2   16.94    1.81
  -2  -8  -2   19.69    1.58
  -2  -8  -3   60.61    3.26
  -2  -8  -3   60.20    3.12
  -2  -8  -4   66.83    3.28
  -2  -8  -4   70.39    3.47
  -2  -8  -5    1.35    0.80
  -2  -8  -5    1.93    0.89
  -2  -8  -6   35.54    2.32
  -2  -8  -6   34.66    2.34
  -2  -8  -7   21.59    1.77
  -2  -8  -7   23.10    1.83
  -2  -8  -8    2.47    0.77
  -2  -8  -8    2.56    0.67
  -2  -8  -9    0.16    0.35
  -2  -8 -10   10.33    0.80
  -2  -9   4   73.93    2.22
  -2  -9   4   75.81    2.62
  -2  -9   4   75.66    2.42
  -2  -9   3   45.21    2.15
  -2  -9   3   46.26    2.28
  -2  -9   3   45.86    1.95
  -2  -9   2   -0.36    0.54
  -2  -9   2    0.00    0.54
  -2  -9   2    0.07    0.31
  -2  -9   1    4.64    0.88
  -2  -9   1    4.84    1.02
  -2  -9   1    3.85    0.67
  -2  -9   0   55.11    2.74
  -2  -9   0   60.15    3.02
  -2  -9   0   61.45    2.47
  -2  -9  -1    1.01    0.77
  -2  -9  -1   -0.13    0.62
  -2  -9  -2    2.13    0.88
  -2  -9  -2    2.36    0.77
  -2  -9  -3    0.66    0.69
  -2  -9  -3    0.54    0.70
  -2  -9  -4   60.61    2.89
  -2  -9  -4   63.65    3.06
  -2  -9  -5    2.13    0.71
  -2  -9  -5    2.01    0.74
  -2  -9  -6   -0.30    0.56
  -2  -9  -6    0.14    0.48
  -2  -9  -7    0.67    0.49
  -2  -9  -7    0.75    0.47
  -2  -9  -8   12.00    1.04
  -2  -9  -8   13.83    1.07
  -2 -10   2    0.30    0.29
  -2 -10   1    4.44    0.64
  -2 -10   1    5.38    0.76
  -2 -10   0    5.82    0.79
  -2 -10   0    7.02    0.91
  -2 -10  -1    7.30    0.91
  -2 -10  -1    7.93    0.98
  -2 -10  -2    2.63    0.66
  -2 -10  -2    1.88    0.57
  -2 -10  -3   38.34    2.02
  -2 -10  -3   34.29    1.86
  -2 -10  -4    1.54    0.56
  -2 -10  -4    1.37    0.46
  -2 -10  -5   30.50    1.63
  -2 -10  -5   28.26    1.60
  -2 -10  -6    0.15    0.25
  -2 -10  -6    0.41    0.37
  -2 -10  -7    0.95    0.32
   3 -10  -4   81.19    2.22
   3 -10  -3   95.10    2.49
   3 -10  -2    3.21    0.55
   3 -10  -1    0.16    0.27
   3 -10   0    4.65    0.57
   3  -9  -6    6.83    0.86
   3  -9  -5    9.93    1.11
   3  -9  -4  125.34    3.74
   3  -9  -3  121.50    3.22
   3  -9  -3  114.37    3.68
   3  -9  -2   16.91    1.24
   3  -9  -2   15.14    1.40
   3  -9  -1    1.93    0.66
   3  -9  -1    3.24    0.61
   3  -9   0    7.40    0.99
   3  -9   0    7.38    0.83
   3  -9   1    6.66    0.76
   3  -9   1    6.83    0.97
   3  -9   2   52.66    2.24
   3  -9   3    1.48    0.45
   3  -8  -9   73.38    2.39
   3  -8  -8   38.18    2.03
   3  -8  -7   48.03    2.51
   3  -8  -7   49.98    2.41
   3  -8  -6    3.52    0.87
   3  -8  -6    3.60    0.68
   3  -8  -6    3.85    0.96
   3  -8  -5   56.98    3.10
   3  -8  -5   60.17    2.55
   3  -8  -5   61.64    3.02
   3  -8  -4   18.25    1.91
   3  -8  -4   18.63    1.52
   3  -8  -4   18.17    1.82
   3  -8  -3   27.53    1.90
   3  -8  -3   29.81    2.24
   3  -8  -2   46.06    2.44
   3  -8  -2   47.24    2.79
   3  -8  -1    9.85    1.15
   3  -8  -1   15.84    1.70
   3  -8   0   44.50    2.39
   3  -8   0   48.13    2.80
   3  -8   1   18.55    1.53
   3  -8   1   14.87    1.54
   3  -8   2    1.11    0.68
   3  -8   2    0.99    0.51
   3  -8   3    0.54    0.54
   3  -8   3   -0.01    0.46
   3  -8   4    6.88    0.98
   3  -8   4    5.95    0.75
   3  -8   5  280.68    5.06
   3  -7 -10   11.96    1.05
   3  -7  -9   22.39    1.63
   3  -7  -8  121.22    4.16
   3  -7  -7   38.02    2.01
   3  -7  -7   33.38    2.39
   3  -7  -7   40.08    2.42
   3  -7  -6    7.25    1.28
   3  -7  -6    6.53    1.00
   3  -7  -6    5.13    1.20
   3  -7  -5   59.51    2.75
   3  -7  -5   56.76    3.32
   3  -7  -5   56.99    3.04
   3  -7  -4   16.38    1.52
   3  -7  -4   14.47    1.76
   3  -7  -4   14.82    1.71
   3  -7  -3    6.88    1.20
   3  -7  -3    9.76    1.19
   3  -7  -3    9.26    1.56
   3  -7  -2    2.65    0.96
   3  -7  -2    3.03    0.76
   3  -7  -2    3.42    1.11
   3  -7  -1  116.17    3.99
   3  -7  -1  111.02    4.35
   3  -7   0  130.94    4.26
   3  -7   0  129.36    4.73
   3  -7   1  546.64    8.62
   3  -7   1  549.37    9.51
   3  -7   2   80.31    3.31
   3  -7   2   81.02    3.70
   3  -7   3  117.83    3.98
   3  -7   3  122.48    4.48
   3  -7   4   18.16    1.55
   3  -7   4   16.93    1.73
  -3   7  -5  178.33    4.62
   3  -7   5  189.92    4.55
   3  -7   5  185.49    5.07
   3  -7   6    6.24    0.92
  -3   7  -6    6.61    0.86
   3  -7   6    5.89    0.78
  -3   7  -7   24.40    1.30
   3  -7   7   32.72    1.69
   3  -6 -11   20.29    1.28
   3  -6 -10   25.20    1.81
   3  -6 -10   26.92    1.79
   3  -6 -10   26.32    1.48
   3  -6  -9   56.95    3.05
   3  -6  -9   54.09    2.50
   3  -6  -9   53.96    2.80
   3  -6  -8    3.51    1.20
   3  -6  -8    0.93    0.76
   3  -6  -8    2.94    0.77
   3  -6  -7  472.20    7.39
   3  -6  -7  456.27    9.51
   3  -6  -7  466.29    8.28
   3  -6  -7  469.44    9.06
   3  -6  -7  466.03    8.28
   3  -6  -6    5.15    1.11
   3  -6  -6    3.04    0.78
   3  -6  -6    3.45    1.21
   3  -6  -6    2.46    0.93
   3  -6  -6    2.77    0.78
   3  -6  -5   65.41    2.86
   3  -6  -5   58.62    3.53
   3  -6  -5   61.16    3.05
   3  -6  -5   59.72    3.33
   3  -6  -5   59.11    3.10
   3  -6  -4   27.26    3.52
   3  -6  -4   26.80    2.01
   3  -6  -4   24.99    2.19
   3  -6  -4   25.58    1.84
   3  -6  -4   25.09    2.06
   3  -6  -3    1.90    0.81
   3  -6  -3    2.57    1.17
   3  -6  -3    1.01    0.54
   3  -6  -3    2.17    0.90
   3  -6  -2   14.65    2.55
   3  -6  -2   21.65    1.73
   3  -6  -2   19.39    1.93
   3  -6  -2   20.12    1.91
   3  -6  -2   19.14    1.84
   3  -6  -1    3.51    0.90
   3  -6  -1    4.36    1.58
   3  -6  -1    0.99    0.52
   3  -6  -1    3.83    1.06
   3  -6  -1    2.05    0.84
   3  -6   0    2.41    0.80
   3  -6   0    2.81    0.77
   3  -6   0    1.07    1.07
   3  -6   0    2.48    0.72
   3  -6   1  655.53   17.06
   3  -6   1  673.65    9.08
   3  -6   1  666.67    9.42
   3  -6   1  643.67   10.24
   3  -6   2   65.79    5.63
   3  -6   2   70.88    2.96
   3  -6   2   65.00    2.98
   3  -6   2   62.49    3.26
   3  -6   3    1.12    0.74
   3  -6   3    0.72    0.46
   3  -6   3    0.84    0.46
  -3   6  -3    0.88    0.41
   3  -6   4   57.98    2.89
  -3   6  -4   62.37    3.08
   3  -6   4   57.94    3.18
   3  -6   5    6.87    1.20
  -3   6  -5    6.31    1.06
   3  -6   5    3.49    0.87
   3  -6   6    3.99    1.01
   3  -6   6    3.66    0.75
  -3   6  -6    3.78    0.82
  -3   6  -7    9.45    1.09
   3  -6   7   10.74    1.09
   3  -6   7   10.39    1.26
   3  -6   8   46.26    1.82
  -3   6  -8   49.18    2.11
   3  -6   8   50.95    2.26
   3  -5 -11   35.57    1.85
   3  -5 -11   33.99    1.85
   3  -5 -11   34.04    1.74
   3  -5 -10  136.04    4.37
   3  -5 -10  139.05    4.11
   3  -5 -10  144.54    4.38
   3  -5  -9   84.00    3.69
   3  -5  -9   78.68    3.39
   3  -5  -9   80.11    3.70
   3  -5  -8    5.00    1.05
   3  -5  -8    4.39    1.06
   3  -5  -8    3.98    1.00
   3  -5  -7    2.22    0.84
   3  -5  -7    0.54    0.81
   3  -5  -7    1.32    0.69
   3  -5  -7    0.74    0.72
   3  -5  -7    0.39    0.49
   3  -5  -6  436.17   13.58
   3  -5  -6  399.72    8.84
   3  -5  -6  407.57    8.05
   3  -5  -6  413.69    8.47
   3  -5  -6  411.70   13.09
   3  -5  -6  420.10    7.88
  -3   5   6  378.15   12.88
   3  -5  -5  339.84    7.96
   3  -5  -5  370.50   12.18
  -3   5   5  325.52   11.23
   3  -5  -5  339.99    7.22
   3  -5  -5  341.59    7.50
   3  -5  -5  344.67   11.76
   3  -5  -5  357.96    7.12
   3  -5  -4  575.44   10.10
   3  -5  -4  575.48   14.56
   3  -5  -4  568.11    8.61
   3  -5  -4  566.08    9.01
   3  -5  -4  569.69    9.44
  -3   5   4  550.23   13.74
   3  -5  -4  585.65    8.95
   3  -5  -3   67.54    4.81
   3  -5  -3   68.36    3.46
   3  -5  -3   66.79    4.77
   3  -5  -3   70.37    3.09
   3  -5  -3   71.24    3.25
   3  -5  -3   67.97    3.01
  -3   5   3   65.37    4.43
   3  -5  -3   67.48    3.02
  -3   5   2 1355.14   19.09
   3  -5  -2 1389.22   21.18
   3  -5  -2 1368.89   14.04
   3  -5  -2 1354.73   13.19
   3  -5  -2 1380.39   13.45
   3  -5  -2 1339.46   13.43
   3  -5  -1   17.49    2.50
   3  -5  -1   19.19    1.68
   3  -5  -1   20.11    1.71
  -3   5   1   20.80    2.46
   3  -5  -1   20.74    1.67
   3  -5   0  605.24   14.50
   3  -5   0  593.42    8.47
   3  -5   0  618.57    9.46
   3  -5   0  597.36    9.09
   3  -5   0  603.52    9.09
   3  -5   1    4.35    0.91
   3  -5   1    4.17    0.82
   3  -5   1    3.58    0.80
  -3   5  -1    4.62    1.48
   3  -5   2   50.64    4.54
   3  -5   2   51.80    2.53
   3  -5   2   49.61    2.63
  -3   5  -2   48.76    4.53
   3  -5   2   51.86    2.82
   3  -5   3    0.84    0.46
   3  -5   3    0.28    0.54
   3  -5   3    1.17    1.19
   3  -5   3    0.90    0.52
  -3   5  -3    0.97    0.47
  -3   5  -3    0.04    1.06
   3  -5   4   43.06    2.71
   3  -5   4   48.51    4.91
  -3   5  -4   47.74    2.66
   3  -5   4   50.15    2.59
   3  -5   4   52.90    2.54
  -3   5  -4   48.13    4.87
   3  -5   5   32.09    2.43
  -3   5  -5   31.21    2.22
   3  -5   5   31.89    2.07
   3  -5   6   10.42    1.42
  -3   5  -6    9.80    1.32
   3  -5   7   13.23    1.64
  -3   5  -7   14.90    1.56
   3  -5   8   11.72    1.40
  -3   5  -8   10.96    1.30
  -3   5  -9   80.66    2.83
   3  -5   9   70.92    2.36
   3  -5   9   78.41    2.89
   3  -4 -12   22.45    1.29
   3  -4 -12   22.89    1.33
   3  -4 -11   10.30    1.07
   3  -4 -11   10.11    1.15
   3  -4 -11    9.10    1.09
   3  -4 -10   71.82    3.17
   3  -4 -10   76.12    3.36
   3  -4 -10   73.39    3.30
   3  -4  -9  201.98    5.80
   3  -4  -9  202.93    5.82
   3  -4  -9  205.85    5.84
   3  -4  -8  304.61    7.34
   3  -4  -8  294.38    7.14
   3  -4  -8  306.37    7.31
  -3   4   7   11.01    2.57
   3  -4  -7    6.63    1.21
   3  -4  -7    5.61    1.83
   3  -4  -7    7.03    1.20
  -3   4   7    9.64    2.11
   3  -4  -7    6.81    1.24
   3  -4  -7    8.14    1.24
   3  -4  -7    7.65    1.93
  -3   4   6  413.55   13.44
   3  -4  -6  419.48   12.72
   3  -4  -6  397.83    8.21
   3  -4  -6  396.79    7.95
   3  -4  -6  388.98    7.87
   3  -4  -6  390.87   11.77
   3  -4  -6  412.03    7.35
  -3   4   5  280.31   10.03
   3  -4  -5  287.92    9.97
   3  -4  -5  295.58    6.52
   3  -4  -5  293.27    6.81
   3  -4  -5  285.65    6.46
   3  -4  -5  282.52    9.73
   3  -4  -5  305.15    6.13
  -3   4   4  104.97    5.82
   3  -4  -4  114.60    5.93
   3  -4  -4  112.79    6.01
   3  -4  -3   18.09    2.28
   3  -4  -3   16.69    2.26
  -3   4   3   18.79    2.37
  -3   4   2   17.65    2.18
   3  -4  -2   20.55    2.31
   3  -4  -1  976.53   15.51
  -3   4   1  940.25   14.80
  -3   4   1  988.11   15.06
   3  -4   0  159.52    6.52
  -3   4   0  158.07    5.80
  -3   4  -1  149.41    5.72
  -3   4  -1  142.86    6.50
   3  -4   2   14.73    2.39
  -3   4  -2   13.60    2.22
   3  -4   3   95.39    5.93
   3  -4   3   99.69    3.41
  -3   4  -3   90.82    5.82
   3  -4   3   98.44    3.15
   3  -4   4  129.63    7.40
   3  -4   4  139.47    4.02
  -3   4  -4  135.49    7.52
  -3   4  -5  474.38    8.41
   3  -4   5  455.23   14.67
   3  -4   5  483.48    7.82
  -3   4  -5  483.51   14.87
  -3   4  -6  325.29    7.16
   3  -4   6  323.29    6.70
   3  -4   7   -0.12    0.69
  -3   4  -7   -0.49    0.63
  -3   4  -8   28.16    2.16
  -3   4  -9   -0.32    0.62
   3  -4  10   11.15    1.13
  -3   4 -10   12.21    1.11
   3  -3 -12   18.47    1.33
   3  -3 -12   16.17    1.13
   3  -3 -11   48.37    2.60
   3  -3 -11   44.70    2.34
   3  -3 -10   18.84    1.59
   3  -3 -10   22.22    2.02
   3  -3 -10   20.95    1.83
   3  -3  -9    9.66    1.27
   3  -3  -9    8.62    1.41
   3  -3  -9    6.61    1.19
  -3   3   8  728.60   20.18
   3  -3  -8  731.91   10.82
   3  -3  -8  756.78   11.64
   3  -3  -8  747.19   11.12
   3  -3  -7  562.44   14.77
  -3   3   7  547.76   16.63
   3  -3  -7  524.41    9.09
   3  -3  -7  553.06    9.71
   3  -3  -7  545.58    9.23
   3  -3  -6  232.25    9.03
   3  -3  -6  235.12    5.85
   3  -3  -6  242.67    6.14
   3  -3  -6  235.66    5.81
   3  -3  -6  233.92    8.28
   3  -3  -6  238.75    5.27
  -3   3   6  231.86   10.02
  -3   3   5    1.37    1.14
   3  -3  -5    0.65    0.72
   3  -3  -5    0.84    0.78
   3  -3  -4  699.74   13.59
  -3   3   4  685.14   13.89
  -3   3   4  660.13   13.56
   3  -3  -4  664.95   12.84
  -3   3   3   75.96    4.04
   3  -3  -3   85.68    4.41
   3  -3  -3   80.30    4.13
  -3   3   3   81.74    4.58
   3  -3  -3   77.37    4.27
   3  -3  -2    0.31    0.55
   3  -3  -2    0.27    0.45
  -3   3   2    0.30    0.65
  -3   3   2    0.59    0.55
  -3   3   1 1415.12   16.37
  -3   3   1 1364.71   16.77
   3  -3  -1 1393.34   15.57
   3  -3  -1 1400.19   15.79
  -3   3   0  223.60    6.65
  -3   3   0  236.16    7.19
  -3   3  -1  373.83    8.69
   3  -3   1  377.64    9.02
  -3   3  -1  395.33    9.87
  -3   3  -2    4.92    1.13
   3  -3   2    3.47    1.13
  -3   3  -2    3.19    1.24
   3  -3   3  351.75   10.16
   3  -3   3  357.93    9.65
  -3   3  -3  358.79    9.20
  -3   3  -3  354.44   10.45
  -3   3  -4    1.39    0.89
   3  -3   4    3.40    1.36
  -3   3  -4    1.34    0.69
   3  -3   5   24.44    3.28
   3  -3   5   27.24    1.91
  -3   3  -5   23.31    1.91
   3  -3   5   24.85    1.74
  -3   3  -5   26.96    3.35
   3  -3   6    4.52    0.91
  -3   3  -6    2.22    1.26
  -3   3  -6    5.69    0.99
  -3   3  -6    3.20    0.85
  -3   3  -7   12.75    1.52
   3  -3   7   11.71    1.38
  -3   3  -8   57.25    3.09
   3  -3   8   54.77    2.86
  -3   3  -9   37.39    2.36
  -3   3 -10   45.21    2.30
  -3   3 -10   45.28    2.14
  -3   3 -11    0.36    0.30
   3  -2 -12   17.19    1.34
   3  -2 -12   14.55    1.05
   3  -2 -11   20.61    1.80
   3  -2 -11   17.85    1.51
   3  -2 -10  236.05    6.39
   3  -2 -10  228.53    5.80
   3  -2  -9  132.98    4.96
   3  -2  -9  130.86    4.57
  -3   2   8  440.38   15.66
   3  -2  -8  442.08    9.01
   3  -2  -8  439.12    8.30
   3  -2  -7   37.46    2.60
  -3   2   7   41.25    4.70
   3  -2  -7   37.86    2.38
   3  -2  -7   39.85    3.88
  -3   2   6   63.30    5.26
   3  -2  -6   62.37    3.06
   3  -2  -6   60.44    4.44
  -3   2   5    0.97    1.17
   3  -2  -5   -0.55    0.74
   3  -2  -5    0.83    0.71
  -3   2   4 1102.23   17.26
   3  -2  -4 1130.57   14.67
   3  -2  -4 1144.39   16.33
   3  -2  -3    8.49    1.44
  -3   2   3   13.87    1.74
  -3   2   3   10.84    1.62
  -3   2   3   12.26    1.17
   3  -2  -3    7.24    1.25
   3  -2  -2  257.14    6.48
  -3   2   2  245.27    7.06
   3  -2  -2  263.34    5.87
  -3   2   2  259.28    5.96
   3  -2  -1    4.00    0.69
  -3   2   1    3.25    0.99
   3  -2  -1    2.01    0.62
  -3   2   1    1.86    0.64
  -3   2   0 3615.50   26.13
  -3   2   0 3631.90   25.61
   3  -2   0 3751.04   20.64
   3  -2   0 3739.80   15.74
   3  -2   0 3752.16   20.33
   3  -2   1  481.09    8.41
   3  -2   1  525.30    7.89
  -3   2  -1  483.92    9.28
  -3   2  -1  523.25   10.59
   3  -2   2 1839.45   18.38
   3  -2   2 1853.12   17.76
  -3   2  -2 1840.39   21.13
  -3   2  -3 2671.33   24.65
   3  -2   3 2724.95   24.93
  -3   2  -3 2712.23   26.98
   3  -2   4  113.20    5.69
  -3   2  -4  110.14    4.69
  -3   2  -4  111.35    5.79
  -3   2  -4  110.75    5.28
  -3   2  -5    2.24    1.22
  -3   2  -5    1.58    0.88
   3  -2   5    3.51    1.47
  -3   2  -5    0.75    0.68
  -3   2  -6  139.32    4.47
   3  -2   6  142.68    7.76
  -3   2  -6  145.43    6.97
   3  -2   6  147.03    4.18
  -3   2  -6  135.84    7.26
   3  -2   7   26.82    3.76
  -3   2  -7   29.29    2.14
  -3   2  -7   28.01    2.12
   3  -2   7   25.21    1.92
  -3   2  -7   27.05    3.42
  -3   2  -8  173.91    5.18
  -3   2  -8  163.82    5.12
   3  -2   8  171.44    4.96
  -3   2  -9  279.72    6.48
  -3   2 -10    2.66    0.77
  -3   2 -10    3.14    0.81
  -3   2 -11  109.21    3.11
  -3   2 -11  107.14    3.10
  -3   2 -12   37.19    1.56
   3  -1 -12  215.01    4.51
   3  -1 -11  206.83    5.36
   3  -1 -11  204.20    4.63
   3  -1 -10   40.51    2.67
   3  -1 -10   39.42    2.34
   3  -1  -9    1.84    0.88
   3  -1  -9    2.86    0.78
  -3   1   8  138.46    9.00
   3  -1  -8  135.33    4.92
   3  -1  -8  134.04    4.43
   3  -1  -8  140.03    7.64
  -3   1   7  306.00   12.51
   3  -1  -7  297.35    7.04
   3  -1  -7  291.80    6.23
   3  -1  -7  301.92   10.52
  -3   1   6   19.66    2.91
   3  -1  -6   12.07    1.99
   3  -1  -6   16.75    1.61
  -3   1   5  501.69   13.10
   3  -1  -5  486.47   11.28
  -3   1   4  337.43    9.52
   3  -1  -4  339.58    8.64
  -3   1   3 1693.61   18.23
  -3   1   3 1763.50   18.98
  -3   1   3 1804.13   14.63
   3  -1  -3 1742.09   17.86
   3  -1  -3 1749.09   14.71
  -3   1   2 2435.22   17.98
   3  -1  -2 2428.20   18.77
   3  -1  -1  704.37    8.75
  -3   1   1  703.79    7.36
  -3   1   1  711.63   10.81
  -3   1   1  711.79   10.25
   3  -1   0 1797.95   11.68
  -3   1   0 1819.38   17.21
   3  -1   0 1790.58    9.00
   3  -1   0 1809.12   11.89
  -3   1   0 1769.34   16.93
  -3   1  -1 8026.96   38.85
   3  -1   1 8019.90   31.39
  -3   1  -1 7980.70   35.83
  -3   1  -2 3529.67   27.48
  -3   1  -2 3483.18   25.36
   3  -1   3  194.44    6.48
  -3   1  -3  185.56    6.27
   3  -1   4  125.11    5.74
  -3   1  -4  125.64    5.78
  -3   1  -4  117.94    5.37
  -3   1  -5    4.35    1.26
   3  -1   5    7.34    1.78
  -3   1  -5    4.21    1.31
  -3   1  -6  706.16   15.25
   3  -1   6  721.49   16.69
  -3   1  -6  727.41    9.40
   3  -1   6  746.52    8.90
  -3   1  -7  538.33   13.87
   3  -1   7  527.66   15.76
  -3   1  -7  542.43    8.55
  -3   1  -7  542.68    8.69
   3  -1   7  545.13    8.17
   3  -1   8 1033.26   23.11
  -3   1  -8 1010.51   12.08
  -3   1  -8  988.63   12.30
   3  -1   8 1013.95   11.75
  -3   1  -9  139.62    4.50
  -3   1  -9  145.01    4.78
   3  -1   9  141.61    4.48
  -3   1 -10   36.74    2.36
  -3   1 -10   37.66    2.24
  -3   1 -11   -0.65    0.56
  -3   1 -11    0.15    0.30
  -3   1 -12    2.30    0.47
  -3   1 -12    2.91    0.58
   3   0 -12   46.72    1.96
   3   0 -11   41.18    2.33
   3   0 -10    3.03    0.94
   3   0  -9    8.85    1.17
   3   0  -9    7.20    1.07
   3   0  -9    7.05    1.30
  -3   0   8   87.98    7.24
   3   0  -8   76.01    3.67
  -3   0   8   77.14    5.57
   3   0  -8   77.00    3.28
  -3   0   7   18.90    3.36
   3   0  -7   16.18    1.51
   3   0  -7   17.01    1.71
   3   0  -7   16.17    2.64
  -3   0   6   13.22    2.56
   3   0  -6   16.30    2.43
  -3   0   5  649.53   15.04
   3   0  -5  670.97   13.75
  -3   0   4 1027.84   16.71
  -3   0   4 1031.11   14.73
   3   0  -4 1085.30   13.11
   3   0  -4 1057.16   15.78
  -3   0   3 1107.19   14.37
   3   0  -3 1117.70   11.51
   3   0  -3 1123.16   14.75
  -3   0   2 2667.85   20.57
  -3   0   2 2733.84   20.99
  -3   0   2 2635.19   19.46
   3   0  -2 2766.93   14.15
   3   0  -2 2672.78   20.18
  -3   0   1 1746.78   16.12
  -3   0   1 1681.15   13.58
   3   0  -1 1689.33   11.61
   3   0  -1 1753.00   13.92
  -3   0   1 1727.84   15.97
   3   0   0 3067.38   17.14
  -3   0   0 3121.75   14.75
  -3   0   0 3089.32   22.06
   3   0   0 3119.55   14.12
   3   0   1  730.09    9.56
  -3   0  -1  752.38   11.40
  -3   0  -1  728.74   10.67
   3   0   2 1725.05    9.47
   3   0   2 1709.34   16.74
  -3   0  -2 1735.35   17.60
   3   0   3  757.62    8.44
  -3   0  -3  775.03   12.66
  -3   0  -3  759.18   12.69
   3   0   3  763.78   12.57
  -3   0  -4  835.38   13.87
  -3   0  -4  816.41   13.91
   3   0   4  852.30   14.93
   3   0   5    0.91    1.01
  -3   0  -5    1.21    0.91
  -3   0  -6  942.39   17.71
  -3   0  -6  949.95   16.43
   3   0   6  960.10   19.02
   3   0   7   14.43    2.67
  -3   0  -7   13.11    1.35
  -3   0  -7   10.66    1.29
   3   0   7   11.96    1.24
  -3   0  -7    9.98    1.92
  -3   0  -7    9.56    2.12
  -3   0  -8  697.99    9.48
  -3   0  -8  702.60    9.99
   3   0   8  680.15    9.39
  -3   0  -9 1451.83   14.96
   3   0   9 1422.90   13.95
  -3   0 -10  142.83    4.68
  -3   0 -10  139.89    4.68
  -3   0 -11   93.03    3.50
  -3   0 -11   97.65    3.66
  -3   0 -12   10.37    1.03
  -3   0 -12   10.45    1.05
   3   1 -11   51.89    2.36
   3   1 -10  118.01    3.81
   3   1 -10  102.47    3.83
   3   1  -9    0.60    0.69
   3   1  -9   -0.14    0.55
   3   1  -8  431.06    8.16
   3   1  -8  422.35    8.40
  -3  -1   7   29.28    4.08
   3   1  -7   28.50    2.09
   3   1  -7   31.70    3.78
  -3  -1   6  135.52    8.00
  -3  -1   6  142.18    6.35
   3   1  -6  140.56    4.36
   3   1  -6  133.10    6.42
   3   1  -6  140.79    7.38
  -3  -1   5  311.48   10.88
  -3  -1   5  326.05    8.87
   3   1  -5  318.10    9.34
   3   1  -5  333.13   10.46
  -3  -1   4   19.82    2.05
   3   1  -4   26.45    2.65
  -3  -1   4   19.43    2.56
   3   1  -4   19.09    2.39
  -3  -1   3  385.50    9.54
   3   1  -3  390.17    9.62
  -3  -1   3  368.54    7.97
   3   1  -3  399.11    9.06
  -3  -1   2  212.45    6.34
  -3  -1   2  232.18    6.16
   3   1  -2  228.33    6.11
  -3  -1   2  222.03    5.70
  -3  -1   1  432.16    8.02
   3   1  -1  425.85    6.92
  -3  -1   1  430.46    8.34
  -3  -1   1  419.27    7.73
  -3  -1   0    8.45    1.09
  -3  -1   0    7.99    1.28
   3   1   0    7.94    0.85
  -3  -1   0    5.77    1.01
   3   1   1  428.73    5.88
   3   1   1  412.71    7.52
   3   1   1  452.18    4.21
  -3  -1  -1  441.03    8.70
  -3  -1  -1  430.67    8.10
   3   1   2 1393.85   15.07
  -3  -1  -2 1378.87   15.60
  -3  -1  -2 1424.31   15.98
  -3  -1  -3 1480.25   17.57
   3   1   3 1441.77   17.21
  -3  -1  -3 1475.51   17.13
   3   1   4   78.23    3.69
  -3  -1  -4   68.06    4.05
  -3  -1  -4   65.74    3.86
   3   1   4   66.52    4.14
   3   1   5  801.10   13.64
  -3  -1  -5  802.03   13.80
   3   1   5  805.44   15.82
  -3  -1  -5  755.09   14.63
   3   1   6  299.72    9.47
  -3  -1  -6  276.43    9.68
   3   1   6  283.47   10.35
  -3  -1  -6  288.30    8.61
  -3  -1  -6  287.43    9.58
   3   1   7  344.23   12.40
  -3  -1  -7  352.58    6.87
  -3  -1  -7  357.27   11.52
   3   1   7  340.59    5.99
  -3  -1  -7  346.79    6.56
   3   1   8   27.30    3.77
  -3  -1  -8   25.63    1.93
  -3  -1  -8   26.86    2.06
  -3  -1  -8   26.93    3.42
   3   1   8   27.67    1.82
  -3  -1  -9   31.60    2.36
  -3  -1  -9   31.02    2.17
  -3  -1  -9   27.44    2.09
   3   1   9   29.66    1.91
  -3  -1 -10   77.07    3.59
  -3  -1 -10   77.05    3.41
  -3  -1 -11   -0.38    0.78
  -3  -1 -11   -0.05    0.55
  -3  -1 -11    0.53    0.59
  -3  -1 -12   16.80    1.37
  -3  -1 -12   17.04    1.34
   3   2 -11    5.61    0.70
   3   2 -11    6.59    0.76
   3   2 -10   16.80    1.44
   3   2 -10   18.30    1.51
   3   2  -9  102.35    3.90
   3   2  -9  107.08    3.93
   3   2  -8  145.84    4.86
   3   2  -8  148.37    4.77
  -3  -2   7  206.58   10.71
   3   2  -7  181.66    5.43
   3   2  -7  183.61    8.84
   3   2  -7  210.95   10.14
  -3  -2   6  352.30   13.11
   3   2  -6  369.50    7.48
   3   2  -6  370.56   12.37
   3   2  -6  393.91   13.41
  -3  -2   5    3.24    1.55
   3   2  -5    6.39    1.94
   3   2  -5    5.18    0.94
   3   2  -5    9.31    2.14
  -3  -2   4   69.04    4.87
   3   2  -4   66.65    4.94
  -3  -2   3  134.14    6.11
   3   2  -3  132.76    6.32
  -3  -2   3  144.44    4.62
  -3  -2   2  119.58    5.22
  -3  -2   2  116.22    4.04
   3   2  -2  121.98    5.31
  -3  -2   2  115.96    4.05
  -3  -2   1    8.44    0.93
   3   2  -1    7.87    1.27
   3   2   0  119.25    4.23
  -3  -2   0  122.23    2.88
  -3  -2   0  126.92    4.15
  -3  -2   0  114.42    4.51
  -3  -2   0  125.16    4.81
  -3  -2  -1   15.78    1.11
  -3  -2  -1   14.34    1.50
  -3  -2  -1   18.46    1.22
   3   2   2  268.98    7.03
  -3  -2  -2  272.27    5.81
  -3  -2  -2  256.92    6.70
  -3  -2  -2  254.45    6.90
  -3  -2  -3   58.37    3.46
  -3  -2  -3   68.84    3.40
   3   2   3   71.82    3.94
  -3  -2  -3   59.14    3.45
  -3  -2  -4 3592.19   27.57
   3   2   4 3665.16   30.86
  -3  -2  -4 3608.20   27.58
   3   2   5  498.47   11.37
   3   2   5  500.41   12.56
  -3  -2  -5  473.85   10.87
  -3  -2  -5  496.56   10.52
  -3  -2  -5  491.52   11.98
   3   2   6  413.77   11.62
   3   2   6  388.82   12.04
  -3  -2  -6  391.60   11.66
  -3  -2  -6  387.92   10.72
   3   2   7  191.77    8.81
   3   2   7  166.99    8.78
  -3  -2  -7  180.24    4.90
  -3  -2  -7  188.00    4.86
  -3  -2  -7  185.38    4.96
  -3  -2  -7  183.87    8.02
   3   2   8    3.94    1.90
  -3  -2  -8    4.88    1.00
  -3  -2  -8    4.34    0.92
  -3  -2  -8    3.19    0.76
  -3  -2  -8    6.32    1.85
  -3  -2  -9   23.09    1.88
  -3  -2  -9   20.00    1.82
  -3  -2  -9   23.22    2.02
  -3  -2  -9   25.38    2.05
  -3  -2 -10    0.27    0.71
  -3  -2 -10    0.19    0.80
  -3  -2 -10    0.10    0.50
  -3  -2 -10   -0.91    0.82
  -3  -2 -11  109.46    4.02
  -3  -2 -11  103.57    3.62
  -3  -2 -11   97.09    3.62
  -3  -2 -12   39.32    2.14
  -3  -2 -12   35.33    1.91
  -3  -2 -13    2.25    0.44
   3   3 -11    0.34    0.29
   3   3 -10    5.56    0.86
   3   3  -9    3.57    0.89
   3   3  -8   44.34    2.75
   3   3  -7   75.20    3.58
  -3  -3   6  114.27    7.84
   3   3  -6  118.95    4.43
   3   3  -6  121.02    7.92
   3   3  -6  131.91    8.43
  -3  -3   5  391.05   13.38
   3   3  -5  420.87    7.95
   3   3  -5  409.25   14.50
  -3  -3   4  173.20    8.21
   3   3  -4  184.55    9.31
  -3  -3   3  254.73    9.12
   3   3  -3  268.50    9.98
  -3  -3   3  260.18    8.06
  -3  -3   2   12.65    1.65
   3   3  -2    8.12    1.78
  -3  -3   2   11.42    2.09
  -3  -3   1  704.95   10.71
   3   3  -1  714.34   13.39
   3   3   0 4972.77   32.94
  -3  -3   0 5046.98   26.44
   3   3   1  104.18    4.63
  -3  -3  -1  107.70    3.91
  -3  -3  -1  105.96    3.81
  -3  -3  -1  107.18    4.74
  -3  -3  -2   78.13    3.58
  -3  -3  -2   87.25    3.64
   3   3   2   86.00    4.43
  -3  -3  -2   84.46    3.26
  -3  -3  -2   79.92    4.07
   3   3   2   72.61    3.96
  -3  -3  -3   90.25    4.24
  -3  -3  -3   99.44    4.09
  -3  -3  -3   93.92    4.44
  -3  -3  -4  992.98   15.48
   3   3   4 1027.27   16.87
  -3  -3  -4 1022.51   14.57
  -3  -3  -4 1010.55   14.44
  -3  -3  -5    2.35    1.08
   3   3   5    3.48    1.08
  -3  -3  -5    1.73    0.89
  -3  -3  -5    3.11    0.92
   3   3   6  142.96    7.19
   3   3   6  138.52    7.44
  -3  -3  -6  149.88    4.32
  -3  -3  -6  144.30    4.12
  -3  -3  -6  137.81    6.44
   3   3   7  153.95    8.19
   3   3   7  155.87    8.49
  -3  -3  -7  158.36    4.62
  -3  -3  -7  164.23    4.81
  -3  -3  -7  159.39    4.55
  -3  -3  -7  157.11    7.42
   3   3   8    3.59    1.75
   3   3   8    5.01    1.83
  -3  -3  -8    4.31    0.90
  -3  -3  -8    3.29    0.90
  -3  -3  -8    3.70    0.81
  -3  -3  -8    3.80    0.82
  -3  -3  -8    3.96    1.37
  -3  -3  -9  226.43    5.66
  -3  -3  -9  241.02    6.10
  -3  -3  -9  242.96    5.95
  -3  -3  -9  229.96    6.13
  -3  -3 -10  322.24    7.22
  -3  -3 -10  315.33    6.55
  -3  -3 -10  329.73    7.04
  -3  -3 -10  335.49    6.93
  -3  -3 -11    8.07    1.24
  -3  -3 -11    6.51    0.93
  -3  -3 -11    7.76    1.05
  -3  -3 -12  113.09    3.58
  -3  -3 -12  106.69    2.95
  -3  -3 -12  110.54    3.11
  -3  -3 -13   56.80    1.95
   3   4 -10  120.65    3.23
   3   4  -9    3.62    0.80
   3   4  -8   -0.29    0.66
   3   4  -7    5.97    1.09
   3   4  -6  324.35    7.53
  -3  -4   5    7.77    2.35
   3   4  -5    9.70    1.36
   3   4  -5    5.35    1.96
   3   4  -4 1548.25   15.16
   3   4  -4 1549.78   29.47
  -3  -4   4 1558.96   26.92
  -3  -4   3   11.99    2.32
  -3  -4   3    8.17    1.73
   3   4  -3   10.20    2.45
  -3  -4   2   74.72    5.28
   3   4  -2   72.62    5.32
  -3  -4   2   69.93    4.40
  -3  -4   1    3.72    1.01
   3   4  -1    5.79    1.65
   3   4   0  292.64    9.36
  -3  -4   0  285.29    7.77
   3   4   1  167.15    6.83
  -3  -4  -1  173.42    6.05
   3   4   2  271.78    8.87
  -3  -4  -2  271.01    6.57
  -3  -4  -2  266.47    7.52
   3   4   2  247.69    8.30
  -3  -4  -3  655.23   12.34
   3   4   3  633.32   13.38
  -3  -4  -3  637.25   10.98
  -3  -4  -3  659.89   11.42
   3   4   3  632.95   13.84
   3   4   4  108.77    5.89
  -3  -4  -4  112.92    5.16
   3   4   5  142.31    7.12
  -3  -4  -5  157.97    4.49
  -3  -4  -5  149.47    6.48
   3   4   6    2.84    1.38
  -3  -4  -6    1.66    0.57
  -3  -4  -6    2.90    0.85
  -3  -4  -6    0.79    0.44
  -3  -4  -6    1.74    0.96
  -3  -4  -6    2.27    0.64
   3   4   7   -0.48    1.10
  -3  -4  -7    1.99    0.69
   3   4   7    2.60    1.33
  -3  -4  -7    1.73    0.69
  -3  -4  -7    1.04    0.62
  -3  -4  -7    0.21    0.58
  -3  -4  -7    0.45    0.81
   3   4   8    0.98    1.55
  -3  -4  -8   -0.23    0.69
  -3  -4  -8   -0.09    0.63
  -3  -4  -8    0.05    0.45
  -3  -4  -9    2.20    0.87
  -3  -4  -9    2.05    0.85
  -3  -4  -9    1.81    0.64
  -3  -4 -10  192.24    5.50
  -3  -4 -10  176.03    4.65
  -3  -4 -10  187.13    5.20
  -3  -4 -10  186.35    4.87
  -3  -4 -11    4.97    1.03
  -3  -4 -11    3.31    0.73
  -3  -4 -11    4.50    0.72
  -3  -4 -11    3.86    0.74
  -3  -4 -12    3.80    0.72
  -3  -4 -12    3.11    0.48
   3   5  -9    1.30    0.51
   3   5  -8    1.98    0.71
   3   5  -7   47.88    2.80
   3   5  -6    0.50    0.60
   3   5  -5  267.37    6.72
  -3  -5   4 1072.07   23.82
   3   5  -4 1026.74   25.72
  -3  -5   3   81.08    6.30
   3   5  -3   82.52    6.90
   3   5  -3   74.56    3.23
   3   5  -2   15.56    1.43
   3   5  -2   14.94    3.04
  -3  -5   1   25.73    2.86
  -3  -5   1   28.40    1.90
   3   5  -1   27.07    3.59
  -3  -5   0   19.27    2.45
   3   5   0   16.73    2.70
  -3  -5  -1    2.44    1.03
   3   5   1    1.29    1.24
   3   5   2  223.00    9.18
  -3  -5  -2  237.62    8.16
  -3  -5  -3    0.79    0.88
   3   5   3    0.31    0.87
   3   5   3   -1.17    1.22
  -3  -5  -3    0.62    0.51
  -3  -5  -3   -0.33    0.52
   3   5   4   40.92    3.98
  -3  -5  -4   45.96    2.53
  -3  -5  -4   41.12    2.21
  -3  -5  -4   43.27    3.41
   3   5   4   39.03    4.09
  -3  -5  -5    7.87    1.08
   3   5   5    7.22    1.88
  -3  -5  -5    8.49    1.07
  -3  -5  -5    8.39    1.23
  -3  -5  -5    7.40    1.62
  -3  -5  -6  244.45    5.58
   3   5   6  251.40   10.62
  -3  -5  -6  255.15    6.28
  -3  -5  -6  244.26    5.59
  -3  -5  -6  254.53    9.45
  -3  -5  -7   44.49    2.47
   3   5   7   47.31    5.01
   3   5   7   44.86    4.69
  -3  -5  -7   44.28    2.62
  -3  -5  -7   46.31    2.76
  -3  -5  -7   49.51    2.59
  -3  -5  -7   43.60    4.25
  -3  -5  -8  449.65    8.48
  -3  -5  -8  463.25    8.54
  -3  -5  -8  451.79    7.74
  -3  -5  -9    6.81    1.20
  -3  -5  -9    7.17    1.17
  -3  -5  -9    5.79    0.88
  -3  -5 -10    2.78    0.83
  -3  -5 -10    2.20    0.70
  -3  -5 -10    2.37    0.60
  -3  -5 -11    1.31    0.56
  -3  -5 -11    1.06    0.47
  -3  -5 -12   17.54    1.25
   3   6  -8   82.09    2.77
  -3  -6   7    3.38    0.72
   3   6  -7    2.53    0.68
  -3  -6   6   32.49    2.10
   3   6  -6   31.72    2.17
  -3  -6   5   11.01    1.36
   3   6  -5   11.00    1.39
   3   6  -4  685.17   10.09
  -3  -6   4  687.70   10.02
  -3  -6   3    3.37    0.79
   3   6  -3    3.31    0.72
   3   6  -2  192.92   10.81
  -3  -6   2  175.38    5.21
  -3  -6   2  180.01    4.99
  -3  -6   1   23.19    1.81
   3   6  -1   22.21    3.79
  -3  -6   1   20.76    1.81
   3   6   0   89.82    6.91
  -3  -6   0   85.38    3.30
  -3  -6   0   83.06    3.53
  -3  -6  -1   26.83    1.87
  -3  -6  -1   26.52    3.11
   3   6   1   22.67    3.58
  -3  -6  -1   26.61    2.02
   3   6   2  356.81   13.11
  -3  -6  -2  334.98    6.48
  -3  -6  -2  367.69   11.34
   3   6   2  341.48   12.11
  -3  -6  -2  349.24    7.22
  -3  -6  -2  337.88    6.57
   3   6   3   51.12    5.07
  -3  -6  -3   54.47    2.65
  -3  -6  -3   57.87    4.66
   3   6   3   54.21    4.82
  -3  -6  -3   57.53    3.02
  -3  -6  -3   53.41    2.65
   3   6   4 1264.81   25.40
  -3  -6  -4 1242.82   12.86
   3   6   4 1287.23   23.67
  -3  -6  -4 1247.93   14.01
  -3  -6  -4 1217.91   12.57
   3   6   5  553.01   17.18
  -3  -6  -5  551.02    9.56
  -3  -6  -5  574.62    8.86
   3   6   5  576.71   16.09
  -3  -6  -5  555.78    8.52
  -3  -6  -6    1.02    0.61
   3   6   6    2.25    1.63
  -3  -6  -6    1.62    0.93
  -3  -6  -6   -0.21    0.56
  -3  -6  -7  146.77    4.52
  -3  -6  -7  147.42    4.86
  -3  -6  -7  142.38    4.28
  -3  -6  -8   39.42    2.34
  -3  -6  -8   47.18    2.69
  -3  -6  -8   45.27    2.72
  -3  -6  -8   47.36    2.39
  -3  -6  -9   49.78    2.66
  -3  -6  -9   52.20    2.33
  -3  -6  -9   45.62    2.53
  -3  -6 -10    0.95    0.53
  -3  -6 -10    1.38    0.56
  -3  -6 -11   24.95    1.57
  -3  -6 -11   25.25    1.48
   3   7  -7   43.09    1.77
   3   7  -6   12.62    1.15
  -3  -7   6   13.84    1.17
  -3  -7   6   15.24    1.27
  -3  -7   5   -0.05    0.45
   3   7  -5    0.75    0.48
  -3  -7   5    0.09    0.48
  -3  -7   4  185.47    5.29
  -3  -7   4  182.83    4.93
  -3  -7   3    7.89    1.14
  -3  -7   3    6.13    1.11
  -3  -7   2   21.68    1.78
  -3  -7   2   23.00    2.01
  -3  -7   1    3.03    0.82
  -3  -7   1    2.62    0.85
  -3  -7   0  330.68    6.83
  -3  -7   0  327.22    7.36
  -3  -7  -1  350.10    7.04
  -3  -7  -1  349.12    7.63
  -3  -7  -1  344.35    6.99
  -3  -7  -2    1.36    0.64
   3   7   2   -0.37    1.32
  -3  -7  -2    1.86    0.79
  -3  -7  -2    1.37    0.66
  -3  -7  -3   45.82    2.58
  -3  -7  -3   44.73    2.82
  -3  -7  -3   44.18    2.51
  -3  -7  -4  609.69    9.37
  -3  -7  -4  627.61   10.28
  -3  -7  -4  606.39    9.08
  -3  -7  -5  111.00    4.02
  -3  -7  -5  121.65    4.53
  -3  -7  -5  118.66    3.95
  -3  -7  -6   25.13    1.97
  -3  -7  -6   23.44    2.09
  -3  -7  -6   22.32    1.69
  -3  -7  -7   -0.34    0.54
  -3  -7  -7   -0.06    0.72
  -3  -7  -7    0.74    0.48
  -3  -7  -8   34.72    2.07
  -3  -7  -8   37.77    2.35
  -3  -7  -9   -0.19    0.50
  -3  -7 -10   12.83    1.11
  -3  -7 -11    3.21    0.47
  -3  -8   5    4.51    0.71
  -3  -8   4   15.11    1.38
  -3  -8   4   16.40    1.30
  -3  -8   3    1.26    0.53
  -3  -8   3   -0.14    0.54
  -3  -8   2   70.55    3.24
  -3  -8   2   71.32    3.01
  -3  -8   1   46.22    2.50
  -3  -8   1   48.93    2.82
  -3  -8   1   46.84    2.56
  -3  -8   0  218.66    5.96
  -3  -8   0  214.35    5.42
  -3  -8   0  214.89    5.46
  -3  -8  -1  149.66    4.59
  -3  -8  -1  152.09    5.04
  -3  -8  -1  148.99    4.48
  -3  -8  -2    5.89    0.99
  -3  -8  -2    6.51    1.28
  -3  -8  -2    5.01    0.92
  -3  -8  -3   35.34    2.29
  -3  -8  -3   39.30    2.67
  -3  -8  -3   34.65    2.17
  -3  -8  -4   37.41    2.33
  -3  -8  -4   38.88    2.65
  -3  -8  -4   41.32    2.26
  -3  -8  -5    4.17    0.88
  -3  -8  -5    4.96    1.18
  -3  -8  -5    2.68    0.62
  -3  -8  -6   10.22    1.26
  -3  -8  -6    4.55    1.08
  -3  -8  -7   61.90    2.64
  -3  -8  -7   69.03    3.05
  -3  -8  -8    3.77    0.68
  -3  -8  -8    5.51    0.87
  -3  -8  -9    0.13    0.34
  -3  -8 -10   53.07    1.76
  -3  -9   4   16.14    1.00
  -3  -9   3    3.82    0.72
  -3  -9   3    3.87    0.62
  -3  -9   2    5.10    0.72
  -3  -9   2    4.96    0.82
  -3  -9   2    4.44    0.71
  -3  -9   1   58.03    2.37
  -3  -9   1   58.56    2.70
  -3  -9   1   57.03    2.40
  -3  -9   0   27.56    1.74
  -3  -9   0   25.12    1.88
  -3  -9   0   26.49    1.68
  -3  -9  -1    0.90    0.56
  -3  -9  -1   -0.61    0.73
  -3  -9  -1    0.34    0.40
  -3  -9  -2    0.68    0.51
  -3  -9  -2    1.66    0.84
  -3  -9  -2    1.92    0.52
  -3  -9  -3    5.58    0.86
  -3  -9  -3    4.83    1.08
  -3  -9  -3    5.44    0.77
  -3  -9  -4    3.01    0.69
  -3  -9  -4    4.05    0.96
  -3  -9  -5   16.89    1.36
  -3  -9  -5   18.56    1.62
  -3  -9  -6   27.39    1.81
  -3  -9  -6   25.35    1.54
  -3  -9  -7   16.94    1.14
  -3  -9  -7   19.52    1.40
  -3  -9  -8    0.33    0.30
  -3 -10   1    7.56    0.77
  -3 -10   0    0.06    0.32
  -3 -10  -1   -0.58    0.37
  -3 -10  -1    0.77    0.44
  -3 -10  -2   20.02    1.16
  -3 -10  -2   23.05    1.51
  -3 -10  -3   34.27    1.82
  -3 -10  -3   29.77    1.41
  -3 -10  -4   33.33    1.74
  -3 -10  -4   28.02    1.32
  -3 -10  -5    1.30    0.42
  -3 -10  -6   16.62    1.07
   4  -9  -5    8.61    0.84
   4  -9  -4  128.42    3.25
   4  -9  -3   22.26    1.43
   4  -9  -2    0.35    0.39
   4  -9  -1   32.36    1.74
   4  -9   0    2.48    0.56
   4  -9   1    0.44    0.34
   4  -9   2    0.57    0.32
   4  -8  -8    5.27    0.68
   4  -8  -7    1.65    0.55
   4  -8  -6    0.84    0.47
   4  -8  -6    0.75    0.51
   4  -8  -5    0.06    0.47
   4  -8  -4   36.09    2.15
   4  -8  -3   28.07    1.97
   4  -8  -2   28.95    2.03
   4  -8  -1   63.28    2.96
   4  -8   0   36.08    2.22
   4  -8   1  227.46    5.36
   4  -8   2   30.59    1.92
   4  -8   3   45.98    2.21
   4  -8   4    1.38    0.45
   4  -8   5    5.60    0.63
   4  -7  -9  120.82    3.21
   4  -7  -8   53.62    2.47
   4  -7  -7   15.23    1.52
   4  -7  -7   15.60    1.35
   4  -7  -6   24.03    1.66
   4  -7  -6   20.07    1.87
   4  -7  -6   23.04    1.78
   4  -7  -5    1.19    0.68
   4  -7  -5    0.70    0.41
   4  -7  -5    1.81    0.80
   4  -7  -4   49.40    2.53
   4  -7  -4   45.81    2.90
   4  -7  -4   51.02    2.82
   4  -7  -3   -0.65    0.76
   4  -7  -3    0.00    0.50
   4  -7  -3    0.78    0.84
   4  -7  -2   13.46    1.35
   4  -7  -2   14.62    1.62
   4  -7  -1    0.79    0.63
   4  -7  -1   -0.39    0.52
   4  -7   0   19.14    1.55
   4  -7   0   19.46    1.86
   4  -7   1  417.69    6.91
   4  -7   1  395.54    7.90
   4  -7   2  175.58    4.39
   4  -7   2  162.87    4.95
   4  -7   3   -0.62    0.77
   4  -7   4   10.07    1.21
   4  -7   5   54.21    2.50
   4  -7   6    7.10    0.87
   4  -6 -10    2.03    0.41
   4  -6 -10    1.81    0.49
   4  -6  -9   48.64    2.17
   4  -6  -9   50.39    2.40
   4  -6  -8   25.91    1.96
   4  -6  -8   25.99    1.84
   4  -6  -7   56.90    2.87
   4  -6  -7   58.09    3.08
   4  -6  -7   58.91    2.72
   4  -6  -6   60.49    3.06
   4  -6  -6   61.06    3.28
   4  -6  -6   58.17    2.88
   4  -6  -5   77.57    3.52
   4  -6  -5   75.92    3.70
   4  -6  -5   77.50    3.43
   4  -6  -4    7.84    1.22
   4  -6  -4   10.20    1.50
   4  -6  -4    9.62    1.32
   4  -6  -3   45.17    2.67
   4  -6  -3   42.85    2.83
   4  -6  -3   40.13    2.62
   4  -6  -3   44.91    2.68
   4  -6  -2   50.95    2.79
   4  -6  -2   51.94    3.12
   4  -6  -2   52.19    3.00
   4  -6  -2   52.08    2.93
   4  -6  -1   11.26    1.38
   4  -6  -1   13.15    1.62
   4  -6  -1   11.57    1.47
   4  -6   0  121.31    4.23
   4  -6   0  116.90    4.47
   4  -6   0  120.92    4.47
   4  -6   1  177.76    4.98
   4  -6   1  167.58    5.24
   4  -6   1  162.60    5.17
   4  -6   2  110.71    3.91
   4  -6   2  108.27    4.22
  -4   6  -3  120.15    4.23
   4  -6   3  126.78    4.57
   4  -6   4    0.30    0.71
  -4   6  -4    0.63    0.40
  -4   6  -5  223.75    5.55
   4  -6   5  233.66    5.93
   4  -6   6   -0.30    0.54
  -4   6  -6    0.04    0.44
  -4   6  -7   47.65    2.13
   4  -6   7   47.40    2.26
   4  -6   8   -0.45    0.32
  -4   6  -8    0.40    0.29
   4  -5 -11    5.71    0.65
   4  -5 -11    4.33    0.56
   4  -5 -10   15.66    1.29
   4  -5 -10   16.57    1.33
   4  -5  -9  130.46    4.13
   4  -5  -9  126.01    4.10
   4  -5  -8   28.03    2.23
   4  -5  -8   25.98    2.07
   4  -5  -8   28.92    2.17
   4  -5  -7   88.09    4.14
   4  -5  -7   82.89    3.73
   4  -5  -7   89.93    3.88
   4  -5  -7   92.69    3.50
   4  -5  -6   34.27    2.70
   4  -5  -6   36.73    2.55
   4  -5  -6   35.29    2.50
   4  -5  -6   38.93    2.38
  -4   5   5  283.70   11.12
   4  -5  -5  290.35    6.97
   4  -5  -5  281.64    6.95
   4  -5  -5  301.01    6.45
   4  -5  -5  293.16    6.42
  -4   5   4  275.15   10.55
   4  -5  -4  280.19   10.35
   4  -5  -4  268.78    6.62
   4  -5  -4  264.48    6.67
   4  -5  -4  269.33    6.30
   4  -5  -4  276.64    6.27
  -4   5   3  351.91   11.50
   4  -5  -3  333.50   10.85
   4  -5  -3  334.68    7.30
   4  -5  -3  332.90    7.35
   4  -5  -3  331.05    7.10
   4  -5  -3  343.31    6.91
  -4   5   2   25.21    3.03
   4  -5  -2   24.43    1.95
   4  -5  -2   22.90    2.01
   4  -5  -2   22.44    1.93
   4  -5  -2   24.71    1.93
   4  -5  -1   14.67    1.66
   4  -5  -1   15.33    1.56
  -4   5   0   81.49    5.50
   4  -5   0   86.42    3.57
   4  -5   0   83.28    3.67
   4  -5   0   83.45    3.52
   4  -5   1  155.34    4.76
   4  -5   1  159.16    5.03
   4  -5   1  155.59    4.91
  -4   5  -1  152.09    7.84
   4  -5   2  427.35    7.82
   4  -5   2  421.85    8.06
  -4   5  -2  411.45   13.36
   4  -5   2  420.62    8.19
   4  -5   3   47.87    2.64
   4  -5   3   44.89    2.54
   4  -5   3   49.18    2.39
   4  -5   3   43.97    2.68
   4  -5   4  225.74    5.69
  -4   5  -4  215.83    5.75
   4  -5   4  231.27    5.34
   4  -5   4  217.77    6.02
  -4   5  -5   15.97    1.61
   4  -5   5   17.84    1.61
   4  -5   5   16.50    1.75
   4  -5   6   12.45    1.52
  -4   5  -6   14.23    1.52
   4  -5   6   10.84    1.20
   4  -5   7    6.48    1.12
  -4   5  -7    7.92    1.13
  -4   5  -8   50.82    2.34
   4  -5   8   54.19    2.49
   4  -5   9    0.59    0.35
  -4   5  -9    0.02    0.24
   4  -4 -11    3.28    0.63
   4  -4 -11    3.93    0.62
   4  -4 -10   22.56    1.76
   4  -4 -10   19.83    1.51
   4  -4  -9   77.55    3.26
   4  -4  -9   84.42    3.69
   4  -4  -9   80.05    3.37
   4  -4  -8    0.16    0.54
   4  -4  -8   -0.16    0.71
   4  -4  -8   -0.33    0.58
   4  -4  -7  334.53    7.69
   4  -4  -7  353.92    7.95
   4  -4  -7  344.11    7.57
   4  -4  -6    0.74    0.66
  -4   4   6    0.17    0.81
   4  -4  -6    0.85    0.73
   4  -4  -6    0.17    0.62
   4  -4  -5   17.32    2.68
  -4   4   5   11.51    2.29
   4  -4  -5   13.06    1.63
   4  -4  -5   12.76    1.55
   4  -4  -5   14.86    1.57
   4  -4  -5   15.45    1.43
   4  -4  -5   13.94    1.36
   4  -4  -4    8.14    1.04
   4  -4  -4    7.36    1.29
   4  -4  -4    6.36    1.13
   4  -4  -4    6.03    1.55
  -4   4   4    7.73    1.86
   4  -4  -4    7.65    1.15
   4  -4  -4    7.18    1.05
  -4   4   3  103.33    6.03
   4  -4  -3  108.23    5.78
   4  -4  -3  117.93    4.20
   4  -4  -3  112.67    3.97
   4  -4  -3  114.90    3.90
   4  -4  -3  110.18    3.61
   4  -4  -2  122.09    5.79
   4  -4  -2  123.75    4.18
  -4   4   2  110.85    6.08
   4  -4  -2  122.46    4.09
   4  -4  -2  126.33    4.07
   4  -4  -2  120.33    3.77
   4  -4  -1  306.64    6.44
  -4   4   1  291.03    9.12
   4  -4  -1  291.59    6.30
   4  -4  -1  311.74    6.43
  -4   4   1  291.11    9.48
  -4   4   0  194.06    7.95
   4  -4   0  199.77    5.17
   4  -4   0  200.25    5.20
  -4   4   0  196.85    7.64
   4  -4   0  192.68    4.89
  -4   4  -1   34.80    3.30
   4  -4   1   37.97    2.28
   4  -4   1   36.33    2.26
   4  -4   1   37.30    2.23
   4  -4   2   34.95    2.22
   4  -4   2   32.87    2.16
   4  -4   2   33.66    1.88
  -4   4  -2   32.53    3.66
   4  -4   2   33.93    2.18
   4  -4   3    1.47    0.45
   4  -4   3    1.60    0.66
  -4   4  -3    1.25    1.11
   4  -4   3    1.02    0.56
   4  -4   3    1.89    0.65
   4  -4   4    2.97    0.73
   4  -4   4    2.55    0.72
  -4   4  -4    2.60    1.33
   4  -4   4    4.44    0.90
   4  -4   5   35.78    2.21
  -4   4  -6  149.11    4.85
   4  -4   6  148.18    4.49
  -4   4  -7  312.28    6.93
   4  -4   7  308.40    6.41
   4  -4   8   28.62    2.11
  -4   4  -8   29.29    2.04
   4  -4   9   29.44    1.88
  -4   4  -9   29.31    1.79
  -4   4 -10   23.20    1.28
   4  -4  10   23.44    1.32
   4  -3 -12    0.82    0.33
   4  -3 -11   40.28    2.10
   4  -3 -11   33.84    1.59
   4  -3 -10   15.34    1.58
   4  -3 -10   14.26    1.34
   4  -3  -9   33.55    2.46
   4  -3  -9   31.31    2.14
   4  -3  -8   34.20    2.54
   4  -3  -8   33.05    2.31
   4  -3  -7   64.69    3.22
   4  -3  -7   65.00    3.45
   4  -3  -7   66.10    3.23
  -4   3   6    2.14    1.07
   4  -3  -6    1.95    0.77
   4  -3  -6    2.26    0.93
   4  -3  -6    2.59    1.31
   4  -3  -6    1.39    0.64
   4  -3  -5   59.19    4.54
  -4   3   5   58.12    4.70
   4  -3  -5   58.97    3.03
   4  -3  -5   59.05    3.13
   4  -3  -5   59.63    2.92
  -4   3   4    4.22    1.40
   4  -3  -4    2.36    1.00
   4  -3  -4    3.88    0.85
  -4   3   3  166.85    7.28
   4  -3  -3  169.93    6.67
  -4   3   2  223.05    8.17
   4  -3  -2  243.34    7.38
  -4   3   1  394.05   10.66
  -4   3   1  424.60   10.33
   4  -3  -1  424.10    9.04
  -4   3   0  287.61    9.05
  -4   3   0  268.78    8.70
  -4   3  -1 3996.49   35.68
  -4   3  -1 4080.33   34.24
  -4   3  -2  725.85   15.96
  -4   3  -2  755.62   15.00
  -4   3  -3  785.68   15.73
   4  -3   3  796.80   10.02
   4  -3   3  794.79    9.18
  -4   3  -3  766.73   17.18
  -4   3  -4   77.20    5.01
   4  -3   4   71.22    4.97
   4  -3   4   70.21    3.09
   4  -3   4   70.19    2.87
  -4   3  -4   73.48    5.54
  -4   3  -5  198.15    9.46
   4  -3   5  191.90    5.25
   4  -3   5  193.64    5.02
  -4   3  -6  348.84    7.63
   4  -3   6  371.37    7.18
  -4   3  -7   29.11    2.21
   4  -3   7   28.59    2.05
   4  -3   8    6.60    1.09
  -4   3  -8    8.96    1.25
  -4   3  -9    5.14    0.91
  -4   3 -10    3.71    0.66
  -4   3 -10    2.33    0.56
   4  -2 -12    5.98    0.69
   4  -2 -11   16.70    1.45
   4  -2 -10   20.22    1.84
   4  -2  -9  223.53    6.24
   4  -2  -9  215.36    5.34
   4  -2  -8    3.73    1.04
   4  -2  -8    6.05    1.00
   4  -2  -7   52.86    4.68
  -4   2   7   49.83    5.04
   4  -2  -7   49.10    3.01
  -4   2   7   49.77    4.69
   4  -2  -7   56.46    2.88
  -4   2   6    4.63    1.64
  -4   2   6    3.22    1.52
   4  -2  -6    1.45    0.88
   4  -2  -6    2.24    0.85
   4  -2  -6    0.83    0.54
   4  -2  -5  342.03   10.45
  -4   2   5  324.11   10.75
   4  -2  -5  341.74    7.22
  -4   2   4    0.50    0.74
   4  -2  -4    1.01    0.78
   4  -2  -3   37.74    2.99
  -4   2   3   33.69    3.16
   4  -2  -2  421.35    8.96
  -4   2   2  412.27   10.55
  -4   2   2  407.52    9.01
  -4   2   1  736.31   13.95
  -4   2   1  723.30   12.99
  -4   2   0  735.31   13.57
  -4   2   0  814.68   14.38
  -4   2  -1 3656.70   32.26
  -4   2  -1 3695.69   30.77
  -4   2  -2  213.11    8.22
  -4   2  -2  202.21    7.45
   4  -2   2  214.06    6.36
   4  -2   3    1.94    0.86
  -4   2  -3   -0.12    0.85
  -4   2  -4  285.94   10.43
   4  -2   4  306.01    9.87
   4  -2   4  295.24    5.99
   4  -2   4  301.82    5.70
  -4   2  -5   74.22    5.59
  -4   2  -5   78.41    5.31
   4  -2   5   76.93    5.45
   4  -2   5   75.41    3.20
  -4   2  -5   77.98    3.32
   4  -2   5   79.52    3.09
  -4   2  -6   98.30    6.57
  -4   2  -6   92.56    5.99
   4  -2   6  102.66    6.86
  -4   2  -6   95.62    3.83
   4  -2   6   95.83    3.59
   4  -2   7    1.03    0.58
  -4   2  -7   -0.23    0.70
  -4   2  -8   14.32    1.55
  -4   2  -8   12.04    1.43
   4  -2   8   13.64    1.46
   4  -2   9   10.04    1.18
  -4   2  -9   12.33    1.36
  -4   2 -10   19.12    1.47
  -4   2 -10   20.89    1.58
  -4   2 -11   25.44    1.30
  -4   2 -11   29.74    1.52
   4  -1 -12    3.73    0.56
   4  -1 -11   25.08    1.68
   4  -1 -10  195.84    5.34
   4  -1  -9    0.21    0.68
   4  -1  -8  108.34    4.42
  -4   1   7    8.67    2.07
  -4   1   7    6.92    1.91
   4  -1  -7    4.68    1.58
   4  -1  -7    6.98    1.20
  -4   1   6  196.28    9.31
  -4   1   6  176.22    8.17
   4  -1  -6  196.19    5.64
   4  -1  -6  187.77    4.86
   4  -1  -6  199.65    8.47
  -4   1   5  159.25    7.52
  -4   1   5  141.47    6.81
   4  -1  -5  154.35    4.75
   4  -1  -5  148.33    6.79
  -4   1   4  321.81    9.43
  -4   1   4  296.84    9.27
   4  -1  -4  303.70    9.02
  -4   1   3 3011.28   25.12
  -4   1   3 3059.45   28.55
   4  -1  -3 3019.72   25.70
  -4   1   2 1853.39   19.04
  -4   1   2 1883.22   21.64
   4  -1  -2 1855.32   17.84
   4  -1  -1  686.00    9.45
  -4   1   1  666.97   12.78
  -4   1   1  655.26   11.76
  -4   1   0  135.63    5.63
  -4   1   0  145.96    5.87
   4  -1   1 2637.01   20.05
  -4   1  -1 2630.25   26.15
  -4   1  -2  414.12   10.88
   4  -1   2  406.26    9.11
  -4   1  -2  381.93    9.93
  -4   1  -3 1488.79   21.42
   4  -1   3 1458.75   19.29
  -4   1  -4  334.69   10.64
  -4   1  -4  317.02    9.93
   4  -1   4  322.93   10.05
  -4   1  -5   59.27    4.54
  -4   1  -5   67.30    5.05
   4  -1   5   57.85    4.71
   4  -1   5   64.90    2.81
  -4   1  -5   62.16    2.75
   4  -1   5   63.68    2.64
  -4   1  -6  135.84    7.36
  -4   1  -6  147.86    7.66
   4  -1   6  145.45    7.95
  -4   1  -6  140.53    4.37
   4  -1   6  145.76    4.20
  -4   1  -7  153.09    8.18
  -4   1  -7  159.82    8.17
   4  -1   7  161.64    8.99
  -4   1  -7  154.50    4.76
   4  -1   7  153.93    4.53
  -4   1  -8   57.98    2.97
  -4   1  -8   54.79    2.92
   4  -1   8   54.85    2.81
  -4   1  -9  117.69    4.06
  -4   1  -9  125.87    4.31
   4  -1   9  116.13    3.93
  -4   1 -10   14.16    1.32
  -4   1 -10   14.04    1.51
  -4   1 -11   39.92    1.99
   4   0 -11   86.52    2.86
   4   0 -10    0.55    0.54
   4   0  -9  278.53    5.93
   4   0  -9  269.12    6.56
   4   0  -8    6.04    1.14
   4   0  -8    4.94    0.98
  -4   0   7   83.36    6.74
   4   0  -7   74.42    3.30
  -4   0   7   74.09    5.44
   4   0  -7   71.97    3.51
   4   0  -7   89.31    6.06
   4   0  -6   58.15    2.86
  -4   0   6   51.51    4.29
   4   0  -6   56.32    2.97
  -4   0   6   49.29    4.89
   4   0  -6   57.08    4.59
  -4   0   5  158.59    7.81
  -4   0   5  139.76    6.64
   4   0  -5  162.07    4.73
   4   0  -5  157.18    7.11
   4   0  -5  166.10    4.62
  -4   0   4  149.25    6.75
  -4   0   4  147.56    6.37
   4   0  -4  158.25    6.63
  -4   0   3 2847.26   25.78
  -4   0   3 2875.86   26.53
  -4   0   3 2822.16   24.16
  -4   0   2  322.46    7.60
  -4   0   2  315.61    8.11
  -4   0   2  322.50    8.63
   4   0  -2  329.86    7.58
  -4   0   1  275.23    7.65
  -4   0   1  275.43    6.00
  -4   0   1  288.32    8.00
   4   0  -1  296.49    6.14
  -4   0   0  532.42   10.74
   4   0   0  563.81    8.63
  -4   0   0  543.18   11.05
  -4   0  -1  659.37   12.22
   4   0   1  643.17   10.50
  -4   0  -1  668.58   12.83
  -4   0  -2   70.31    4.17
   4   0   2   65.92    3.74
  -4   0  -2   69.24    4.36
  -4   0  -3  461.88   11.20
   4   0   3  466.18   11.10
   4   0   4   77.37    4.98
  -4   0  -4   82.33    5.11
  -4   0  -4   81.66    5.02
  -4   0  -5  107.90    6.03
   4   0   5  114.45    6.53
  -4   0  -5  104.70    5.96
  -4   0  -6   72.94    5.41
   4   0   6   76.03    5.75
  -4   0  -6   72.11    5.15
  -4   0  -6   74.79    3.08
  -4   0  -6   74.89    3.24
   4   0   6   85.40    3.09
  -4   0  -7  298.59   11.49
   4   0   7  318.67   12.40
  -4   0  -7  318.43   11.06
  -4   0  -7  311.69    6.59
  -4   0  -7  304.32    6.84
  -4   0  -7  333.39   12.22
   4   0   7  298.19    6.11
  -4   0  -8  820.94   10.45
  -4   0  -8  835.16   11.14
  -4   0  -9   14.43    1.41
  -4   0  -9   14.56    1.59
   4   0   9   15.12    1.46
  -4   0 -10    7.68    1.25
  -4   0 -10    6.86    1.11
  -4   0 -11   19.63    1.51
  -4   0 -11   19.55    1.50
  -4   0 -12   14.63    0.97
  -4   0 -12   17.20    1.17
   4   1 -11    3.76    0.59
   4   1 -10   15.00    1.26
   4   1 -10   13.60    1.27
   4   1  -9   13.62    1.42
   4   1  -9   14.57    1.47
   4   1  -8   57.48    3.05
   4   1  -8   59.37    3.05
  -4  -1   7  102.53    7.68
   4   1  -7   96.67    3.91
   4   1  -7   98.27    3.93
  -4  -1   6  627.29   17.45
   4   1  -6  600.70    9.52
   4   1  -6  645.35    9.95
  -4  -1   5    7.18    2.03
  -4  -1   5    5.93    1.37
   4   1  -5    6.69    1.71
   4   1  -5    8.48    1.25
   4   1  -5    7.75    1.07
  -4  -1   4  122.42    6.39
  -4  -1   4  128.40    5.75
   4   1  -4  120.38    6.13
  -4  -1   3    4.57    1.35
  -4  -1   3    4.92    1.17
   4   1  -3    3.64    1.15
  -4  -1   2  681.82   12.28
  -4  -1   2  705.26   12.62
  -4  -1   2  712.58   12.54
   4   1  -2  734.31   12.36
  -4  -1   1  119.39    4.69
  -4  -1   1  115.76    4.90
   4   1  -1  112.86    4.25
  -4  -1   1  119.53    5.20
   4   1  -1  129.37    4.50
  -4  -1   0  868.48   13.41
  -4  -1   0  856.93   14.05
   4   1   0  866.52   11.82
  -4  -1  -1  279.71    7.90
   4   1   1  271.84    7.08
  -4  -1  -1  269.82    8.07
  -4  -1  -2 1395.44   18.44
   4   1   2 1386.12   17.15
  -4  -1  -2 1400.56   18.89
  -4  -1  -3  276.07    8.65
   4   1   3  272.15    8.42
  -4  -1  -3  262.43    8.49
  -4  -1  -4  150.98    6.78
   4   1   4  152.59    6.90
  -4  -1  -4  146.15    6.57
  -4  -1  -5  259.76    9.45
   4   1   5  256.67    9.72
  -4  -1  -5  260.26    9.05
  -4  -1  -6   27.67    3.47
   4   1   6   27.91    3.60
  -4  -1  -6   27.11    1.89
  -4  -1  -6   29.04    1.92
  -4  -1  -6   27.42    3.30
  -4  -1  -6   29.47    3.19
   4   1   6   28.63    1.76
  -4  -1  -7   36.31    4.04
   4   1   7   36.25    4.29
  -4  -1  -7   36.26    2.25
  -4  -1  -7   34.39    2.25
  -4  -1  -7   36.89    4.01
   4   1   7   35.42    2.03
  -4  -1  -8  300.00    6.62
  -4  -1  -8  299.54    6.79
   4   1   8  302.41    6.02
  -4  -1  -9   84.66    3.74
  -4  -1  -9   83.97    3.58
   4   1   9   83.51    3.16
  -4  -1 -10   13.27    1.55
  -4  -1 -10   13.18    1.45
  -4  -1 -10   13.83    1.43
  -4  -1 -11   17.48    1.52
  -4  -1 -11   18.26    1.50
  -4  -1 -11   17.40    1.40
  -4  -1 -12   17.34    1.26
  -4  -1 -12   15.94    1.03
   4   2 -10    4.02    0.72
   4   2  -9  221.83    5.39
   4   2  -8  158.41    4.95
   4   2  -7  465.45    8.69
  -4  -2   6    5.55    2.07
   4   2  -6    6.84    2.09
   4   2  -6    4.55    1.02
  -4  -2   5    9.07    2.26
   4   2  -5   12.13    1.43
   4   2  -5   12.29    2.39
   4   2  -4  437.06    7.77
   4   2  -4  423.10   12.58
  -4  -2   3  247.56    7.28
   4   2  -3  233.21    8.78
  -4  -2   2  273.24    8.78
   4   2  -2  284.25    8.94
  -4  -2   1  227.19    7.46
  -4  -2   1  235.28    6.82
  -4  -2   1  249.60    7.93
  -4  -2   0  567.69   10.76
   4   2   0  538.65   10.78
  -4  -2   0  569.85   11.95
  -4  -2  -1   56.22    3.50
   4   2   1   56.10    3.46
  -4  -2  -1   55.17    3.76
  -4  -2  -2 1990.71   22.75
   4   2   2 1986.93   21.80
  -4  -2  -2 1962.16   21.76
  -4  -2  -3  110.87    5.51
  -4  -2  -3  104.84    5.30
   4   2   3  108.52    5.46
  -4  -2  -3  110.70    4.65
  -4  -2  -4  353.42   10.28
   4   2   4  363.98   10.73
  -4  -2  -4  363.37    9.35
  -4  -2  -4  354.80   10.10
  -4  -2  -5  121.04    6.53
   4   2   5  136.98    7.26
  -4  -2  -5  130.90    6.15
  -4  -2  -5  126.86    6.18
  -4  -2  -6   43.79    4.32
   4   2   6   51.66    4.87
  -4  -2  -6   47.82    2.50
  -4  -2  -6   45.35    2.44
  -4  -2  -6   44.51    3.92
  -4  -2  -6   44.40    3.74
   4   2   7    2.43    1.51
  -4  -2  -7    3.64    0.94
  -4  -2  -7    3.11    0.79
  -4  -2  -7    1.34    0.61
  -4  -2  -7    1.37    0.84
  -4  -2  -8  153.67    4.88
  -4  -2  -8  153.28    4.72
  -4  -2  -8  148.07    4.77
  -4  -2  -9    0.29    0.64
  -4  -2  -9    0.00    0.65
  -4  -2  -9   -0.12    0.56
  -4  -2 -10    5.31    1.08
  -4  -2 -10    4.74    0.98
  -4  -2 -10    6.25    0.97
  -4  -2 -11   21.49    1.71
  -4  -2 -11   21.06    1.59
  -4  -2 -11   20.68    1.44
  -4  -2 -12  101.30    3.00
   4   3 -10   82.94    2.67
   4   3  -9   52.58    2.55
   4   3  -8   29.39    2.17
   4   3  -7  261.96    6.65
   4   3  -6  236.64    6.33
  -4  -3   5  463.17   15.25
   4   3  -5  466.14    8.75
   4   3  -5  487.36   15.41
   4   3  -4  241.08    6.05
   4   3  -4  236.20   10.45
  -4  -3   3    5.82    1.75
   4   3  -3    3.47    0.81
   4   3  -3    4.65    1.72
  -4  -3   2  920.58   17.87
   4   3  -2 1027.32   18.41
  -4  -3   1  728.34   14.92
   4   3  -1  745.68   14.25
   4   3   0  160.65    6.21
  -4  -3   0  166.90    5.62
   4   3   1 1289.94   16.88
  -4  -3  -1 1285.43   18.84
  -4  -3  -1 1331.38   16.72
   4   3   1 1277.52   18.36
  -4  -3  -2    0.39    0.53
   4   3   2    0.21    0.63
  -4  -3  -2    0.02    0.77
  -4  -3  -3  432.11   10.61
   4   3   3  459.80   11.84
  -4  -3  -3  438.12   11.09
   4   3   3  461.88   10.62
  -4  -3  -4  170.31    7.17
   4   3   4  182.43    7.91
  -4  -3  -4  177.47    7.15
  -4  -3  -4  188.53    6.53
  -4  -3  -5  143.21    7.09
   4   3   5  160.11    7.99
  -4  -3  -5  163.73    6.89
  -4  -3  -5  152.40    4.33
  -4  -3  -5  160.03    4.44
  -4  -3  -5  155.05    6.56
   4   3   6   42.31    4.40
  -4  -3  -6   42.23    2.30
  -4  -3  -6   41.74    2.43
  -4  -3  -6   40.42    2.38
  -4  -3  -6   43.73    3.78
   4   3   7   19.31    3.31
  -4  -3  -7   24.73    1.89
  -4  -3  -7   21.73    1.83
  -4  -3  -7   24.24    1.92
  -4  -3  -7   22.63    2.96
  -4  -3  -8  209.98    5.69
  -4  -3  -8  219.82    5.64
  -4  -3  -8  215.81    5.79
  -4  -3  -9   94.55    3.84
  -4  -3  -9   96.35    3.75
  -4  -3  -9   94.62    3.84
  -4  -3 -10   57.48    2.93
  -4  -3 -10   58.76    2.81
  -4  -3 -10   54.46    2.84
  -4  -3 -11   13.42    1.35
  -4  -3 -11   14.09    1.27
  -4  -3 -12   12.67    1.09
  -4  -3 -12   12.37    0.97
   4   4 -10    1.53    0.36
   4   4  -9   33.42    1.88
   4   4  -8  115.52    3.99
   4   4  -7   19.31    1.87
   4   4  -6  100.45    4.18
   4   4  -5  139.35    4.90
  -4  -4   4   50.90    5.16
   4   4  -4   44.60    2.73
  -4  -4   3  755.95   18.66
   4   4  -3  778.54   10.66
   4   4  -3  805.68   19.92
  -4  -4   2  288.09   11.00
   4   4  -2  302.85    6.33
   4   4  -2  315.15   11.52
   4   4  -1   92.39    5.84
   4   4   0   12.93    2.30
   4   4   1  148.94    6.83
   4   4   2   74.59    4.79
   4   4   2   79.49    5.14
   4   4   3  159.37    7.29
  -4  -4  -3  172.48    6.63
   4   4   3  156.38    7.41
  -4  -4  -3  159.54    4.38
  -4  -4  -4  324.33    9.73
   4   4   4  314.60   10.96
  -4  -4  -4  307.27    6.31
  -4  -4  -4  311.79    6.30
   4   4   4  308.14   10.43
   4   4   5  474.52   14.34
  -4  -4  -5  499.98    8.33
  -4  -4  -5  497.12    8.15
  -4  -4  -5  497.80   11.94
   4   4   6   41.56    4.52
  -4  -4  -6   44.79    2.63
  -4  -4  -6   42.11    2.48
  -4  -4  -6   43.73    3.89
   4   4   7   45.50    4.97
  -4  -4  -7   50.34    2.70
  -4  -4  -7   51.56    2.87
  -4  -4  -7   45.91    2.65
  -4  -4  -8   -0.86    0.65
  -4  -4  -8    1.12    0.73
  -4  -4  -8   -0.01    0.50
  -4  -4  -9  102.30    3.97
  -4  -4  -9   95.37    3.61
  -4  -4  -9  100.71    3.95
  -4  -4 -10    6.92    1.09
  -4  -4 -10    7.23    1.13
  -4  -4 -10    5.25    0.87
  -4  -4 -11    0.42    0.44
  -4  -4 -11   -0.13    0.50
  -4  -4 -11   -0.13    0.39
  -4  -4 -12    3.02    0.53
  -4  -4 -12    2.57    0.43
   4   5  -9    2.73    0.51
   4   5  -8   14.75    1.33
   4   5  -7    0.57    0.58
   4   5  -6  164.03    5.10
   4   5  -5  864.58   11.97
   4   5  -4   20.08    1.86
   4   5  -3   73.30    3.33
   4   5  -3   69.14    6.36
   4   5  -2   45.56    2.51
   4   5  -2   50.12    5.19
   4   5  -1  339.65   12.48
  -4  -5   1  318.51    6.36
   4   5   0    5.51    1.72
  -4  -5   0    5.20    0.91
   4   5   1   44.89    4.34
  -4  -5  -1   46.70    2.50
  -4  -5  -1   46.55    2.51
   4   5   2   45.63    4.27
   4   5   2   42.88    4.14
  -4  -5  -2   45.01    2.50
  -4  -5  -2   43.70    2.44
   4   5   3  706.88   17.01
   4   5   3  752.88   17.62
  -4  -5  -3  727.47   10.16
  -4  -5  -3  722.76    9.91
   4   5   4  266.64   10.83
   4   5   4  259.66   10.64
  -4  -5  -4  257.22    6.20
  -4  -5  -4  256.80    6.02
   4   5   5  745.89   18.59
   4   5   5  782.28   19.17
  -4  -5  -5  757.39   10.86
  -4  -5  -5  748.17   10.30
   4   5   6    5.59    1.80
   4   5   6    5.78    2.26
  -4  -5  -6    4.80    1.04
  -4  -5  -6    5.84    1.02
  -4  -5  -7   19.68    1.88
  -4  -5  -7   16.75    1.62
  -4  -5  -8   11.92    1.37
  -4  -5  -8   10.25    1.28
  -4  -5  -8   10.28    1.36
  -4  -5  -9    2.07    0.71
  -4  -5  -9    2.85    0.90
  -4  -5  -9    1.67    0.59
  -4  -5 -10   94.30    3.37
  -4  -5 -10   90.26    3.03
  -4  -5 -11   -0.35    0.39
  -4  -5 -11   -0.29    0.42
  -4  -5 -11    0.34    0.27
   4   6  -8   26.03    1.34
   4   6  -7   46.44    2.19
   4   6  -6   38.23    2.21
   4   6  -5   88.76    3.52
   4   6  -4  326.85    6.84
   4   6  -3   25.23    1.89
  -4  -6   3   25.40    1.92
  -4  -6   2    1.86    0.64
  -4  -6   1   62.74    3.04
   4   6   0  169.95    9.50
  -4  -6   0  167.00    4.98
   4   6   1  132.87    8.23
   4   6   1  136.05    7.98
  -4  -6  -1  124.46    4.34
  -4  -6  -1  125.41    4.33
   4   6   2   -1.29    1.18
   4   6   2   -1.06    1.62
  -4  -6  -2    0.17    0.67
  -4  -6  -2   -0.33    0.71
   4   6   3  532.70   16.31
  -4  -6  -3  551.04    9.38
  -4  -6  -3  557.21    9.01
   4   6   4  433.55   14.92
   4   6   4  463.01   14.92
  -4  -6  -4  441.36    8.53
  -4  -6  -4  439.78    8.01
  -4  -6  -5  988.85   12.82
  -4  -6  -5  978.90   11.97
  -4  -6  -6   31.83    2.37
  -4  -6  -6   26.65    1.96
  -4  -6  -7   13.16    1.61
  -4  -6  -7   15.49    1.51
  -4  -6  -8   58.83    2.68
  -4  -6  -8   59.97    3.06
  -4  -6  -9   52.38    2.34
  -4  -6  -9   54.26    2.69
  -4  -6 -10   12.46    1.01
  -4  -6 -10   13.94    1.25
  -4  -6 -11    7.98    0.79
  -4  -7   7    0.09    0.24
   4   7  -6  148.60    3.32
   4   7  -5    2.41    0.52
  -4  -7   4   50.56    2.41
  -4  -7   3    0.86    0.58
  -4  -7   2    8.13    1.15
  -4  -7   1   93.40    3.77
  -4  -7   0   33.45    2.35
  -4  -7   0   30.67    2.21
  -4  -7  -1  715.95   10.72
  -4  -7  -1  721.36   10.37
  -4  -7  -2  285.44    6.85
  -4  -7  -2  273.55    6.40
  -4  -7  -3    5.94    1.17
  -4  -7  -3    5.75    1.03
  -4  -7  -4  187.58    5.61
  -4  -7  -4  184.83    5.15
  -4  -7  -5   76.98    3.60
  -4  -7  -5   72.30    3.20
  -4  -7  -6    1.14    0.84
  -4  -7  -6    0.60    0.53
  -4  -7  -7   89.07    3.68
  -4  -7  -7   89.22    3.23
  -4  -7  -8    0.46    0.57
  -4  -7  -8    0.75    0.41
  -4  -7  -9   42.03    1.76
  -4  -7  -9   43.12    2.16
  -4  -7 -10    0.11    0.34
  -4  -8   5    8.93    0.85
  -4  -8   4   55.01    2.31
  -4  -8   3    2.72    0.61
  -4  -8   3    2.52    0.68
  -4  -8   2   15.12    1.42
  -4  -8   2   13.74    1.37
  -4  -8   1   14.08    1.44
  -4  -8   1   13.25    1.38
  -4  -8   0   30.53    2.13
  -4  -8   0   29.10    2.04
  -4  -8  -1    7.50    1.19
  -4  -8  -1    7.35    1.14
  -4  -8  -2   50.46    2.82
  -4  -8  -2   48.96    2.62
  -4  -8  -3    2.65    0.87
  -4  -8  -3    2.72    0.79
  -4  -8  -4  150.77    4.80
  -4  -8  -4  148.38    4.32
  -4  -8  -5    1.26    0.68
  -4  -8  -5    1.26    0.49
  -4  -8  -6    6.37    1.12
  -4  -8  -6    5.94    0.84
  -4  -8  -7    1.73    0.67
  -4  -8  -7    0.85    0.29
  -4  -8  -8    5.64    0.82
  -4  -8  -9  144.31    3.27
  -4  -9   3   47.43    1.75
  -4  -9   2    0.60    0.35
  -4  -9   2    0.14    0.28
  -4  -9   1    8.06    0.96
  -4  -9   1    6.57    0.83
  -4  -9   0    8.28    1.00
  -4  -9   0    8.15    0.95
  -4  -9  -1   13.29    1.28
  -4  -9  -1   12.29    1.16
  -4  -9  -2   71.53    2.92
  -4  -9  -2   74.13    2.72
  -4  -9  -3   27.32    1.86
  -4  -9  -3   31.33    1.73
  -4  -9  -4   60.98    2.68
  -4  -9  -4   63.13    2.31
  -4  -9  -5   24.33    1.66
  -4  -9  -5   23.88    1.32
  -4  -9  -6   28.28    1.68
  -4  -9  -7   -0.29    0.40
  -4  -9  -8   -0.24    0.22
  -4 -10  -1   -0.38    0.31
  -4 -10  -2    4.78    0.61
  -4 -10  -3   18.78    1.17
  -4 -10  -4    0.80    0.34
  -4 -10  -5   67.05    1.98
   5  -8  -5    2.11    0.48
   5  -8  -4   15.82    1.20
   5  -8  -3   25.30    1.56
   5  -8  -2    1.78    0.58
   5  -8  -1   64.14    2.53
   5  -8   0   22.47    1.51
   5  -8   1   31.78    1.72
   5  -8   2   19.08    1.27
   5  -8   3   35.05    1.56
   5  -7  -8    0.89    0.36
   5  -7  -7   68.87    2.21
   5  -7  -7   66.96    2.54
   5  -7  -6   11.79    1.07
   5  -7  -6   10.80    1.21
   5  -7  -6   12.50    1.09
   5  -7  -5   74.54    2.81
   5  -7  -5   74.99    2.80
   5  -7  -4    4.44    0.80
   5  -7  -4    5.37    0.85
   5  -7  -3   27.64    1.81
   5  -7  -3   26.78    1.87
   5  -7  -2   15.72    1.41
   5  -7  -2   17.98    1.57
   5  -7  -1  210.77    4.96
   5  -7  -1  208.53    5.26
   5  -7   0  103.12    3.43
   5  -7   0  101.00    3.67
   5  -7   1  258.94    5.26
   5  -7   1  250.85    5.69
   5  -7   2    1.02    0.47
   5  -7   2   -0.44    0.39
   5  -7   3   46.88    2.30
   5  -7   4   -0.46    0.46
   5  -7   5   34.03    1.62
   5  -6  -9  118.39    2.81
   5  -6  -9  113.81    2.76
   5  -6  -8   56.21    2.33
   5  -6  -8   53.42    2.31
   5  -6  -7   12.17    1.25
   5  -6  -7   11.34    1.27
   5  -6  -6   80.26    3.30
   5  -6  -6   72.34    3.24
   5  -6  -6   80.09    2.89
   5  -6  -5    3.12    0.69
   5  -6  -5    1.64    0.72
   5  -6  -5    2.06    0.78
   5  -6  -4  237.93    6.01
   5  -6  -4  244.32    6.30
   5  -6  -4  250.82    5.66
   5  -6  -3   37.92    2.45
   5  -6  -3   39.73    2.63
   5  -6  -3   38.76    2.54
   5  -6  -3   40.72    2.38
   5  -6  -2  264.36    6.36
   5  -6  -2  262.66    6.63
   5  -6  -2  269.48    6.23
   5  -6  -1   62.60    3.09
   5  -6  -1   64.70    3.36
   5  -6  -1   61.14    3.02
   5  -6   0  329.46    6.93
   5  -6   0  327.38    7.42
   5  -6   0  320.02    6.97
   5  -6   1   23.01    1.87
   5  -6   1   25.57    2.09
   5  -6   1   22.57    1.92
   5  -6   2   17.06    1.60
   5  -6   2   16.83    1.65
   5  -6   3  139.99    4.21
  -5   6  -3  131.79    4.26
   5  -6   3  134.92    4.36
   5  -6   4    1.48    0.62
  -5   6  -4    2.32    0.65
  -5   6  -5   13.64    1.28
   5  -6   5   14.10    1.33
  -5   6  -6   14.86    1.19
   5  -6   6   15.43    1.24
  -5   6  -7   21.04    1.17
   5  -6   7   22.24    1.22
   5  -5 -10    9.71    0.86
   5  -5  -9    2.12    0.60
   5  -5  -9    1.49    0.48
   5  -5  -8  133.58    4.22
   5  -5  -8  131.88    3.93
   5  -5  -7   55.97    2.97
   5  -5  -7   54.10    2.76
   5  -5  -6   52.60    3.00
   5  -5  -6   52.91    2.87
   5  -5  -5  183.39    5.66
   5  -5  -5  186.91    5.53
   5  -5  -5  185.77    5.02
   5  -5  -4   44.21    2.80
   5  -5  -4   41.57    2.67
   5  -5  -4   43.72    2.64
   5  -5  -4   44.13    2.38
   5  -5  -3   68.54    3.44
   5  -5  -3   71.22    3.49
   5  -5  -3   69.98    3.36
   5  -5  -3   76.25    3.17
   5  -5  -2    2.85    0.78
   5  -5  -2    0.91    0.64
   5  -5  -2    3.92    0.99
   5  -5  -2    1.63    0.77
   5  -5  -1  105.75    4.17
   5  -5  -1  110.09    4.33
   5  -5  -1  103.43    3.83
   5  -5   0  103.34    4.11
   5  -5   0  106.19    4.28
   5  -5   0  103.48    3.89
   5  -5   1    0.81    0.49
   5  -5   1    0.01    0.53
   5  -5   1   -0.09    0.69
   5  -5   2   35.74    2.38
   5  -5   2   37.50    2.51
   5  -5   2   36.92    2.40
   5  -5   3    6.16    1.12
   5  -5   3    6.19    1.07
   5  -5   3    7.56    1.01
   5  -5   3    7.54    1.16
   5  -5   4  233.02    5.76
  -5   5  -4  219.17    5.70
   5  -5   4  236.52    5.24
   5  -5   4  217.29    5.75
  -5   5  -5  334.95    6.86
   5  -5   5  355.39    6.40
   5  -5   5  333.51    6.90
  -5   5  -6  130.65    4.06
   5  -5   6  131.86    3.71
   5  -5   6  127.02    4.04
  -5   5  -7   11.00    1.13
   5  -5   7   10.80    1.10
  -5   5  -8   12.86    1.02
   5  -5   8   13.44    1.02
   5  -4 -10    3.41    0.64
   5  -4  -9   62.80    2.87
   5  -4  -9   58.88    2.35
   5  -4  -8  461.39    8.50
   5  -4  -8  446.84    7.38
   5  -4  -7    8.19    1.33
   5  -4  -7    7.86    1.13
   5  -4  -6    3.87    1.01
   5  -4  -6    4.41    0.94
   5  -4  -5    0.76    0.76
   5  -4  -5    1.52    0.73
   5  -4  -5    0.38    0.43
  -5   4   4   54.98    5.03
   5  -4  -4   53.38    3.16
   5  -4  -4   51.70    2.85
   5  -4  -4   55.66    2.87
  -5   4   3    0.44    1.00
   5  -4  -3   -0.33    0.70
   5  -4  -3    0.96    0.68
   5  -4  -3   -0.08    0.59
  -5   4   2   94.06    6.22
   5  -4  -2   94.79    3.96
   5  -4  -2   88.92    3.67
   5  -4  -2   91.55    3.77
   5  -4  -1  152.05    4.94
   5  -4  -1  151.14    4.90
  -5   4   0   16.13    2.56
   5  -4   0   18.29    1.76
   5  -4   0   16.15    1.67
  -5   4   0   12.96    2.33
   5  -4   0   16.28    1.47
  -5   4  -1   35.32    3.74
  -5   4  -1   34.16    3.87
   5  -4   1   36.48    2.46
   5  -4   1   35.75    2.47
   5  -4   1   37.97    2.07
   5  -4   1   38.99    2.31
  -5   4  -2  139.94    7.94
   5  -4   2  155.39    4.91
   5  -4   2  152.43    4.91
   5  -4   2  155.09    4.28
   5  -4   2  141.42    4.47
   5  -4   3    4.80    0.84
   5  -4   3    5.36    1.00
   5  -4   3    6.05    1.11
   5  -4   3    6.31    1.05
   5  -4   4  121.34    4.29
   5  -4   4  112.66    3.87
   5  -4   5   73.29    3.12
   5  -4   5   68.15    3.30
   5  -4   6    0.10    0.55
  -5   4  -6   -0.38    0.57
   5  -4   7    0.35    0.46
   5  -4   7    1.28    0.53
  -5   4  -7    0.54    0.48
   5  -4   8    5.71    0.85
  -5   4  -8    5.42    0.86
  -5   4  -9   11.92    0.98
  -5   4  -9   12.02    0.96
   5  -4   9   10.06    0.87
   5  -3 -11    0.74    0.34
   5  -3 -10   -0.09    0.53
   5  -3  -9   13.57    1.46
   5  -3  -8  227.06    6.20
   5  -3  -7    5.47    1.18
   5  -3  -6   38.14    2.72
  -5   3   5   22.34    3.21
   5  -3  -5   19.49    1.97
   5  -3  -5   15.19    2.36
   5  -3  -4  165.91    7.33
  -5   3   4  180.38    8.82
   5  -3  -4  175.47    5.48
   5  -3  -4  170.41    4.76
  -5   3   3  100.68    6.53
   5  -3  -3  100.23    4.10
   5  -3  -3   99.72    3.67
  -5   3   2   39.57    4.04
   5  -3  -2   33.88    2.37
   5  -3  -2   39.30    2.35
   5  -3  -2   34.86    1.97
  -5   3   1   73.62    5.24
   5  -3  -1   74.75    3.36
  -5   3   1   76.07    4.98
   5  -3  -1   76.89    3.30
   5  -3  -1   75.39    2.88
  -5   3   0  843.28   17.82
   5  -3   0  870.29   11.29
  -5   3   0  876.31   17.90
   5  -3   0  880.10   11.20
   5  -3   0  845.67    9.76
  -5   3  -1  769.57   17.08
  -5   3  -1  778.76   17.51
   5  -3   1  769.74   10.60
   5  -3   1  773.40   10.52
   5  -3   1  763.31    9.45
  -5   3  -2  638.32   15.74
  -5   3  -2  646.21   16.55
   5  -3   2  648.65    9.79
   5  -3   2  652.19    9.65
   5  -3   2  666.16    8.89
  -5   3  -3  291.70   10.77
  -5   3  -3  307.89   11.76
   5  -3   3  310.14    6.73
   5  -3   3  314.68    6.63
   5  -3   3  311.46    6.24
   5  -3   3  296.02    6.23
   5  -3   4  577.53    9.10
  -5   3  -4  562.89   14.95
  -5   3  -4  587.34   16.64
   5  -3   4  591.34    9.45
   5  -3   4  594.24    8.91
   5  -3   5   36.46    2.39
   5  -3   5   39.85    2.55
   5  -3   5   37.59    2.31
   5  -3   6  505.75    8.37
  -5   3  -7  128.88    4.43
   5  -3   7  133.58    4.25
   5  -3   8   25.53    1.83
  -5   3  -8   29.26    1.99
   5  -3   8   28.76    1.91
   5  -3   9   13.29    1.21
  -5   3  -9   12.62    1.19
  -5   3 -10  116.23    2.73
  -5   3 -10  107.66    2.66
   5  -2 -11   21.07    1.27
   5  -2 -10   -0.05    0.44
   5  -2  -9   61.02    2.99
   5  -2  -8   74.43    3.61
   5  -2  -7  357.93    8.04
   5  -2  -6    6.41    0.93
   5  -2  -6    6.11    1.19
  -5   2   5   12.55    2.31
   5  -2  -5   15.48    1.67
   5  -2  -5   13.79    2.19
   5  -2  -5   15.08    1.41
  -5   2   4    7.80    1.87
   5  -2  -4   10.30    1.88
   5  -2  -4    7.55    1.25
   5  -2  -4   11.35    1.21
   5  -2  -4    8.16    1.04
  -5   2   3 1122.36   20.74
   5  -2  -3 1155.14   13.25
   5  -2  -3 1132.06   11.74
   5  -2  -3 1112.89   11.30
  -5   2   2  474.55   11.26
  -5   2   2  480.01   13.31
   5  -2  -2  473.67    8.23
   5  -2  -2  468.27    7.60
   5  -2  -2  459.78    7.17
  -5   2   1  287.37   10.09
   5  -2  -1  290.58    6.30
  -5   2   1  298.69    9.49
   5  -2  -1  301.63    6.18
  -5   2   0  652.43   14.98
   5  -2   0  679.45    9.43
  -5   2   0  658.35   14.89
   5  -2   0  667.62    9.29
  -5   2  -1 1438.82   22.67
   5  -2   1 1498.55   13.96
  -5   2  -1 1502.83   23.59
   5  -2   1 1472.32   13.90
   5  -2   1 1496.16   12.93
  -5   2  -2  807.00   17.20
   5  -2   2  810.97   10.34
   5  -2   2  829.64   10.43
   5  -2   2  833.31    9.94
  -5   2  -3  317.52   11.16
  -5   2  -3  340.55   12.15
   5  -2   3  327.13    6.67
   5  -2   3  326.87    6.49
   5  -2   3  341.63    6.46
  -5   2  -4  155.31    7.97
   5  -2   4  163.93    4.83
   5  -2   4  172.65    4.74
  -5   2  -5  288.72   11.04
   5  -2   5  309.97    6.74
   5  -2   5  307.38    6.47
  -5   2  -6  435.62    8.11
   5  -2   6  452.13    7.91
  -5   2  -7  263.78    6.26
   5  -2   7  259.42    5.98
  -5   2  -8  251.91    5.96
  -5   2  -8  240.87    5.72
   5  -2   8  253.26    5.71
   5  -2   9    5.88    0.92
  -5   2  -9    6.23    0.89
   5  -2  10   87.21    2.71
  -5   2 -10   90.78    2.73
  -5   2 -10   95.76    2.94
   5  -1 -11    2.86    0.49
   5  -1 -10   -0.40    0.49
   5  -1  -9   80.61    3.41
   5  -1  -9   89.07    2.99
   5  -1  -8   17.50    1.76
   5  -1  -7  107.22    3.82
   5  -1  -7  100.18    4.19
   5  -1  -6   22.74    1.84
  -5   1   6   22.15    3.05
   5  -1  -6   21.51    1.97
   5  -1  -6   24.11    3.23
   5  -1  -5  111.54    4.01
  -5   1   5  107.01    6.53
   5  -1  -5  110.48    4.31
   5  -1  -5  113.92    6.25
   5  -1  -4  191.08    4.96
   5  -1  -4  195.14    5.15
  -5   1   4  191.79    8.54
   5  -1  -4  197.58    5.48
   5  -1  -4  192.18    4.70
   5  -1  -4  202.26    7.71
  -5   1   3  105.69    6.13
   5  -1  -3  113.19    3.98
   5  -1  -3  107.67    3.54
   5  -1  -3  110.21    3.66
  -5   1   2  349.50   10.93
  -5   1   2  327.08    9.36
  -5   1   1   86.95    5.34
  -5   1   1   80.22    4.86
  -5   1   0  188.19    7.83
  -5   1   0  210.54    8.18
  -5   1  -1  171.00    7.59
  -5   1  -1  179.65    8.01
  -5   1  -2  274.89    9.81
  -5   1  -2  298.15   10.77
  -5   1  -3   25.25    3.08
   5  -1   3   28.30    1.88
  -5   1  -3   30.08    3.65
   5  -1   3   27.26    1.90
   5  -1   3   28.90    1.87
  -5   1  -4   92.95    6.09
   5  -1   4  102.50    5.91
   5  -1   4   96.94    3.55
  -5   1  -4  103.87    6.75
   5  -1   4  103.85    3.56
   5  -1   5  906.83   19.00
   5  -1   5  900.58   11.07
  -5   1  -5  945.09   20.65
  -5   1  -5  897.65   10.90
  -5   1  -5  882.58   19.20
   5  -1   5  900.12   10.76
  -5   1  -6 1067.33   21.85
   5  -1   6 1097.49   22.21
  -5   1  -6 1075.45   12.39
   5  -1   6 1071.09   11.97
   5  -1   7    1.65    0.68
  -5   1  -7    3.99    0.94
  -5   1  -8  211.70    5.42
  -5   1  -8  210.29    5.47
   5  -1   8  215.96    5.30
  -5   1  -9   70.14    2.92
  -5   1  -9   72.35    3.02
   5  -1   9   74.33    2.95
  -5   1 -10  313.27    5.83
  -5   1 -10  306.07    5.16
  -5   1 -11    0.89    0.37
   5   0 -10   14.56    1.09
   5   0 -10   13.11    1.15
   5   0  -9    6.17    0.86
   5   0  -9    5.60    0.93
   5   0  -8  486.03    8.09
   5   0  -8  466.27    8.42
   5   0  -7   -0.83    0.65
   5   0  -7    0.05    0.59
   5   0  -6    3.88    0.93
   5   0  -6    4.11    0.94
   5   0  -5   57.31    2.99
  -5   0   5   56.81    4.70
   5   0  -5   53.91    2.90
   5   0  -5   58.49    4.57
   5   0  -4  398.95    7.56
  -5   0   4  378.46   11.66
   5   0  -4  378.78    7.29
   5   0  -4  402.47   10.94
  -5   0   3    1.80    0.99
   5   0  -3    0.66    0.55
   5   0  -3    1.46    0.60
  -5   0   2  779.51   15.64
  -5   0   2  800.89   14.95
  -5   0   1 1519.91   21.43
  -5   0   1 1490.40   20.86
  -5   0   0   23.85    2.73
  -5   0   0   24.19    2.83
  -5   0  -1   24.54    2.89
  -5   0  -1   26.14    3.10
  -5   0  -2  175.36    7.63
   5   0   2  177.18    6.77
  -5   0  -2  184.92    8.17
  -5   0  -3   83.75    5.59
   5   0   3   93.37    5.37
  -5   0  -3  101.55    6.33
   5   0   3   90.74    3.19
  -5   0  -4   31.60    3.56
   5   0   4   33.55    1.98
  -5   0  -4   33.35    1.98
  -5   0  -4   34.07    3.80
   5   0   4   32.66    1.96
  -5   0  -5  135.77    7.55
   5   0   5  133.73    7.45
   5   0   5  130.41    4.02
  -5   0  -5  131.75    4.08
  -5   0  -5  136.11    7.68
   5   0   5  132.97    4.00
  -5   0  -6  731.13   18.25
   5   0   6  751.26   18.57
  -5   0  -6  719.58    9.94
  -5   0  -6  754.24   18.03
   5   0   6  714.76    9.55
  -5   0  -7  633.39    9.54
   5   0   7  620.48    9.01
  -5   0  -8   75.66    3.18
  -5   0  -8   73.65    3.28
   5   0   8   67.86    3.00
   5   0   9    5.18    0.85
  -5   0  -9    3.95    1.02
  -5   0  -9    6.13    0.90
  -5   0  -9    4.18    0.84
  -5   0 -10   25.42    1.80
  -5   0 -10   23.94    1.67
  -5   0 -10   27.84    1.66
  -5   0 -11    0.68    0.44
   5   1 -10   13.73    1.01
   5   1  -9   -0.40    0.40
   5   1  -9    0.33    0.42
   5   1  -8    2.00    0.69
   5   1  -8    2.67    0.73
   5   1  -7  262.31    6.43
   5   1  -7  270.75    6.26
   5   1  -6    6.41    1.07
   5   1  -6    6.39    1.14
  -5  -1   5  139.57    7.76
   5   1  -5  145.48    4.89
   5   1  -5  153.14    7.54
  -5  -1   4    0.50    0.80
  -5  -1   4    0.84    0.64
   5   1  -4    0.36    0.81
   5   1  -4    0.19    0.53
   5   1  -3   39.41    2.41
  -5  -1   3   34.71    3.36
   5   1  -3   38.66    3.29
   5   1  -3   38.03    2.25
  -5  -1   2    0.87    0.72
   5   1  -2    1.77    0.61
  -5  -1   2    0.68    0.80
  -5  -1   1   79.99    4.77
  -5  -1   1   81.41    5.03
  -5  -1   0  391.51   10.73
  -5  -1   0  373.74   10.89
  -5  -1  -1  104.67    5.90
  -5  -1  -1  101.92    5.62
   5   1   1  106.28    5.02
  -5  -1  -2   57.99    4.36
   5   1   2   55.48    3.95
  -5  -1  -2   58.49    4.58
  -5  -1  -3  174.73    7.92
   5   1   3  179.77    7.65
  -5  -1  -3  172.93    8.03
  -5  -1  -4  339.99   11.35
   5   1   4  350.11   11.46
  -5  -1  -4  342.45    6.31
  -5  -1  -4  356.14   11.77
   5   1   4  340.09    6.76
   5   1   4  341.24    6.18
  -5  -1  -5  129.54    7.41
   5   1   5  117.59    7.18
  -5  -1  -5  118.95    3.89
  -5  -1  -5  120.43    3.93
  -5  -1  -5  127.75    6.78
  -5  -1  -5  123.78    7.04
   5   1   5  120.06    3.71
  -5  -1  -6   16.43    2.71
  -5  -1  -6   18.18    2.88
   5   1   6   20.69    3.32
  -5  -1  -6   20.83    1.73
  -5  -1  -6   19.98    1.68
   5   1   6   21.34    1.63
  -5  -1  -6   19.28    2.89
  -5  -1  -7  824.47   10.91
  -5  -1  -7  807.99   10.89
   5   1   7  805.73    9.89
  -5  -1  -8   20.16    1.78
   5   1   8   18.43    1.51
   5   1   9   -0.01    0.38
  -5  -1  -9    0.11    0.63
  -5  -1  -9    0.75    0.56
  -5  -1 -10    6.28    1.00
  -5  -1 -10    7.62    1.02
  -5  -1 -11   -0.09    0.44
  -5  -1 -11    0.75    0.44
   5   2 -10    1.26    0.34
   5   2  -9    0.70    0.41
   5   2  -8    1.10    0.66
   5   2  -7    0.55    0.70
   5   2  -6 1049.06   13.27
  -5  -2   5  320.71   12.33
   5   2  -5  324.88    7.42
  -5  -2   4    4.69    1.79
   5   2  -4    3.83    1.58
   5   2  -4    1.68    0.74
  -5  -2   3   28.49    3.34
   5   2  -3   31.51    2.22
   5   2  -3   27.63    3.07
  -5  -2   2   28.59    3.06
   5   2  -2   31.76    2.13
  -5  -2   2   34.71    3.11
  -5  -2   1 1177.95   18.26
   5   2  -1 1203.21   17.21
  -5  -2   0  280.29    9.04
   5   2   0  290.41    8.59
  -5  -2   0  274.22    9.61
  -5  -2  -1  310.86    9.74
   5   2   1  321.73    9.38
  -5  -2  -1  305.95   10.20
  -5  -2  -2  327.72   10.33
   5   2   2  328.04   10.03
  -5  -2  -2  333.03   10.85
  -5  -2  -3   21.15    2.72
  -5  -2  -3   24.01    3.06
   5   2   3   26.18    3.08
  -5  -2  -3   28.76    1.85
  -5  -2  -4  126.35    6.92
  -5  -2  -4  135.13    7.10
   5   2   4  120.81    6.89
  -5  -2  -4  132.96    4.05
   5   2   4  130.79    3.73
  -5  -2  -5   34.34    3.68
  -5  -2  -5   31.77    3.79
   5   2   5   36.87    4.10
  -5  -2  -5   33.30    2.08
  -5  -2  -5   34.89    2.16
  -5  -2  -5   33.49    3.24
   5   2   5   32.41    1.89
  -5  -2  -6  296.25   11.81
  -5  -2  -6  286.15   10.40
   5   2   6  299.25   12.24
  -5  -2  -6  294.35    6.37
  -5  -2  -6  288.12    6.40
  -5  -2  -6  289.44   10.14
   5   2   6  286.81    5.61
  -5  -2  -7   97.38    3.76
  -5  -2  -7   90.32    3.65
  -5  -2  -7   94.06    3.73
  -5  -2  -8   82.18    3.54
  -5  -2  -8   83.94    3.53
  -5  -2  -8   80.08    3.45
  -5  -2  -9   94.00    3.67
  -5  -2  -9   93.18    3.64
  -5  -2  -9   91.17    3.57
  -5  -2 -10  120.72    3.88
  -5  -2 -10  122.70    3.88
  -5  -2 -11   24.79    1.57
  -5  -2 -11   24.34    1.54
   5   3 -10   11.66    0.82
   5   3  -9   25.21    1.55
   5   3  -8   24.56    1.83
   5   3  -7   74.46    3.47
   5   3  -6  475.61    8.97
   5   3  -5  273.52    6.90
  -5  -3   4  806.16   19.61
   5   3  -4  820.06   11.77
   5   3  -4  856.14   18.89
  -5  -3   3  678.21   16.99
   5   3  -3  687.32   10.48
   5   3  -2   48.10    2.70
   5   3  -1    0.24    0.38
   5   3  -1    0.55    0.63
   5   3  -1    0.62    0.46
  -5  -3   1    1.31    0.55
   5   3   0  933.77   11.07
   5   3   0  957.53   17.41
  -5  -3   0  944.55   10.40
   5   3   0  933.54   10.33
  -5  -3  -1   23.43    2.64
  -5  -3  -1   21.92    2.93
   5   3   1   22.96    2.77
  -5  -3  -1   23.07    1.67
  -5  -3  -2 1125.46   20.29
  -5  -3  -2 1146.64   18.72
  -5  -3  -2 1106.32   11.54
  -5  -3  -3   29.15    3.15
   5   3   3   31.49    3.51
  -5  -3  -3   28.11    1.92
  -5  -3  -3   26.01    3.22
  -5  -3  -4   39.16    3.87
   5   3   4   42.42    4.27
  -5  -3  -4   41.86    2.30
  -5  -3  -4   42.42    2.40
  -5  -3  -4   41.46    3.95
  -5  -3  -5   69.76    5.42
   5   3   5   75.69    6.03
  -5  -3  -5   74.81    3.15
  -5  -3  -5   75.37    3.31
  -5  -3  -5   72.72    5.21
  -5  -3  -6  190.89    9.30
   5   3   6  205.42   10.25
  -5  -3  -6  188.89    5.20
  -5  -3  -6  189.43    5.32
  -5  -3  -7    3.62    0.85
  -5  -3  -7    4.80    0.99
  -5  -3  -7    3.90    0.92
  -5  -3  -8   53.04    2.77
  -5  -3  -8   50.16    2.79
  -5  -3  -8   46.87    2.69
  -5  -3  -9   38.37    2.30
  -5  -3  -9   36.93    2.33
  -5  -3  -9   33.99    2.21
  -5  -3 -10   23.75    1.71
  -5  -3 -10   24.50    1.73
  -5  -3 -11    2.11    0.54
  -5  -3 -11    2.22    0.53
   5   4  -9    0.59    0.30
   5   4  -8    4.06    0.74
   5   4  -7  191.56    5.16
   5   4  -6   93.56    3.90
   5   4  -5   23.77    2.09
   5   4  -4   57.35    3.12
   5   4  -3  286.03    6.85
   5   4  -2   50.57    2.79
   5   4  -1   31.27    2.01
   5   4  -1   31.90    2.16
   5   4   0  415.77    7.49
   5   4   0  442.36   12.99
  -5  -4   0  436.98    7.59
   5   4   1    4.88    1.56
  -5  -4  -1    4.71    0.90
   5   4   2   89.17    5.96
  -5  -4  -2   92.25    3.59
   5   4   3   16.79    2.72
  -5  -4  -3   16.13    1.47
  -5  -4  -3   16.03    1.59
   5   4   4   99.10    6.77
  -5  -4  -4   92.42    3.56
  -5  -4  -4   91.40    3.67
  -5  -4  -5   25.34    3.21
   5   4   5   31.02    4.06
  -5  -4  -5   25.53    1.96
  -5  -4  -5   29.11    2.12
  -5  -4  -6   87.38    3.66
  -5  -4  -6   88.94    3.69
  -5  -4  -7    1.40    0.67
  -5  -4  -7    0.84    0.71
  -5  -4  -8  692.03    9.95
  -5  -4  -8  658.75    9.86
  -5  -4  -9    3.52    0.75
  -5  -4  -9    3.77    0.87
  -5  -4  -9    3.82    0.84
  -5  -4 -10    3.13    0.67
  -5  -4 -10    1.95    0.60
  -5  -4 -10    1.97    0.58
  -5  -4 -11    0.05    0.28
  -5  -4 -11   -0.02    0.27
   5   5  -8    2.39    0.43
   5   5  -8    2.68    0.53
   5   5  -7   21.84    1.61
   5   5  -6  153.35    4.57
   5   5  -5  448.68    8.25
   5   5  -4  489.48    8.76
   5   5  -3  131.45    4.50
   5   5  -2   23.31    1.71
   5   5  -2   26.55    2.01
   5   5  -1    7.02    1.04
  -5  -5   1    5.78    1.05
   5   5   0   32.42    3.87
  -5  -5   0   34.78    2.30
   5   5   1    5.94    1.74
  -5  -5  -1    7.27    1.13
   5   5   2    3.47    1.47
  -5  -5  -2    2.23    0.73
  -5  -5  -2    2.37    0.85
   5   5   3   59.91    5.37
  -5  -5  -3   62.23    3.01
  -5  -5  -3   62.70    3.18
   5   5   4  166.72    9.11
  -5  -5  -4  150.28    4.75
  -5  -5  -4  156.59    4.94
  -5  -5  -5   16.13    1.64
  -5  -5  -5   15.86    1.61
  -5  -5  -6  121.16    4.38
  -5  -5  -6  120.88    4.29
  -5  -5  -7   87.00    3.65
  -5  -5  -7   85.91    3.57
  -5  -5  -8    5.10    1.02
  -5  -5  -8    3.21    0.82
  -5  -5  -9    6.62    1.00
  -5  -5  -9    6.36    0.93
  -5  -5 -10    1.13    0.47
  -5  -5 -10    0.66    0.37
  -5  -5 -11    0.56    0.26
   5   6  -7   -0.12    0.25
  -5  -6   7    0.60    0.28
   5   6  -6   15.58    1.26
   5   6  -6   15.27    1.07
   5   6  -5   65.94    2.43
   5   6  -5   63.54    2.76
   5   6  -4  111.37    3.79
   5   6  -3   96.30    3.57
  -5  -6   2   13.33    1.50
  -5  -6   1    6.83    1.15
  -5  -6   0   32.09    2.09
  -5  -6   0   28.87    2.16
  -5  -6  -1  120.75    4.10
  -5  -6  -1  117.54    4.30
  -5  -6  -2   32.19    2.20
  -5  -6  -2   31.44    2.27
  -5  -6  -3  292.87    6.68
  -5  -6  -3  311.59    6.98
  -5  -6  -4 1181.51   13.63
  -5  -6  -4 1228.00   13.79
  -5  -6  -5    1.17    0.79
  -5  -6  -5   -0.26    0.59
  -5  -6  -6   54.17    2.92
  -5  -6  -6   51.70    2.75
  -5  -6  -7    2.53    0.79
  -5  -6  -7    1.81    0.69
  -5  -6  -8    2.99    0.82
  -5  -6  -8    3.24    0.68
  -5  -6  -9    1.09    0.53
  -5  -6  -9    1.01    0.45
  -5  -6 -10   32.40    1.45
  -5  -6 -10   35.88    1.71
  -5  -7   5   -0.12    0.32
  -5  -7   4  129.82    3.75
  -5  -7   3   55.82    2.66
  -5  -7   2   30.67    2.10
  -5  -7   1    6.28    0.94
  -5  -7   1    5.32    1.01
  -5  -7   0  134.73    4.20
  -5  -7   0  135.64    4.50
  -5  -7  -1   65.78    3.04
  -5  -7  -1   68.60    3.24
  -5  -7  -2  152.03    4.67
  -5  -7  -2  166.78    5.04
  -5  -7  -3   11.93    1.39
  -5  -7  -3   12.89    1.48
  -5  -7  -4    0.78    0.62
  -5  -7  -4    0.06    0.61
  -5  -7  -5    1.99    0.78
  -5  -7  -5    1.21    0.63
  -5  -7  -6    2.78    0.77
  -5  -7  -6    2.86    0.71
  -5  -7  -7    1.47    0.56
  -5  -7  -7    2.09    0.58
  -5  -7  -8    6.84    0.83
  -5  -7  -8    9.36    1.05
  -5  -7  -9   -0.33    0.39
  -5  -7  -9    0.07    0.22
  -5  -8   4   19.64    1.20
  -5  -8   3   62.86    2.36
  -5  -8   2    6.56    0.87
  -5  -8   1  146.71    3.68
  -5  -8   1  151.88    4.11
  -5  -8   0   32.94    1.90
  -5  -8   0   36.80    2.14
  -5  -8  -1   25.57    1.76
  -5  -8  -1   24.84    1.80
  -5  -8  -2   -0.14    0.45
  -5  -8  -2    0.92    0.63
  -5  -8  -3   19.63    1.64
  -5  -8  -3   23.17    1.74
  -5  -8  -4   15.33    1.44
  -5  -8  -4   14.81    1.35
  -5  -8  -5   11.27    1.22
  -5  -8  -5   12.21    1.19
  -5  -8  -6    0.35    0.43
  -5  -8  -6    0.89    0.43
  -5  -8  -7   -0.60    0.45
  -5  -8  -7    0.41    0.31
  -5  -8  -8    0.26    0.28
  -5  -9   1    0.57    0.32
  -5  -9   0   20.49    1.17
  -5  -9   0   24.17    1.38
  -5  -9  -1    2.82    0.54
  -5  -9  -1    4.31    0.65
  -5  -9  -2    2.88    0.58
  -5  -9  -2    1.75    0.46
  -5  -9  -3   13.61    1.12
  -5  -9  -3   12.28    1.02
  -5  -9  -4    1.50    0.48
  -5  -9  -4    1.23    0.37
  -5  -9  -5   88.33    2.60
  -5  -9  -5   84.99    2.24
  -5  -9  -6   32.19    1.45
   6  -7  -6   23.78    1.16
   6  -7  -5   11.01    0.92
   6  -7  -4   11.74    1.03
   6  -7  -3    4.45    0.70
   6  -7  -2   20.39    1.41
   6  -7  -1   39.61    1.93
   6  -7  -1   41.98    1.86
   6  -7   0    0.86    0.42
   6  -7   0   -0.52    0.40
   6  -7   1    1.45    0.45
   6  -7   1    0.44    0.31
   6  -7   2    8.41    0.81
   6  -7   3   25.84    1.26
   6  -6  -8   74.50    2.06
   6  -6  -7   22.96    1.39
   6  -6  -6    0.44    0.41
   6  -6  -5  308.44    6.00
   6  -6  -4    1.22    0.64
   6  -6  -3  424.50    7.51
   6  -6  -3  405.06    7.35
   6  -6  -2   47.56    2.56
   6  -6  -2   53.52    2.83
   6  -6  -1  154.80    4.54
   6  -6  -1  151.92    4.84
   6  -6   0   19.75    1.64
   6  -6   0   18.57    1.74
   6  -6   0   19.60    1.48
   6  -6   1   32.02    2.02
   6  -6   1   32.27    1.90
   6  -6   2  148.83    4.13
   6  -6   2  156.27    4.06
   6  -6   3   31.11    1.76
   6  -6   4    0.50    0.37
  -6   6  -4    0.83    0.38
   6  -6   5    4.43    0.57
  -6   6  -5    5.51    0.65
   6  -5  -9   34.64    1.48
   6  -5  -8    1.12    0.47
   6  -5  -7   86.50    3.20
   6  -5  -6   70.23    3.14
   6  -5  -5   48.68    2.77
   6  -5  -5   44.28    2.36
   6  -5  -5   48.74    2.40
   6  -5  -4   49.71    2.86
   6  -5  -4   41.61    2.46
   6  -5  -3   -0.08    0.74
   6  -5  -3    0.22    0.57
   6  -5  -2  131.36    4.64
   6  -5  -2  127.47    4.53
   6  -5  -1   41.05    2.64
   6  -5  -1   40.93    2.71
   6  -5   0  258.26    6.37
   6  -5   0  263.83    6.66
   6  -5   1   34.62    2.35
   6  -5   1   35.00    2.44
   6  -5   2    1.12    0.50
   6  -5   2    1.02    0.43
   6  -5   2    0.96    0.72
   6  -5   2    0.72    0.62
   6  -5   3   46.05    2.52
   6  -5   3   45.82    2.42
   6  -5   3   48.22    2.23
   6  -5   3   47.53    2.38
   6  -5   4    1.94    0.51
   6  -5   4    1.55    0.45
  -6   5  -4    1.62    0.56
  -6   5  -5   43.17    2.21
   6  -5   5   42.81    1.96
   6  -5   5   41.47    2.02
  -6   5  -6   23.13    1.49
   6  -5   6   22.05    1.28
   6  -5   6   21.80    1.30
  -6   5  -7   84.01    2.40
   6  -4  -9    2.01    0.54
   6  -4  -8  202.27    4.89
   6  -4  -7   30.34    2.15
   6  -4  -6    3.98    1.02
   6  -4  -5   54.46    3.12
   6  -4  -5   51.80    2.58
   6  -4  -4  459.19    9.02
   6  -4  -4  428.57    7.93
   6  -4  -3  281.02    7.04
   6  -4  -3  268.59    6.41
   6  -4  -2    5.07    1.11
   6  -4  -2    6.32    1.17
   6  -4  -1    1.20    0.91
   6  -4  -1   -0.29    0.66
   6  -4   0   -0.18    0.42
   6  -4   0   -0.18    0.72
   6  -4   0    1.06    0.77
   6  -4   1  985.70   12.57
   6  -4   1  945.85   12.62
   6  -4   1  975.83   10.78
   6  -4   2   40.40    2.59
   6  -4   2   43.22    2.65
   6  -4   2   39.62    2.24
   6  -4   3    1.67    0.59
   6  -4   3    2.37    0.85
   6  -4   3    3.54    0.87
   6  -4   4   44.93    2.61
   6  -4   4   40.80    2.26
   6  -4   5    6.88    0.94
   6  -4   5    8.82    1.08
   6  -4   6   -0.30    0.49
   6  -4   6    0.13    0.37
  -6   4  -6    0.34    0.51
   6  -4   7    0.28    0.34
   6  -4   7   -0.38    0.32
  -6   4  -7    0.37    0.46
  -6   4  -8   18.12    1.17
   6  -3 -10    2.49    0.46
   6  -3  -9  118.68    3.48
   6  -3  -8    1.74    0.76
   6  -3  -7    0.81    0.66
   6  -3  -6    2.84    0.98
   6  -3  -5  137.91    5.02
   6  -3  -5  145.02    4.32
   6  -3  -4   12.81    1.67
   6  -3  -4   14.16    1.47
   6  -3  -3    4.23    0.78
   6  -3  -3    3.26    0.90
   6  -3  -3    4.04    0.98
  -6   3   2  468.67   14.72
   6  -3  -2  478.53    9.06
   6  -3  -2  462.85    8.40
   6  -3  -2  475.47    7.62
   6  -3  -1    1.32    0.50
  -6   3   1    1.53    1.19
   6  -3  -1    2.24    0.82
  -6   3   0  319.39   12.23
   6  -3   0  310.62    7.15
  -6   3   0  318.69   11.66
   6  -3   0  314.40    7.17
   6  -3   0  305.35    6.28
   6  -3   1 1147.23   13.66
   6  -3   1 1161.34   13.73
   6  -3   1 1124.19   12.29
   6  -3   2  126.23    4.50
   6  -3   2  124.21    4.47
   6  -3   2  125.43    4.11
   6  -3   3    0.08    0.48
   6  -3   3    0.49    0.64
   6  -3   3    0.07    0.51
   6  -3   4   -0.26    0.55
   6  -3   4    0.75    0.68
   6  -3   4    0.54    0.59
   6  -3   5   63.88    3.08
   6  -3   5   65.26    2.98
   6  -3   6   33.09    2.09
  -6   3  -7   37.78    2.19
   6  -3   7   36.89    2.05
  -6   3  -8   11.05    1.08
   6  -3   8   10.95    1.03
  -6   3  -9    5.48    0.65
  -6   3  -9    4.84    0.63
   6  -2 -10    9.34    0.82
   6  -2  -9    2.85    0.65
   6  -2  -8   18.27    1.63
   6  -2  -7    2.43    0.79
   6  -2  -6  124.04    4.64
   6  -2  -6  133.96    3.99
   6  -2  -5   -0.08    0.52
   6  -2  -5    0.32    0.61
   6  -2  -4  612.44   10.40
   6  -2  -4  643.17    9.31
   6  -2  -4  625.42    9.09
   6  -2  -3  179.72    5.64
   6  -2  -3  186.14    5.20
   6  -2  -3  188.23    4.98
  -6   2   2  161.10    8.53
   6  -2  -2  162.40    5.20
   6  -2  -2  159.52    4.87
   6  -2  -2  166.80    4.68
  -6   2   1   20.14    3.01
   6  -2  -1   21.73    1.89
   6  -2  -1   24.98    2.00
   6  -2  -1   22.68    1.75
   6  -2   0    0.51    0.45
  -6   2   0    1.41    1.35
  -6   2   0    0.10    1.10
   6  -2   0    0.10    0.59
   6  -2   0    1.10    0.72
  -6   2  -1  520.80   15.55
   6  -2   1  497.34    8.71
  -6   2  -1  503.44   14.96
   6  -2   1  478.12    8.66
   6  -2   1  487.87    8.17
   6  -2   2    5.27    1.00
  -6   2  -2    6.15    1.95
   6  -2   2    5.75    1.04
   6  -2   2    4.81    1.02
  -6   2  -2    7.54    2.08
  -6   2  -3  296.03   11.88
   6  -2   3  281.49    6.50
   6  -2   3  295.96    6.63
   6  -2   3  290.99    6.34
   6  -2   4   63.86    3.11
   6  -2   4   69.80    3.11
   6  -2   4   71.27    3.16
   6  -2   5   41.12    2.50
   6  -2   5   42.69    2.49
   6  -2   6    1.54    0.74
   6  -2   7    1.38    0.62
  -6   2  -7    2.39    0.74
  -6   2  -8   31.21    1.93
   6  -2   8   32.87    1.89
  -6   2  -9  150.40    3.70
  -6   2  -9  137.77    3.42
   6  -1 -10   -0.43    0.31
   6  -1  -9    8.69    0.97
   6  -1  -8   46.40    2.46
   6  -1  -8   49.42    2.22
   6  -1  -7  166.55    5.05
   6  -1  -7  173.54    4.65
   6  -1  -6   29.67    2.29
   6  -1  -6   31.08    2.12
   6  -1  -5   62.97    3.30
   6  -1  -5   66.16    3.11
  -6   1   4  648.02   16.96
   6  -1  -4  610.14   10.13
   6  -1  -4  634.03    9.10
   6  -1  -4  615.27    9.47
   6  -1  -3 2220.09   18.81
   6  -1  -3 2219.88   17.62
   6  -1  -3 2220.75   17.76
  -6   1   2  193.96    9.13
   6  -1  -2  193.25    5.43
   6  -1  -2  190.67    5.25
   6  -1  -2  198.22    5.22
  -6   1   1   22.01    3.17
  -6   1   1   19.56    2.77
   6  -1  -1   21.98    1.83
   6  -1  -1   21.40    1.85
   6  -1  -1   22.60    1.77
  -6   1   0  181.18    8.55
  -6   1   0  182.56    8.95
   6  -1   0  169.13    4.87
   6  -1   0  178.70    5.20
   6  -1   0  168.95    4.80
  -6   1  -1  354.16   12.58
   6  -1   1  333.27    6.81
  -6   1  -1  346.20   12.36
   6  -1   1  335.25    7.17
   6  -1   1  342.74    6.81
  -6   1  -2   18.98    3.06
  -6   1  -2   14.66    2.58
   6  -1   2   17.31    1.61
   6  -1   2   19.33    1.76
   6  -1   2   16.10    1.55
  -6   1  -3   29.35    3.78
   6  -1   3   24.66    1.89
  -6   1  -3   31.67    4.02
   6  -1   3   26.13    2.01
   6  -1   3   26.91    2.00
  -6   1  -4   27.01    3.66
   6  -1   4   24.38    1.90
   6  -1   4   29.93    2.06
   6  -1   4   26.75    1.94
   6  -1   5    0.44    0.57
   6  -1   5    0.94    0.61
  -6   1  -6  145.37    4.38
   6  -1   6  154.25    4.59
  -6   1  -7    8.12    1.06
   6  -1   7    9.07    1.18
  -6   1  -8  201.62    4.89
  -6   1  -8  202.69    4.79
   6  -1   8  199.00    4.72
  -6   1  -9   30.34    1.84
  -6   1  -9   30.70    1.69
   6  -1   9   29.56    1.66
  -6   1 -10    4.13    0.64
   6   0  -9   14.96    1.13
   6   0  -9   15.04    1.11
   6   0  -8   52.99    2.49
   6   0  -8   53.67    2.44
   6   0  -7   10.17    1.22
   6   0  -7   12.17    1.33
   6   0  -6   75.49    3.46
   6   0  -6   78.28    3.43
   6   0  -6   78.82    3.40
   6   0  -5   17.51    1.80
   6   0  -5   20.46    1.80
   6   0  -5   19.92    1.78
  -6   0   4   53.06    4.77
   6   0  -4   49.41    2.74
   6   0  -4   54.82    2.70
   6   0  -4   49.89    2.80
  -6   0   3  282.98   10.79
   6   0  -3  283.55    6.40
   6   0  -3  299.49    6.44
   6   0  -3  303.25    6.73
  -6   0   2  336.76   10.80
  -6   0   2  332.60   11.53
   6   0  -2  327.25    6.72
   6   0  -2  339.01    7.03
   6   0  -2  344.80    7.05
  -6   0   1  170.44    8.42
   6   0  -1  169.06    4.68
  -6   0   1  165.90    7.87
   6   0  -1  173.65    5.12
   6   0  -1  177.81    4.96
  -6   0   0   14.96    2.58
   6   0   0   15.47    1.43
  -6   0   0   17.47    2.69
   6   0   0   18.88    1.79
   6   0   0   16.78    1.54
  -6   0  -1  152.88    8.13
  -6   0  -1  149.11    7.98
   6   0   1  133.76    4.08
   6   0   1  145.42    4.78
   6   0   1  141.27    4.34
  -6   0  -2  134.98    7.71
   6   0   2  122.82    3.90
   6   0   2  130.92    4.50
  -6   0  -2  138.74    8.05
   6   0   2  134.28    4.22
   6   0   3    5.71    0.99
  -6   0  -3    5.39    1.69
  -6   0  -3    5.66    1.76
   6   0   3    5.83    0.91
   6   0   3    5.38    1.03
  -6   0  -4   13.20    2.71
  -6   0  -4   16.46    2.89
   6   0   4   15.94    1.46
   6   0   4   16.02    1.55
   6   0   4   12.80    1.35
  -6   0  -5  503.47    8.09
   6   0   5  490.87    8.14
  -6   0  -6  122.99    4.09
   6   0   6  119.69    4.04
  -6   0  -7   35.06    2.18
   6   0   7   34.76    2.12
  -6   0  -8   52.89    2.51
  -6   0  -8   46.92    2.43
   6   0   8   49.49    2.39
   6   0   9    0.05    0.39
  -6   0  -9    0.13    0.50
  -6   0  -9    0.29    0.30
  -6   0  -9    0.62    0.47
  -6   0 -10    3.16    0.61
   6   1  -9   78.93    2.51
   6   1  -8   78.74    2.95
   6   1  -8   77.74    2.96
   6   1  -7   19.40    1.66
   6   1  -7   22.40    1.80
   6   1  -6    5.55    1.08
   6   1  -5    8.89    1.22
   6   1  -5    8.23    1.28
   6   1  -4  159.68    5.06
   6   1  -4  155.65    5.19
   6   1  -3    3.63    0.87
   6   1  -3    4.04    1.08
   6   1  -3    1.91    0.72
  -6  -1   2  632.00   15.58
   6   1  -2  614.14    9.76
   6   1  -2  625.55    9.68
  -6  -1   1  449.27   13.19
  -6  -1   1  446.25   13.20
   6   1  -1  441.71    8.50
   6   1  -1  461.12    8.09
  -6  -1   0  300.92   11.01
  -6  -1   0  318.85   11.30
   6   1   0  312.33    7.23
   6   1   0  313.02    6.52
  -6  -1  -1   21.21    3.06
  -6  -1  -1   22.50    3.22
   6   1   1   23.70    2.10
   6   1   1   26.36    1.89
  -6  -1  -2  420.79   13.40
  -6  -1  -2  447.38   14.14
   6   1   2  410.66    8.33
   6   1   2  419.19    7.37
  -6  -1  -3   15.86    2.80
  -6  -1  -3   15.95    1.43
  -6  -1  -3   16.02    2.91
   6   1   3   16.51    1.72
   6   1   3   15.58    1.48
  -6  -1  -4   13.09    2.61
  -6  -1  -4   12.05    1.31
  -6  -1  -4   11.79    2.45
   6   1   4   11.09    1.34
   6   1   4    9.72    1.21
  -6  -1  -5   21.20    1.73
   6   1   5   21.57    1.72
   6   1   6    1.87    0.71
  -6  -1  -6    2.58    0.74
  -6  -1  -7   55.23    2.78
   6   1   7   59.07    2.69
  -6  -1  -8   16.39    1.53
  -6  -1  -8   12.08    1.28
   6   1   8   13.14    1.21
   6   1   9    4.13    0.67
  -6  -1  -9    3.73    0.80
  -6  -1  -9    3.92    0.75
  -6  -1 -10    1.93    0.54
  -6  -1 -10    1.99    0.53
   6   2  -9   44.96    1.81
   6   2  -8    2.30    0.61
   6   2  -8    1.28    0.52
   6   2  -7   -0.29    0.59
   6   2  -6  122.76    4.45
   6   2  -5    5.14    1.07
   6   2  -4  393.08    8.30
   6   2  -3   38.15    2.51
   6   2  -3   41.46    2.74
   6   2  -3   38.29    2.49
   6   2  -2  815.18   11.84
   6   2  -2  794.84   11.66
   6   2  -2  822.43   11.18
  -6  -2   1    7.62    1.76
   6   2  -1    9.95    1.53
   6   2  -1   12.36    1.43
   6   2   0    2.26    0.72
  -6  -2   0    3.41    1.33
  -6  -2   0    1.55    0.72
  -6  -2  -1   46.14    4.24
  -6  -2  -1   45.08    2.32
  -6  -2  -1   48.36    4.66
   6   2   1   42.01    2.37
  -6  -2  -2  498.17   14.40
  -6  -2  -2  512.31    7.95
   6   2   2  500.55    8.01
  -6  -2  -3  418.06   13.38
   6   2   3  442.60   13.32
  -6  -2  -3  429.64    7.46
   6   2   3  412.43    8.67
   6   2   3  415.04    7.21
  -6  -2  -4   17.40    2.92
  -6  -2  -4   12.62    2.41
   6   2   4   12.91    2.47
  -6  -2  -4   12.35    1.36
   6   2   4   13.79    1.61
   6   2   4   15.10    1.38
  -6  -2  -5    8.80    1.17
   6   2   5    8.79    1.08
   6   2   5    9.83    1.29
   6   2   6    2.34    0.65
  -6  -2  -6    2.42    0.66
  -6  -2  -6    0.95    0.52
  -6  -2  -7   14.62    1.40
  -6  -2  -7   15.84    1.46
  -6  -2  -7   14.87    1.52
   6   2   7   16.87    1.36
  -6  -2  -8   12.56    1.28
  -6  -2  -8    7.38    1.07
  -6  -2  -9   43.02    2.17
  -6  -2  -9   40.58    2.20
  -6  -2 -10   22.35    1.39
  -6  -2 -10   23.50    1.49
  -6  -2 -11    4.37    0.54
   6   3  -9    7.69    0.68
   6   3  -8   52.63    2.23
   6   3  -8   53.67    2.20
   6   3  -7   17.89    1.55
   6   3  -6   52.63    2.85
   6   3  -5  235.35    6.30
   6   3  -4  334.54    7.60
   6   3  -3  617.55   10.35
   6   3  -3  629.16   10.15
   6   3  -2  134.53    4.78
  -6  -3   2  133.87    4.00
   6   3  -2  133.97    4.47
  -6  -3   1   24.70    1.79
   6   3  -1   24.85    1.91
  -6  -3   0   70.52    3.02
   6   3   0   69.25    3.08
   6   3   1    3.45    0.75
   6   3   1    1.88    1.12
  -6  -3  -1    2.58    0.74
  -6  -3  -2   64.80    5.01
  -6  -3  -2   67.14    5.53
   6   3   2   58.28    4.88
  -6  -3  -2   60.05    2.90
   6   3   2   58.90    2.72
  -6  -3  -3    2.18    1.41
   6   3   3    0.96    0.47
  -6  -3  -3    0.99    1.04
   6   3   3   -1.01    1.25
  -6  -3  -3    1.28    0.59
  -6  -3  -4    5.97    1.93
   6   3   4    3.66    1.61
  -6  -3  -4    4.27    0.88
  -6  -3  -5  198.94    5.44
   6   3   5  203.27    5.83
  -6  -3  -6  298.07    6.23
  -6  -3  -6  306.06    6.73
  -6  -3  -7   43.34    2.38
  -6  -3  -7   43.47    2.54
  -6  -3  -8   35.67    2.20
  -6  -3  -8   32.03    2.02
  -6  -3  -9   11.02    1.19
  -6  -3 -10   17.83    1.15
  -6  -3 -10   18.64    1.32
  -6  -3 -11    0.61    0.26
   6   4  -8   -0.14    0.28
   6   4  -8    0.62    0.34
   6   4  -7    2.80    0.62
   6   4  -7    2.85    0.71
   6   4  -6    0.15    0.50
   6   4  -6    0.95    0.55
   6   4  -5   36.39    2.20
   6   4  -5   36.96    2.41
   6   4  -4  114.44    3.98
   6   4  -4  118.58    4.41
  -6  -4   4  110.89    3.56
   6   4  -3    0.74    0.72
  -6  -4   3    1.02    0.60
   6   4  -2   70.30    3.42
  -6  -4   2   67.62    3.02
   6   4  -2   69.08    3.11
  -6  -4   1  307.89    6.46
   6   4  -1  302.80    6.33
  -6  -4   0   37.98    2.36
   6   4   0   36.56    2.18
   6   4   1   -2.41    1.23
  -6  -4  -1    0.61    0.55
   6   4   2    6.24    1.85
  -6  -4  -2    5.32    1.02
  -6  -4  -3  136.59    4.57
  -6  -4  -4   24.98    2.02
  -6  -4  -5  107.93    3.74
  -6  -4  -5  111.06    4.16
  -6  -4  -6   51.22    2.61
  -6  -4  -6   53.13    2.88
  -6  -4  -7    5.82    0.96
  -6  -4  -7    6.03    1.06
  -6  -4  -8   11.15    1.22
  -6  -4  -8   12.87    1.38
  -6  -4  -9   23.57    1.59
  -6  -4  -9   23.10    1.53
  -6  -4 -10   35.95    1.70
   6   5  -7  124.04    3.03
   6   5  -7  118.55    2.62
   6   5  -6   84.24    2.94
   6   5  -6   85.91    2.69
   6   5  -5    1.09    0.48
  -6  -5   5    0.37    0.40
   6   5  -4    1.99    0.61
   6   5  -4    1.20    0.55
  -6  -5   4    1.27    0.51
   6   5  -3  170.99    4.95
  -6  -5   3  181.89    4.78
   6   5  -3  173.31    4.49
   6   5  -2    8.34    1.19
  -6  -5   2    9.50    1.25
   6   5  -2    8.65    1.05
  -6  -5   1  223.42    5.63
  -6  -5   0  135.29    4.47
  -6  -5  -1  139.59    4.62
  -6  -5  -2  108.39    4.11
  -6  -5  -3    2.53    0.84
  -6  -5  -4  962.35   11.05
  -6  -5  -4 1002.85   12.53
  -6  -5  -5  113.52    3.87
  -6  -5  -5  124.04    4.37
  -6  -5  -6  233.20    5.48
  -6  -5  -6  248.49    6.04
   6   5   6  232.83    5.88
  -6  -5  -7    0.72    0.51
  -6  -5  -7    0.55    0.64
  -6  -5  -8  108.81    3.51
  -6  -5  -8   99.64    3.31
  -6  -5  -9    6.07    0.79
  -6  -5  -9    5.41    0.73
  -6  -5 -10    1.86    0.42
  -6  -6   5   32.09    1.58
  -6  -6   4   15.12    1.29
  -6  -6   3   28.35    1.85
  -6  -6   2   24.42    1.81
  -6  -6   1  136.86    4.31
  -6  -6   0   40.19    2.46
  -6  -6  -1  290.73    6.60
  -6  -6  -2  216.26    5.74
  -6  -6  -3   78.76    3.07
  -6  -6  -3   77.11    3.48
  -6  -6  -4   27.92    1.88
  -6  -6  -4   35.70    2.39
  -6  -6  -5   13.59    1.34
  -6  -6  -5   14.00    1.51
  -6  -6  -6    2.26    0.63
  -6  -6  -6    3.93    0.87
  -6  -6  -7   55.11    2.44
  -6  -6  -7   60.75    2.61
  -6  -6  -8    0.26    0.34
  -6  -6  -8   -0.11    0.37
  -6  -6  -9   10.27    0.86
  -6  -6  -9    9.57    0.82
  -6  -7   4   12.28    0.96
  -6  -7   3    8.44    0.92
  -6  -7   2   20.21    1.50
  -6  -7   1  117.63    3.69
  -6  -7   0   10.56    1.24
  -6  -7  -1    1.05    0.70
  -6  -7  -2    6.91    1.12
  -6  -7  -3    2.88    0.64
  -6  -7  -3    2.55    0.77
  -6  -7  -4   10.11    1.07
  -6  -7  -4   10.70    1.27
  -6  -7  -5  155.11    3.97
  -6  -7  -5  164.13    4.36
  -6  -7  -6    1.43    0.51
  -6  -7  -6    0.80    0.46
  -6  -7  -7   20.99    1.34
  -6  -7  -7   19.30    1.34
  -6  -7  -8    2.92    0.46
  -6  -7  -8    3.75    0.54
  -6  -8   2   51.79    1.93
  -6  -8   1    5.07    0.72
  -6  -8   0   46.96    2.11
  -6  -8  -1    0.11    0.42
  -6  -8  -2   21.55    1.49
  -6  -8  -3    4.41    0.62
  -6  -8  -3    4.55    0.76
  -6  -8  -4    9.13    0.86
  -6  -8  -4    9.81    1.00
  -6  -8  -5    5.12    0.64
  -6  -8  -5    5.15    0.71
  -6  -8  -6    7.90    0.71
  -6  -8  -6    8.42    0.78
   7  -6  -6    9.10    0.75
   7  -6  -5    7.52    0.78
   7  -6  -4    2.06    0.52
   7  -6  -3   60.86    2.39
   7  -6  -2   42.98    2.05
   7  -6  -1    3.63    0.66
   7  -6   0    7.66    0.91
   7  -6   1   21.07    1.38
   7  -6   2   -0.64    0.40
   7  -5  -7    7.55    0.76
   7  -5  -6   17.35    1.29
   7  -5  -5   79.89    2.94
   7  -5  -4    0.80    0.57
   7  -5  -4    0.13    0.41
   7  -5  -3   26.18    1.89
   7  -5  -3   25.29    1.77
   7  -5  -2    0.84    0.64
   7  -5  -2    0.32    0.58
   7  -5  -1    1.66    0.68
   7  -5  -1    2.19    0.82
   7  -5   0   85.38    3.31
   7  -5   0   78.31    3.32
   7  -5   1   32.13    2.01
   7  -5   1   30.10    2.04
   7  -5   2   21.68    1.61
   7  -5   2   20.29    1.57
   7  -5   3    4.09    0.56
   7  -5   3    3.42    0.68
  -7   5  -3    3.85    0.67
   7  -5   4   -0.41    0.32
  -7   5  -4    0.60    0.34
  -7   5  -5   25.77    1.35
   7  -4  -8    7.60    0.73
   7  -4  -7   34.99    1.83
   7  -4  -6    0.22    0.48
   7  -4  -5   19.30    1.67
   7  -4  -5   21.88    1.47
   7  -4  -4  132.65    4.39
   7  -4  -4  122.20    3.86
   7  -4  -3    9.86    1.36
   7  -4  -3    8.95    1.18
   7  -4  -2    3.43    0.98
   7  -4  -2    3.38    0.81
   7  -4  -1    8.81    1.27
   7  -4  -1   10.84    1.07
   7  -4  -1    8.13    1.28
   7  -4   0    1.91    0.57
   7  -4   0    0.03    0.74
   7  -4   0   -0.38    0.78
   7  -4   1  352.73    7.12
   7  -4   1  348.04    7.24
   7  -4   1  355.48    6.10
   7  -4   2   65.56    3.04
   7  -4   2   66.14    3.05
   7  -4   2   66.86    2.69
   7  -4   3  179.49    4.77
   7  -4   3  180.12    4.65
   7  -4   3  181.76    4.30
   7  -4   4   33.81    1.82
  -7   4  -5   74.27    2.77
   7  -4   5   71.68    2.46
  -7   4  -6   82.32    2.64
   7  -4   6   80.07    2.36
  -7   4  -7   21.05    1.13
   7  -3  -8   49.86    1.98
   7  -3  -7   56.75    2.48
   7  -3  -6   33.05    2.11
   7  -3  -5   24.44    1.95
   7  -3  -5   25.58    1.69
   7  -3  -4  135.99    4.64
   7  -3  -4  130.99    4.16
   7  -3  -3   88.70    3.83
   7  -3  -3   77.02    3.32
   7  -3  -3   86.13    3.08
   7  -3  -2   53.86    2.99
   7  -3  -2   50.50    2.80
   7  -3  -2   50.78    2.49
   7  -3  -1   11.47    1.47
   7  -3  -1   11.82    1.53
   7  -3  -1   12.82    1.34
   7  -3   0  230.99    6.05
   7  -3   0  223.88    6.06
   7  -3   0  229.73    5.39
   7  -3   1    3.74    0.85
   7  -3   1    3.24    0.85
   7  -3   1    4.89    1.03
   7  -3   2  222.41    5.71
   7  -3   2  219.75    5.80
   7  -3   2  220.12    5.23
   7  -3   3  128.76    4.25
   7  -3   3  129.57    4.25
   7  -3   3  134.41    4.06
   7  -3   4    0.17    0.49
   7  -3   4   -0.01    0.56
   7  -3   4    0.75    0.50
   7  -3   5   20.68    1.55
   7  -3   6    0.72    0.43
  -7   3  -6    0.43    0.39
  -7   3  -7   24.74    1.48
   7  -3   7   25.84    1.43
   7  -2  -8    0.27    0.35
   7  -2  -7   36.93    2.06
   7  -2  -6    2.40    0.54
   7  -2  -6    0.89    0.59
   7  -2  -5  228.70    5.90
   7  -2  -5  240.77    5.18
   7  -2  -4   29.94    2.22
   7  -2  -4   30.75    2.07
   7  -2  -4   30.35    1.99
   7  -2  -3    4.85    0.91
   7  -2  -3    4.73    1.02
   7  -2  -3    4.05    0.96
   7  -2  -2  143.84    4.82
   7  -2  -2  143.40    4.68
   7  -2  -2  146.42    4.46
   7  -2  -1    9.12    1.15
   7  -2  -1   10.77    1.37
   7  -2   0    0.83    0.49
   7  -2   0    1.61    0.71
   7  -2   0    1.46    0.83
   7  -2   1   39.02    2.48
   7  -2   1   41.36    2.66
   7  -2   1   41.92    2.47
   7  -2   2   87.87    3.59
   7  -2   2   88.20    3.75
   7  -2   2   89.25    3.55
   7  -2   3    9.19    1.23
   7  -2   3   10.49    1.33
   7  -2   3   10.61    1.32
   7  -2   4   10.98    1.30
   7  -2   4   10.71    1.22
   7  -2   4   10.29    1.26
   7  -2   5  164.42    4.53
   7  -2   6   85.23    3.11
   7  -2   7    0.07    0.39
  -7   2  -7    0.02    0.38
  -7   2  -8   25.60    1.42
  -7   2  -8   26.48    1.44
   7  -2   8   26.55    1.39
   7  -1  -8   86.08    2.51
   7  -1  -8   87.78    2.26
   7  -1  -7   19.47    1.45
   7  -1  -7   20.17    1.36
   7  -1  -6   23.04    1.75
   7  -1  -6   24.93    1.70
   7  -1  -5   79.72    3.42
   7  -1  -5   80.92    3.26
   7  -1  -4  301.42    6.76
   7  -1  -4  313.43    6.39
   7  -1  -4  310.36    6.57
   7  -1  -3   31.67    2.23
   7  -1  -3   26.83    2.04
   7  -1  -3   34.97    2.30
   7  -1  -2    7.48    1.14
   7  -1  -2    8.32    1.25
   7  -1  -2    5.84    1.10
   7  -1  -1   77.42    3.41
   7  -1  -1   74.86    3.51
   7  -1  -1   82.60    3.49
   7  -1   0    8.01    1.20
   7  -1   0    7.63    1.16
   7  -1   0    7.25    1.25
   7  -1   1   19.02    1.70
   7  -1   1   18.51    1.86
   7  -1   1   18.87    1.73
   7  -1   2   12.08    1.35
   7  -1   2   10.93    1.45
   7  -1   2   12.17    1.43
   7  -1   3    4.96    0.93
   7  -1   3    4.04    0.81
   7  -1   3    4.58    0.96
   7  -1   4   22.36    1.77
   7  -1   4   22.36    1.79
   7  -1   4   22.90    1.82
   7  -1   5  234.22    5.52
   7  -1   6  487.24    7.57
   7  -1   7   12.02    1.16
  -7   1  -8    7.79    0.89
  -7   1  -8    7.57    0.84
   7  -1   8    8.21    0.86
  -7   1  -9    0.43    0.28
   7   0  -8    3.42    0.52
   7   0  -7  128.34    3.58
   7   0  -6   16.16    1.47
   7   0  -5   66.85    3.08
   7   0  -4   87.98    3.40
   7   0  -4   84.87    3.61
   7   0  -3  680.30   10.07
   7   0  -3  721.23   10.47
   7   0  -2  198.35    5.54
   7   0  -2  204.91    5.61
   7   0  -1    6.85    1.18
   7   0  -1    4.91    1.03
   7   0   0    0.57    0.58
   7   0   0    0.03    0.70
   7   0   1   36.17    2.57
   7   0   1   43.12    2.57
   7   0   2    0.83    0.55
   7   0   2   -0.02    0.76
   7   0   3   22.58    1.95
   7   0   3   22.54    1.85
   7   0   4    1.71    0.74
   7   0   4    3.92    0.90
   7   0   5   35.74    2.19
   7   0   6    5.44    0.93
  -7   0  -7  113.14    3.33
   7   0   7  113.10    3.44
   7   0   8    1.60    0.47
  -7   0  -8    1.94    0.50
  -7   0  -8    1.83    0.49
  -7   0  -8    0.72    0.35
   7   0   9    0.32    0.28
  -7   0  -9    0.09    0.26
   7   1  -8    3.79    0.58
   7   1  -7    6.19    0.87
   7   1  -6  397.32    7.01
   7   1  -5    8.14    1.18
   7   1  -4    0.12    0.61
   7   1  -4   -0.35    0.51
   7   1  -3   82.66    3.50
   7   1  -3   82.42    3.67
   7   1  -2    6.46    1.17
   7   1  -2    8.68    1.32
   7   1  -1  674.79   10.61
   7   1  -1  670.44   10.16
   7   1   0  123.55    4.68
   7   1   0  119.59    4.28
   7   1   1   49.23    3.02
   7   1   1   48.13    2.73
   7   1   2  119.21    4.56
   7   1   2  120.94    4.21
   7   1   3    8.75    1.22
   7   1   3    7.42    1.24
   7   1   4   41.15    2.52
   7   1   4   38.64    2.31
  -7  -1  -5   17.63    1.48
   7   1   5   16.85    1.51
   7   1   5   18.06    1.56
   7   1   6    2.00    0.68
  -7  -1  -6    2.15    0.59
  -7  -1  -7   39.57    2.09
   7   1   7   38.92    2.00
  -7  -1  -8   14.36    1.13
  -7  -1  -8   14.64    1.20
   7   1   8   12.59    1.04
  -7  -1  -9   -0.15    0.29
  -7  -1  -9    0.50    0.31
   7   2  -8  135.78    2.90
   7   2  -7    0.57    0.45
   7   2  -6   32.90    2.02
   7   2  -5  282.28    6.22
   7   2  -4   13.85    1.57
   7   2  -3 1148.24   12.86
   7   2  -3 1130.50   13.22
   7   2  -2  105.22    4.18
   7   2  -2  106.75    4.09
   7   2  -1  136.94    4.98
   7   2  -1  143.09    4.64
   7   2   0  132.49    5.00
   7   2   0  128.70    4.39
   7   2   1   10.88    1.66
   7   2   1   10.94    1.35
   7   2   2  218.29    6.46
   7   2   2  209.48    5.43
  -7  -2  -3   48.59    2.50
   7   2   3   50.97    3.04
   7   2   3   47.72    2.59
   7   2   4    5.75    0.94
  -7  -2  -4    4.00    0.81
   7   2   4    3.21    0.91
   7   2   5   -0.27    0.43
  -7  -2  -5    0.05    0.36
   7   2   5   -0.20    0.58
  -7  -2  -6   11.42    1.24
   7   2   6   13.04    1.19
  -7  -2  -7   17.77    1.46
   7   2   7   16.25    1.23
  -7  -2  -8    0.52    0.38
  -7  -2  -9   16.47    1.16
   7   3  -7   85.21    2.57
   7   3  -6   22.97    1.56
   7   3  -5    0.14    0.57
   7   3  -4    5.07    0.94
   7   3  -3  373.97    7.16
   7   3  -3  366.22    7.20
   7   3  -2  237.75    6.31
   7   3  -2  246.36    5.92
   7   3  -1   61.82    3.43
   7   3  -1   61.25    3.00
   7   3   0  254.54    7.07
   7   3   0  245.02    5.88
  -7  -3  -1   16.42    1.47
   7   3   1   15.44    2.03
   7   3   1   14.68    1.47
  -7  -3  -2   18.67    1.61
   7   3   2   16.67    1.99
   7   3   2   15.47    1.44
  -7  -3  -3  143.39    4.43
   7   3   3  132.45    5.04
   7   3   3  138.68    4.11
  -7  -3  -4   10.96    1.27
   7   3   4   11.74    1.53
   7   3   4    9.73    1.09
  -7  -3  -5  115.66    3.94
   7   3   5  110.53    3.97
  -7  -3  -6   70.68    3.00
  -7  -3  -7   11.29    1.19
  -7  -3  -8   92.41    3.02
  -7  -3  -9   15.93    1.13
   7   4  -6   42.21    1.82
   7   4  -5   79.65    2.80
   7   4  -4    4.48    0.81
   7   4  -3   53.71    2.58
   7   4  -3   49.24    2.45
   7   4  -2  141.68    4.72
   7   4  -2  150.25    4.30
  -7  -4   1   21.36    1.61
   7   4  -1   22.79    2.12
   7   4  -1   21.94    1.70
  -7  -4   0  188.64    4.89
   7   4   0  185.00    4.73
   7   4   1    3.94    0.78
  -7  -4  -1    3.76    0.82
  -7  -4  -2    9.48    1.20
  -7  -4  -3   11.94    1.35
   7   4   3   13.21    1.78
  -7  -4  -4    0.31    0.52
   7   4   4    0.84    0.83
  -7  -4  -5   94.77    3.58
   7   4   5   92.40    3.71
  -7  -4  -6   30.59    2.00
  -7  -4  -7    4.40    0.75
  -7  -4  -8   37.76    1.87
  -7  -4  -9    1.58    0.41
   7   5  -5    4.06    0.55
   7   5  -4   10.16    0.92
  -7  -5   3   28.74    1.58
   7   5  -3   30.11    1.71
   7   5  -3   26.91    1.54
  -7  -5   2   38.05    1.99
   7   5  -2   38.11    2.30
   7   5  -2   35.93    1.82
  -7  -5   1   30.38    1.89
   7   5  -1   33.34    2.38
  -7  -5   0   65.12    2.85
  -7  -5  -1  147.06    4.40
  -7  -5  -2    8.60    1.16
  -7  -5  -3  172.41    4.82
  -7  -5  -4  152.69    4.50
   7   5   4  152.83    5.12
  -7  -5  -5  190.20    4.91
   7   5   5  189.79    5.15
  -7  -5  -6   11.35    1.21
  -7  -5  -7   30.54    1.75
  -7  -5  -8    5.01    0.69
  -7  -5  -9    3.64    0.48
  -7  -6   3    7.84    0.76
  -7  -6   2    1.55    0.45
   7   6  -2    0.94    0.46
  -7  -6   1   29.27    1.76
   7   6  -1   29.53    2.00
  -7  -6   0   83.08    3.00
  -7  -6  -1  248.47    5.34
  -7  -6  -2  243.94    5.39
  -7  -6  -3    1.94    0.70
  -7  -6  -4   50.04    2.44
  -7  -6  -5   20.70    1.56
   7   6   5   18.73    1.53
  -7  -6  -6    1.18    0.46
  -7  -6  -7    8.44    0.86
  -7  -6  -8   17.25    1.01
  -7  -7   2   14.24    0.96
  -7  -7   1    3.85    0.60
   7   7  -1    3.47    0.64
  -7  -7   0    7.29    0.83
   7   7   0    8.42    1.08
  -7  -7  -1   30.65    1.69
  -7  -7  -2   11.62    1.08
  -7  -7  -3   -0.37    0.42
  -7  -7  -4   31.93    1.70
   7   7   4   30.80    1.87
  -7  -7  -5    0.24    0.36
   7   7   5    0.17    0.33
  -7  -7  -6   16.86    1.08
  -7  -8  -1    7.52    0.69
   7   8   1    7.48    0.79
  -7  -8  -2    1.58    0.35
   7   8   2    2.58    0.56
  -7  -8  -3   13.45    0.89
   7   8   3   11.30    0.94
   8  -5  -4   92.61    2.46
   8  -5  -3   31.59    1.56
   8  -5  -2    1.12    0.38
   8  -5  -2    0.57    0.34
   8  -5  -1    0.39    0.34
   8  -5  -1    0.53    0.44
   8  -5   0   32.71    1.63
   8  -5   0   34.75    1.74
   8  -5   1  115.93    2.95
   8  -4  -5    0.15    0.28
   8  -4  -4   11.90    1.07
   8  -4  -4    9.71    0.87
   8  -4  -3    4.44    0.77
   8  -4  -3    4.98    0.76
   8  -4  -2   -1.15    0.57
   8  -4  -2   -0.28    0.48
   8  -4  -1   34.99    1.95
   8  -4  -1   36.01    2.07
   8  -4   0   53.66    2.38
   8  -4   0   54.67    2.51
   8  -4   0   56.02    1.93
   8  -4   1   46.74    2.18
   8  -4   1   49.36    2.32
   8  -4   1   48.67    1.84
   8  -4   2  152.31    3.75
   8  -4   2  156.66    3.82
   8  -4   2  151.48    3.21
   8  -4   3    2.57    0.48
   8  -4   3    2.64    0.46
  -8   4  -4   16.01    1.08
   8  -4   4   15.13    0.91
   8  -3  -6    7.98    0.78
   8  -3  -5    0.51    0.39
   8  -3  -4  167.63    4.17
   8  -3  -4  166.78    3.87
   8  -3  -3    5.96    0.91
   8  -3  -3    7.10    0.78
   8  -3  -3    4.98    0.82
   8  -3  -2  129.02    3.94
   8  -3  -2  129.38    3.97
   8  -3  -2  134.51    3.42
   8  -3  -1   24.30    1.74
   8  -3  -1   27.41    1.96
   8  -3  -1   25.35    1.57
   8  -3   0   93.95    3.35
   8  -3   0  102.84    3.73
   8  -3   0   99.25    3.10
   8  -3   1   83.99    3.11
   8  -3   1   88.33    3.41
   8  -3   1   84.29    2.90
   8  -3   2   12.07    1.20
   8  -3   2   10.58    1.18
   8  -3   2   11.41    1.11
   8  -3   3   53.05    2.31
   8  -3   3   53.50    2.30
   8  -3   3   51.85    2.16
   8  -3   4   12.81    1.05
   8  -3   5    3.95    0.57
  -8   3  -5    4.85    0.70
  -8   3  -6    5.82    0.63
   8  -3   6    7.23    0.63
   8  -2  -6    9.75    0.86
   8  -2  -5  105.70    3.13
   8  -2  -5  112.76    2.81
   8  -2  -4   82.26    2.86
   8  -2  -4   80.51    2.68
   8  -2  -3  156.10    4.32
   8  -2  -3  154.56    4.28
   8  -2  -3  149.77    3.91
   8  -2  -2    0.58    0.43
   8  -2  -2   -0.29    0.52
   8  -2  -2    0.51    0.60
   8  -2  -1   17.46    1.52
   8  -2  -1   18.37    1.66
   8  -2  -1   16.06    1.43
   8  -2   0    0.50    0.48
   8  -2   0    0.55    0.46
   8  -2   0   -0.34    0.70
   8  -2   1   60.47    2.71
   8  -2   1   64.08    3.07
   8  -2   1   61.72    2.71
   8  -2   2   22.98    1.65
   8  -2   2   24.29    1.83
   8  -2   2   26.48    1.78
   8  -2   3   45.04    2.21
   8  -2   3   44.90    2.32
   8  -2   3   47.70    2.29
   8  -2   4    3.60    0.69
   8  -2   4    3.73    0.68
   8  -2   5   10.70    1.03
  -8   2  -6   85.97    2.66
   8  -2   6   81.43    2.43
   8  -2   7    1.03    0.30
   8  -1  -6    1.01    0.36
   8  -1  -5  118.57    3.14
   8  -1  -5  123.00    3.32
   8  -1  -4   16.43    1.30
   8  -1  -4   17.29    1.36
   8  -1  -4   14.55    1.32
   8  -1  -3   17.62    1.40
   8  -1  -3   18.62    1.55
   8  -1  -3   19.60    1.57
   8  -1  -2   49.43    2.40
   8  -1  -2   59.05    2.82
   8  -1  -2   54.81    2.65
   8  -1  -1   38.52    2.13
   8  -1  -1   40.11    2.47
   8  -1  -1   39.95    2.30
   8  -1   0   38.68    2.14
   8  -1   0   39.63    2.54
   8  -1   0   43.54    2.46
   8  -1   1   36.84    2.05
   8  -1   1   36.79    2.42
   8  -1   1   37.32    2.30
   8  -1   2    0.86    0.64
   8  -1   2    1.89    0.54
   8  -1   2    1.51    0.68
   8  -1   3    1.16    0.60
   8  -1   3    1.83    0.51
   8  -1   3    1.02    0.57
   8  -1   4    8.24    0.99
   8  -1   4    8.49    1.10
   8  -1   5  103.56    3.20
   8  -1   6   15.31    1.15
  -8   1  -7    6.31    0.69
   8  -1   7    4.58    0.58
   8   0  -6   18.87    1.23
   8   0  -5   13.20    1.19
   8   0  -4   11.41    1.09
   8   0  -4   10.39    1.17
   8   0  -3   37.50    2.18
   8   0  -3   37.08    2.23
   8   0  -2   15.66    1.56
   8   0  -2   12.67    1.41
   8   0  -1    0.96    0.70
   8   0  -1    0.67    0.68
   8   0   0   78.71    3.60
   8   0   0   78.21    3.36
   8   0   1   26.06    2.15
   8   0   1   23.82    1.89
   8   0   2   89.39    3.68
   8   0   2   91.48    3.53
   8   0   3   21.55    1.77
   8   0   3   21.10    1.68
   8   0   4   28.44    1.87
   8   0   4   28.61    1.86
   8   0   5  149.41    3.89
   8   0   6   32.16    1.69
  -8   0  -7   59.59    2.04
   8   0   7   56.38    1.97
   8   1  -6   17.76    1.19
   8   1  -5   93.42    3.03
   8   1  -4  162.04    3.80
   8   1  -4  160.74    4.32
   8   1  -3   24.91    1.76
   8   1  -3   26.53    1.92
   8   1  -2   37.46    2.30
   8   1  -2   39.86    2.39
   8   1  -1   12.39    1.46
   8   1  -1   12.11    1.41
   8   1   0   76.85    3.52
   8   1   0   77.79    3.33
   8   1   1    3.89    0.86
   8   1   1    5.31    1.18
   8   1   2  306.84    6.91
   8   1   2  299.85    6.32
   8   1   3   12.79    1.43
   8   1   3   14.58    1.42
   8   1   4   -0.08    0.47
   8   1   4    0.20    0.50
   8   1   5   16.49    1.32
   8   1   6    5.76    0.76
   8   1   7    6.48    0.68
   8   2  -6   19.36    1.17
   8   2  -5   14.07    1.17
   8   2  -4  268.93    5.37
   8   2  -3    0.25    0.56
   8   2  -3    1.66    0.58
   8   2  -2   50.83    2.60
   8   2  -2   49.30    2.55
   8   2  -1   49.07    2.72
   8   2  -1   44.71    2.47
   8   2   0   24.59    2.08
   8   2   0   21.57    1.73
   8   2   1    4.20    0.88
   8   2   1    3.41    1.06
   8   2   2   -0.21    0.48
   8   2   2    0.71    0.82
   8   2   3   81.76    3.48
   8   2   3   74.47    2.93
   8   2   4    1.04    0.49
   8   2   4    0.85    0.58
   8   2   5    0.44    0.38
   8   2   5    0.88    0.49
  -8  -2  -6  109.94    2.88
   8   2   6  106.44    2.76
  -8  -2  -7    1.48    0.38
   8   3  -6    5.56    0.58
   8   3  -5    3.69    0.58
   8   3  -4   89.91    2.88
   8   3  -3    6.03    0.87
   8   3  -3    6.53    0.82
   8   3  -2   16.03    1.39
   8   3  -2   13.99    1.31
   8   3  -1   16.72    1.59
   8   3  -1   13.79    1.32
   8   3   0   15.35    1.65
   8   3   0   15.07    1.35
   8   3   1   23.98    2.05
   8   3   1   22.04    1.62
   8   3   2    0.51    0.45
   8   3   2    0.58    0.77
   8   3   3    5.39    0.76
   8   3   3    5.12    0.99
  -8  -3  -4   17.91    1.32
   8   3   4   15.80    1.46
   8   3   4   15.85    1.16
  -8  -3  -5    1.30    0.44
   8   3   5    2.27    0.63
  -8  -3  -6  175.57    3.73
  -8  -3  -7    2.17    0.43
   8   4  -4    8.00    0.76
   8   4  -3   27.03    1.37
   8   4  -3   23.45    1.35
   8   4  -2    9.71    1.04
   8   4  -2    8.59    0.91
   8   4  -1    3.24    0.58
   8   4  -1    3.29    0.76
   8   4   0    1.38    0.48
   8   4   0    1.06    0.67
   8   4   1   18.60    1.78
   8   4   1   15.52    1.18
  -8  -4  -2   45.09    2.06
   8   4   2   48.09    2.76
  -8  -4  -3   16.98    1.31
   8   4   3   17.71    1.64
  -8  -4  -4  185.05    4.15
   8   4   4  183.31    4.73
  -8  -4  -5   10.40    1.00
   8   4   5   12.08    1.08
  -8  -4  -6   50.62    1.98
  -8  -4  -7   24.30    1.22
   8   5  -2    7.53    0.77
   8   5  -1    0.10    0.42
  -8  -5   0    1.55    0.43
   8   5   0    2.14    0.68
  -8  -5  -1   15.54    1.14
   8   5   1   18.47    1.60
  -8  -5  -2  186.84    3.99
   8   5   2  191.17    4.95
  -8  -5  -3   39.68    1.88
   8   5   3   42.60    2.30
  -8  -5  -4   11.59    1.04
   8   5   4   12.56    1.20
  -8  -5  -5   11.79    0.98
   8   5   5   12.84    1.01
  -8  -5  -6    9.55    0.82
   8   6  -1   22.93    1.22
  -8  -6   0   -0.07    0.26
   8   6   0    0.02    0.35
  -8  -6  -1   11.98    0.90
   8   6   1   13.09    1.16
  -8  -6  -2    2.61    0.49
   8   6   2    2.90    0.66
  -8  -6  -3    6.09    0.69
   8   6   3    6.26    0.82
  -8  -6  -4   52.16    1.84
   8   6   4   50.38    1.95
  -8  -6  -5   16.39    0.98
   9  -3  -2   17.19    0.98
   9  -3  -2   19.86    1.19
   9  -3  -1   -0.11    0.23
   9  -3  -1    0.11    0.31
   9  -3   0   28.65    1.30
   9  -3   0   30.03    1.22
   9  -3   1    7.62    0.67
   9  -3   1    9.03    0.85
   9  -3   1    8.95    0.69
   9  -3   2    0.93    0.35
   9  -2  -3   13.73    0.97
   9  -2  -3   13.27    0.83
   9  -2  -2    3.35    0.49
   9  -2  -2    4.21    0.66
   9  -2  -1    2.48    0.48
   9  -2  -1    2.06    0.41
   9  -2  -1    2.77    0.59
   9  -2   0    2.50    0.51
   9  -2   0    2.44    0.45
   9  -2   0    2.86    0.62
   9  -2   1   -0.10    0.33
   9  -2   1   -0.07    0.23
   9  -2   1   -0.13    0.40
   9  -2   2   11.00    0.99
   9  -2   2   11.15    0.92
   9  -2   3    1.17    0.34
   9  -2   3    0.82    0.31
   9  -2   4   31.90    1.30
   9  -1  -4   76.18    2.02
   9  -1  -3  152.88    3.31
   9  -1  -3  151.94    3.26
   9  -1  -2   26.37    1.55
   9  -1  -2   25.22    1.47
   9  -1  -1    6.00    0.79
   9  -1  -1    5.61    0.85
   9  -1   0   37.76    2.01
   9  -1   0   35.73    1.81
   9  -1   1    7.81    0.98
   9  -1   1    8.22    0.91
   9  -1   2    9.00    0.99
   9  -1   2    7.96    0.86
   9  -1   3   25.18    1.43
   9  -1   3   27.58    1.48
   9  -1   4   30.08    1.43
   9  -1   5   17.91    0.99
   9   0  -4   24.43    1.26
   9   0  -3    0.50    0.34
   9   0  -3   -0.44    0.32
   9   0  -2    8.50    0.92
   9   0  -2    8.52    0.94
   9   0  -1  149.29    3.91
   9   0  -1  150.57    3.78
   9   0   0   19.21    1.52
   9   0   0   17.49    1.37
   9   0   1   37.86    2.08
   9   0   1   38.92    1.95
   9   0   2   24.03    1.60
   9   0   2   24.95    1.52
   9   0   3   15.00    1.18
   9   0   3   16.46    1.19
   9   0   4    7.51    0.74
   9   0   4    7.50    0.79
   9   0   5   20.45    1.11
   9   1  -4   87.89    2.34
   9   1  -3  145.80    3.04
   9   1  -3  158.85    3.50
   9   1  -2  164.03    3.81
   9   1  -2  171.45    3.89
   9   1  -1   12.88    1.19
   9   1  -1   11.75    1.10
   9   1   0   32.11    1.91
   9   1   0   31.78    1.78
   9   1   1    0.22    0.39
   9   1   1    0.77    0.54
   9   1   2    5.84    0.79
   9   1   2    7.01    0.94
   9   1   3   26.00    1.58
   9   1   3   25.79    1.45
   9   1   4   10.16    0.87
   9   1   4    9.95    0.85
   9   1   5    9.12    0.72
   9   2  -4   16.10    0.95
   9   2  -3  214.71    3.82
   9   2  -2    9.38    0.91
   9   2  -2    7.85    0.87
   9   2  -1    1.10    0.43
   9   2  -1    1.88    0.57
   9   2   0   88.46    3.04
   9   2   0   82.44    2.69
   9   2   1   35.63    1.98
   9   2   1   31.90    1.67
   9   2   2   25.84    1.68
   9   2   2   22.16    1.35
   9   2   3   17.78    1.33
   9   2   3   15.24    1.05
   9   2   4    3.49    0.51
   9   2   4    3.24    0.57
   9   3  -2   41.25    1.58
   9   3  -2   41.63    1.59
   9   3  -1    0.18    0.28
   9   3  -1    0.06    0.35
   9   3   0   50.16    2.14
   9   3   0   44.26    1.75
   9   3   1    1.09    0.38
   9   3   1    0.64    0.50
   9   3   2    0.46    0.26
   9   3   2    0.42    0.50
   9   3   3   10.74    1.03
   9   3   4   19.55    1.17
   9   4  -1   23.39    1.20
   9   4   0   24.23    1.37
   9   4   1   23.04    1.39
   9   4   2   34.54    1.68
   9   4   3    6.35    0.72
   0   0   0    0.00    0.00


TITL xzl-0515 in P-1
REM P-1 (#2 in standard setting)
CELL 1.54184   7.944372   8.827471  10.965492  78.8132  87.4567  86.8065
ZERR   14.00   0.000350   0.000366   0.000474   0.0036   0.0035   0.0035
LATT  1
SFAC C H N O
UNIT 14.00 14.00 14.00 14.00
TREF
HKLF 4
END
_computing_structure_solution     'SHELXT 2014/5 (Sheldrick, 2014)'
;
_shelx_hkl_checksum              61682
_olex2_submission_special_instructions 'No special instructions were received'
_oxdiff_exptl_absorpt_empirical_details
;
Empirical correction (ABSPACK) includes:
- Absorption correction using spherical harmonics
- Frame scaling
;
_oxdiff_exptl_absorpt_empirical_full_max 1.458
_oxdiff_exptl_absorpt_empirical_full_min 0.788
loop_
_space_group_symop_operation_xyz
'x, y, z'
'-x, -y, -z'
loop_
_atom_site_label
_atom_site_type_symbol
_atom_site_fract_x
_atom_site_fract_y
_atom_site_fract_z
_atom_site_U_iso_or_equiv
_atom_site_adp_type
_atom_site_occupancy
_atom_site_site_symmetry_order
_atom_site_calc_flag
_atom_site_refinement_flags_posn
O001 O 0.52616(12) 0.94389(12) 0.20387(9) 0.0535(3) Uani 1 1 d .
O002 O 0.93650(13) 1.00278(11) 0.18872(10) 0.0562(3) Uani 1 1 d .
O003 O 0.44315(13) 0.86740(13) 0.40285(11) 0.0635(3) Uani 1 1 d .
N004 N 0.85238(12) 0.76190(11) 0.19000(9) 0.0379(2) Uani 1 1 d .
C005 C 0.76294(14) 0.62839(13) 0.23702(11) 0.0353(3) Uani 1 1 d .
C006 C 0.71598(14) 0.56497(13) 0.35986(11) 0.0367(3) Uani 1 1 d .
C007 C 0.76934(14) 0.62480(14) 0.46805(11) 0.0377(3) Uani 1 1 d .
C008 C 0.73892(15) 0.90236(13) 0.35236(11) 0.0400(3) Uani 1 1 d .
H008 H 0.7539 1.0031 0.3743 0.048 Uiso 1 1 calc R
C009 C 0.85241(15) 0.89599(13) 0.23831(11) 0.0400(3) Uani 1 1 d .
C00A C 0.55193(16) 0.89922(13) 0.32500(12) 0.0417(3) Uani 1 1 d .
C00B C 0.74641(15) 0.55106(14) 0.13791(11) 0.0408(3) Uani 1 1 d .
C00C C 0.78900(15) 0.78217(14) 0.46464(11) 0.0397(3) Uani 1 1 d .
C00D C 0.63127(16) 0.42759(14) 0.37461(13) 0.0442(3) Uani 1 1 d .
H00D H 0.5916 0.3827 0.4537 0.053 Uiso 1 1 calc R
C00E C 0.66458(17) 0.41127(15) 0.15634(13) 0.0459(3) Uani 1 1 d .
C00F C 0.81008(17) 0.51997(16) 0.57759(12) 0.0460(3) Uani 1 1 d .
H00F H 0.7959 0.4151 0.5824 0.055 Uiso 1 1 calc R
C00G C 0.89274(17) 0.76260(16) 0.06351(12) 0.0473(3) Uani 1 1 d .
H00G H 0.9534 0.8375 0.0109 0.057 Uiso 1 1 calc R
C00H C 0.85221(18) 0.83057(17) 0.56636(13) 0.0499(3) Uani 1 1 d .
H00H H 0.8662 0.9352 0.5630 0.060 Uiso 1 1 calc R
C00I C 0.60401(17) 0.35560(15) 0.27623(14) 0.0487(3) Uani 1 1 d .
H00I H 0.5428 0.2667 0.2911 0.058 Uiso 1 1 calc R
C00J C 0.83095(19) 0.63976(16) 0.03068(12) 0.0493(3) Uani 1 1 d .
H00J H 0.8407 0.6153 -0.0482 0.059 Uiso 1 1 calc R
C00K C 0.87067(18) 0.56995(19) 0.67809(12) 0.0534(4) Uani 1 1 d .
H00K H 0.8956 0.4988 0.7501 0.064 Uiso 1 1 calc R
C00L C 0.89451(19) 0.7249(2) 0.67253(13) 0.0565(4) Uani 1 1 d .
H00L H 0.9386 0.7580 0.7395 0.068 Uiso 1 1 calc R
C00M C 0.6482(2) 0.32614(18) 0.05157(16) 0.0616(4) Uani 1 1 d .
H00A H 0.6396 0.3991 -0.0254 0.092 Uiso 1 1 calc GR
H00B H 0.5488 0.2672 0.0660 0.092 Uiso 1 1 calc GR
H00C H 0.7456 0.2578 0.0473 0.092 Uiso 1 1 calc GR
C00N C 0.3524(2) 0.9495(3) 0.16795(19) 0.0745(5) Uani 1 1 d .
H00E H 0.3466 0.9842 0.0796 0.112 Uiso 1 1 calc GR
H00M H 0.2863 1.0197 0.2097 0.112 Uiso 1 1 calc GR
H00N H 0.3089 0.8481 0.1907 0.112 Uiso 1 1 calc GR
loop_
_atom_site_aniso_label
_atom_site_aniso_U_11
_atom_site_aniso_U_22
_atom_site_aniso_U_33
_atom_site_aniso_U_23
_atom_site_aniso_U_13
_atom_site_aniso_U_12
O001 0.0439(5) 0.0627(6) 0.0498(5) -0.0025(4) -0.0044(4) 0.0050(4)
O002 0.0592(6) 0.0486(5) 0.0580(6) -0.0014(4) 0.0110(5) -0.0205(4)
O003 0.0447(5) 0.0695(7) 0.0646(7) 0.0115(5) 0.0113(5) 0.0034(5)
N004 0.0373(5) 0.0371(5) 0.0355(5) 0.0016(4) 0.0044(4) -0.0034(4)
C005 0.0320(5) 0.0338(5) 0.0372(6) -0.0001(4) -0.0002(4) 0.0004(4)
C006 0.0347(6) 0.0332(6) 0.0386(6) 0.0002(4) 0.0027(4) 0.0021(4)
C007 0.0335(6) 0.0412(6) 0.0348(6) -0.0009(5) 0.0039(4) 0.0023(5)
C008 0.0427(6) 0.0334(6) 0.0423(6) -0.0035(5) 0.0013(5) -0.0036(5)
C009 0.0379(6) 0.0377(6) 0.0409(6) 0.0020(5) -0.0008(5) -0.0051(5)
C00A 0.0420(6) 0.0314(6) 0.0475(7) 0.0009(5) 0.0035(5) 0.0023(5)
C00B 0.0406(6) 0.0404(6) 0.0394(6) -0.0035(5) -0.0040(5) 0.0030(5)
C00C 0.0356(6) 0.0437(6) 0.0377(6) -0.0042(5) 0.0036(4) -0.0006(5)
C00D 0.0432(6) 0.0374(6) 0.0475(7) 0.0010(5) 0.0075(5) -0.0030(5)
C00E 0.0440(7) 0.0403(6) 0.0536(7) -0.0091(5) -0.0078(5) 0.0027(5)
C00F 0.0458(7) 0.0472(7) 0.0394(6) 0.0018(5) 0.0033(5) 0.0080(5)
C00G 0.0507(7) 0.0492(7) 0.0361(6) 0.0041(5) 0.0090(5) -0.0019(6)
C00H 0.0489(7) 0.0567(8) 0.0456(7) -0.0134(6) 0.0021(6) -0.0057(6)
C00I 0.0456(7) 0.0360(6) 0.0633(8) -0.0055(6) 0.0007(6) -0.0059(5)
C00J 0.0603(8) 0.0512(7) 0.0337(6) -0.0038(5) 0.0021(5) 0.0027(6)
C00K 0.0490(7) 0.0700(9) 0.0357(6) -0.0008(6) -0.0011(5) 0.0134(6)
C00L 0.0520(8) 0.0785(10) 0.0394(7) -0.0127(7) -0.0039(6) -0.0003(7)
C00M 0.0702(10) 0.0534(8) 0.0651(9) -0.0197(7) -0.0140(8) -0.0004(7)
C00N 0.0514(9) 0.0971(13) 0.0751(11) -0.0172(10) -0.0184(8) 0.0106(9)
loop_
_atom_type_symbol
_atom_type_description
_atom_type_scat_dispersion_real
_atom_type_scat_dispersion_imag
_atom_type_scat_source
C C 0.0181 0.0091 'International Tables Vol C Tables 4.2.6.8 and 6.1.1.4'
H H 0.0000 0.0000 'International Tables Vol C Tables 4.2.6.8 and 6.1.1.4'
N N 0.0311 0.0180 'International Tables Vol C Tables 4.2.6.8 and 6.1.1.4'
O O 0.0492 0.0322 'International Tables Vol C Tables 4.2.6.8 and 6.1.1.4'
loop_
_geom_angle_atom_site_label_1
_geom_angle_atom_site_label_2
_geom_angle_atom_site_label_3
_geom_angle
C00A O001 C00N 115.70(12)
C009 N004 C005 127.44(10)
C009 N004 C00G 121.34(10)
C00G N004 C005 107.68(10)
C006 C005 N004 129.45(11)
C006 C005 C00B 122.82(11)
C00B C005 N004 107.17(10)
C005 C006 C007 123.38(11)
C005 C006 C00D 114.70(11)
C00D C006 C007 121.47(11)
C00C C007 C006 122.71(10)
C00C C007 C00F 118.05(12)
C00F C007 C006 119.18(11)
C009 C008 H008 106.2
C009 C008 C00A 112.23(10)
C00A C008 H008 106.2
C00C C008 H008 106.2
C00C C008 C009 113.21(10)
C00C C008 C00A 112.19(10)
O002 C009 N004 120.74(12)
O002 C009 C008 122.68(12)
N004 C009 C008 116.56(10)
O001 C00A C008 111.09(10)
O003 C00A O001 124.62(13)
O003 C00A C008 124.21(12)
C005 C00B C00J 106.90(11)
C00E C00B C005 120.68(12)
C00E C00B C00J 132.38(12)
C007 C00C C008 120.94(11)
C00H C00C C007 120.11(12)
C00H C00C C008 118.94(11)
C006 C00D H00D 118.7
C00I C00D C006 122.68(12)
C00I C00D H00D 118.7
C00B C00E C00M 121.24(13)
C00I C00E C00B 116.24(12)
C00I C00E C00M 122.50(13)
C007 C00F H00F 119.4
C00K C00F C007 121.12(13)
C00K C00F H00F 119.4
N004 C00G H00G 125.2
C00J C00G N004 109.70(11)
C00J C00G H00G 125.2
C00C C00H H00H 119.6
C00L C00H C00C 120.84(13)
C00L C00H H00H 119.6
C00D C00I C00E 122.38(12)
C00D C00I H00I 118.8
C00E C00I H00I 118.8
C00B C00J H00J 125.7
C00G C00J C00B 108.53(11)
C00G C00J H00J 125.7
C00F C00K H00K 119.8
C00F C00K C00L 120.43(13)
C00L C00K H00K 119.8
C00H C00L H00L 120.3
C00K C00L C00H 119.41(13)
C00K C00L H00L 120.3
C00E C00M H00A 109.5
C00E C00M H00B 109.5
C00E C00M H00C 109.5
H00A C00M H00B 109.5
H00A C00M H00C 109.5
H00B C00M H00C 109.5
O001 C00N H00E 109.5
O001 C00N H00M 109.5
O001 C00N H00N 109.5
H00E C00N H00M 109.5
H00E C00N H00N 109.5
H00M C00N H00N 109.5
loop_
_geom_bond_atom_site_label_1
_geom_bond_atom_site_label_2
_geom_bond_distance
O001 C00A 1.3318(17)
O001 C00N 1.4482(19)
O002 C009 1.2123(15)
O003 C00A 1.1930(16)
N004 C005 1.4088(14)
N004 C009 1.3875(16)
N004 C00G 1.4085(16)
C005 C006 1.3976(16)
C005 C00B 1.4053(17)
C006 C007 1.4761(17)
C006 C00D 1.3981(17)
C007 C00C 1.3997(17)
C007 C00F 1.4048(17)
C008 H008 0.9800
C008 C009 1.5171(17)
C008 C00A 1.5313(17)
C008 C00C 1.5131(17)
C00B C00E 1.4025(18)
C00B C00J 1.4415(18)
C00C C00H 1.3919(19)
C00D H00D 0.9300
C00D C00I 1.384(2)
C00E C00I 1.386(2)
C00E C00M 1.504(2)
C00F H00F 0.9300
C00F C00K 1.378(2)
C00G H00G 0.9300
C00G C00J 1.331(2)
C00H H00H 0.9300
C00H C00L 1.384(2)
C00I H00I 0.9300
C00J H00J 0.9300
C00K H00K 0.9300
C00K C00L 1.381(2)
C00L H00L 0.9300
C00M H00A 0.9600
C00M H00B 0.9600
C00M H00C 0.9600
C00N H00E 0.9600
C00N H00M 0.9600
C00N H00N 0.9600
