#------------------------------------------------------------------------------
#$Date: 2019-11-04 13:29:45 +0200 (Mon, 04 Nov 2019) $
#$Revision: 222880 $
#$URL: file:///home/coder/svn-repositories/cod/cif/4/03/43/4034341.cif $
#------------------------------------------------------------------------------
#
# This file is available in the Crystallography Open Database (COD),
# http://www.crystallography.net/
#
# All data on this site have been placed in the public domain by the
# contributors.
#
data_4034341
loop_
_publ_author_name
'Srinivas, Kolluru'
'Siddiqui, Shaziyaparveen K.'
'Mudaliar, Jyothi K.'
'Ramana, Chepuri V.'
_publ_section_title
;
 Ru(II)-Catalyzed C-H Activation/Alkylation of 3-Formylbenzofurans with
 Conjugated Olefins: Product Divergence.
;
_journal_issue                   9
_journal_name_full               'The Journal of organic chemistry'
_journal_page_first              5056
_journal_page_last               5066
_journal_paper_doi               10.1021/acs.joc.8b03267
_journal_volume                  84
_journal_year                    2019
_chemical_formula_moiety         'C17 H16 O5'
_chemical_formula_sum            'C17 H16 O5'
_chemical_formula_weight         300.30
_space_group_crystal_system      triclinic
_space_group_IT_number           2
_space_group_name_Hall           '-P 1'
_space_group_name_H-M_alt        'P -1'
_atom_sites_solution_hydrogens   geom
_audit_creation_method           SHELXL-2014/7
_cell_angle_alpha                108.7820(10)
_cell_angle_beta                 103.7820(10)
_cell_angle_gamma                98.6610(10)
_cell_formula_units_Z            2
_cell_length_a                   7.3739(3)
_cell_length_b                   9.7254(3)
_cell_length_c                   11.2920(4)
_cell_measurement_reflns_used    9919
_cell_measurement_temperature    100(2)
_cell_measurement_theta_max      35.57
_cell_measurement_theta_min      2.41
_cell_volume                     721.49(5)
_computing_cell_refinement       'SAINT (Bruker, 2016)'
_computing_data_collection       'APEX3 (Bruker, 2016)'
_computing_data_reduction        'SAINT (Bruker, 2016)'
_computing_molecular_graphics    'Bruker SHELXTL'
_computing_publication_material  'Bruker SHELXTL'
_computing_structure_refinement  'SHELXL-2014/7 (Sheldrick, 2014)'
_computing_structure_solution    'SHELXS-97 (Sheldrick 2008)'
_diffrn_ambient_temperature      100(2)
_diffrn_detector                 'Photon II CPAD Area Detector'
_diffrn_measured_fraction_theta_full 0.981
_diffrn_measured_fraction_theta_max 0.986
_diffrn_measurement_device       '\k-geometry diffractometer'
_diffrn_measurement_device_type  'Bruker D8 VENTURE Kappa Duo PHOTON II CPAD'
_diffrn_measurement_method       '\f and \w scans'
_diffrn_radiation_monochromator  'multilayer mirrors'
_diffrn_radiation_type           MoK\a
_diffrn_radiation_wavelength     0.71073
_diffrn_reflns_av_R_equivalents  0.0199
_diffrn_reflns_av_unetI/netI     0.0206
_diffrn_reflns_Laue_measured_fraction_full 0.981
_diffrn_reflns_Laue_measured_fraction_max 0.986
_diffrn_reflns_limit_h_max       10
_diffrn_reflns_limit_h_min       -10
_diffrn_reflns_limit_k_max       13
_diffrn_reflns_limit_k_min       -13
_diffrn_reflns_limit_l_max       15
_diffrn_reflns_limit_l_min       -15
_diffrn_reflns_number            13067
_diffrn_reflns_point_group_measured_fraction_full 0.981
_diffrn_reflns_point_group_measured_fraction_max 0.986
_diffrn_reflns_theta_full        25.242
_diffrn_reflns_theta_max         29.999
_diffrn_reflns_theta_min         3.004
_diffrn_source                   'micro-focus sealed tube'
_diffrn_source_type              'Incoatech I\mS HB'
_exptl_absorpt_coefficient_mu    0.102
_exptl_absorpt_correction_T_max  0.992
_exptl_absorpt_correction_T_min  0.982
_exptl_absorpt_correction_type   multi-scan
_exptl_absorpt_process_details   'SADABS (BRUKER, 2016)'
_exptl_crystal_colour            COLOURLESS
_exptl_crystal_density_diffrn    1.382
_exptl_crystal_description       NEEDLE
_exptl_crystal_F_000             316
_exptl_crystal_size_max          0.180
_exptl_crystal_size_mid          0.110
_exptl_crystal_size_min          0.080
_refine_diff_density_max         0.435
_refine_diff_density_min         -0.188
_refine_diff_density_rms         0.041
_refine_ls_extinction_method     none
_refine_ls_goodness_of_fit_ref   1.052
_refine_ls_hydrogen_treatment    constr
_refine_ls_matrix_type           full
_refine_ls_number_parameters     202
_refine_ls_number_reflns         4148
_refine_ls_number_restraints     0
_refine_ls_restrained_S_all      1.052
_refine_ls_R_factor_all          0.0406
_refine_ls_R_factor_gt           0.0364
_refine_ls_shift/su_max          0.000
_refine_ls_shift/su_mean         0.000
_refine_ls_structure_factor_coef Fsqd
_refine_ls_weighting_details
'w=1/[\s^2^(Fo^2^)+(0.0448P)^2^+0.2567P] where P=(Fo^2^+2Fc^2^)/3'
_refine_ls_weighting_scheme      calc
_refine_ls_wR_factor_gt          0.0948
_refine_ls_wR_factor_ref         0.0981
_reflns_Friedel_coverage         0.000
_reflns_number_gt                3737
_reflns_number_total             4148
_reflns_threshold_expression     'I > 2\s(I)'
_cod_data_source_file            jo8b03267_si_002.cif
_cod_data_source_block           mo_KS_E_59B_0m
_cod_depositor_comments
;
The following automatic conversions were performed:

data item '_exptl_absorpt_correction_type' value 'MULTI-SCAN' was
changed to 'multi-scan' in accordance with the
/home/data/users/saulius/crontab/automatic-downloads/current/ACS/lib/dictionaries/cif_core.dic
dictionary named 'cif_core.dic' version 2.4.2 last updated on
2011-04-26.

Automatic conversion script
Id: cif_fix_values 6909 2019-04-08 15:41:33Z antanas 
;
_cod_database_code               4034341
_shelx_shelxl_version_number     2014/7
_shelx_space_group_comment
;
The symmetry employed for this shelxl refinement is uniquely defined
by the following loop, which should always be used as a source of
symmetry information in preference to the above space-group names.
They are only intended as comments.
;
_shelx_estimated_absorpt_t_min   0.982
_shelx_estimated_absorpt_t_max   0.992
_shelx_res_file
;

    mo_KS_E_59B_0m.res created by SHELXL-2014/7

TITL mo_KS_E_59B_0m_a.res in P-1
CELL 0.71073 7.3739 9.7254 11.2920 108.782 103.782 98.661
ZERR 2.00 0.0003 0.0003 0.0004 0.001 0.001 0.001
LATT 1
SFAC C  H  O
UNIT 34  32  10
OMIT 7 0 0
OMIT 1 1 0
OMIT -3 60
L.S. 30
ACTA
BOND $H
FMAP 2
PLAN 2
CONF
SIZE 0.18 0.11 0.08
TEMP -173.000
WGHT    0.044800    0.256700
FVAR       1.97595
O1    3    0.349470    0.430507    0.812960    11.00000    0.01906    0.01249 =
         0.01263    0.00335    0.00563    0.00452
O2    3    0.638929    0.189436    0.540679    11.00000    0.02761    0.03263 =
         0.01895    0.00474    0.01217    0.00990
O3    3    0.689681    0.316291    0.754550    11.00000    0.01523    0.03314 =
         0.01552    0.00397    0.00476    0.00458
O4    3    0.189427    0.070473    0.204573    11.00000    0.03295    0.02284 =
         0.01735   -0.00069    0.00583    0.00895
O5    3    0.226648    0.307963    0.213027    11.00000    0.02433    0.02658 =
         0.01311    0.00550    0.00609    0.00597
C1    1    0.363300    0.217717    0.621561    11.00000    0.01731    0.01139 =
         0.01396    0.00335    0.00485    0.00345
C2    1    0.239645    0.154647    0.476580    11.00000    0.02225    0.01301 =
         0.01520    0.00187    0.00234    0.00261
AFIX  23
H2A   2    0.283267    0.068123    0.428091    11.00000   -1.20000
H2B   2    0.104128    0.117309    0.470955    11.00000   -1.20000
AFIX   0
C3    1    0.247201    0.266754    0.410030    11.00000    0.01665    0.01687 =
         0.01275    0.00291    0.00321    0.00435
C4    1    0.265727    0.413256    0.477278    11.00000    0.01650    0.01602 =
         0.01342    0.00482    0.00440    0.00441
AFIX  43
H4    2    0.263855    0.482730    0.434331    11.00000   -1.20000
AFIX   0
C5    1    0.288649    0.462144    0.617261    11.00000    0.01522    0.01227 =
         0.01303    0.00304    0.00446    0.00304
C6    1    0.328767    0.368626    0.681609    11.00000    0.01435    0.01290 =
         0.01248    0.00261    0.00426    0.00254
C7    1    0.320138    0.572537    0.833158    11.00000    0.01488    0.01213 =
         0.01526    0.00384    0.00566    0.00317
C8    1    0.284119    0.599243    0.716164    11.00000    0.01474    0.01260 =
         0.01389    0.00320    0.00518    0.00280
C9    1    0.254400    0.739043    0.719372    11.00000    0.02029    0.01467 =
         0.01842    0.00636    0.00782    0.00509
AFIX  43
H9    2    0.230239    0.761641    0.642106    11.00000   -1.20000
AFIX   0
C10   1    0.261325    0.843797    0.839100    11.00000    0.02224    0.01285 =
         0.02220    0.00412    0.00945    0.00533
AFIX  43
H10   2    0.242369    0.939485    0.843144    11.00000   -1.20000
AFIX   0
C11   1    0.295526    0.812240    0.954200    11.00000    0.01929    0.01567 =
         0.01815    0.00137    0.00882    0.00379
AFIX  43
H11   2    0.298359    0.886471    1.034087    11.00000   -1.20000
AFIX   0
C12   1    0.325327    0.674067    0.953163    11.00000    0.01730    0.01687 =
         0.01472    0.00344    0.00695    0.00316
AFIX  43
H12   2    0.347858    0.650815    1.030097    11.00000   -1.20000
AFIX   0
C13   1    0.314078    0.111817    0.691446    11.00000    0.02372    0.01341 =
         0.01990    0.00646    0.00841    0.00258
AFIX 137
H13A  2    0.392283    0.156377    0.784106    11.00000   -1.50000
H13B  2    0.341401    0.015392    0.649560    11.00000   -1.50000
H13C  2    0.177167    0.096161    0.685230    11.00000   -1.50000
AFIX   0
C14   1    0.577433    0.237963    0.630966    11.00000    0.01995    0.01303 =
         0.01504    0.00621    0.00634    0.00581
C15   1    0.894384    0.336388    0.775806    11.00000    0.01524    0.04799 =
         0.02498    0.01170    0.00604    0.00676
AFIX 137
H15A  2    0.925617    0.238652    0.756399    11.00000   -1.50000
H15B  2    0.963841    0.400617    0.867582    11.00000   -1.50000
H15C  2    0.932706    0.383543    0.717870    11.00000   -1.50000
AFIX   0
C16   1    0.218483    0.203431    0.266908    11.00000    0.01639    0.02221 =
         0.01431    0.00309    0.00385    0.00592
C17   1    0.204324    0.250352    0.074070    11.00000    0.02370    0.04001 =
         0.01358    0.00666    0.00694    0.00576
AFIX 137
H17A  2    0.303442    0.196261    0.058234    11.00000   -1.50000
H17B  2    0.217939    0.333752    0.043429    11.00000   -1.50000
H17C  2    0.076446    0.181955    0.026264    11.00000   -1.50000
AFIX   0
HKLF 4 1 1 0 0 0 1 0 0 0 1

REM  mo_KS_E_59B_0m_a.res in P-1
REM R1 =  0.0364 for    3737 Fo > 4sig(Fo)  and  0.0406 for all    4148 data
REM    202 parameters refined using      0 restraints

END

WGHT      0.0448      0.2568

REM Highest difference peak  0.435,  deepest hole -0.188,  1-sigma level  0.041
Q1    1   0.3226  0.6223  0.8936  11.00000  0.05    0.43
Q2    1   0.2306  0.2411  0.3423  11.00000  0.05    0.43
;
_shelx_res_checksum              81628
_shelx_hkl_file
;
  -4   0   0  979.30   24.50
  -4   0   0  909.91   23.80
   4   0   0  946.21   23.90
   4   0   0  926.61   24.20
   4   0   0  898.71   23.80
  -5   0   0  771.52   20.80
  -5   0   0  814.82   21.60
   5   0   0  769.42   20.70
  -7   0   0  183.78    8.20
  -7   0   0  205.18    7.70
   7   0   0  195.88    7.50
  -8   0   0   59.39    5.20
  -8   0   0   50.19    5.50
   8   0   0   55.69    4.80
   8   0   0   61.79    5.00
  -9   0   0  218.38   10.40
  -9   0   0  242.18    9.80
   9   0   0  233.58    9.50
   9   0   0  230.58    9.50
 -10   0   0   15.00    3.80
 -10   0   0   14.80    4.20
  10   0   0    5.60    3.70
  10   0   0   13.00    4.00
  11   0   0   13.10    4.50
  11  -1   0    3.70    3.70
  11  -1   0    1.00    3.70
 -11   1   0    7.80    4.00
 -11   1   0    9.30    3.70
  10  -1   0   -2.60    3.10
  10  -1   0    3.10    3.10
 -10   1   0    8.40    3.70
 -10   1   0    1.10    3.40
   9  -1   0   52.09    5.30
  -9   1   0   54.79    5.60
  -9   1   0   61.89    6.00
   8  -1   0  259.37    9.50
  -8   1   0  245.08   10.10
  -8   1   0  260.87    9.70
   7  -1   0  118.59    5.60
  -7   1   0  112.69    5.70
  -7   1   0  107.39    6.00
   6  -1   0 1171.98   30.40
  -6   1   0 1167.28   31.10
   5  -1   0 2190.08   54.69
  -5   1   0 2191.08   55.19
   4  -1   0 2595.24   64.79
   4  -1   0 2572.34   66.79
   4  -1   0 2645.44   64.79
  -4   1   0 2792.02   65.19
  -4   1   0 2620.14   64.79
  -4   1   0 2528.75   64.69
  -1  -1   0    7.60    0.90
  -1  -1   0    6.70    0.80
  -1  -1   0    6.60    0.70
   1   1   0   10.10    1.00
   1   1   0    6.80    0.90
   1   1   0    6.90    0.80
   1   1   0    7.50    0.80
  -2  -1   0  724.93   18.80
  -2  -1   0  756.22   18.80
  -2  -1   0  782.02   19.20
   2   1   0  715.83   18.80
   2   1   0  760.92   19.10
   2   1   0  781.22   18.90
   2   1   0  716.23   18.80
  -3  -1   0  131.79    4.30
  -3  -1   0  138.59    4.50
  -3  -1   0  142.39    5.00
   3   1   0  141.79    4.50
   3   1   0  134.69    4.40
   3   1   0  137.59    4.80
   3   1   0  136.19    4.40
  -4  -1   0 2297.37   57.69
  -4  -1   0 2416.66   58.49
  -4  -1   0 2242.08   57.59
   4   1   0 2279.87   57.69
   4   1   0 2402.86   57.79
   5   1   0  628.44   17.20
   5   1   0  645.34   17.30
  -6  -1   0 1787.82   47.90
  -6  -1   0 1853.01   47.00
   6   1   0 1858.21   47.00
   6   1   0 1879.31   46.90
  -7  -1   0    7.10    3.30
  -7  -1   0   13.10    2.80
   7   1   0   14.10    3.00
   7   1   0    8.50    3.00
  -8  -1   0  409.36   20.20
  -8  -1   0  484.45   16.60
   8   1   0  460.95   14.40
   8   1   0  459.95   14.70
  -9  -1   0  169.18    9.50
  -9  -1   0  183.38    8.60
   9   1   0  196.28    8.60
   9   1   0  180.28    8.60
  10   1   0   17.60    4.40
  10   1   0   11.40    3.60
  11  -2   0  186.68    9.10
  11  -2   0  173.48    9.10
 -11   2   0  196.38    9.50
  10  -2   0  112.19    7.10
 -10   2   0  115.99    7.40
 -10   2   0  110.09    7.40
   9  -2   0  819.22   23.20
  -9   2   0  815.32   23.50
  -9   2   0  778.32   24.60
   8  -2   0  207.38    8.10
  -8   2   0  201.78    8.20
  -8   2   0  195.18    8.60
   7  -2   0  804.22   22.00
  -7   2   0  790.72   22.50
  -7   2   0  803.22   22.00
   6  -2   0  190.28    6.70
  -6   2   0  183.78    7.00
   5  -2   0  626.54   16.60
   5  -2   0  601.04   16.60
   5  -2   0  589.64   16.30
  -5   2   0  632.64   16.80
  -5   2   0  626.44   16.70
   4  -2   0   68.69    3.00
   4  -2   0   63.99    2.80
   4  -2   0   63.79    2.80
   4  -2   0   69.89    2.90
  -4   2   0   62.59    2.80
  -4   2   0   67.89    3.10
  -4   2   0   71.79    3.10
   3  -2   0   39.40    2.00
   3  -2   0   37.70    2.00
   3  -2   0   38.20    2.00
   3  -2   0   40.40    1.90
  -3   2   0   40.90    1.90
  -3   2   0   42.50    2.00
  -3   2   0   38.40    2.10
   1  -2   0 1970.90   49.00
   1  -2   0 1951.80   49.00
   1  -2   0 2017.40   49.30
  -1   2   0 2143.79   49.20
  -1   2   0 1984.20   49.00
  -1   2   0 2007.70   49.40
  -1  -2   0   25.60    1.50
  -1  -2   0   24.30    1.30
  -1  -2   0   26.20    1.30
   1   2   0   27.70    1.60
   1   2   0   25.70    1.30
   1   2   0   25.20    1.60
   1   2   0   26.00    1.30
  -2  -2   0  253.37    7.30
  -2  -2   0  278.17    7.50
  -2  -2   0  264.87    7.30
  -2  -2   0  287.17    7.90
   2   2   0  256.77    7.30
   2   2   0  272.27    7.70
   2   2   0  254.27    7.50
  -3  -2   0   51.59    2.40
  -3  -2   0   51.09    2.50
   3   2   0   51.39    2.40
   3   2   0   48.60    2.40
   3   2   0   48.40    2.60
   3   2   0   55.69    2.80
  -4  -2   0  355.36   10.30
  -4  -2   0  351.06   10.10
  -4  -2   0  379.26   11.20
   4   2   0  366.26   10.50
   4   2   0  351.76   10.20
  -5  -2   0   64.99    4.40
  -5  -2   0   60.59    3.70
   5   2   0   61.39    3.50
   5   2   0   67.59    3.80
  -6  -2   0  682.93   20.50
  -6  -2   0  708.23   19.50
   6   2   0  711.83   19.60
   6   2   0  701.23   19.40
  -7  -2   0    1.40    2.50
  -7  -2   0    0.70    3.00
   7   2   0    2.30    2.40
   7   2   0   -0.50    2.50
  -8  -2   0   18.10    3.80
  -8  -2   0   21.30    4.60
   8   2   0   17.10    3.90
   8   2   0   25.50    4.00
  -9  -2   0   13.30    4.20
  -9  -2   0    7.90    3.40
   9   2   0    2.80    3.00
   9   2   0    3.20    3.10
 -10  -2   0   20.70    5.20
 -10  -2   0   23.00    4.60
  10   2   0   27.10    4.90
  10   2   0   25.10    4.20
  11  -3   0  196.28    9.50
 -11   3   0  199.88    9.40
  10  -3   0   21.20    4.60
 -10   3   0   20.20    4.60
 -10   3   0   21.20    4.40
   9  -3   0  114.89    6.60
  -9   3   0  111.19    7.20
  -9   3   0  109.69    6.60
   8  -3   0    7.90    3.00
  -8   3   0    6.30    3.00
  -8   3   0    8.40    3.10
   7  -3   0   50.59    4.00
  -7   3   0   48.70    4.20
   6  -3   0   19.70    2.60
  -6   3   0   27.90    3.30
  -6   3   0   27.20    3.00
   5  -3   0  675.53   17.80
   5  -3   0  650.53   17.70
   5  -3   0  627.24   17.60
  -5   3   0  681.13   17.90
  -5   3   0  690.93   17.90
   4  -3   0  111.69    4.10
   4  -3   0  117.49    3.90
   4  -3   0  115.09    4.10
   4  -3   0  114.19    4.50
  -4   3   0  117.59    4.20
  -4   3   0  105.29    4.90
  -4   3   0  118.89    4.00
   3  -3   0   34.60    2.00
   3  -3   0   35.30    1.90
   3  -3   0   32.50    1.90
  -3   3   0   32.30    1.80
  -3   3   0   39.60    2.00
  -3   3   0   34.40    2.10
   2  -3   0 1029.40   26.00
   2  -3   0 1038.20   25.70
   2  -3   0 1048.40   26.20
  -2   3   0 1032.60   25.70
  -2   3   0 1046.80   25.70
  -2   3   0 1020.50   26.10
   1  -3   0 5764.12  140.39
   0  -3   0  336.17    8.30
   0  -3   0  313.07    8.20
   0  -3   0  307.07    8.20
   0  -3   0  318.07    8.70
   0   3   0  323.87    8.30
   0   3   0  314.07    8.70
   0   3   0  310.37    8.20
  -1  -3   0  289.67    7.70
  -1  -3   0  270.97    7.30
  -1  -3   0  273.07    7.60
   1   3   0  252.07    7.10
   1   3   0  266.97    7.30
   1   3   0  261.37    7.70
   1   3   0  269.77    7.50
  -2  -3   0 1515.45   37.90
  -2  -3   0 1564.84   38.50
  -2  -3   0 1552.04   38.20
  -2  -3   0 1501.15   37.80
   2   3   0 1545.95   38.40
   2   3   0 1498.35   38.30
   2   3   0 1504.05   38.20
  -3  -3   0  430.36   11.90
  -3  -3   0  443.96   11.80
  -3  -3   0  455.05   12.70
   3   3   0  428.36   11.90
   3   3   0  429.96   12.20
  -4  -3   0  255.57    9.50
  -4  -3   0  235.88    7.40
   4   3   0  234.28    7.80
   4   3   0  233.58    7.40
  -5  -3   0    0.70    1.80
  -5  -3   0    0.20    2.20
   5   3   0   -0.60    1.90
   5   3   0    4.40    2.00
  -6  -3   0  279.17   10.70
  -6  -3   0  301.67    9.90
   6   3   0  297.07    9.70
   6   3   0  294.97   10.10
  -7  -3   0   44.70    4.80
  -7  -3   0   44.90    5.70
   7   3   0   41.70    4.40
   7   3   0   36.70    4.30
  -8  -3   0  213.38    8.90
  -8  -3   0  200.18   10.00
   8   3   0  206.58    9.10
   8   3   0  216.58    8.90
  -9  -3   0  132.49    7.50
  -9  -3   0  121.19    8.40
   9   3   0  126.99    7.20
   9   3   0  128.59    7.40
  10   3   0   17.50    3.90
  10   3   0   23.30    4.80
  11  -4   0    0.80    3.50
 -11   4   0   12.20    4.20
  10  -4   0   31.30    4.80
 -10   4   0   23.10    4.50
 -10   4   0   25.20    4.40
   9  -4   0   43.80    4.80
  -9   4   0   38.60    4.60
  -9   4   0   44.20    5.00
   8  -4   0  229.38    8.70
  -8   4   0  232.08    8.90
   7  -4   0    5.40    2.60
  -7   4   0    6.30    2.40
  -7   4   0    4.70    2.80
   6  -4   0   99.69    4.70
  -6   4   0  103.29    4.70
  -6   4   0  108.69    5.00
   5  -4   0 1734.73   44.00
   5  -4   0 1657.13   43.20
  -5   4   0 1765.42   43.30
   4  -4   0  364.16   10.60
   4  -4   0  373.06   10.30
   4  -4   0  368.06   10.20
  -4   4   0  364.36   10.20
  -4   4   0  376.46   10.60
   3  -4   0 1916.81   47.30
   3  -4   0 1920.21   47.80
   3  -4   0 1982.00   47.30
  -3   4   0 1929.01   47.50
  -3   4   0 1909.91   47.80
  -3   4   0 1820.42   47.20
   2  -4   0  993.20   24.60
   2  -4   0  985.20   25.20
  -2   4   0 1009.80   24.50
  -2   4   0  988.30   25.20
  -2   4   0  937.61   24.50
   1  -4   0    0.10    0.70
   1  -4   0    0.20    0.60
   1  -4   0    0.30    0.60
   1  -4   0   -0.10    0.90
  -1   4   0   -0.40    0.60
  -1   4   0    0.40    1.00
  -1   4   0   -0.50    0.60
   0  -4   0  273.37    7.40
   0  -4   0  268.27    7.70
   0  -4   0  267.07    7.20
   0  -4   0  268.87    7.20
   0  -4   0  268.77    7.80
   0   4   0  258.37    7.10
   0   4   0  271.87    8.00
   0   4   0  256.47    7.10
   0   4   0  269.97    7.30
  -1  -4   0   19.00    2.20
  -1  -4   0   17.50    1.80
  -1  -4   0   18.10    1.40
  -1  -4   0   17.90    1.40
   1   4   0   16.90    1.40
   1   4   0   16.90    1.30
   1   4   0   17.90    1.70
  -2  -4   0   11.30    1.40
  -2  -4   0   13.00    1.70
  -2  -4   0   13.90    1.60
  -2  -4   0   12.00    1.90
   2   4   0   11.20    2.00
   2   4   0   10.70    1.40
   2   4   0   12.10    1.70
  -3  -4   0  198.58    7.00
  -3  -4   0  191.88    6.00
  -3  -4   0  179.18    6.10
   3   4   0  188.48    6.60
   3   4   0  191.48    6.10
  -4  -4   0  572.44   16.80
  -4  -4   0  578.94   15.90
   4   4   0  583.44   15.80
   4   4   0  563.44   16.30
  -5  -4   0  380.46   11.70
  -5  -4   0  378.56   12.70
   5   4   0  382.46   12.10
   5   4   0  378.06   11.50
  -6  -4   0  238.18    8.70
  -6  -4   0  231.28    9.80
   6   4   0  243.58    9.10
   6   4   0  239.08    8.60
  -7  -4   0   64.79    5.00
  -7  -4   0   66.39    6.00
   7   4   0   65.39    4.90
  -8  -4   0    3.60    3.00
  -8  -4   0   -0.10    3.40
   8   4   0    1.50    3.20
   8   4   0    5.40    2.90
  -9  -4   0    9.70    3.50
  -9  -4   0    4.70    3.70
   9   4   0   12.00    3.80
   9   4   0    6.10    3.20
  10   4   0   13.70    5.90
 -11   5   0  308.57   12.50
 -11   5   0  272.87   11.50
  10  -5   0  298.07   11.70
 -10   5   0  303.57   11.80
 -10   5   0  326.57   11.50
   9  -5   0   20.00    4.00
  -9   5   0   19.50    3.80
  -9   5   0   21.50    3.80
  -8   5   0   27.70    3.70
   7  -5   0    1.00    2.30
  -7   5   0    6.90    2.20
  -7   5   0    2.10    2.60
   6  -5   0    8.10    2.30
  -6   5   0   16.80    2.60
   5  -5   0  200.28    6.60
  -5   5   0  195.18    6.60
  -5   5   0  193.18    6.90
   4  -5   0   10.40    1.60
   4  -5   0   10.00    1.70
  -4   5   0   10.00    1.80
  -4   5   0    9.10    1.70
   3  -5   0  521.85   13.70
   3  -5   0  525.85   13.60
  -3   5   0  521.85   13.60
  -3   5   0  489.55   13.60
  -3   5   0  526.25   14.40
   2  -5   0    0.80    1.10
   2  -5   0   -0.30    0.80
  -2   5   0    1.00    0.90
  -2   5   0    0.70    1.10
  -2   5   0    0.80    0.70
   1  -5   0  261.77    7.20
   1  -5   0  264.17    7.20
   1  -5   0  264.17    7.20
  -1   5   0  268.47    8.10
  -1   5   0  247.88    7.00
  -1   5   0  254.17    7.00
   0  -5   0  477.75   13.50
   0  -5   0  491.05   12.80
   0  -5   0  503.55   12.70
   0  -5   0  489.05   13.00
   0  -5   0  517.65   12.90
   0   5   0  458.45   12.80
   0   5   0  485.75   12.80
   0   5   0  493.85   13.70
   0   5   0  480.65   12.70
  -1  -5   0 4132.29   99.39
  -1  -5   0 4155.68   99.59
  -1  -5   0 4266.67   99.99
   1   5   0 3722.13   99.29
   1   5   0 4020.90   99.49
   1   5   0 4020.60   99.79
   1   5   0 4170.78  100.39
  -2  -5   0   16.30    1.90
  -2  -5   0   20.90    2.60
  -2  -5   0   16.90    1.70
   2   5   0   15.40    1.90
   2   5   0   20.40    2.60
  -3  -5   0 1098.49   28.00
  -3  -5   0 1073.49   28.10
   3   5   0 1097.89   28.90
   3   5   0 1100.69   28.10
  -4  -5   0  367.36   11.00
  -4  -5   0  362.86   12.00
   4   5   0  354.56   11.50
   4   5   0  364.36   10.90
  -5  -5   0   78.19    4.60
  -5  -5   0   71.79    5.40
   5   5   0   71.59    5.00
   5   5   0   71.59    4.40
  -6  -5   0    2.50    2.70
  -6  -5   0    0.80    2.90
   6   5   0   -2.10    2.40
   6   5   0    1.30    2.30
  -7  -5   0    2.00    2.80
  -7  -5   0    4.10    3.50
   7   5   0   -0.40    3.00
   7   5   0    5.40    2.80
  -8  -5   0   49.00    6.30
  -8  -5   0   48.60    5.30
   8   5   0   50.79    5.20
   8   5   0   46.90    5.50
  -9  -5   0   38.40    7.20
   9   5   0   38.10    6.00
   9   5   0   35.00    5.30
 -11   6   0   57.99    6.20
  10  -6   0   76.29    6.30
 -10   6   0   77.29    6.30
   9  -6   0   39.30    4.80
   8  -6   0   35.70    4.20
  -8   6   0   36.40    4.50
   7  -6   0   39.30    4.00
  -7   6   0   44.50    4.80
   6  -6   0   91.99    4.70
  -6   6   0   89.49    4.70
   5  -6   0  739.63   19.70
  -5   6   0  734.23   19.70
  -5   6   0  751.62   20.40
   4  -6   0  112.99    4.40
  -4   6   0  124.09    4.40
  -4   6   0  114.39    5.20
   3  -6   0  160.08    5.10
   3  -6   0  153.68    5.10
  -3   6   0  158.98    5.00
  -3   6   0  156.88    6.00
   2  -6   0  282.17    7.90
   2  -6   0  296.67    8.30
  -2   6   0  287.57    9.00
  -2   6   0  256.27    7.70
  -2   6   0  289.57    7.80
   1  -6   0   62.49    2.60
   1  -6   0   66.59    2.60
   1  -6   0   60.39    2.70
  -1   6   0   62.09    3.60
  -1   6   0   63.49    2.50
  -1   6   0   59.09    2.40
   0  -6   0  389.56   10.20
   0  -6   0  382.56   10.30
   0  -6   0  350.86   10.80
   0   6   0  359.46   10.00
   0   6   0  371.86   11.20
  -1  -6   0  322.47    9.10
  -1  -6   0  330.27    9.60
  -1  -6   0  316.57    8.90
   1   6   0  301.57    9.20
   1   6   0  313.37    8.90
   1   6   0  315.57   10.00
  -2  -6   0    0.60    1.70
  -2  -6   0    0.40    1.10
   2   6   0    1.60    1.40
   2   6   0    2.30    1.80
  -3  -6   0   -1.90    2.00
  -3  -6   0   -3.10    1.40
   3   6   0   -1.20    1.40
   3   6   0    0.50    2.20
  -4  -6   0   -1.40    2.40
  -4  -6   0    4.20    1.60
  -4  -6   0   -0.70    1.90
   4   6   0   -1.10    2.40
   4   6   0   -0.30    1.80
  -5  -6   0    0.90    2.20
  -5  -6   0   -0.10    3.00
   5   6   0    0.20    2.30
   5   6   0    1.40    2.80
  -6  -6   0   40.40    4.50
  -6  -6   0   35.90    5.20
   6   6   0   38.80    4.00
   6   6   0   35.50    4.70
  -7  -6   0   50.69    6.20
  -7  -6   0   62.49    5.30
   7   6   0   59.69    4.70
   7   6   0   49.10    5.50
  -8  -6   0   55.99    6.90
  -8  -6   0   60.59    5.50
   8   6   0   69.09    6.10
   8   6   0   52.39    5.10
  10  -7   0  125.69    9.00
 -10   7   0  152.18    7.60
   9  -7   0   -4.40    3.00
   8  -7   0  404.16   12.90
  -8   7   0  390.16   12.80
   7  -7   0   47.40    4.10
  -7   7   0   40.80    4.20
   6  -7   0   60.09    4.10
  -6   7   0   55.89    4.10
  -6   7   0   54.49    4.70
   5  -7   0   80.29    4.10
  -5   7   0   80.99    4.90
  -5   7   0   79.89    3.90
   4  -7   0    0.60    1.70
   4  -7   0    2.00    1.50
  -4   7   0    2.10    1.50
  -4   7   0    1.40    2.00
   3  -7   0  174.68    5.50
   3  -7   0  161.48    5.30
  -3   7   0  138.69    7.80
  -3   7   0  168.88    5.20
   2  -7   0   41.90    2.30
   2  -7   0   39.90    2.40
  -2   7   0   41.60    2.20
  -2   7   0   46.40    4.90
   1  -7   0  399.66    9.70
   1  -7   0  289.27    9.80
   0  -7   0  122.99    4.20
   0  -7   0  107.39    4.00
   0   7   0  112.19    5.50
   0   7   0  107.09    3.90
  -1  -7   0  127.49    5.20
  -1  -7   0  128.39    4.50
  -1  -7   0  133.29    5.20
   1   7   0  125.69    4.60
   1   7   0  131.19    5.90
  -2  -7   0  940.91   24.70
  -2  -7   0  969.40   25.10
   2   7   0  936.81   25.00
   2   7   0  985.20   26.20
  -3  -7   0  145.99    6.70
  -3  -7   0  132.49    5.30
  -3  -7   0  150.38    5.80
   3   7   0  144.69    6.70
   3   7   0  140.39    5.50
  -4  -7   0 1416.66   39.10
  -4  -7   0 1504.35   38.00
   4   7   0 1490.05   38.80
   4   7   0 1422.96   37.60
   4   7   0 1458.85   39.00
  -5  -7   0  724.43   20.00
   5   7   0  668.43   19.40
   5   7   0  680.33   20.50
  -6  -7   0  153.68    8.60
  -6  -7   0  155.08    7.40
   6   7   0  147.79    8.00
   6   7   0  149.09    6.90
   6   7   0  155.78    7.60
  -7  -7   0  204.28   10.50
  -7  -7   0  206.08    9.00
   7   7   0  189.98    8.80
   7   7   0  211.98    8.40
   7   7   0  179.08    9.60
   8   7   0    4.50    3.90
  10  -8   0   10.60    3.90
   9  -8   0   -7.10    2.90
   8  -8   0    4.20    2.80
  -8   8   0    8.10    3.20
  -7   8   0    4.70    2.80
   6  -8   0  197.78    7.40
  -6   8   0  209.18    8.50
  -6   8   0  205.78    7.40
   5  -8   0   81.19    4.30
   5  -8   0   76.69    3.90
  -5   8   0   78.39    4.00
  -5   8   0   88.29    5.40
   4  -8   0    0.50    1.80
   4  -8   0    0.10    1.40
  -4   8   0    0.70    2.10
  -4   8   0    0.90    2.80
   3  -8   0   16.20    2.00
   3  -8   0   19.70    2.30
  -3   8   0   12.20    2.70
  -3   8   0   15.00    2.00
   2  -8   0  754.52   19.00
   2  -8   0  694.43   19.00
  -2   8   0  723.13   18.80
  -2   8   0  744.23   20.80
   1  -8   0   23.70    2.60
   1  -8   0   26.30    2.40
  -1   8   0   25.10    3.70
   0  -8   0  757.12   19.60
   0  -8   0  724.53   19.30
   0   8   0  723.93   19.20
   0   8   0  768.62   21.20
  -1  -8   0  182.28    6.90
  -1  -8   0  182.38    6.00
  -1  -8   0  188.08    6.40
   1   8   0  175.68    6.00
   1   8   0  190.68    7.70
  -2  -8   0   72.09    4.70
  -2  -8   0   65.39    3.90
  -2  -8   0   63.49    3.50
   2   8   0   66.99    3.70
   2   8   0   70.19    5.20
  -3  -8   0  368.26   12.60
  -3  -8   0  372.96   11.50
   3   8   0  368.46   11.20
   3   8   0  378.56   12.90
  -4  -8   0  204.68   10.80
  -4  -8   0  198.18    8.90
   4   8   0  197.68    8.80
   4   8   0  179.48    7.20
  -5  -8   0    0.30    3.40
  -5  -8   0    0.60    2.40
   5   8   0    8.00    2.50
   5   8   0    2.40    3.00
  -6  -8   0  190.48    8.40
  -6  -8   0  187.68    9.80
   6   8   0  184.78    9.30
   6   8   0  178.78    9.00
  -7  -8   0  132.09    7.20
  -7  -8   0  110.69    8.50
   7   8   0  109.99    7.50
   7   8   0  107.59    7.50
   9  -9   0    0.80    3.10
   8  -9   0   67.49    5.30
  -8   9   0   79.29    5.40
   7  -9   0  110.09    5.70
  -7   9   0  111.49    5.60
   6  -9   0    6.00    2.50
  -6   9   0    6.00    1.90
  -6   9   0    4.70    2.80
   5  -9   0  352.96   11.50
   5  -9   0  419.26   11.80
  -5   9   0  393.66   11.40
  -5   9   0  412.76   13.30
   4  -9   0    7.50    1.90
   4  -9   0    5.00    2.00
  -4   9   0    4.20    1.70
  -4   9   0    5.00    2.60
   3  -9   0  196.38    6.70
   3  -9   0  220.68    6.90
  -3   9   0  220.78    8.80
  -3   9   0  207.68    6.50
   2  -9   0   26.80    2.20
   2  -9   0   24.10    2.60
  -2   9   0   27.10    3.70
   1  -9   0   49.99    2.70
   1  -9   0   41.70    3.00
  -1   9   0   32.50    4.50
   0  -9   0   67.19    3.50
   0  -9   0   57.79    3.10
   0   9   0   60.89    5.20
  -1  -9   0  262.07    8.20
  -1  -9   0  231.98    7.60
   1   9   0  254.17    9.90
   1   9   0  256.37    7.70
  -2  -9   0  448.06   12.80
  -2  -9   0  440.56   13.70
   2   9   0  404.46   14.30
  -3  -9   0  312.07   11.40
  -3  -9   0  311.77   10.20
   3   9   0  310.27   11.80
   3   9   0  317.37    9.80
  -4  -9   0 1477.15   40.70
  -4  -9   0 1544.45   39.30
   4   9   0 1457.15   41.20
  -5  -9   0   18.70    4.30
  -5  -9   0   19.60    3.50
   5   9   0   11.80    3.90
  -6  -9   0  500.05   16.30
   6   9   0  485.45   16.70
   7   9   0  169.28   10.60
   9 -10   0  149.88    7.40
   8 -10   0   22.80    3.70
   7 -10   0  202.18    7.90
  -7  10   0  203.58    7.80
  -7  10   0  216.58    9.50
   6 -10   0  376.46   11.70
  -6  10   0  392.36   16.20
   5 -10   0   20.60    2.90
  -5  10   0   18.30    2.40
  -5  10   0   15.60    3.50
   4 -10   0   15.50    2.60
  -4  10   0   14.60    2.00
  -4  10   0   13.00    3.30
   3 -10   0   88.79    4.10
   3 -10   0   81.69    3.80
  -3  10   0   80.99    6.00
   2 -10   0   26.80    2.90
   2 -10   0   25.00    2.20
  -2  10   0   29.00    4.20
   1 -10   0   30.70    2.60
   1 -10   0   33.50    3.10
  -1  10   0   36.30    5.00
   0 -10   0   14.00    2.30
   0 -10   0    8.90    1.80
   0  10   0    6.80    3.10
  -1 -10   0    7.50    2.50
  -1 -10   0    1.50    1.90
   1  10   0    3.20    2.90
  -2 -10   0    4.30    2.20
  -2 -10   0    7.20    2.80
   2  10   0    5.40    3.30
  -3 -10   0   31.50    3.60
  -3 -10   0   32.50    4.50
   3  10   0   30.60    4.80
  -4 -10   0    7.00    2.40
  -4 -10   0    0.60    3.20
   4  10   0    0.20    3.20
  -5 -10   0   12.70    4.60
  -5 -10   0   23.80    4.40
   5  10   0   10.80    3.70
  -6 -10   0    5.20    3.70
   9 -11   0   28.20    4.90
   8 -11   0    2.30    2.70
   7 -11   0    6.00    2.60
  -7  11   0    0.70    3.50
   6 -11   0   25.50    3.30
  -6  11   0   30.60    4.60
   5 -11   0    1.40    2.20
  -5  11   0    1.70    2.70
   4 -11   0   99.99    4.80
  -4  11   0  105.79    7.00
  -3  11   0    0.60    3.00
  -2  11   0   79.89    6.50
  -1  11   0  127.19    7.60
   0 -11   0   37.60    3.20
   0  11   0   32.40    4.70
  -1 -11   0   24.70    3.50
   1  11   0   18.90    4.20
  -2 -11   0   44.00    4.50
  -2 -11   0   43.60    3.60
   2  11   0   34.40    5.10
  -3 -11   0    6.50    3.10
  -3 -11   0    3.00    2.40
   3  11   0    5.40    3.40
  -4 -11   0   14.00    3.20
  -4 -11   0   24.60    4.20
   4  11   0   17.90    4.20
  -5 -11   0    7.90    3.30
  -5 -11   0   11.40    3.80
   5  11   0    1.90    3.30
   8 -12   0   21.30    3.80
   7 -12   0   53.99    4.60
  -7  12   0   58.99    6.60
   6 -12   0  234.58    8.40
  -6  12   0  238.58   11.00
   5 -12   0    1.70    2.20
  -5  12   0    3.40    3.40
   4 -12   0  187.08    6.90
  -4  12   0  208.08    9.80
  -3  12   0    4.30    3.30
  -2  12   0  281.47   11.80
  -1  12   0    2.20    3.20
   0  12   0  145.99    8.60
   1  12   0    1.60    3.30
  -2 -12   0    2.00    2.40
  -2 -12   0   13.70    4.90
   2  12   0   -0.70    3.70
  -3 -12   0   18.60    3.50
  -3 -12   0   14.00    2.80
  -4 -12   0    8.80    2.80
   4  12   0    4.30    3.70
   7 -13   0   -2.20    2.60
  -7  13   0    2.50    3.70
   6 -13   0   36.70    3.90
  -5  13   0  184.58    9.80
  -4  13   0   12.00    4.20
  -3  13   0   82.19    7.20
  -2  13   0  201.48   10.50
  -1  13   0  209.98   10.80
   0  13   0    3.90    3.90
   1  13   0  233.58   12.20
   2  13   0   58.49    7.10
  -5  14   0    0.70    3.70
  -4  14   0   -1.90    3.70
  -3  14   0   13.60    4.40
  -2  14   0   -3.40    3.70
  -1  14   0   23.10    5.00
   1  14  -1    9.40    5.30
   0  14  -1   77.09    7.60
  -1  14  -1   16.60    4.50
  -2  14  -1    9.50    4.00
  -3  14  -1   11.70    4.40
  -4  14  -1   -2.50    3.30
  -5  14  -1   17.40    4.90
  -6  14  -1   -7.80    3.90
   3  13  -1    2.70    3.50
   2  13  -1   73.99    7.40
   1  13  -1   50.49    6.60
   0  13  -1    9.80    3.90
  -1  13  -1   68.99    7.10
  -2  13  -1    0.10    3.80
  -3  13  -1   93.29    7.50
  -4  13  -1   -1.90    3.40
  -5  13  -1   -1.90    3.20
  -6  13  -1   -2.90    3.90
  -7  13  -1  133.09    8.80
   5  12  -1    8.50    4.50
   4  12  -1   26.10    7.20
  -4 -12   1   33.70    3.90
  -4 -12   1   35.50    4.80
   3  12  -1  114.09    8.20
  -3 -12   1  123.79    6.80
   2  12  -1    2.90    3.40
  -2 -12   1    6.10    2.70
   1  12  -1   15.50    4.10
   0  12  -1    0.00    2.80
  -1  12  -1   21.30    4.20
  -2  12  -1    7.50    3.60
  -3  12  -1    3.50    3.20
  -4  12  -1   40.40    5.80
  -5  12  -1    5.30    3.60
   5 -12   1    7.20    2.30
  -6  12  -1  262.87   11.40
   6 -12   1  238.98    8.50
  -7  12  -1   63.09    6.60
   7 -12   1   53.39    4.50
   8 -12   1  123.39    6.40
   6  11  -1    6.90    3.80
   5  11  -1    1.20    3.30
  -5 -11   1    0.60    2.60
   4  11  -1   28.80    4.90
  -4 -11   1   33.40    3.60
  -4 -11   1   38.60    5.10
   3  11  -1   -0.70    3.20
  -3 -11   1    0.50    2.90
  -3 -11   1    2.80    2.20
   2  11  -1  131.69    8.30
  -2 -11   1  158.38    7.40
  -2 -11   1  136.79    6.80
   1  11  -1   38.60    5.50
  -1 -11   1   42.30    4.10
   0  11  -1  138.59    8.00
  -2  11  -1  277.57   16.00
  -4  11  -1   -0.10    2.90
  -5  11  -1  361.56   13.10
   5 -11   1  341.77   10.60
  -6  11  -1  333.47   12.50
   6 -11   1  297.57   10.00
   7 -11   1    4.90    2.60
   8 -11   1    5.10    2.90
   9 -11   1   -2.10    2.90
   6  10  -1    9.70    3.60
  -6 -10   1   21.20    5.10
  -6 -10   1   19.10    3.50
   5  10  -1   74.29    6.40
  -5 -10   1   61.89    4.60
  -5 -10   1   63.89    6.10
   4  10  -1   95.79    7.30
  -4 -10   1  113.89    7.10
  -4 -10   1  106.09    5.30
   3  10  -1   50.19    6.30
  -3 -10   1   51.59    5.10
  -3 -10   1   46.60    4.80
   2  10  -1   -0.80    2.70
  -2 -10   1   -1.10    1.70
  -2 -10   1    1.60    2.60
   1  10  -1   85.89    6.40
  -1 -10   1   99.19    5.10
   0  10  -1  221.28    9.40
  -1  10  -1   26.30    3.90
  -2  10  -1   45.70    5.00
  -3  10  -1   28.00    3.90
  -4  10  -1   39.20    4.90
   4 -10   1   41.10    2.80
   4 -10   1   37.90    3.10
  -5  10  -1    1.90    1.70
  -5  10  -1    1.70    2.70
   5 -10   1   -0.90    2.00
  -6  10  -1  140.39    5.90
  -6  10  -1  148.99   10.40
   7 -10   1   36.50    4.10
   8 -10   1   11.40    3.30
   9 -10   1   15.50    3.90
  -7  -9   1  215.28   11.30
  -7  -9   1  217.78   10.80
   6   9  -1   14.20    3.60
  -6  -9   1   10.20    4.20
  -6  -9   1   15.50    3.30
   5   9  -1   82.19    6.30
  -5  -9   1   83.99    5.30
  -5  -9   1   94.29    6.90
   4   9  -1    0.90    2.80
  -4  -9   1    3.60    2.60
  -4  -9   1    1.40    3.40
   3   9  -1   -0.20    2.50
  -3  -9   1    0.40    1.90
  -3  -9   1    1.70    2.60
   2   9  -1   52.99    5.10
  -2  -9   1   47.50    3.10
  -2  -9   1   52.99    3.40
  -2  -9   1   52.89    4.40
   1   9  -1   -0.30    2.40
  -1  -9   1   -0.80    2.00
   0   9  -1   68.09    5.30
  -1   9  -1   -2.30    2.10
  -2   9  -1   46.10    4.70
   2  -9   1   41.60    3.50
  -3   9  -1  153.68    7.10
   3  -9   1  139.69    5.60
  -4   9  -1    2.70    2.40
  -4   9  -1    1.30    1.50
   4  -9   1   -1.00    1.40
   4  -9   1   -2.40    1.70
  -5   9  -1  274.07   10.00
  -5   9  -1  233.18    9.10
   5  -9   1  239.88    8.10
   5  -9   1  261.37    8.20
  -6   9  -1    6.10    2.90
  -6   9  -1    1.50    2.10
   6  -9   1    1.00    2.30
  -7   9  -1   32.00    3.80
   7  -9   1   34.80    4.00
   8  -9   1  188.48    8.00
   9  -9   1    8.90    3.60
   7   8  -1   19.00    3.60
   6   8  -1   57.29    5.80
   6   8  -1   58.59    6.00
  -6  -8   1   71.89    6.40
  -6  -8   1   64.09    5.00
   5   8  -1   29.80    4.90
   5   8  -1   23.50    3.90
   5   8  -1   26.60    3.20
  -5  -8   1   25.80    3.60
  -5  -8   1   23.40    4.60
   4   8  -1   11.70    2.20
   4   8  -1    9.30    3.10
  -4  -8   1    9.10    2.60
  -4  -8   1   11.30    3.40
   3   8  -1   85.19    4.40
   3   8  -1   92.09    5.70
  -3  -8   1   81.89    4.10
  -3  -8   1   92.99    4.40
  -3  -8   1   91.29    5.60
   2   8  -1   72.99    3.30
   2   8  -1   73.99    5.00
  -2  -8   1   71.89    3.70
  -2  -8   1   68.89    3.40
  -2  -8   1   71.89    4.60
   1   8  -1  209.88    8.10
  -1  -8   1  192.88    6.50
  -1  -8   1  219.68    7.40
   0   8  -1  146.89    6.50
  -1   8  -1  154.98    6.70
  -2   8  -1   25.80    3.70
   2  -8   1   25.20    1.90
  -3   8  -1    0.40    2.10
   3  -8   1   -1.90    1.50
  -4   8  -1  146.99    5.20
  -4   8  -1  158.98    6.90
   4  -8   1  158.88    5.50
   4  -8   1  147.79    5.30
  -5   8  -1  468.45   14.30
  -5   8  -1  443.26   12.80
   5  -8   1  472.95   13.00
   5  -8   1  428.26   12.80
  -6   8  -1  115.89    5.20
   6  -8   1  115.09    5.30
   6  -8   1  106.39    4.90
  -7   8  -1  353.56   11.30
   8  -8   1   20.40    3.70
  -9   8  -1  272.47   10.10
   9  -8   1  264.47   10.30
  10  -8   1    2.90    3.20
   8   7  -1    9.40    4.20
  -8  -7   1    3.00    3.30
  -8  -7   1    4.20    4.00
   7   7  -1   74.89    5.40
   7   7  -1   65.59    6.00
   7   7  -1   65.29    5.50
  -7  -7   1   65.49    5.50
  -7  -7   1   59.29    6.50
   6   7  -1   45.30    5.30
   6   7  -1   46.40    4.90
  -6  -7   1   44.40    5.70
  -6  -7   1   45.80    4.50
   5   7  -1  269.27   10.10
   5   7  -1  265.97    9.10
   5   7  -1  272.77   10.50
  -5  -7   1  277.27    9.40
  -5  -7   1  260.37   10.70
   4   7  -1  285.57    9.30
   4   7  -1  295.97   10.90
   4   7  -1  305.37   10.50
  -4  -7   1  298.47   11.00
  -4  -7   1  305.07    9.70
   3   7  -1    7.30    1.80
   3   7  -1    3.10    3.00
   3   7  -1    6.90    2.40
  -3  -7   1    5.20    1.90
  -3  -7   1    6.30    2.70
  -3  -7   1    3.60    1.60
   2   7  -1  231.68    7.00
   2   7  -1  235.68    8.30
  -2  -7   1  220.28    6.90
  -2  -7   1  231.68    7.20
  -2  -7   1  229.28    8.10
  -1  -7   1  682.53   18.20
  -1  -7   1  682.03   17.50
  -1  -7   1  645.64   17.20
   0   7  -1    3.20    1.80
  -1   7  -1    2.70    1.60
  -2   7  -1  327.77   10.50
   2  -7   1  334.97    9.00
  -3   7  -1  149.99    4.80
   3  -7   1  159.58    5.00
   3  -7   1  147.49    5.00
  -4   7  -1  615.74   16.80
  -4   7  -1  634.64   17.90
   4  -7   1  655.63   16.80
   4  -7   1  617.14   16.80
  -5   7  -1   95.19    4.40
  -5   7  -1  102.69    5.50
   5  -7   1   98.49    4.50
  -6   7  -1  608.84   16.20
   6  -7   1  593.24   16.20
   6  -7   1  517.75   16.00
  -7   7  -1  343.57   11.10
   7  -7   1  353.06   11.20
   8  -7   1  195.38    8.00
  -9   7  -1  394.46   13.00
   9  -7   1  386.86   13.20
 -10   7  -1   49.70    5.50
  10  -7   1   47.30    5.50
   9   6  -1   31.50    6.50
   8   6  -1  209.38   10.00
   8   6  -1  206.98    8.70
   8   6  -1  218.08   11.50
  -8  -6   1  206.28   12.10
  -8  -6   1  241.58   10.00
   7   6  -1  387.16   12.80
   7   6  -1  399.66   14.00
   7   6  -1  398.86   13.00
  -7  -6   1  397.06   13.20
  -7  -6   1  385.46   14.80
   6   6  -1   21.10    3.30
  -6  -6   1   24.00    3.50
  -6  -6   1   32.90    4.90
   5   6  -1  951.90   25.70
   5   6  -1  956.60   26.80
   5   6  -1  982.60   26.40
  -5  -6   1  944.81   27.40
  -5  -6   1  987.20   26.00
   4   6  -1 1162.58   30.20
   4   6  -1 1147.29   31.40
   4   6  -1 1201.28   31.10
  -4  -6   1 1171.38   30.40
  -4  -6   1 1164.68   31.60
   3   6  -1  116.49    5.30
   3   6  -1  109.29    4.30
   3   6  -1  112.29    5.50
  -3  -6   1   87.49    4.50
  -3  -6   1  105.69    5.30
  -3  -6   1  111.19    4.40
   2   6  -1  931.01   25.30
   2   6  -1  921.21   23.80
   2   6  -1  952.70   25.00
  -2  -6   1  936.11   24.00
  -2  -6   1  975.20   24.90
  -2  -6   1  893.61   23.70
   1   6  -1   66.49    3.70
   1   6  -1   62.89    3.00
   1   6  -1   65.09    2.60
  -1  -6   1   67.09    3.30
  -1  -6   1   68.09    2.60
  -1  -6   1   70.09    2.80
   0   6  -1  329.07   10.10
   0  -6   1  337.17    9.30
  -1   6  -1  297.77    9.10
   1  -6   1  283.07    8.10
  -2   6  -1    6.70    1.70
   2  -6   1    8.80    1.20
   2  -6   1    8.30    1.10
  -3   6  -1  129.09    5.40
  -3   6  -1  131.99    4.30
   3  -6   1  141.19    4.50
   3  -6   1  135.39    4.40
  -4   6  -1  150.98    5.90
  -4   6  -1  140.89    5.00
   4  -6   1  152.98    5.10
   4  -6   1  144.19    5.00
  -5   6  -1   46.00    3.30
   5  -6   1   49.50    3.30
  -6   6  -1    3.50    2.30
   6  -6   1   -1.60    1.90
   7  -6   1  443.86   13.40
  -8   6  -1   15.10    3.50
   8  -6   1   21.00    3.70
  -9   6  -1  153.68    7.60
  -9   6  -1  168.48    7.20
  -9   6  -1  143.49    6.20
   9  -6   1  162.98    7.60
 -10   6  -1   56.39    4.90
 -11   6  -1    8.50    3.80
   9   5  -1   67.39    6.40
   9   5  -1   80.59    5.70
  -9  -5   1   55.99    6.90
  -9  -5   1   74.69    6.10
   8   5  -1    9.10    3.60
   8   5  -1   11.80    3.10
  -8  -5   1    7.60    4.00
  -8  -5   1    6.50    3.30
   7   5  -1    7.60    3.30
   7   5  -1    6.30    2.80
  -7  -5   1    5.70    2.80
  -7  -5   1    7.00    3.80
   6   5  -1   25.60    4.10
  -6  -5   1   28.10    3.60
  -6  -5   1   28.00    4.70
   5   5  -1   63.49    4.60
   5   5  -1   66.09    4.00
  -5  -5   1   67.99    5.00
  -5  -5   1   61.69    4.10
   4   5  -1   20.20    3.10
   4   5  -1   20.20    2.50
  -4  -5   1   18.60    3.10
  -4  -5   1   21.60    2.60
   3   5  -1    1.20    1.20
  -3  -5   1    2.60    1.30
  -3  -5   1    2.40    1.30
  -3  -5   1    2.40    1.80
   2   5  -1    5.50    1.40
   2   5  -1    6.00    1.90
   2   5  -1    7.20    1.20
   2   5  -1    6.90    1.60
   2   5  -1    4.70    1.20
  -2  -5   1    5.10    1.30
  -2  -5   1    4.20    1.10
  -2  -5   1    7.70    1.80
   1   5  -1 1020.90   25.70
   1   5  -1 1006.40   26.30
   1   5  -1 1049.20   26.80
  -1  -5   1  997.90   26.50
  -1  -5   1 1074.69   26.50
  -1  -5   1 1044.00   25.80
  -1  -5   1 1052.39   25.90
  -1  -5   1 1027.80   26.70
   0   5  -1    0.50    1.10
   0   5  -1    0.50    0.80
   0  -5   1    1.30    0.80
   0  -5   1    1.10    0.90
   0  -5   1    0.40    1.10
   1  -5   1 9554.24  237.28
   1  -5   1 9999.00  238.08
  -2   5  -1 1086.39   28.20
  -2   5  -1 1155.98   28.20
  -2   5  -1 1140.69   29.20
   2  -5   1 1132.79   28.30
   2  -5   1 1132.39   29.20
   2  -5   1 1174.48   28.30
  -3   5  -1 1074.29   27.80
  -3   5  -1 1082.69   26.90
  -3   5  -1 1022.10   26.90
   3  -5   1 1067.49   27.00
   3  -5   1 1113.89   27.00
  -4   5  -1  579.54   16.10
  -4   5  -1  590.94   15.40
   4  -5   1  577.84   15.40
   4  -5   1  583.34   15.40
  -5   5  -1  779.62   20.60
  -5   5  -1  775.92   20.10
   5  -5   1  779.32   20.50
  -6   5  -1   26.70    2.90
  -6   5  -1   31.50    3.30
  -6   5  -1   26.30    2.50
   6  -5   1   25.20    3.10
  -7   5  -1  262.97    9.10
   7  -5   1  272.67    9.30
  -8   5  -1  459.25   14.10
  -8   5  -1  431.46   13.90
   8  -5   1  442.06   14.00
  -9   5  -1    2.20    2.70
  -9   5  -1    1.00    3.00
   9  -5   1    1.10    2.70
 -10   5  -1  291.27   11.60
 -10   5  -1  295.57   11.60
  10  -5   1  306.77   11.80
 -11   5  -1   87.29    6.90
  10   4  -1   13.70    3.80
   9   4  -1   31.40    4.40
   9   4  -1   29.70    5.20
  -9  -4   1   31.90    6.60
  -9  -4   1   32.10    7.20
   8   4  -1   10.50    3.90
   8   4  -1   18.60    3.60
  -8  -4   1   14.50    3.60
  -8  -4   1   16.60    4.50
   7   4  -1   10.90    2.90
   7   4  -1    8.50    3.40
  -7  -4   1    8.60    3.50
  -7  -4   1    9.40    2.90
   6   4  -1  112.59    5.90
  -6  -4   1  113.99    5.50
  -6  -4   1  101.19    6.30
   5   4  -1   77.89    4.70
   5   4  -1   76.39    4.10
  -5  -4   1   79.09    5.10
  -5  -4   1   80.49    4.40
   4   4  -1   20.60    2.90
   4   4  -1   19.70    2.20
  -4  -4   1   20.90    3.10
  -4  -4   1   13.60    2.60
  -4  -4   1   20.40    2.40
   3   4  -1    0.70    1.00
   3   4  -1   -0.60    1.50
  -3  -4   1    0.20    1.50
  -3  -4   1   -0.80    0.90
  -3  -4   1    0.40    1.10
   2   4  -1 1697.23   42.90
   2   4  -1 1676.03   42.10
   2   4  -1 1703.53   42.20
   2   4  -1 1671.83   42.80
  -2  -4   1 1694.13   42.20
  -2  -4   1 1780.02   43.00
  -2  -4   1 1712.53   42.10
  -2  -4   1 1712.63   42.70
   1   4  -1  506.65   13.20
   1   4  -1  520.65   14.10
   1   4  -1  519.05   13.70
   1   4  -1  524.85   14.00
  -1  -4   1  520.35   13.80
  -1  -4   1  514.85   13.20
  -1  -4   1  524.95   14.00
  -1  -4   1  542.15   13.90
  -1  -4   1  517.85   13.30
   0   4  -1   15.70    1.20
   0   4  -1   16.10    1.80
   0  -4   1   16.10    1.60
   0  -4   1   15.90    1.30
   0  -4   1   14.90    1.30
   0  -4   1   16.90    1.60
  -1   4  -1   12.50    1.20
  -1   4  -1   13.20    1.70
   1  -4   1   11.30    1.60
   1  -4   1   11.60    1.10
  -2   4  -1 2074.29   50.09
  -2   4  -1 1973.20   50.09
  -2   4  -1 2043.80   50.89
   2  -4   1 2088.59   50.19
   2  -4   1 2003.20   50.19
   2  -4   1 2082.19   50.19
   2  -4   1 2070.79   51.09
  -3   4  -1 2954.90   75.49
  -3   4  -1 3154.08   75.59
  -3   4  -1 3079.69   76.19
   3  -4   1 3043.60   76.19
   3  -4   1 3113.59   75.59
   3  -4   1 3179.68   75.59
  -4   4  -1  158.78    5.20
  -4   4  -1  161.88    4.90
   4  -4   1  157.78    5.20
   4  -4   1  151.18    6.80
   4  -4   1  151.28    5.10
  -5   4  -1 3509.35   84.39
  -5   4  -1 3523.95   84.39
   5  -4   1 3405.36   84.29
   5  -4   1 3493.25   84.29
   5  -4   1 3154.58   84.39
  -6   4  -1    0.00    1.70
   6  -4   1    0.70    1.90
  -7   4  -1 1245.08   32.90
  -7   4  -1 1238.18   32.60
   7  -4   1 1233.28   32.50
  -8   4  -1  242.68    9.40
  -8   4  -1  230.58    9.00
  -9   4  -1   23.00    4.20
  -9   4  -1   19.40    4.00
   9  -4   1   15.40    3.80
 -10   4  -1  394.36   14.00
 -10   4  -1  383.46   13.80
  10  -4   1  371.26   13.50
 -11   4  -1  158.28    8.20
  10   3  -1   27.80    4.90
  10   3  -1   26.90    4.30
 -10  -3   1   26.80    4.70
 -10  -3   1   25.10    5.20
   9   3  -1  139.29    7.20
   9   3  -1  122.59    7.60
  -9  -3   1  122.29    7.30
  -9  -3   1  122.19    8.40
   8   3  -1   -0.40    2.60
   8   3  -1    0.30    2.80
  -8  -3   1    0.20    2.70
  -8  -3   1   -0.10    3.10
   7   3  -1   -0.60    2.50
   7   3  -1    2.00    2.40
  -7  -3   1   -1.50    2.80
  -7  -3   1   -0.20    2.20
   6   3  -1   78.29    4.80
  -6  -3   1   70.79    5.20
  -6  -3   1   78.59    4.60
   5   3  -1  328.07   10.30
   5   3  -1  325.37    9.80
  -5  -3   1  331.17   10.00
  -5  -3   1  326.57   10.90
   4   3  -1   19.10    2.10
   4   3  -1   17.60    2.30
  -4  -3   1   22.60    2.20
  -4  -3   1   20.00    2.70
  -4  -3   1   17.50    1.90
   3   3  -1  480.45   13.40
   3   3  -1  477.65   12.80
   3   3  -1  480.75   12.90
   3   3  -1  472.05   13.40
  -3  -3   1  522.15   13.80
  -3  -3   1  473.15   12.90
  -3  -3   1  497.85   12.90
   2   3  -1   16.00    1.80
   2   3  -1   13.60    1.30
   2   3  -1   14.60    1.30
  -2  -3   1   16.40    1.80
  -2  -3   1   15.00    1.30
  -2  -3   1   16.40    1.30
  -2  -3   1   16.10    1.60
   1   3  -1 5594.24  137.39
   1   3  -1 5646.44  137.59
  -1  -3   1 5695.23  137.49
  -1  -3   1 5649.04  137.49
   0   3  -1  692.43   17.40
   0   3  -1  662.33   16.80
   0   3  -1  635.04   16.60
   0  -3   1  658.53   16.60
   0  -3   1  674.83   16.80
   0  -3   1  656.43   17.00
   0  -3   1  662.93   17.00
  -2   3  -1  527.65   13.60
  -2   3  -1  555.34   13.70
  -2   3  -1  530.25   14.20
  -2   3  -1  533.15   13.70
   2  -3   1  542.65   13.70
   2  -3   1  557.04   13.70
   2  -3   1  530.95   14.20
  -3   3  -1  664.03   17.60
   3  -3   1  627.24   17.20
   3  -3   1  671.63   16.90
   3  -3   1  695.93   16.90
   3  -3   1  639.54   16.90
  -4   3  -1 2147.69   52.89
  -4   3  -1 2185.78   52.89
   4  -3   1 2198.48   52.79
   4  -3   1 2053.59   52.69
   4  -3   1 2159.18   52.79
   4  -3   1 2033.50   52.89
  -5   3  -1    8.70    2.00
  -5   3  -1   10.20    2.20
   5  -3   1   13.20    1.80
  -6   3  -1  593.94   16.80
   6  -3   1  581.44   16.40
  -7   3  -1   30.20    3.80
  -7   3  -1   29.00    3.70
   7  -3   1   27.30    3.60
  -8   3  -1   94.59    5.80
  -8   3  -1   82.99    5.80
   8  -3   1   89.59    5.40
  -9   3  -1   28.80    4.60
   9  -3   1   25.70    4.10
 -10   3  -1   11.90    4.00
 -10   3  -1    8.80    3.40
  10  -3   1    5.90    3.40
 -11   3  -1    9.00    3.60
  11  -3   1    0.20    3.70
  11   2  -1    0.00    3.50
  10   2  -1  410.66   14.00
 -10  -2   1  352.36   15.70
 -10  -2   1  415.56   14.40
   9   2  -1  393.86   13.70
   9   2  -1  415.96   13.50
  -9  -2   1  342.37   14.40
  -9  -2   1  388.06   13.50
   8   2  -1  320.37   11.70
   8   2  -1  308.27   10.80
  -8  -2   1  310.77   11.00
  -8  -2   1  273.07   11.90
   7   2  -1  657.73   18.80
   7   2  -1  657.13   18.50
  -7  -2   1  626.14   19.70
  -7  -2   1  651.63   18.70
   6   2  -1   26.60    3.50
  -6  -2   1   18.00    3.60
  -6  -2   1   30.40    3.50
   5   2  -1  575.74   15.70
   5   2  -1  574.44   16.00
  -5  -2   1  574.84   15.80
  -5  -2   1  565.84   16.60
   4   2  -1 2413.66   60.19
   4   2  -1 2396.56   59.89
  -4  -2   1 2452.25   60.69
  -4  -2   1 2404.96   59.89
  -4  -2   1 2430.86   59.99
   3   2  -1   41.70    2.40
   3   2  -1   39.60    2.10
   3   2  -1   39.80    2.40
   3   2  -1   38.50    2.00
  -3  -2   1   47.40    2.70
  -3  -2   1   47.50    2.10
  -3  -2   1   40.70    2.20
   2   2  -1 2878.31   71.19
   2   2  -1 2853.21   71.19
   2   2  -1 2883.71   71.49
   2   2  -1 2999.60   71.69
  -2  -2   1 2911.11   71.19
  -2  -2   1 2885.31   71.19
  -2  -2   1 3007.40   71.69
   0  -2   1 2626.54   62.89
   0  -2   1 2557.74   62.89
   0  -2   1 2654.93   62.89
   0  -2   1 2470.25   62.69
  -2   2  -1  796.72   20.30
  -2   2  -1  820.82   20.30
  -2   2  -1  829.52   20.40
   2  -2   1  790.22   20.30
   2  -2   1  864.21   20.40
   2  -2   1  782.92   20.30
  -3   2  -1  126.69    4.20
  -3   2  -1  115.19    3.80
  -3   2  -1  119.29    4.00
   3  -2   1  130.99    4.10
   3  -2   1  120.49    3.90
   3  -2   1  123.29    3.90
   3  -2   1  116.59    4.00
  -4   2  -1  129.09    4.70
  -4   2  -1  118.19    4.50
   4  -2   1  118.79    4.60
   4  -2   1  119.69    4.30
   4  -2   1  125.89    4.40
   4  -2   1  124.09    4.40
  -5   2  -1   20.80    2.60
   5  -2   1   22.00    2.40
   6  -2   1   -0.30    1.80
  -7   2  -1   57.49    4.90
  -7   2  -1   59.59    4.60
   7  -2   1   59.89    4.40
  -8   2  -1   -0.70    2.60
  -8   2  -1   -0.50    2.80
   8  -2   1    2.20    2.40
  -9   2  -1    8.20    3.40
  -9   2  -1    5.30    3.50
   9  -2   1    0.40    3.00
 -10   2  -1   12.20    3.90
 -10   2  -1   12.00    3.90
  10  -2   1    8.30    3.80
  10  -2   1   13.40    3.90
 -11   2  -1   38.90    5.60
 -11   2  -1   22.20    4.90
  11  -2   1   22.50    4.60
  11   1  -1    0.00    3.10
  10   1  -1    6.70    3.50
  10   1  -1    6.60    3.90
 -10  -1   1   13.20    4.20
 -10  -1   1    6.00    3.70
   9   1  -1  146.79    7.40
   9   1  -1  129.39    7.20
  -9  -1   1  140.09    7.40
  -9  -1   1  126.29    8.20
   8   1  -1  117.39    6.30
   8   1  -1  109.99    6.20
  -8  -1   1   94.89    6.80
  -8  -1   1  115.09    6.40
   7   1  -1  432.86   13.30
   7   1  -1  443.56   13.50
  -7  -1   1  421.46   14.30
  -7  -1   1  448.16   13.50
   6   1  -1 2410.26   60.39
  -6  -1   1 2345.07   61.09
  -6  -1   1 2443.26   60.29
   5   1  -1   82.49    3.80
  -5  -1   1   76.79    4.40
   1  -1   1 1860.31   45.30
   2  -1   1 3442.46   83.89
  -3   1  -1  291.17    8.20
  -3   1  -1  309.07    8.60
  -3   1  -1  287.07    8.10
   3  -1   1  305.37    8.50
   3  -1   1  299.17    8.20
   3  -1   1  284.17    8.20
  -4   1  -1 3255.77   76.29
  -4   1  -1 2932.91   75.49
  -4   1  -1 3115.29   75.69
   4  -1   1 3057.79   75.69
   4  -1   1 3147.08   75.99
   4  -1   1 2935.41   75.59
  -5   1  -1  536.65   14.90
  -5   1  -1  551.04   15.50
   5  -1   1  523.35   14.70
  -6   1  -1  440.06   13.50
  -6   1  -1  422.96   12.80
   6  -1   1  424.76   12.70
  -7   1  -1   -3.90    2.30
  -7   1  -1   -0.50    2.30
   7  -1   1   -1.40    2.10
  -8   1  -1   83.19    6.30
  -8   1  -1   83.59    5.60
   8  -1   1   89.39    5.70
  -9   1  -1  252.27   11.10
  -9   1  -1  252.87   10.40
   9  -1   1  258.37   10.10
   9  -1   1  270.17   10.30
 -10   1  -1    3.90    3.80
 -10   1  -1    7.30    3.30
  10  -1   1   -4.00    2.70
  10  -1   1    2.30    3.30
  11   0  -1    5.50    4.00
  11   0  -1    6.40    4.20
 -11   0   1    6.30    4.30
 -11   0   1    9.50    3.80
  10   0  -1  361.16   13.40
  10   0  -1  385.46   13.30
 -10   0   1  371.66   13.50
 -10   0   1  351.56   14.20
   9   0  -1   10.20    3.70
   9   0  -1    7.90    3.50
  -9   0   1   13.20    4.10
  -9   0   1    8.10    3.90
   8   0  -1  847.02   22.90
  -8   0   1  815.32   23.00
  -8   0   1  771.02   23.60
   7   0  -1  194.08    7.30
  -7   0   1  185.38    7.30
  -7   0   1  171.38    7.80
   6   0  -1 1960.40   49.50
  -6   0   1 1950.10   50.09
   5   0  -1  354.26   10.30
  -5   0   1  366.86   10.90
  -5   0   1  349.17   10.50
   4   0  -1 5130.59  126.69
   4   0  -1 5366.46  127.19
  -4   0   1 5261.07  126.89
  -4   0   1 5012.30  127.09
   3   0  -1   38.40    2.10
   3   0  -1   42.50    2.10
   3   0  -1   47.40    2.30
  -3   0   1   39.50    2.00
  -3   0   1   41.30    2.20
  -3   0   1   44.90    2.40
   1   0  -1  403.36   10.20
   1   0  -1  407.56   10.30
   1   0  -1  411.16   10.20
   1   0  -1  409.96   10.20
  -1   0   1  403.26   10.20
  -1   0   1  426.46   10.20
  -1   0   1  394.56   10.20
  -1   0   1  412.56   10.30
  -3   0  -1  484.75   13.00
  -3   0  -1  513.35   13.50
  -3   0  -1  479.75   12.90
   3   0   1  483.95   12.90
   3   0   1  505.55   13.30
   3   0   1  469.35   12.90
  -4   0  -1 3087.99   76.29
  -4   0  -1 3077.89   76.49
  -4   0  -1 3229.78   76.99
   4   0   1 3076.59   76.59
   4   0   1 3091.39   77.29
   4   0   1 3007.10   76.19
  -5   0  -1  714.83   20.00
  -5   0  -1  716.93   19.20
   5   0   1  698.93   19.00
  -6   0  -1    1.30    2.10
  -6   0  -1   -0.60    2.50
   6   0   1    3.20    2.20
  -7   0  -1   53.69    4.50
  -7   0  -1   46.50    4.90
   7   0   1   57.89    4.30
   7   0   1   48.20    4.30
  -8   0  -1   50.69    7.10
  -8   0  -1   57.99    5.80
   8   0   1   49.50    4.90
   8   0   1   60.49    4.90
  -9   0  -1  186.08    9.60
  -9   0  -1  197.28    9.00
   9   0   1  194.58    8.80
   9   0   1  195.78    8.70
 -10   0  -1   -1.70    3.20
 -10   0  -1    4.70    3.90
  10   0   1   -0.50    3.30
  10   0   1    0.30    3.30
  11  -1  -1   52.89    5.70
  11  -1  -1   43.10    5.70
 -11   1   1   36.10    6.30
 -11   1   1   42.40    5.60
  10  -1  -1   24.80    4.80
  10  -1  -1   29.20    4.50
 -10   1   1   31.40    5.10
 -10   1   1   25.40    4.40
   9  -1  -1  199.88    8.60
  -9   1   1  196.38    8.70
   8  -1  -1  188.08    7.80
  -8   1   1  189.98    7.90
  -8   1   1  181.98    8.30
   7  -1  -1 1278.07   33.10
  -7   1   1 1251.67   33.80
   6  -1  -1 1577.24   39.90
  -6   1   1 1574.64   40.50
  -6   1   1 1543.35   40.00
   5  -1  -1 3948.00   97.09
   5  -1  -1 3718.03   97.29
  -5   1   1 4139.49   97.59
  -5   1   1 3989.00   97.19
   4  -1  -1 7195.68  170.68
   4  -1  -1 7104.29  170.88
   4  -1  -1 6841.02  170.08
  -4   1   1 6865.51  170.48
   2  -1  -1 3422.26   83.19
   2  -1  -1 3412.46   83.09
   1  -1  -1 1471.85   36.60
  -1   1   1 1485.65   36.60
  -1   1   1 1515.15   36.60
  -1   1   1 1509.75   36.60
   0  -1  -1  626.84   15.80
   0  -1  -1  624.44   15.80
   0   1   1  654.03   15.90
   0   1   1  639.74   15.80
   0   1   1  633.44   15.80
  -1  -1  -1  301.97    7.90
  -1  -1  -1  293.17    7.80
   1   1   1  272.27    7.60
   1   1   1  278.97    7.60
   1   1   1  292.37    7.80
  -2  -1  -1 4102.89  100.99
   2   1   1 4187.98  101.09
  -3  -1  -1  150.78    4.80
  -3  -1  -1  151.08    5.40
  -3  -1  -1  147.19    4.90
   3   1   1  142.99    4.80
   3   1   1  155.98    5.20
   3   1   1  151.28    4.80
   3   1   1  148.69    4.80
  -4  -1  -1  123.99    4.50
  -4  -1  -1  124.79    5.30
  -4  -1  -1  121.49    4.60
   4   1   1  125.29    4.60
   4   1   1  122.19    4.50
  -5  -1  -1   52.99    4.10
  -5  -1  -1   55.19    3.50
   5   1   1   51.79    3.40
   5   1   1   54.19    3.40
  -6  -1  -1   50.89    3.90
  -6  -1  -1   43.40    4.60
   6   1   1   54.29    3.80
   6   1   1   49.70    3.90
  -7  -1  -1   18.20    4.00
  -7  -1  -1    9.70    2.80
   7   1   1   16.70    3.20
   7   1   1   17.50    3.10
  -8  -1  -1   43.80    4.90
  -8  -1  -1   48.90    5.60
   8   1   1   46.50    4.90
  -9  -1  -1   -1.30    3.60
  -9  -1  -1    4.00    3.30
   9   1   1    0.00    2.80
   9   1   1    4.50    3.50
 -10  -1  -1   60.09    6.70
 -10  -1  -1   63.39    6.30
  10   1   1   69.09    6.10
  11  -2  -1   52.89    6.20
  11  -2  -1   47.70    6.00
 -11   2   1   62.99    7.10
 -11   2   1   58.99    5.90
  10  -2  -1  566.34   17.50
 -10   2   1  521.05   17.90
 -10   2   1  537.45   17.40
   9  -2  -1   44.80    5.10
  -9   2   1   39.60    5.10
  -9   2   1   37.00    8.70
   8  -2  -1  402.66   12.70
  -8   2   1  383.06   13.00
   7  -2  -1    7.00    2.60
  -7   2   1    4.70    2.60
  -7   2   1    1.30    2.20
   6  -2  -1   43.80    3.30
   6  -2  -1   39.10    2.50
  -6   2   1   46.60    3.80
  -6   2   1   46.90    3.50
   5  -2  -1   59.69    3.00
   5  -2  -1   59.89    3.20
   5  -2  -1   59.39    2.80
  -5   2   1   61.59    3.40
  -5   2   1   66.19    3.40
   4  -2  -1  196.48    6.20
   4  -2  -1  204.98    6.20
   4  -2  -1  201.58    6.00
   4  -2  -1  200.88    6.10
  -4   2   1  222.28    6.30
  -4   2   1  205.18    6.30
  -4   2   1  200.18    6.10
   3  -2  -1 1264.87   31.50
   3  -2  -1 1287.97   31.30
   3  -2  -1 1287.77   31.50
   3  -2  -1 1268.77   31.40
  -3   2   1 1266.27   31.50
  -3   2   1 1263.67   31.50
  -3   2   1 1207.88   31.70
   2  -2  -1 1298.17   31.50
   2  -2  -1 1272.27   31.50
   2  -2  -1 1261.07   31.50
  -2   2   1 1262.37   31.50
  -2   2   1 1256.07   31.50
  -2   2   1 1281.57   31.50
   0  -2  -1 1082.29   26.30
   0  -2  -1 1068.99   26.20
   0   2   1 1096.09   26.10
   0   2   1 1002.40   26.10
   0   2   1 1028.30   26.10
  -1  -2  -1  223.68    6.30
  -1  -2  -1  221.48    6.30
  -1  -2  -1  222.48    6.20
  -1  -2  -1  231.98    6.50
   1   2   1  231.58    6.50
   1   2   1  223.78    6.40
   1   2   1  223.08    6.20
   1   2   1  223.48    6.30
  -2  -2  -1  454.55   12.30
  -2  -2  -1  437.66   11.80
  -2  -2  -1  454.95   11.80
  -2  -2  -1  432.76   11.70
   2   2   1  444.16   12.10
   2   2   1  432.66   11.70
   2   2   1  445.06   11.80
  -3  -2  -1  182.48    5.70
  -3  -2  -1  189.58    5.90
  -3  -2  -1  187.68    6.40
   3   2   1  173.58    6.10
   3   2   1  186.18    5.80
   3   2   1  182.18    5.90
  -4  -2  -1   46.60    3.50
  -4  -2  -1   47.30    3.00
  -4  -2  -1   44.00    2.70
   4   2   1   49.99    3.00
   4   2   1   45.50    2.90
  -5  -2  -1  922.11   25.90
  -5  -2  -1  948.41   25.00
   5   2   1  940.51   24.90
   5   2   1  945.61   24.90
  -6  -2  -1   42.90    4.60
  -6  -2  -1   45.20    4.00
   6   2   1   40.70    3.80
   6   2   1   50.49    4.00
  -7  -2  -1   46.20    4.60
  -7  -2  -1   49.99    5.30
   7   2   1   47.60    4.50
   7   2   1   52.89    4.40
  -8  -2  -1   18.40    4.60
  -8  -2  -1   18.20    3.70
   8   2   1   20.50    4.20
   8   2   1   14.80    3.60
  -9  -2  -1   50.69    6.20
  -9  -2  -1   46.50    5.40
   9   2   1   54.79    5.40
   9   2   1   44.70    5.40
 -10  -2  -1    0.80    4.40
 -10  -2  -1    1.50    4.10
  10   2   1    9.60    3.80
  11  -3  -1   -0.50    3.50
 -11   3   1    5.20    4.30
 -11   3   1   13.80    3.80
  10  -3  -1  178.28    8.60
 -10   3   1  161.18    8.50
 -10   3   1  171.88    8.40
   9  -3  -1  384.06   12.60
  -9   3   1  354.96   12.60
  -9   3   1  355.86   12.60
   8  -3  -1  100.19    5.60
  -8   3   1   90.39    5.50
  -8   3   1   85.79    5.70
   7  -3  -1  924.41   24.60
  -7   3   1  900.81   24.80
   6  -3  -1   31.90    3.10
   6  -3  -1   32.60    2.50
  -6   3   1   35.00    2.90
  -6   3   1   32.90    3.40
   5  -3  -1    3.60    1.60
   5  -3  -1    4.10    1.30
   5  -3  -1    1.30    1.20
   5  -3  -1    9.50    1.80
  -5   3   1    6.80    1.90
  -5   3   1    2.70    1.60
   4  -3  -1  261.07    7.50
   4  -3  -1  252.57    7.50
   4  -3  -1  258.07    7.60
  -4   3   1  262.27    7.60
  -4   3   1  252.27    7.50
   3  -3  -1  275.87    7.80
   3  -3  -1  286.17    7.90
   3  -3  -1  279.57    7.80
  -3   3   1  266.47    7.90
  -3   3   1  284.77    7.80
   2  -3  -1  960.80   24.40
   2  -3  -1 1018.20   24.70
   2  -3  -1  970.10   24.40
  -2   3   1  979.40   24.40
  -2   3   1  948.61   24.40
   1  -3  -1   61.69    2.30
   1  -3  -1   61.29    2.40
  -1   3   1   61.89    2.30
  -1   3   1   58.89    2.20
  -1   3   1   64.69    2.70
   0  -3  -1 3735.73   88.49
   0  -3  -1 3536.85   88.49
   0  -3  -1 3673.53   88.79
   0  -3  -1 3509.05   88.39
   0   3   1 3822.82   88.39
   0   3   1 3581.84   88.39
   0   3   1 3513.85   88.39
  -1  -3  -1  781.72   20.30
  -1  -3  -1  801.82   20.40
  -1  -3  -1  812.82   20.20
  -1  -3  -1  820.02   20.60
   1   3   1  768.12   20.10
   1   3   1  774.12   20.20
   1   3   1  797.12   20.60
   1   3   1  811.52   20.40
  -2  -3  -1 1241.08   31.20
  -2  -3  -1 1259.17   31.10
  -2  -3  -1 1254.47   31.70
   2   3   1 1221.08   31.40
   2   3   1 1247.18   31.50
   2   3   1 1199.08   31.00
   2   3   1 1242.88   31.20
  -3  -3  -1  290.67    8.80
  -3  -3  -1  306.77    8.70
  -3  -3  -1  295.77    9.40
   3   3   1  302.67    9.00
   3   3   1  299.47    8.80
  -4  -3  -1  110.29    4.70
  -4  -3  -1  108.49    5.40
   4   3   1  114.49    4.70
   4   3   1  111.59    4.90
  -5  -3  -1  136.89    6.80
  -5  -3  -1  147.29    6.10
   5   3   1  147.69    6.20
   5   3   1  150.18    6.00
  -6  -3  -1   11.70    2.80
  -6  -3  -1   14.60    3.60
   6   3   1   12.30    3.00
   6   3   1   14.40    2.90
  -7  -3  -1  230.68   10.40
  -7  -3  -1  250.87    9.40
   7   3   1  241.18    9.20
   7   3   1  237.58    9.30
  -8  -3  -1  116.99    7.90
  -8  -3  -1  123.79    7.00
   8   3   1  121.59    7.00
  -9  -3  -1   62.49   11.20
   9   3   1   63.89    5.80
   9   3   1   80.49    6.30
  10   3   1   13.00    3.70
  11  -4  -1   39.30    5.60
 -11   4   1   41.80    5.70
  10  -4  -1  309.77   11.70
 -10   4   1  309.57   12.50
 -10   4   1  311.17   11.90
   9  -4  -1   34.80    4.50
  -9   4   1   33.50    4.20
   8  -4  -1    8.30    2.90
  -8   4   1    3.60    3.10
  -8   4   1    4.70    2.60
   7  -4  -1  336.37   10.60
  -7   4   1  327.07   10.40
  -7   4   1  328.97   10.80
   6  -4  -1  132.29    5.40
  -6   4   1  139.59    5.60
  -6   4   1  123.29    5.00
   5  -4  -1  103.89    5.00
   5  -4  -1  107.39    4.40
   5  -4  -1  112.79    4.90
  -5   4   1  108.19    4.60
   4  -4  -1  299.77    8.50
   4  -4  -1  291.77    8.60
   4  -4  -1  295.57    8.50
  -4   4   1  283.67    8.60
  -4   4   1  287.67    8.40
   3  -4  -1 2171.28   52.69
   3  -4  -1 2139.09   51.99
   3  -4  -1 2110.89   51.89
  -3   4   1 2006.10   51.89
  -3   4   1 2091.19   52.29
  -3   4   1 2090.09   51.89
   2  -4  -1  125.79    4.10
   2  -4  -1  126.99    4.10
  -2   4   1  130.39    4.00
  -2   4   1  125.89    4.60
  -2   4   1  119.89    4.00
   1  -4  -1 4569.04  110.49
   1  -4  -1 4540.65  110.49
  -1   4   1 4701.73  111.19
  -1   4   1 4314.27  110.39
  -1   4   1 4538.35  110.39
   0  -4  -1  607.04   16.20
   0  -4  -1  606.14   15.80
   0  -4  -1  623.04   15.80
   0  -4  -1  595.24   15.70
   0   4   1  627.14   15.70
   0   4   1  622.74   15.80
   0   4   1  584.04   15.60
  -1  -4  -1  555.44   14.70
  -1  -4  -1  550.14   14.30
  -1  -4  -1  555.64   14.70
  -1  -4  -1  537.15   14.40
   1   4   1  555.94   14.50
   1   4   1  506.25   14.10
  -2  -4  -1   -0.10    1.30
  -2  -4  -1    0.70    1.10
  -2  -4  -1    0.20    1.00
  -2  -4  -1   -0.40    1.10
   2   4   1    0.70    1.40
   2   4   1    1.30    1.20
   2   4   1   -0.40    1.10
  -3  -4  -1 1493.65   38.00
   3   4   1 1480.35   37.10
   3   4   1 1416.46   37.50
  -4  -4  -1   69.49    4.60
  -4  -4  -1   70.09    3.90
   4   4   1   57.79    4.10
   4   4   1   67.89    3.80
  -5  -4  -1 1559.74   39.30
  -5  -4  -1 1509.75   40.40
   5   4   1 1485.55   39.40
   5   4   1 1490.75   39.40
  -6  -4  -1  122.29    7.20
  -6  -4  -1  122.49    6.10
   6   4   1  127.39    6.10
   6   4   1  118.59    6.20
  -7  -4  -1   22.20    4.70
  -7  -4  -1   16.80    3.70
   7   4   1   23.60    3.70
   7   4   1   25.40    4.20
  -8  -4  -1  202.78   10.60
  -8  -4  -1  224.98    9.50
   8   4   1  216.58    9.10
   8   4   1  216.98    9.30
  -9  -4  -1  101.39    6.90
  -9  -4  -1   86.59    7.70
   9   4   1  104.29    6.40
  11  -5  -1    2.40    3.80
 -11   5   1    6.30    4.10
  10  -5  -1   51.49    5.80
 -10   5   1   49.50    5.90
   9  -5  -1  183.28    8.10
  -9   5   1  191.28    7.90
   8  -5  -1    6.30    4.60
  -8   5   1    4.50    3.20
  -8   5   1    4.70    2.80
   7  -5  -1  164.28    6.70
  -7   5   1  168.18    7.00
   6  -5  -1   -0.60    1.80
  -6   5   1   -1.40    1.80
   5  -5  -1   10.60    2.10
  -5   5   1   12.30    2.10
  -5   5   1   12.00    2.20
   4  -5  -1  328.77    9.70
   4  -5  -1  337.17    9.70
  -4   5   1  343.17    9.60
  -4   5   1  340.47   10.10
   3  -5  -1  336.57    9.60
   3  -5  -1  337.17    9.60
  -3   5   1  355.26    9.60
  -3   5   1  351.86   10.30
   2  -5  -1 1675.23   40.90
   2  -5  -1 1628.34   40.90
  -2   5   1 1664.93   40.90
  -2   5   1 1559.04   40.90
  -2   5   1 1706.63   41.80
   1  -5  -1  893.91   22.20
   1  -5  -1  862.51   21.90
   1  -5  -1  867.91   22.10
  -1   5   1  834.52   22.00
  -1   5   1  883.31   22.90
  -1   5   1  869.21   22.00
   0  -5  -1 1436.66   35.60
   0  -5  -1 1515.75   35.80
   0  -5  -1 1414.06   35.70
   0  -5  -1 1419.76   36.30
   0   5   1 1447.76   35.60
   0   5   1 1406.06   35.60
   0   5   1 1452.85   36.50
   0   5   1 1316.87   35.50
  -1  -5  -1  276.27    7.80
  -1  -5  -1  267.87    8.00
  -1  -5  -1  275.07    8.30
   1   5   1  258.87    8.00
   1   5   1  274.57    8.20
  -2  -5  -1   55.39    2.80
  -2  -5  -1   55.99    3.60
  -2  -5  -1   54.89    3.10
   2   5   1   53.39    3.70
   2   5   1   56.19    3.00
  -3  -5  -1   17.80    3.00
  -3  -5  -1   20.10    2.50
   3   5   1   15.50    2.90
   3   5   1   17.20    2.30
  -4  -5  -1  407.16   12.20
  -4  -5  -1  393.06   13.10
   4   5   1  404.56   12.10
   4   5   1  401.46   12.70
  -5  -5  -1   78.49    5.90
  -5  -5  -1   86.59    5.10
   5   5   1   91.09    5.40
  -6  -5  -1   92.89    5.60
  -6  -5  -1   90.29    6.50
   6   5   1   83.69    5.80
   6   5   1   91.29    5.40
  -7  -5  -1   64.49    6.50
  -7  -5  -1   70.39    5.50
   7   5   1   68.29    5.70
   7   5   1   70.49    5.10
   8   5   1    9.40    3.80
   8   5   1   11.40    3.10
   9   5   1   17.00    4.10
 -11   6   1    5.80    3.60
  10  -6  -1   42.20    5.30
   9  -6  -1   -0.40    2.90
  -9   6   1    7.00    3.30
   8  -6  -1   42.00    4.50
  -8   6   1   41.30    4.80
   7  -6  -1   35.30    4.00
  -7   6   1   41.90    4.80
   6  -6  -1 1076.39   27.90
  -6   6   1 1054.99   27.80
  -6   6   1 1050.59   28.60
   5  -6  -1  129.99    5.20
  -5   6   1  136.99    5.20
  -5   6   1  126.89    5.70
   4  -6  -1 1662.23   41.70
   4  -6  -1 1618.14   41.80
  -4   6   1 1695.63   41.70
  -4   6   1 1666.93   42.50
   3  -6  -1   16.30    1.80
   3  -6  -1   16.00    2.00
  -3   6   1   15.60    1.90
  -3   6   1   18.50    2.40
   2  -6  -1  327.77    9.30
   2  -6  -1  325.67    9.30
  -2   6   1  331.47   10.20
  -2   6   1  330.07    9.10
   1  -6  -1  677.33   18.20
   1  -6  -1  700.03   18.30
   1  -6  -1  722.03   18.40
  -1   6   1  705.23   18.30
  -1   6   1  727.93   19.40
   0  -6  -1   43.20    2.60
   0  -6  -1   40.40    2.60
   0  -6  -1   40.30    2.30
   0   6   1   41.50    3.30
   0   6   1   37.90    2.30
   0   6   1   42.50    2.40
  -1  -6  -1 1271.17   32.00
  -1  -6  -1 1323.07   32.70
  -1  -6  -1 1257.57   32.60
   1   6   1 1149.78   32.30
   1   6   1 1262.87   32.10
   1   6   1 1314.57   33.40
  -2  -6  -1  289.47    9.60
  -2  -6  -1  284.47    8.90
   2   6   1  281.77    8.70
  -3  -6  -1  163.98    6.30
  -3  -6  -1  164.48    7.20
   3   6   1  166.38    6.20
   3   6   1  168.68    7.20
  -4  -6  -1  273.27   10.40
  -4  -6  -1  280.27    9.30
   4   6   1  257.37    9.00
   4   6   1  268.47    9.90
  -5  -6  -1    5.30    2.90
  -5  -6  -1    4.30    3.30
   5   6   1    4.90    3.10
   5   6   1    3.70    2.60
  -6  -6  -1   19.70    3.70
  -6  -6  -1   21.40    4.70
   6   6   1   17.50    3.30
   6   6   1   15.30    3.80
  -7  -6  -1   30.70    4.50
  -7  -6  -1   27.90    5.60
   7   6   1   33.50    5.30
   7   6   1   38.90    4.50
  -8  -6  -1  104.19    8.20
  -8  -6  -1  115.09    7.40
   8   6   1  100.69    8.70
   8   6   1  133.59    6.70
  10  -7  -1   -4.70    4.20
   9  -7  -1  122.79    6.80
  -9   7   1  129.39    7.10
   8  -7  -1    1.00    2.70
  -8   7   1   -0.90    2.80
   7  -7  -1   58.49    4.40
  -7   7   1   47.20    5.90
   6  -7  -1  375.86   11.40
  -6   7   1  380.66   12.10
  -6   7   1  362.76   11.30
   5  -7  -1  267.97    8.50
   5  -7  -1  253.07    9.90
  -5   7   1  267.17    8.30
  -5   7   1  265.57    9.30
   4  -7  -1  277.27    8.50
  -4   7   1  284.37    9.60
  -4   7   1  276.27    8.40
   3  -7  -1  911.91   24.30
   3  -7  -1  949.21   24.30
  -3   7   1  947.31   24.20
  -3   7   1  953.70   25.60
   2  -7  -1   27.00    2.10
  -2   7   1   27.00    3.30
  -2   7   1   27.10    2.10
   1  -7  -1 1599.74   41.70
   1  -7  -1 1705.73   42.80
  -1   7   1 1701.13   43.20
  -1   7   1 1665.53   41.60
   0  -7  -1   25.70    2.20
   0  -7  -1   32.80    2.70
   0  -7  -1   28.70    2.60
   0   7   1   28.60    3.40
   0   7   1   26.50    2.30
  -1  -7  -1  481.35   13.90
  -1  -7  -1  484.75   13.50
   1   7   1  467.75   14.60
   1   7   1  479.95   13.40
  -2  -7  -1    2.80    2.20
  -2  -7  -1    1.30    1.60
  -2  -7  -1    0.10    1.90
   2   7   1    3.30    2.30
   2   7   1   -2.30    1.70
  -3  -7  -1   13.20    3.30
  -3  -7  -1   12.50    2.60
  -3  -7  -1   11.40    2.20
   3   7   1   19.30    3.40
   3   7   1   10.90    2.60
  -4  -7  -1  103.89    6.50
  -4  -7  -1  103.39    5.70
   4   7   1  104.49    5.30
  -5  -7  -1    9.70    2.90
  -5  -7  -1    5.30    3.40
   5   7   1   13.30    3.70
   5   7   1    5.60    2.80
  -6  -7  -1    1.40    3.40
  -6  -7  -1    2.40    2.90
   6   7   1    7.80    3.60
   6   7   1    6.00    3.10
  -7  -7  -1   31.60    4.80
   7   7   1   30.40    5.20
   7   7   1   18.50    3.90
  10  -8  -1   13.30    4.10
   9  -8  -1   16.60    3.80
  -9   8   1   19.00    4.00
   8  -8  -1   20.10    3.60
  -8   8   1   22.60    3.70
   7  -8  -1   61.89    4.70
  -7   8   1   62.49    4.70
   6  -8  -1   29.10    3.60
  -6   8   1   33.70    4.30
  -6   8   1   31.10    3.40
   5  -8  -1   21.00    2.90
   5  -8  -1   23.10    2.60
  -5   8   1   16.30    3.10
  -5   8   1   20.90    2.60
   4  -8  -1    1.90    1.50
   4  -8  -1    0.70    1.90
  -4   8   1   -2.20    2.30
  -4   8   1    2.20    1.60
   3  -8  -1   38.80    2.70
   3  -8  -1   43.20    3.10
  -3   8   1   41.30    3.60
  -3   8   1   36.60    4.20
   2  -8  -1   86.09    3.80
   2  -8  -1   93.19    4.10
  -2   8   1   92.79    5.60
  -2   8   1   94.59    3.80
   1  -8  -1   96.69    4.00
   1  -8  -1  102.69    4.30
  -1   8   1  100.19    5.70
  -1   8   1  103.59    4.00
   0  -8  -1 1992.20   48.60
   0  -8  -1 1873.31   48.30
   0   8   1 1954.40   50.09
   0   8   1 1903.81   49.30
  -1  -8  -1  986.50   26.60
  -1  -8  -1 1057.39   27.10
  -1  -8  -1 1030.20   27.50
   1   8   1 1039.80   28.50
   1   8   1 1025.00   26.70
  -2  -8  -1 1475.55   37.70
  -2  -8  -1 1420.06   36.80
   2   8   1 1377.86   36.50
   2   8   1 1411.66   38.20
  -3  -8  -1 1901.61   49.40
  -3  -8  -1 1905.11   48.20
   3   8   1 1864.81   49.60
   3   8   1 1845.92   47.90
  -4  -8  -1  215.68    8.40
  -4  -8  -1  204.38   10.00
   4   8   1  211.08    9.50
   4   8   1  216.68    8.00
  -5  -8  -1 1204.08   32.00
  -5  -8  -1 1151.18   33.50
   5   8   1 1145.19   32.90
   5   8   1 1175.68   31.50
  -6  -8  -1   15.50    3.70
  -6  -8  -1   16.60    4.50
   6   8   1    9.30    3.60
  -7  -8  -1  262.27   13.20
   7   8   1  286.87   11.50
   9  -9  -1    2.60    3.10
   8  -9  -1    2.80    2.70
  -8   9   1    4.60    2.90
   7  -9  -1   96.19    5.40
  -7   9   1   90.79    5.30
  -7   9   1   82.59    6.10
   6  -9  -1  183.78    7.40
  -6   9   1  180.98    8.20
  -6   9   1  164.38    6.70
   5  -9  -1  338.67   10.30
   5  -9  -1  309.77   10.50
  -5   9   1  337.07   11.80
  -5   9   1  338.77   10.10
   4  -9  -1   20.10    2.40
   4  -9  -1   16.90    2.60
  -4   9   1   14.60    2.20
  -4   9   1   14.00    3.30
   3  -9  -1   24.70    2.50
   3  -9  -1   23.20    2.90
  -3   9   1   26.80    3.60
   2  -9  -1   42.80    3.20
   2  -9  -1   42.50    2.70
  -2   9   1   44.50    2.80
  -2   9   1   40.70    4.60
   1  -9  -1    5.80    2.10
   1  -9  -1    8.20    1.80
  -1   9   1    3.50    2.60
  -1   9   1   10.40    1.80
   0  -9  -1  237.78    7.90
   0  -9  -1  268.87    8.40
   0   9   1  252.87   10.00
   0   9   1  259.37    8.90
  -1  -9  -1   12.30    2.10
  -1  -9  -1   20.30    3.10
  -1  -9  -1   16.00    2.70
   1   9   1   15.90    3.40
   1   9   1   22.40    2.40
  -2  -9  -1  335.27   10.80
  -2  -9  -1  338.07   11.60
   2   9   1  329.47   12.40
   2   9   1  340.07   10.40
  -3  -9  -1    8.40    3.30
  -3  -9  -1    7.00    2.60
   3   9   1    1.80    4.10
   3   9   1   14.40    2.60
  -4  -9  -1   71.09    5.00
  -4  -9  -1   68.59    6.10
   4   9   1   65.59    6.60
   4   9   1   86.49    5.10
  -5  -9  -1  174.58    7.80
  -5  -9  -1  168.38    9.20
   5   9   1  171.38    9.20
  -6  -9  -1  113.29    6.40
  -6  -9  -1  104.69    7.80
   6   9   1   85.39    7.30
   9 -10  -1   13.40    3.80
   8 -10  -1    0.50    2.50
   7 -10  -1    4.60    2.80
  -7  10   1    8.60    2.80
  -7  10   1    4.10    3.20
   6 -10  -1   82.19    5.00
   5 -10  -1  333.47   10.60
  -5  10   1  329.37   10.20
  -5  10   1  347.07   12.30
   4 -10  -1    4.50    2.30
  -4  10   1    0.70    2.80
  -4  10   1    3.50    1.70
   3 -10  -1  393.96   11.40
   3 -10  -1  340.97   12.00
  -3  10   1  391.86   11.10
  -3  10   1  404.76   13.60
   2 -10  -1    6.50    2.20
   2 -10  -1    6.60    1.90
  -2  10   1    5.50    2.80
   1 -10  -1   23.10    2.90
  -1  10   1   20.90    3.90
  -1  10   1   28.20    2.40
   0 -10  -1  189.08    6.80
   0  10   1  181.78    6.20
   0  10   1  177.48    8.70
  -1 -10  -1   57.59    3.90
  -1 -10  -1   58.99    4.40
   1  10   1   51.09    5.60
   1  10   1   59.19    4.10
  -2 -10  -1   47.80    4.10
  -2 -10  -1   62.29    4.80
   2  10   1   47.50    5.70
  -3 -10  -1   81.89    5.10
  -3 -10  -1   86.19    6.10
   3  10   1   78.09    6.80
  -4 -10  -1   41.80    5.00
  -4 -10  -1   24.10    3.70
   4  10   1   28.60    4.70
  -5 -10  -1   51.39    4.70
   5  10   1   41.00    6.00
   6  10   1   56.79    6.40
   7 -11  -1    6.20    2.70
  -7  11   1    1.80    3.60
   6 -11  -1    8.90    2.80
  -6  11   1    5.40    3.30
   5 -11  -1    2.40    2.40
  -5  11   1    5.30    3.30
   4 -11  -1   74.29    5.80
  -4  11   1   80.99    6.60
   3 -11  -1   12.10    2.50
  -3  11   1    7.10    3.20
   2 -11  -1   32.90    3.30
  -2  11   1   23.80    4.40
   1 -11  -1   28.10    3.30
  -1  11   1   22.20    4.30
   0 -11  -1   56.99    4.10
   0  11   1   61.49    6.20
  -1 -11  -1    4.80    2.60
  -1 -11  -1    5.20    2.50
   1  11   1    6.60    3.60
  -2 -11  -1  107.49    5.60
  -2 -11  -1  112.79    6.20
   2  11   1  104.29    7.80
  -3 -11  -1   50.69    4.90
  -3 -11  -1   41.90    4.40
   3  11   1   45.50    6.20
  -4 -11  -1   14.70    3.20
  -4 -11  -1   19.30    3.80
   5  11   1   28.20    6.00
   8 -12  -1   59.99    5.00
   7 -12  -1   55.39    5.20
  -7  12   1   45.40    6.60
   6 -12  -1  429.16   13.40
  -6  12   1  451.65   15.90
   5 -12  -1  212.58    7.80
  -5  12   1  214.88   10.30
   4 -12  -1   47.70    3.80
  -4  12   1   37.70    5.30
   3 -12  -1  337.77   10.60
  -3  12   1  345.77   13.60
   2 -12  -1  165.08    6.60
  -2  12   1  169.18    9.40
   1 -12  -1    3.10    2.50
  -1  12   1   -2.40    3.20
   0 -12  -1  142.19    6.10
   0  12   1  136.79    8.80
  -1 -12  -1   12.30    2.90
   1  12   1    2.30    3.80
  -2 -12  -1   12.50    3.30
   2  12   1   16.10    6.80
  -3 -12  -1    3.70    2.80
   3  12   1    8.30    4.10
  -4 -12  -1   80.99    6.10
   7 -13  -1   22.10    3.50
  -7  13   1   20.30    5.00
  -6  13   1   -4.30    3.40
   5 -13  -1   -0.40    2.10
  -5  13   1    1.10    3.40
  -4  13   1    0.70    3.50
  -3  13   1   67.39    7.10
  -2  13   1   -1.30    3.50
  -1  13   1  128.29   13.50
   0  13   1   82.89    7.50
   1  13   1    8.00    4.40
  -2 -13  -1  111.39    5.60
  -4  14   1   -2.80    3.60
  -3  14   1   23.40    5.40
  -2  14   1    5.60    4.70
   1  14  -2   20.00    4.80
   0  14  -2   32.10    5.50
  -1  14  -2   10.20    6.70
  -4  14  -2  298.37   13.00
  -5  14  -2    1.80    3.70
  -6  14  -2  409.76   16.30
   4  13  -2   17.50    4.70
   3  13  -2    0.80    3.50
  -3 -13   2   13.10    3.20
   2  13  -2   -0.50    3.30
  -2 -13   2    8.60    2.90
   1  13  -2    3.50    3.60
   0  13  -2   14.10    3.90
  -1  13  -2    3.90    3.50
  -2  13  -2  117.49    7.80
  -3  13  -2   24.50    4.80
  -4  13  -2  112.29    8.00
  -5  13  -2  222.28   10.80
  -6  13  -2    5.60    3.60
   7 -13   2   91.39    5.50
   8 -13   2    4.80    4.30
   5  12  -2   14.20    4.20
  -5 -12   2   19.00    2.90
   4  12  -2    7.30    3.60
  -4 -12   2   16.10    3.70
   3  12  -2   10.70    3.80
  -3 -12   2   13.30    3.20
   2  12  -2   -1.40    2.90
  -2 -12   2    5.50    2.40
   1  12  -2   21.30    4.30
   0  12  -2   13.30    3.80
  -1  12  -2   67.29    6.30
  -2  12  -2   75.99    6.40
  -3  12  -2   17.80    4.00
  -4  12  -2   13.30    3.70
  -5  12  -2   49.70    6.20
  -6  12  -2   80.89    7.10
   6 -12   2   73.59    4.50
   7 -12   2   -2.20    2.40
   8 -12   2   77.59    5.30
   6  11  -2    5.80    4.00
   5  11  -2   14.10    4.10
  -5 -11   2   24.00    4.70
  -5 -11   2   29.10    3.40
   4  11  -2   -0.40    3.10
  -4 -11   2    5.10    3.20
  -4 -11   2    4.40    2.10
   3  11  -2    2.00    3.40
  -3 -11   2    3.70    3.70
   2  11  -2   45.50    5.80
  -2 -11   2   46.60    4.40
  -1 -11   2  188.18    7.40
   0  11  -2   64.09    5.90
  -1  11  -2  539.25   17.40
  -2  11  -2    6.10    2.90
  -3  11  -2  776.22   24.50
  -4  11  -2   81.09    6.80
  -5  11  -2  419.76   14.60
   5 -11   2  404.96   11.90
  -6  11  -2  124.49    7.70
   6 -11   2  122.49    5.50
   7 -11   2   -3.50    2.40
   8 -11   2   33.90    4.30
   9 -11   2    4.60    3.10
   6  10  -2   16.40    3.90
  -6 -10   2   16.40    7.30
   5  10  -2   26.80    4.50
  -5 -10   2   32.20    3.70
  -5 -10   2   36.40    5.30
   4  10  -2  107.49    9.00
  -4 -10   2  124.79    5.50
  -4 -10   2  131.59    7.40
   3  10  -2   11.00    3.70
  -3 -10   2   15.90    2.50
  -3 -10   2    8.50    3.30
   2  10  -2    2.80    3.00
  -2 -10   2    6.00    2.90
   1  10  -2    5.60    2.90
  -1 -10   2   11.10    2.70
   0  10  -2    4.20    2.60
  -1  10  -2  106.69    6.40
  -2  10  -2  391.46   13.30
  -3  10  -2   74.59    5.70
  -4  10  -2   45.90    5.00
  -5  10  -2  105.29    6.70
   5 -10   2  104.99    4.80
   6 -10   2   91.49    7.10
   7 -10   2  160.98    6.90
   8 -10   2   83.69    5.60
   9 -10   2  117.29    6.80
   7   9  -2   33.80    5.50
  -7  -9   2   37.30    4.80
  -7  -9   2   26.30    5.30
   6   9  -2  137.09    7.50
  -6  -9   2  146.69    8.60
  -6  -9   2  151.48    7.00
   5   9  -2    1.30    2.50
  -5  -9   2    0.40    2.50
  -5  -9   2   -1.00    3.10
   4   9  -2  224.58    9.40
  -4  -9   2  221.18    9.60
  -4  -9   2  228.38    7.90
   3   9  -2   -0.60    2.40
  -3  -9   2    1.00    1.70
  -3  -9   2   -0.90    2.60
  -3  -9   2    0.00    1.80
   2   9  -2   -1.80    2.40
  -2  -9   2   -1.90    2.30
   1   9  -2  201.88    8.40
  -1  -9   2  199.38    7.30
   0   9  -2   41.00    4.40
  -1   9  -2   83.09    5.40
  -2   9  -2  147.59    7.00
  -3   9  -2    0.40    2.30
  -4   9  -2  347.97   11.80
   4  -9   2  344.17    9.80
   4  -9   2  321.07   10.20
  -5   9  -2    3.10    2.80
  -5   9  -2    3.10    1.60
   5  -9   2    1.00    2.10
   5  -9   2    6.50    1.70
   6  -9   2  338.17   10.60
  -7   9  -2  205.58    7.60
   7  -9   2  203.18    7.80
   8  -9   2  323.97   11.10
   9  -9   2   99.99    7.70
   7   8  -2    7.70    4.50
   7   8  -2    7.00    3.50
  -7  -8   2   12.10    3.50
  -7  -8   2   11.90    4.30
   6   8  -2   -4.00    3.30
   6   8  -2    7.70    2.40
   6   8  -2    0.80    2.40
  -6  -8   2    0.60    2.50
  -6  -8   2   -3.00    3.30
   5   8  -2  118.89    6.40
   5   8  -2  116.29    5.10
   5   8  -2  108.69    6.90
  -5  -8   2  113.69    7.00
  -5  -8   2  115.69   10.50
   4   8  -2  274.57    8.60
   4   8  -2  276.17   10.80
   4   8  -2  274.27   10.10
  -4  -8   2  286.07    9.10
  -4  -8   2  273.17   10.50
   3   8  -2   45.70    2.70
   3   8  -2   40.50    4.30
  -3  -8   2   40.70    3.10
  -3  -8   2   39.00    2.90
  -3  -8   2   37.30    4.30
   2   8  -2   27.20    3.70
  -2  -8   2   22.80    2.30
  -2  -8   2   23.60    3.30
   1   8  -2   52.59    4.20
  -1  -8   2   44.60    3.50
   0   8  -2  318.57   10.60
  -1   8  -2 1209.48   32.10
  -2   8  -2  248.58    9.00
  -3   8  -2 3089.19   77.69
  -4   8  -2  184.28    5.90
  -4   8  -2  184.28    7.70
   4  -8   2  175.88    5.90
   4  -8   2  179.58    6.10
  -5   8  -2 2016.20   52.19
  -5   8  -2 2172.18   53.89
   5  -8   2 2204.08   52.29
   5  -8   2 1960.10   52.19
   6  -8   2    6.90    2.30
   6  -8   2    7.70    1.80
  -7   8  -2  750.92   20.40
   7  -8   2  718.53   22.30
  -8   8  -2   88.39    5.40
   8  -8   2   70.19    5.30
  -9   8  -2  165.08    7.50
   9  -8   2  154.88    7.70
  10  -8   2    8.30    3.70
   8   7  -2  236.88   12.10
  -8  -7   2  213.18   11.20
  -8  -7   2  236.08    9.70
   7   7  -2   17.20    4.30
   7   7  -2   13.90    3.00
   7   7  -2   13.60    3.00
  -7  -7   2   13.10    3.60
  -7  -7   2    8.40    4.10
   6   7  -2  115.59    5.40
   6   7  -2  109.99    6.80
   6   7  -2  114.09    6.30
  -6  -7   2  115.59    6.00
  -6  -7   2   99.59    7.10
   5   7  -2  206.18    7.40
   5   7  -2  209.58    8.40
   5   7  -2  212.08    9.00
  -5  -7   2  213.28    7.90
  -5  -7   2  207.18    9.20
   4   7  -2   54.49    3.30
   4   7  -2   54.59    4.50
   4   7  -2   52.79    4.70
  -4  -7   2   51.29    4.70
  -4  -7   2   57.09    3.60
  -4  -7   2   48.50    3.30
   3   7  -2  439.86   13.80
   3   7  -2  444.16   13.40
   3   7  -2  417.06   12.00
  -3  -7   2  447.36   13.60
  -3  -7   2  453.75   12.40
  -3  -7   2  434.16   12.10
   2   7  -2  238.88    8.40
  -2  -7   2  240.18    8.20
  -2  -7   2  243.28    7.10
  -2  -7   2  228.68    6.90
   1   7  -2  189.28    7.10
  -1  -7   2  193.28    6.50
   0   7  -2  133.39    5.60
   0  -7   2  128.89    4.60
  -1   7  -2  465.85   13.70
  -2   7  -2  989.70   25.60
  -2   7  -2  953.30   24.30
   2  -7   2  911.21   24.20
  -3   7  -2   33.20    5.10
   3  -7   2   34.40    2.10
   3  -7   2   33.50    2.20
  -4   7  -2 1967.10   49.90
  -4   7  -2 1977.80   48.50
   4  -7   2 1873.31   48.60
   4  -7   2 1991.20   48.60
  -5   7  -2  556.44   15.40
   5  -7   2  575.74   15.60
   6  -7   2  301.87   10.00
   6  -7   2  361.16   10.50
  -7   7  -2  138.89    6.30
   7  -7   2  146.09    6.40
  -8   7  -2    0.50    2.90
   8  -7   2    0.30    2.70
  -9   7  -2   16.70    3.90
   9  -7   2   19.00    3.80
 -10   7  -2    9.90    3.50
  10  -7   2    2.40    3.50
   9   6  -2    0.90    3.50
  -9  -6   2    3.40    4.60
  -9  -6   2    6.50    3.40
   8   6  -2    8.60    3.00
   8   6  -2    7.70    3.80
  -8  -6   2    6.60    3.10
  -8  -6   2   -0.80    3.70
   7   6  -2   92.79    6.50
   7   6  -2   85.49    5.50
   7   6  -2   92.59    5.40
  -7  -6   2  100.99    5.80
  -7  -6   2   82.39    6.70
   6   6  -2  148.49    6.70
   6   6  -2  150.18    8.20
   6   6  -2  149.59    6.30
  -6  -6   2  162.38    6.80
  -6  -6   2  145.39    9.20
   5   6  -2   52.69    3.60
   5   6  -2   55.09    4.80
   5   6  -2   55.29    4.70
  -5  -6   2   45.60    3.30
  -5  -6   2   47.60    4.70
  -5  -6   2   48.70    3.80
   4   6  -2  295.67   10.20
   4   6  -2  295.67    9.00
   4   6  -2  305.57    9.80
  -4  -6   2  302.67   10.40
  -4  -6   2  300.17    9.20
   3   6  -2  749.03   19.60
   3   6  -2  757.52   21.00
   3   6  -2  762.52   20.60
  -3  -6   2  780.82   21.30
  -3  -6   2  749.82   20.40
  -3  -6   2  740.93   19.60
   2   6  -2  358.16   12.50
   2   6  -2  354.86   10.70
  -2  -6   2  366.56   10.70
  -2  -6   2  346.37    9.50
  -2  -6   2  352.76    9.70
   1   6  -2  247.08    8.20
   1   6  -2  267.67    8.40
  -1  -6   2  267.97    7.90
   0   6  -2 1559.14   39.20
   0  -6   2 1568.74   38.30
   0  -6   2 1476.15   38.60
  -1   6  -2 1511.85   36.80
  -1   6  -2 1484.35   37.60
   1  -6   2 1412.56   36.70
  -2   6  -2  113.99    4.80
  -2   6  -2  108.79    3.80
   2  -6   2  110.79    3.80
  -3   6  -2  307.57    8.50
  -3   6  -2  312.07    9.00
  -3   6  -2  312.47    9.80
  -3   6  -2  308.57    8.70
   3  -6   2  326.67    8.70
  -4   6  -2  811.92   22.40
  -4   6  -2  807.72   21.30
  -4   6  -2  904.41   23.00
   4  -6   2  842.02   21.50
   4  -6   2  793.42   21.40
  -5   6  -2  185.08    6.00
   5  -6   2  194.98    6.50
  -6   6  -2  334.87    9.90
   6  -6   2  333.17   10.40
  -7   6  -2  161.38    6.10
  -7   6  -2  164.88    7.00
   7  -6   2  162.08    6.80
  -8   6  -2   40.70    4.80
  -8   6  -2   43.70    4.20
  -8   6  -2   31.10    3.50
   8  -6   2   40.60    4.60
  -9   6  -2    2.20    3.00
  -9   6  -2   10.90    2.70
  -9   6  -2   16.60    3.20
   9  -6   2    5.60    3.20
 -10   6  -2  434.96   16.30
 -10   6  -2  479.55   16.90
 -10   6  -2  461.65   15.20
  10  -6   2  418.66   14.90
   9   5  -2   10.90    3.20
  -9  -5   2   11.50    3.50
  -9  -5   2   13.40    4.60
   8   5  -2   88.69    6.50
   8   5  -2  108.39    6.00
  -8  -5   2   94.19    7.30
  -8  -5   2   93.39    6.00
   7   5  -2   -0.60    2.00
   7   5  -2   -2.30    3.00
   7   5  -2    0.80    2.40
  -7  -5   2    1.10    2.40
  -7  -5   2    1.00    3.10
   6   5  -2   10.60    2.60
   6   5  -2    8.60    3.20
  -6  -5   2    9.20    2.70
  -6  -5   2    8.70    3.20
   5   5  -2    3.70    2.70
   5   5  -2    2.70    1.90
   5   5  -2    2.00    1.90
  -5  -5   2    3.90    2.10
  -5  -5   2    3.50    2.60
   4   5  -2  158.28    5.60
   4   5  -2  153.88    6.50
   4   5  -2  166.98    6.10
  -4  -5   2  161.18    5.70
  -4  -5   2  166.78    6.80
   3   5  -2   27.70    2.70
   3   5  -2   31.10    2.10
   3   5  -2   28.90    3.00
  -3  -5   2   31.30    3.10
  -3  -5   2   32.10    2.20
  -3  -5   2   28.10    2.00
   2   5  -2  360.56   11.00
   2   5  -2  358.76    9.70
   2   5  -2  360.36   10.60
   2   5  -2  375.36   10.70
   2   5  -2  370.06    9.90
  -2  -5   2  386.36   10.00
  -2  -5   2  374.26    9.80
  -2  -5   2  383.96   10.80
   1   5  -2 1191.68   30.20
   1   5  -2 1144.19   29.80
  -1  -5   2 1199.48   29.90
  -1  -5   2 1173.38   30.10
  -1  -5   2 1186.28   30.20
   0   5  -2 1181.28   29.30
   0   5  -2 1170.88   29.70
   0  -5   2 1151.18   29.60
   0  -5   2 1154.88   29.00
   0  -5   2 1142.39   29.30
   0  -5   2 1147.39   29.60
  -1   5  -2 1470.55   37.40
  -1   5  -2 1523.85   36.90
   1  -5   2 1473.35   37.40
   1  -5   2 1448.85   36.80
  -2   5  -2 1190.18   29.80
  -2   5  -2 1216.88   30.60
   2  -5   2 1163.08   30.60
   2  -5   2 1197.28   29.80
  -3   5  -2 1435.46   34.80
  -3   5  -2 1401.56   34.90
  -3   5  -2 1324.87   34.70
  -3   5  -2 1420.46   35.70
   3  -5   2 1400.36   34.80
   3  -5   2 1406.96   34.80
  -4   5  -2   21.80    2.10
  -4   5  -2   16.00    1.70
   4  -5   2   21.10    2.10
   4  -5   2   18.30    1.80
  -5   5  -2  181.08    6.00
   5  -5   2  173.68    6.20
  -6   5  -2   48.40    3.50
  -6   5  -2   50.99    3.80
  -6   5  -2   51.79    3.40
   6  -5   2   47.90    3.70
  -7   5  -2  202.18    7.80
  -7   5  -2  184.58    7.70
   7  -5   2  204.18    7.70
  -8   5  -2   29.70    4.30
  -8   5  -2   31.20    4.20
   8  -5   2   32.50    4.30
  -9   5  -2  108.99    6.50
  -9   5  -2  103.69    6.50
   9  -5   2  100.29    6.30
 -10   5  -2  314.67   11.60
 -10   5  -2  282.27   11.40
 -10   5  -2  287.37   10.60
  10  -5   2  245.48   14.60
  10   4  -2   20.00    4.20
  10   4  -2    7.50    4.50
   9   4  -2  139.19    7.70
   9   4  -2  136.29    7.90
  -9  -4   2  128.49    8.40
  -9  -4   2  137.99    7.60
   8   4  -2   40.20    5.20
   8   4  -2   48.80    4.80
  -8  -4   2   45.80    4.70
  -8  -4   2   45.30    5.60
   7   4  -2   79.89    5.80
   7   4  -2   86.59    5.30
  -7  -4   2   91.59    6.90
  -7  -4   2   98.09    6.70
   6   4  -2  481.75   14.90
   6   4  -2  498.15   14.20
  -6  -4   2  485.25   15.50
  -6  -4   2  484.55   14.30
   5   4  -2  314.67    9.60
   5   4  -2  312.07   10.30
  -5  -4   2  309.77   10.80
  -5  -4   2  328.77    9.80
   4   4  -2  539.45   15.80
   4   4  -2  523.95   14.20
  -4  -4   2  528.85   18.00
  -4  -4   2  524.25   14.20
   3   4  -2 2145.19   53.09
   3   4  -2 2109.19   53.59
   3   4  -2 2117.69   52.79
  -3  -4   2 2224.78   53.89
  -3  -4   2 2121.99   52.69
  -3  -4   2 2113.39   52.89
   2   4  -2  612.14   16.00
   2   4  -2  648.54   17.00
   2   4  -2  638.04   16.70
   2   4  -2  619.84   16.10
  -2  -4   2  635.74   16.10
  -2  -4   2  654.83   17.00
  -2  -4   2  623.34   16.10
  -2  -4   2  640.34   16.80
   1   4  -2  667.83   17.80
   1   4  -2  682.83   18.10
   1   4  -2  688.83   17.90
  -1  -4   2  682.83   17.90
  -1  -4   2  697.93   17.80
  -1  -4   2  711.93   18.00
   0   4  -2   43.20    2.10
   0   4  -2   43.50    2.40
   0  -4   2   39.70    2.10
   0  -4   2   41.90    2.20
   0  -4   2   40.20    2.00
  -1   4  -2   31.80    1.70
  -1   4  -2   29.40    2.10
   1  -4   2   28.90    2.00
   1  -4   2   25.90    1.50
  -2   4  -2 1329.97   32.10
  -2   4  -2 1311.47   32.40
  -2   4  -2 1273.47   32.00
  -2   4  -2 1288.97   32.90
   2  -4   2 1293.17   32.00
   2  -4   2 1312.87   32.00
   2  -4   2 1288.07   33.00
  -3   4  -2 1287.77   32.00
  -3   4  -2 1229.48   31.80
   3  -4   2 1261.07   31.90
   3  -4   2 1320.67   31.90
   3  -4   2 1338.37   32.00
   3  -4   2 1240.18   32.50
  -4   4  -2   25.30    2.00
  -4   4  -2   26.40    2.10
   4  -4   2   27.00    2.00
   4  -4   2   28.90    2.20
   4  -4   2   26.40    1.90
  -5   4  -2  191.38    6.50
  -5   4  -2  195.38    6.70
   5  -4   2  185.18    6.40
  -6   4  -2  161.98    6.30
  -6   4  -2  162.98    6.60
   6  -4   2  165.38    6.40
  -7   4  -2   40.60    4.30
  -7   4  -2   34.60    4.20
   7  -4   2   33.20    3.90
  -8   4  -2  278.57   10.60
  -8   4  -2  277.27   10.20
   8  -4   2  280.17   10.10
  -9   4  -2    1.40    3.00
  -9   4  -2    4.40    3.40
   9  -4   2    0.40    3.00
 -10   4  -2  186.78    9.20
 -10   4  -2  178.58    8.80
 -11   4  -2    6.30    3.60
  10   3  -2   18.30    3.90
  10   3  -2   15.90    4.50
 -10  -3   2   10.90    5.20
 -10  -3   2   16.70    4.10
   9   3  -2   -1.20    3.30
   9   3  -2    5.00    4.50
  -9  -3   2    6.40    3.30
  -9  -3   2   -3.60    3.50
   8   3  -2  256.57    9.40
   8   3  -2  232.78    9.70
  -8  -3   2  256.07    9.60
  -8  -3   2  242.88   10.80
   7   3  -2   95.49    5.40
   7   3  -2   93.89    5.70
  -7  -3   2   90.69    6.20
  -7  -3   2   96.09    5.40
   6   3  -2  342.87   11.10
   6   3  -2  350.96   10.70
  -6  -3   2  334.07   11.70
  -6  -3   2  342.37   10.80
   5   3  -2  170.38    6.60
   5   3  -2  184.08    6.30
  -5  -3   2  190.88    7.40
  -5  -3   2  187.38    6.50
   4   3  -2   84.09    3.50
   4   3  -2   79.29    3.90
  -4  -3   2   85.29    3.60
  -4  -3   2   83.09    3.40
  -4  -3   2   86.49    4.40
   3   3  -2  246.98    7.70
   3   3  -2  249.28    7.60
   3   3  -2  238.08    7.00
  -3  -3   2  245.58    7.60
  -3  -3   2  256.67    7.10
  -3  -3   2  262.57    7.90
   2   3  -2    4.10    1.20
   2   3  -2    5.40    0.90
   2   3  -2    4.10    0.80
   2   3  -2    5.80    1.10
  -2  -3   2    4.30    1.20
  -2  -3   2    3.80    1.10
  -2  -3   2    5.20    0.90
  -2  -3   2    7.00    1.30
   1   3  -2 4351.36  106.99
   1   3  -2 4308.77  106.89
  -1  -3   2 4343.47  106.79
  -1  -3   2 4445.16  106.89
  -1  -3   2 4458.35  106.99
  -1   3  -2  702.83   18.20
  -1   3  -2  722.73   18.30
   1  -3   2  695.73   18.20
   1  -3   2  713.83   17.90
  -2   3  -2   10.20    1.10
  -2   3  -2   12.30    1.00
  -2   3  -2   10.50    1.10
   2  -3   2   10.80    1.20
   2  -3   2   12.60    1.50
   2  -3   2   13.30    1.20
   2  -3   2   11.40    1.10
  -3   3  -2  442.96   11.90
  -3   3  -2  444.16   12.10
  -3   3  -2  422.66   11.60
   3  -3   2  422.26   12.00
   3  -3   2  453.85   11.70
   3  -3   2  437.56   11.60
   3  -3   2  462.55   11.90
  -4   3  -2 1050.19   26.60
  -4   3  -2 1104.79   27.00
   4  -3   2 1017.70   27.60
   4  -3   2 1022.90   26.50
   4  -3   2 1042.60   26.60
   4  -3   2 1017.00   27.20
  -5   3  -2   63.39    3.60
  -5   3  -2   68.59    3.90
   5  -3   2   65.99    3.50
  -6   3  -2   32.30    3.50
   6  -3   2   30.30    3.20
  -7   3  -2   -3.10    2.10
  -7   3  -2    0.30    2.30
   7  -3   2   -2.30    2.10
  -8   3  -2   15.30    3.60
  -8   3  -2   22.80    4.00
   8  -3   2   19.70    3.80
  -9   3  -2    4.30    3.30
  -9   3  -2    9.60    3.80
   9  -3   2    3.60    3.10
 -10   3  -2   90.09    7.00
 -10   3  -2   66.69    6.00
  10  -3   2   70.79    7.40
 -11   3  -2   10.30    3.80
 -11   3  -2   13.50    3.90
  11  -3   2    0.10    3.50
  11   2  -2  225.68   10.10
  10   2  -2   70.99    6.30
  10   2  -2   57.29    7.00
 -10  -2   2   51.69    6.80
   9   2  -2  433.46   14.60
  -9  -2   2  415.66   15.60
  -9  -2   2  441.56   14.60
   8   2  -2 1411.66   37.70
  -8  -2   2 1448.56   38.30
   7   2  -2   33.30    4.00
   7   2  -2   34.80    3.80
  -7  -2   2   33.30    3.90
  -7  -2   2   26.20    4.10
   6   2  -2 3159.98   77.69
   6   2  -2 3125.29   78.09
  -6  -2   2 3165.88   77.79
  -6  -2   2 3047.60   78.69
   5   2  -2  162.18    6.30
   5   2  -2  155.38    5.50
  -5  -2   2  159.48    7.50
  -5  -2   2  150.08    5.70
   4   2  -2 1191.98   30.40
   4   2  -2 1164.58   30.00
  -4  -2   2 1192.18   30.00
  -4  -2   2 1239.58   30.90
  -4  -2   2 1155.68   30.10
   3   2  -2  670.03   17.30
   3   2  -2  659.43   17.00
  -3  -2   2  653.63   17.00
  -3  -2   2  680.53   17.70
  -3  -2   2  662.23   17.50
  -3  -2   2  651.03   17.00
   2   2  -2  785.42   19.80
   2   2  -2  750.52   19.60
   2   2  -2  760.42   19.20
   2   2  -2  753.52   19.20
  -2  -2   2  761.12   19.30
  -2  -2   2  785.02   19.80
  -2  -2   2  792.82   19.70
   0   2  -2 1192.38   29.00
   0   2  -2 1131.99   28.90
   0  -2   2 1169.98   29.00
   0  -2   2 1173.98   28.80
   0  -2   2 1183.98   29.00
  -1   2  -2 2383.36   57.39
   1  -2   2 2392.16   57.79
   1  -2   2 2358.06   57.79
   1  -2   2 2300.17   57.39
  -2   2  -2   35.80    1.70
  -2   2  -2   36.90    1.90
  -2   2  -2   34.10    1.60
   2  -2   2   35.30    1.90
   2  -2   2   34.60    1.90
   2  -2   2   36.20    1.70
   2  -2   2   36.30    1.60
  -3   2  -2    3.80    1.10
  -3   2  -2    4.30    1.30
   3  -2   2    3.30    1.00
   3  -2   2    2.70    1.00
   3  -2   2    3.10    1.10
  -4   2  -2   46.90    3.00
  -4   2  -2   48.50    2.70
   4  -2   2   47.40    2.70
   4  -2   2   45.80    2.60
  -5   2  -2  295.67    9.40
  -5   2  -2  278.97    8.80
   5  -2   2  279.07    8.80
  -6   2  -2   35.60    3.60
  -6   2  -2   32.70    3.80
   6  -2   2   32.60    3.40
  -7   2  -2   32.60    4.20
  -7   2  -2   32.10    4.30
   7  -2   2   33.50    3.90
  -8   2  -2   94.09    6.50
  -8   2  -2  101.89    6.20
   8  -2   2  101.79    7.10
  -9   2  -2  114.49    7.00
  -9   2  -2  110.29    7.40
   9  -2   2  124.19    7.00
 -10   2  -2   24.80    4.60
 -10   2  -2   32.60    5.00
  10  -2   2   24.70    4.60
  11   1  -2   54.79    6.00
 -11  -1   2   59.99    6.80
  10   1  -2  176.98    8.40
  10   1  -2  163.58    8.60
 -10  -1   2  158.48    9.20
 -10  -1   2  174.38    8.70
   9   1  -2   54.99    5.50
  -9  -1   2   64.99    5.50
  -9  -1   2   64.49    6.20
   8   1  -2  988.50   26.40
   8   1  -2  948.41   26.50
  -8  -1   2  962.50   26.40
  -8  -1   2  931.01   27.40
   7   1  -2  459.75   14.00
   7   1  -2  467.25   13.80
  -7  -1   2  438.76   14.60
  -7  -1   2  477.75   14.00
   6   1  -2 2542.05   63.29
  -6  -1   2 2526.35   64.19
   5   1  -2 4005.70   98.19
  -5  -1   2 3982.90   98.39
  -5  -1   2 4097.29   98.99
  -5  -1   2 3896.91   98.79
   4   1  -2 2189.68   55.79
   4   1  -2 2242.08   55.79
   4   1  -2 2242.98   56.29
  -4  -1   2 2267.37   55.89
  -4  -1   2 2372.36   56.49
  -4  -1   2 2226.68   55.79
  -2   1  -2  354.86    9.60
  -2   1  -2  356.56    9.60
  -2   1  -2  340.77    9.20
   2  -1   2  352.06    9.50
   2  -1   2  336.87    9.20
  -3   1  -2  990.10   25.90
  -3   1  -2 1035.50   26.10
  -3   1  -2 1057.69   26.40
   3  -1   2 1002.60   25.80
   3  -1   2  991.60   25.80
   3  -1   2 1055.79   26.30
  -4   1  -2  203.78    6.40
  -4   1  -2  209.88    7.10
   4  -1   2  187.38    6.30
   4  -1   2  203.58    6.40
   4  -1   2  197.28    7.10
  -5   1  -2 1170.68   30.90
  -5   1  -2 1111.99   30.10
   5  -1   2 1208.48   30.70
  -6   1  -2  172.08    7.50
  -6   1  -2  181.98    6.90
   6  -1   2  175.78    6.80
  -7   1  -2  885.81   25.60
  -7   1  -2  895.41   24.60
   7  -1   2  895.01   24.50
  -8   1  -2   53.89    5.10
  -8   1  -2   62.29    6.20
   8  -1   2   72.49    6.80
   8  -1   2   59.19    4.90
  -9   1  -2  109.89    6.90
  -9   1  -2  101.29    7.50
   9  -1   2  102.99    6.30
   9  -1   2  107.79    6.60
 -10   1  -2   19.80    4.90
 -10   1  -2   15.50    4.00
  10  -1   2   13.70    3.90
  11   0  -2  308.97   13.00
  11   0  -2  252.07   11.50
 -11   0   2  277.77   12.40
 -11   0   2  282.97   11.70
  10   0  -2  164.78    8.50
  10   0  -2  176.48    8.50
 -10   0   2  160.98    9.00
 -10   0   2  172.28    8.70
   9   0  -2  336.17   12.00
  -9   0   2  352.46   12.10
  -9   0   2  325.37   12.60
   8   0  -2   80.39    5.40
  -8   0   2   75.29    5.60
  -8   0   2   72.39    5.30
   7   0  -2  192.68    7.20
  -7   0   2  186.98    7.40
  -7   0   2  190.58    7.90
   6   0  -2   15.30    3.10
  -6   0   2   11.90    2.70
  -6   0   2   13.90    2.90
   5   0  -2    3.30    1.50
  -5   0   2    1.50    1.60
  -5   0   2   -0.40    1.60
   4   0  -2   92.29    4.00
   4   0  -2   81.49    3.50
   4   0  -2   78.89    3.40
  -4   0   2   85.59    3.80
  -4   0   2   99.89    3.90
  -4   0   2   84.79    3.60
   3   0  -2   60.49    2.60
   3   0  -2   54.89    2.40
   3   0  -2   57.79    2.50
  -3   0   2   62.49    2.70
  -3   0   2   55.89    2.40
  -3   0   2   62.59    2.60
  -3   0   2   64.29    2.40
   1   0  -2   96.99    2.90
   1   0  -2   96.09    2.80
   1   0  -2   97.19    2.90
  -1   0   2   96.99    2.90
  -1   0   2   99.89    2.80
  -1   0  -2  315.37    8.40
  -1   0  -2  313.27    8.40
  -1   0  -2  333.47    8.80
   1   0   2  316.37    8.70
   1   0   2  319.77    8.40
  -2   0  -2   13.20    1.20
  -2   0  -2   15.60    1.70
  -2   0  -2   14.20    1.40
   2   0   2   16.10    1.40
   2   0   2   14.90    1.30
   2   0   2   13.20    1.50
  -3   0  -2  101.19    3.60
  -3   0  -2   98.59    4.20
  -3   0  -2   98.69    3.70
   3   0   2   95.29    3.70
   3   0   2   97.39    3.90
  -4   0  -2   12.70    1.80
  -4   0  -2   11.10    2.30
   4   0   2   13.60    1.90
  -5   0  -2  210.48    8.00
   5   0   2  212.68    7.70
  -6   0  -2   89.49    5.70
  -6   0  -2   96.39    5.10
   6   0   2  103.49    4.80
   6   0   2   91.49    5.00
  -7   0  -2   19.30    3.80
  -7   0  -2   25.20    3.70
   7   0   2   24.20    3.80
   7   0   2   20.60    3.60
  -8   0  -2  111.19    7.40
  -8   0  -2  112.29    6.70
   8   0   2  120.19    6.30
   8   0   2  119.29    7.00
  -9   0  -2   23.00    4.90
  -9   0  -2   19.60    4.30
   9   0   2   17.60    3.90
   9   0   2   24.80    4.30
 -10   0  -2    1.30    3.20
 -10   0  -2    6.00    3.70
  10   0   2    2.80    4.00
  10   0   2    7.00    3.30
  11  -1  -2   22.70    4.80
  11  -1  -2    9.20    4.60
 -11   1   2   21.00    4.60
 -11   1   2   22.20    4.60
  10  -1  -2   37.90    5.20
 -10   1   2   40.70    5.10
 -10   1   2   33.90    5.40
   9  -1  -2   24.90    4.20
  -9   1   2   29.00    4.50
  -9   1   2   34.40    4.90
   8  -1  -2  320.27   10.80
  -8   1   2  315.37   11.40
   7  -1  -2   51.59    4.10
  -7   1   2   49.20    4.20
  -7   1   2   38.90    4.30
   6  -1  -2  684.53   19.10
  -6   1   2  704.13   19.20
  -6   1   2  718.73   19.50
   5  -1  -2  227.28    7.40
   5  -1  -2  225.58    7.40
  -5   1   2  260.17    7.70
  -5   1   2  231.48    7.60
   4  -1  -2  223.48    6.70
   4  -1  -2  221.08    6.70
   4  -1  -2  214.38    6.70
  -4   1   2  241.58    6.80
  -4   1   2  218.78    6.80
  -4   1   2  211.98    6.60
   3  -1  -2  135.29    4.40
   3  -1  -2  139.89    4.40
   3  -1  -2  139.09    4.40
  -3   1   2  148.99    4.10
  -3   1   2  138.29    4.50
  -3   1   2  132.29    4.30
  -3   1   2  145.89    4.40
   2  -1  -2 2745.93   66.09
  -2   1   2 2675.83   65.99
  -2   1   2 2705.33   66.09
  -2   1   2 2684.23   66.09
   1  -1  -2 1001.70   24.90
   1  -1  -2 1011.20   25.10
   1  -1  -2 1003.70   25.10
  -1   1   2 1020.70   25.10
  -1   1   2 1029.10   25.10
   0  -1  -2 2384.36   58.29
   0  -1  -2 2379.36   58.39
   0   1   2 2387.06   58.39
  -1  -1  -2  349.27    9.40
  -1  -1  -2  338.97    9.10
   1   1   2  339.97    9.10
   1   1   2  338.27    9.30
   1   1   2  338.37    9.10
  -2  -1  -2   17.10    1.90
  -2  -1  -2   17.10    1.60
  -2  -1  -2   17.40    1.50
   2   1   2   16.90    1.60
   2   1   2   15.70    1.40
   2   1   2   16.30    1.40
   2   1   2   16.80    1.70
  -3  -1  -2  108.59    4.60
  -3  -1  -2  107.49    4.10
  -3  -1  -2  103.09    3.80
   3   1   2  105.29    4.00
   3   1   2  102.09    4.20
   3   1   2  106.09    3.80
  -4  -1  -2   26.40    3.00
  -4  -1  -2   24.80    2.50
   4   1   2   28.30    2.30
   4   1   2   24.50    2.40
  -5  -1  -2  562.54   16.90
  -5  -1  -2  563.14   16.00
   5   1   2  562.54   15.90
   5   1   2  567.54   15.80
  -6  -1  -2    0.00    2.40
  -6  -1  -2    1.20    2.20
   6   1   2    0.40    2.00
   6   1   2    0.90    2.10
  -7  -1  -2   37.50    5.10
  -7  -1  -2   29.90    3.90
   7   1   2   29.70    3.90
   7   1   2   29.80    3.80
  -8  -1  -2   85.59    6.80
  -8  -1  -2   92.69    6.30
   8   1   2   89.69    6.10
   8   1   2   90.39    9.20
  -9  -1  -2   -3.80    3.20
  -9  -1  -2   -1.20    3.00
   9   1   2    3.30    3.10
   9   1   2   -1.80    2.80
 -10  -1  -2   10.60    3.80
 -10  -1  -2    9.70    4.60
  10   1   2   16.60    3.90
  10   1   2    4.60    3.50
  11  -2  -2  644.64   20.50
 -11   2   2  646.94   20.90
  10  -2  -2  102.99    6.80
 -10   2   2   99.79    6.70
 -10   2   2   84.89    6.80
   9  -2  -2  273.17   10.10
  -9   2   2  253.07   10.20
   8  -2  -2    3.40    2.60
  -8   2   2    3.90    2.80
  -8   2   2    1.40    2.40
   7  -2  -2   14.30    2.80
  -7   2   2   14.70    3.00
  -7   2   2   12.00    2.80
   6  -2  -2  217.28    7.40
  -6   2   2  211.78    9.70
  -6   2   2  225.68    7.60
   5  -2  -2   99.59    4.10
   5  -2  -2  113.09    4.50
  -5   2   2  124.69    4.50
  -5   2   2  112.09    4.50
   4  -2  -2  189.58    5.80
   4  -2  -2  193.38    6.00
  -4   2   2  189.28    6.00
  -4   2   2  197.98    6.10
  -4   2   2  202.28    5.90
   3  -2  -2  410.36   10.80
   3  -2  -2  414.06   10.60
   3  -2  -2  396.36   10.80
  -3   2   2  391.96   10.70
  -3   2   2  389.26   10.50
  -3   2   2  397.06   10.50
  -3   2   2  407.46   10.80
   2  -2  -2    3.90    0.90
   2  -2  -2    4.40    0.90
  -2   2   2    4.30    0.90
  -2   2   2    5.00    0.90
  -2   2   2    5.60    1.00
   1  -2  -2  274.97    7.40
   1  -2  -2  272.67    7.40
  -1   2   2  273.67    7.40
  -1   2   2  268.17    7.40
   0  -2  -2 2551.24   60.69
   0  -2  -2 2421.96   60.59
   0   2   2 2388.06   60.59
   0   2   2 2498.75   60.59
   0   2   2 2501.25   60.69
  -1  -2  -2 3160.48   75.59
  -1  -2  -2 3016.10   75.59
  -1  -2  -2 3120.69   75.49
  -1  -2  -2 3191.58   75.99
   1   2   2 2992.30   75.49
   1   2   2 3017.10   75.49
   1   2   2 3015.30   75.59
   1   2   2 3158.78   75.79
  -2  -2  -2   53.79    2.40
  -2  -2  -2   51.09    2.40
  -2  -2  -2   53.29    2.60
  -2  -2  -2   53.79    3.00
   2   2   2   51.79    2.40
   2   2   2   51.59    2.70
   2   2   2   52.09    2.60
   2   2   2   52.99    2.60
  -3  -2  -2  338.87   10.00
  -3  -2  -2  357.46   10.30
  -3  -2  -2  359.66   10.90
   3   2   2  368.26   10.20
   3   2   2  351.36   10.10
  -4  -2  -2 1192.58   32.10
  -4  -2  -2 1226.88   31.40
   4   2   2 1217.78   31.20
   4   2   2 1204.98   31.10
  -5  -2  -2  317.97   11.30
  -5  -2  -2  328.97   10.40
   5   2   2  332.27   10.30
   5   2   2  319.07   10.20
  -6  -2  -2  158.78    7.90
  -6  -2  -2  169.68    7.10
   6   2   2  163.78    6.90
   6   2   2  173.68    6.90
  -7  -2  -2   47.20    5.50
   7   2   2   58.49    4.70
   7   2   2   53.59    4.70
  -8  -2  -2   22.00    5.10
  -8  -2  -2   33.50    4.70
   8   2   2   25.00    4.20
   8   2   2   22.50    4.00
  -9  -2  -2   14.70    4.10
   9   2   2   13.00    3.70
   9   2   2   15.00    3.90
  10   2   2   14.20    3.70
  10   2   2   14.30    3.90
  11  -3  -2   70.69    6.40
 -11   3   2   76.49    5.70
 -11   3   2   64.59    6.60
  10  -3  -2   40.90    5.60
 -10   3   2   39.00    5.10
 -10   3   2   36.80    5.20
   9  -3  -2   -2.40    2.90
  -9   3   2   -2.60    2.70
  -9   3   2    4.20    3.40
   8  -3  -2   30.90    3.90
  -8   3   2   31.50    3.90
  -8   3   2   32.70    4.30
   7  -3  -2  579.64   16.60
  -7   3   2  586.84   16.90
  -7   3   2  587.64   16.70
   6  -3  -2   21.70    2.70
   6  -3  -2   19.50    2.10
  -6   3   2   19.40    2.60
  -6   3   2   24.30    2.90
   5  -3  -2 2866.51   71.09
   5  -3  -2 2925.01   71.49
  -5   3   2 2863.41   71.09
  -5   3   2 2881.91   71.39
   4  -3  -2  394.86   10.70
   4  -3  -2  379.56   11.30
   4  -3  -2  403.56   10.90
  -4   3   2  388.76   10.70
  -4   3   2  396.26   10.90
   3  -3  -2  637.04   16.70
   3  -3  -2  636.24   16.70
   3  -3  -2  663.23   16.70
  -3   3   2  650.53   16.80
  -3   3   2  645.94   16.70
  -3   3   2  621.74   16.70
   2  -3  -2 3247.68   81.09
   2  -3  -2 3357.76   81.09
  -2   3   2 3376.56   81.09
  -2   3   2 3370.46   81.29
  -2   3   2 3204.58   80.99
   1  -3  -2    0.80    0.80
   1  -3  -2    0.30    0.70
  -1   3   2    2.10    0.80
  -1   3   2    0.50    0.80
   0  -3  -2 3451.75   83.89
   0  -3  -2 3463.95   83.99
   0  -3  -2 3404.16   83.89
   0  -3  -2 3399.16   83.79
   0   3   2 3254.57   83.79
   0   3   2 3496.35   84.19
   0   3   2 3501.15   83.79
  -1  -3  -2 1242.28   31.30
  -1  -3  -2 1268.27   31.70
  -1  -3  -2 1251.47   31.20
  -1  -3  -2 1256.57   31.30
   1   3   2 1209.78   31.20
   1   3   2 1231.58   31.40
   1   3   2 1242.68   31.30
  -2  -3  -2 2131.49   52.69
  -2  -3  -2 2046.60   52.09
  -2  -3  -2 2127.59   51.99
  -2  -3  -2 2059.19   51.89
   2   3   2 2095.79   52.39
   2   3   2 2094.59   52.09
   2   3   2 2097.99   52.19
  -3  -3  -2   53.19    3.10
  -3  -3  -2   51.39    3.60
  -3  -3  -2   51.49    2.80
   3   3   2   52.69    3.00
   3   3   2   49.80    3.20
  -4  -3  -2  376.46   11.30
  -4  -3  -2  368.06   12.10
   4   3   2  382.86   11.20
   4   3   2  365.46   11.40
  -5  -3  -2   40.90    3.70
  -5  -3  -2   39.10    4.40
   5   3   2   30.70    3.50
   5   3   2   34.10    3.70
  -6  -3  -2   36.10    4.80
  -6  -3  -2   31.60    4.00
   6   3   2   32.50    4.00
   6   3   2   36.00    4.10
  -7  -3  -2   21.00    3.90
  -7  -3  -2   18.10    4.40
   7   3   2   23.70    3.90
   7   3   2   18.60    3.80
  -8  -3  -2    2.00    3.10
  -8  -3  -2   -3.70    2.80
   8   3   2    0.50    2.80
   8   3   2    3.70    3.20
  -9  -3  -2   10.00    3.80
  -9  -3  -2   12.70    4.00
   9   3   2   15.90    3.90
   9   3   2    7.40    3.30
  11  -4  -2  151.28    8.60
 -11   4   2  177.18    8.00
 -11   4   2  150.28    8.50
  10  -4  -2   -3.10    3.20
 -10   4   2    4.80    2.80
   9  -4  -2    3.80    3.10
  -9   4   2    2.20    2.70
  -9   4   2   -0.20    3.40
   8  -4  -2  236.18    8.80
  -8   4   2  231.08    8.50
  -8   4   2  239.68    9.10
   7  -4  -2   98.29    5.20
  -7   4   2   94.39    4.60
  -7   4   2   92.49    5.30
   6  -4  -2  214.08    7.40
  -6   4   2  210.78    7.40
   5  -4  -2 2475.65   62.09
   5  -4  -2 2502.55   62.19
  -5   4   2 2557.44   62.19
  -5   4   2 2465.35   62.09
   4  -4  -2   32.00    2.40
   4  -4  -2   33.80    2.30
   4  -4  -2   30.80    2.30
  -4   4   2   29.10    2.30
  -4   4   2   31.70    2.50
   3  -4  -2 2799.02   67.99
   3  -4  -2 2747.23   67.99
  -3   4   2 2812.02   67.89
  -3   4   2 2778.82   68.29
  -3   4   2 2650.43   67.89
   2  -4  -2  561.04   15.00
   2  -4  -2  575.74   15.00
  -2   4   2  587.54   15.40
  -2   4   2  597.84   15.00
  -2   4   2  538.95   14.90
   1  -4  -2  415.06   11.00
   1  -4  -2  393.46   10.80
  -1   4   2  379.16   10.80
  -1   4   2  411.26   11.40
  -1   4   2  406.36   11.20
   0  -4  -2  542.25   14.40
   0  -4  -2  557.74   14.50
   0  -4  -2  536.75   14.30
   0  -4  -2  569.04   15.00
   0   4   2  532.95   14.40
   0   4   2  508.65   14.20
   0   4   2  541.45   14.20
  -1  -4  -2  164.18    5.50
  -1  -4  -2  172.38    5.80
  -1  -4  -2  169.58    5.60
  -1  -4  -2  168.28    5.40
   1   4   2  164.78    5.50
   1   4   2  154.78    5.50
  -2  -4  -2  142.69    5.30
  -2  -4  -2  149.69    5.20
  -2  -4  -2  160.88    6.00
   2   4   2  144.69    5.60
   2   4   2  154.78    5.40
  -3  -4  -2  131.79    5.20
  -3  -4  -2  126.49    5.90
   3   4   2  130.69    5.20
   3   4   2  126.99    5.50
  -4  -4  -2  469.85   14.90
  -4  -4  -2  478.65   13.90
   4   4   2  480.65   13.80
   4   4   2  461.75   14.00
  -5  -4  -2   36.10    4.80
  -5  -4  -2   33.00    3.80
   5   4   2   28.20    3.50
   5   4   2   37.30    4.30
  -6  -4  -2    4.30    3.80
  -6  -4  -2   -2.10    2.70
   6   4   2    2.60    2.80
   6   4   2   -2.50    2.40
  -7  -4  -2  118.39    6.80
  -7  -4  -2  106.79    7.50
   7   4   2  120.19    6.60
   7   4   2  118.99    6.60
  -8  -4  -2   -0.70    2.80
  -8  -4  -2    3.90    3.60
   8   4   2    1.70    2.80
   8   4   2    1.20    2.80
   9   4   2   50.69    5.20
   9   4   2   57.49    5.50
  11  -5  -2    6.20    4.00
 -11   5   2    7.90    3.90
 -11   5   2   18.10    4.30
  10  -5  -2  112.69    7.10
 -10   5   2  124.69    6.40
   9  -5  -2   18.20    3.80
  -9   5   2    8.10    4.00
   8  -5  -2  280.87   11.00
  -8   5   2  274.37   10.00
   7  -5  -2    5.60    2.50
  -7   5   2    9.10    2.90
   6  -5  -2   23.50    3.10
  -6   5   2   26.50    3.20
  -6   5   2   24.60    2.90
   5  -5  -2  104.29    4.50
  -5   5   2  102.99    4.60
  -5   5   2  103.19    4.50
   4  -5  -2  532.25   15.10
   4  -5  -2  525.95   14.90
  -4   5   2  547.55   14.60
  -4   5   2  548.85   15.00
   3  -5  -2  306.17    8.90
   3  -5  -2  298.97    8.80
  -3   5   2  307.67    8.80
  -3   5   2  311.77    9.40
   2  -5  -2 2175.98   53.29
   2  -5  -2 2076.39   53.29
  -2   5   2 2153.88   53.19
  -2   5   2 2184.38   53.89
   1  -5  -2  405.56   11.40
   1  -5  -2  414.46   11.60
  -1   5   2  419.16   11.40
  -1   5   2  433.46   12.20
   0  -5  -2  692.43   18.60
   0  -5  -2  685.43   18.40
   0  -5  -2  733.53   18.70
   0   5   2  699.63   18.50
   0   5   2  718.13   18.40
  -1  -5  -2  183.88    5.90
  -1  -5  -2  192.88    6.50
  -1  -5  -2  176.08    6.10
   1   5   2  176.18    6.10
   1   5   2  180.78    6.10
  -2  -5  -2  149.88    6.10
  -2  -5  -2  143.99    5.50
   2   5   2  146.59    5.40
  -3  -5  -2  174.28    7.30
  -3  -5  -2  171.68    6.60
   3   5   2  177.88    6.50
   3   5   2  169.48    6.90
  -4  -5  -2    8.50    2.50
  -4  -5  -2    5.00    2.80
   4   5   2    7.40    2.90
   4   5   2    8.30    2.50
  -5  -5  -2   67.49    5.80
  -5  -5  -2   66.99    4.90
   5   5   2   76.39    4.80
   5   5   2   66.29    5.00
  -6  -5  -2    7.20    3.60
  -6  -5  -2    6.10    3.00
   6   5   2    6.80    3.90
   6   5   2    4.40    2.70
  -7  -5  -2    5.20    3.00
  -7  -5  -2    5.90    3.80
   7   5   2    4.30    3.20
   7   5   2    2.80    2.60
  -8  -5  -2   45.80    6.10
  -8  -5  -2   47.30    5.50
   8   5   2   59.09    5.40
   8   5   2   46.70    5.30
   9   5   2   26.90    5.20
 -11   6   2   51.29    5.90
  10  -6  -2   82.69    6.40
 -10   6   2  100.09    6.60
   9  -6  -2   32.00    4.40
  -9   6   2   25.40    4.40
   8  -6  -2   87.39    5.50
  -8   6   2   84.99    5.70
   7  -6  -2   12.00    2.90
  -7   6   2   18.50    3.40
   6  -6  -2   11.20    2.60
  -6   6   2   11.40    2.70
   5  -6  -2   74.59    4.00
  -5   6   2   78.49    4.50
  -5   6   2   71.89    4.00
   4  -6  -2  127.49    5.10
  -4   6   2  128.49    4.90
  -4   6   2  134.09    5.70
   3  -6  -2  945.31   25.60
  -3   6   2 1015.60   25.50
  -3   6   2 1019.30   26.50
   2  -6  -2  489.25   13.60
   2  -6  -2  493.75   13.60
  -2   6   2  510.85   14.50
  -2   6   2  506.55   13.60
   1  -6  -2  574.84   15.60
   1  -6  -2  580.84   15.70
  -1   6   2  575.94   15.60
  -1   6   2  599.64   16.70
   0  -6  -2   85.59    3.70
   0  -6  -2   90.39    4.00
   0   6   2   89.49    3.90
  -1  -6  -2  312.27    9.80
  -1  -6  -2  347.07   10.40
   1   6   2  324.37    9.80
  -2  -6  -2   90.69    4.60
  -2  -6  -2   99.29    5.20
   2   6   2   92.49    4.40
  -3  -6  -2   75.39    4.40
  -3  -6  -2   72.19    5.20
   3   6   2   67.99    4.10
  -4  -6  -2   47.70    5.20
  -4  -6  -2   58.99    4.40
   4   6   2   52.59    4.20
   4   6   2   56.69    4.90
  -5  -6  -2   59.49    5.00
  -5  -6  -2   60.89    5.80
   5   6   2   61.09    4.70
   5   6   2   62.49    5.10
  -6  -6  -2   87.69    7.10
  -6  -6  -2   75.69    5.80
   6   6   2   91.99    5.60
   6   6   2   86.89    6.10
  -7  -6  -2   59.49    6.50
   7   6   2   81.99    7.70
   7   6   2   66.69    5.70
   8   6   2   68.79    6.00
 -10   7   2  123.39    7.20
   9  -7  -2    5.50    3.40
  -9   7   2    9.50    3.70
   8  -7  -2    2.30    2.90
  -8   7   2   -0.50    2.70
   7  -7  -2    6.40    2.60
  -7   7   2    7.20    2.70
  -7   7   2    0.60    2.40
   6  -7  -2  292.67    9.50
  -6   7   2  282.27    9.40
  -6   7   2  288.57   10.00
   5  -7  -2  593.64   16.50
  -5   7   2  575.34   16.30
  -5   7   2  603.94   17.20
   4  -7  -2  136.39    5.30
  -4   7   2  137.59    5.20
  -4   7   2  132.09    6.20
   3  -7  -2  236.18    7.60
  -3   7   2  231.58    7.30
  -3   7   2  234.28    8.50
   2  -7  -2 1077.89   27.60
  -2   7   2 1065.99   28.60
  -2   7   2 1052.49   27.30
   1  -7  -2  800.42   20.90
  -1   7   2  785.42   21.90
  -1   7   2  765.22   20.60
   0  -7  -2  150.98    5.80
   0  -7  -2  149.59    5.70
   0   7   2  144.39    5.50
   0   7   2  157.98    6.80
  -1  -7  -2 2395.36   59.49
  -1  -7  -2 2336.07   59.09
   1   7   2 2357.46   58.99
   1   7   2 2324.07   60.19
  -2  -7  -2    4.20    2.50
  -2  -7  -2    1.90    1.60
  -2  -7  -2    2.50    1.90
   2   7   2    2.50    2.00
  -3  -7  -2 1490.35   38.20
  -3  -7  -2 1471.85   39.20
   3   7   2 1419.16   37.90
  -4  -7  -2   -1.10    2.30
  -4  -7  -2    2.00    3.10
  -5  -7  -2  196.98    8.30
  -5  -7  -2  188.68    9.40
   5   7   2  190.08    7.90
  -6  -7  -2   28.70    5.10
  -6  -7  -2   30.80    4.40
   6   7   2   28.50    4.00
  -7  -7  -2   79.09    7.10
  -7  -7  -2   85.99    6.40
   7   7   2   88.99    6.40
  10  -8  -2   17.30    4.10
 -10   8   2   17.20    4.00
   9  -8  -2   66.09    5.40
  -9   8   2   73.39    5.70
   8  -8  -2   80.39    5.40
  -8   8   2   81.19    5.50
   7  -8  -2    2.70    2.50
  -7   8   2   -0.60    2.40
  -7   8   2   -1.60    2.40
   6  -8  -2    4.10    2.50
  -6   8   2    7.50    2.70
  -6   8   2    7.50    2.50
   5  -8  -2   96.49    6.30
   5  -8  -2  120.79    5.30
  -5   8   2  121.39    6.40
  -5   8   2  122.59    5.20
   4  -8  -2  683.03   20.20
   4  -8  -2  731.33   19.70
  -4   8   2  734.03   19.50
  -4   8   2  755.52   21.00
   3  -8  -2 1166.48   32.10
   3  -8  -2 1276.37   32.10
  -3   8   2 1254.87   31.90
  -3   8   2 1291.17   33.60
   2  -8  -2 1169.28   32.50
   2  -8  -2 1321.77   32.80
  -2   8   2 1288.07   32.50
  -2   8   2 1308.87   34.20
   1  -8  -2 1292.47   35.10
   1  -8  -2 1424.36   35.50
  -1   8   2 1379.66   35.10
  -1   8   2 1412.86   36.80
   0  -8  -2  575.64   16.40
   0  -8  -2  590.64   16.70
   0  -8  -2  625.44   16.90
   0   8   2  595.04   16.40
   0   8   2  610.04   18.20
  -1  -8  -2 1553.84   38.20
  -1  -8  -2 1355.46   37.50
  -1  -8  -2 1510.15   38.50
   1   8   2 1466.45   37.80
   1   8   2 1469.55   39.40
  -2  -8  -2   52.09    4.10
  -2  -8  -2   49.30    4.70
   2   8   2   57.39    3.90
   2   8   2   49.30    5.30
  -3  -8  -2  386.26   13.60
  -3  -8  -2  403.96   13.20
   3   8   2  377.66   13.70
   3   8   2  392.06   12.20
  -4  -8  -2  343.47   11.80
  -4  -8  -2  344.37   13.10
   4   8   2  336.87   12.90
   4   8   2  347.97   11.60
  -5  -8  -2  108.79    6.30
  -5  -8  -2   99.29    7.30
   5   8   2   95.39    7.30
   5   8   2  106.39    5.90
  -6  -8  -2   17.70    3.90
   6   8   2   13.90    3.90
   7   8   2  139.09    8.30
  -9   9   2   51.99    5.50
   8  -9  -2   39.60    4.60
  -8   9   2   41.90    4.70
   7  -9  -2  350.66   11.60
  -7   9   2  350.16   12.40
   6  -9  -2  391.26   12.10
  -6   9   2  380.56   11.70
  -6   9   2  365.06   12.90
   5  -9  -2  227.78    7.90
  -5   9   2  217.58    7.70
  -5   9   2  220.78    9.20
   4  -9  -2   38.20    3.60
   4  -9  -2   37.80    3.00
  -4   9   2   42.20    4.90
  -4   9   2   39.20    3.30
   3  -9  -2  493.75   15.20
   3  -9  -2  562.64   15.40
  -3   9   2  551.94   15.10
  -3   9   2  580.44   17.20
   2  -9  -2   24.80    2.50
   2  -9  -2   28.00    3.20
  -2   9   2   26.20    3.90
  -2   9   2   28.00    2.80
   1  -9  -2  836.72   21.60
   1  -9  -2  718.93   21.20
  -1   9   2  808.02   21.20
  -1   9   2  818.12   23.30
   0  -9  -2  100.39    4.90
   0   9   2   87.39    4.30
   0   9   2   95.79    6.30
  -1  -9  -2  236.48    8.80
  -1  -9  -2  240.98    8.50
   1   9   2  229.08    7.90
   1   9   2  234.38    9.90
  -2  -9  -2   10.70    2.70
  -2  -9  -2   16.90    3.30
   2   9   2   17.70    2.70
   2   9   2   12.00    3.60
  -3  -9  -2   65.59    4.70
  -3  -9  -2   53.69    6.10
   3   9   2   59.29    6.20
  -4  -9  -2   60.59    4.70
  -4  -9  -2   62.29    5.80
   4   9   2   55.79    6.20
  -5  -9  -2   41.90    5.60
  -5  -9  -2   43.80    5.50
   5   9   2   35.80    5.10
  -6  -9  -2   59.19    7.80
   6   9   2   50.79    6.40
   9 -10  -2  149.99    7.40
   8 -10  -2   69.29    5.40
   7 -10  -2   24.20    3.70
  -7  10   2   23.20    4.10
   6 -10  -2    2.00    2.50
  -6  10   2    5.20    3.40
  -6  10   2    2.60    2.20
   5 -10  -2   66.49    4.60
  -5  10   2   69.69    6.50
  -5  10   2   67.69    4.20
   4 -10  -2   59.19    4.20
  -4  10   2   64.29    3.80
  -4  10   2   61.49    5.80
   3 -10  -2   61.99    4.20
  -3  10   2   58.69    5.70
  -3  10   2   64.19    3.60
   2 -10  -2    0.20    2.00
  -2  10   2    4.40    1.70
  -2  10   2   -2.80    2.50
   1 -10  -2   76.09    4.60
  -1  10   2   87.69    4.00
   0 -10  -2   42.90    5.90
   0  10   2   41.60    3.00
   0  10   2   29.00    4.40
  -1 -10  -2   18.00    3.00
  -1 -10  -2   21.90    3.50
   1  10   2   21.60    4.30
  -2 -10  -2   86.39    5.80
  -2 -10  -2   82.29    5.10
   2  10   2   91.79    6.90
  -3 -10  -2    4.70    3.00
  -3 -10  -2    2.60    2.50
   3  10   2    0.20    3.20
  -4 -10  -2   56.79    5.40
   4  10   2   45.10    6.30
   5  10   2   21.10    4.40
   8 -11  -2    8.40    3.30
  -8  11   2    7.90    3.40
   7 -11  -2  463.55   14.60
  -7  11   2  491.35   16.40
   6 -11  -2   74.89    5.00
  -6  11   2   77.39    6.60
   5 -11  -2  118.99    5.70
  -5  11   2  109.09    7.50
   4 -11  -2   29.30    3.70
  -4  11   2   25.80    4.50
   3 -11  -2   55.59    4.10
  -3  11   2   41.50    5.90
   2 -11  -2   18.90    3.10
  -2  11   2   17.00    4.10
   1 -11  -2  104.79    5.30
  -1  11   2   94.19    7.30
   0 -11  -2   -0.10    2.40
   0  11   2    0.40    2.70
  -1 -11  -2  133.69    6.40
  -1 -11  -2  129.19    6.20
   1  11   2  112.29    8.00
  -2 -11  -2   19.60    3.70
   2  11   2   25.80    5.00
  -3 -11  -2  213.58    9.50
  -3 -11  -2  199.08   10.20
  -4 -11  -2   14.00    3.80
   4  11   2   -0.20    3.70
  -8  12   2    6.90    4.60
   7 -12  -2  106.69    6.10
  -7  12   2  131.19    8.10
   6 -12  -2    8.00    2.90
  -6  12   2    5.40    3.70
   5 -12  -2  259.57    9.40
  -5  12   2  279.27   11.90
   4 -12  -2  306.57   10.40
  -4  12   2  325.57   13.10
   3 -12  -2    4.50    2.70
  -3  12   2   -0.40    3.50
   2 -12  -2  382.96   11.70
  -2  12   2  350.46   14.30
   1 -12  -2  721.43   20.10
  -1  12   2  699.73   23.00
   0 -12  -2  143.19    6.60
   0  12   2  141.99    9.30
  -1 -12  -2  393.86   12.60
   1  12   2  374.66   21.40
  -2 -12  -2  739.13   20.90
   2  12   2  688.33   23.50
  -3 -12  -2   63.49    5.60
  -7  13   2    9.30    4.40
   6 -13  -2   12.20    3.10
  -6  13   2    9.20    4.20
  -5  13   2    8.90    4.50
   4 -13  -2   20.80    3.30
   3 -13  -2   92.39    5.00
  -3  13   2   80.49    9.70
   2 -13  -2   46.00    4.00
   1 -13  -2  416.36   12.50
  -1  13   2  364.16   15.30
   0 -13  -2    6.70    3.20
   0  13   2    8.40    4.20
  -1 -13  -2  353.86   11.70
  -2  15  -3  147.29   14.00
   2  14  -3  116.89    8.50
   1  14  -3    3.60    3.70
  -1  14  -3  144.49    9.20
  -2  14  -3  123.29    8.50
  -3  14  -3  195.38   13.10
  -4  14  -3   10.80    5.20
  -5  14  -3  113.29    8.90
  -6  14  -3   -4.50    3.30
   4  13  -3  102.09    7.50
   3  13  -3  109.19    8.10
  -3 -13   3  113.59    6.40
   2  13  -3   -3.80    3.10
  -2 -13   3   17.10    5.20
   1  13  -3   57.09    6.60
   0  13  -3   31.10    5.00
  -1  13  -3   21.30    4.40
  -2  13  -3   65.49    6.60
  -3  13  -3   18.50    4.20
  -4  13  -3  283.27   12.10
  -5  13  -3    6.20    4.00
  -6  13  -3  270.57   12.80
   8 -13   3   24.30    4.10
   5  12  -3  113.29    7.60
  -5 -12   3  112.09    7.50
  -4 -12   3   34.60    4.70
   3  12  -3  129.89    8.10
  -3 -12   3  134.79    7.10
   2  12  -3   48.90    6.00
  -2 -12   3   50.99    4.60
   1  12  -3    6.10    3.50
  -1 -12   3   13.90    3.00
   0  12  -3   47.60    5.80
  -1  12  -3    6.20    3.30
  -2  12  -3  101.69    7.10
  -3  12  -3    7.60    3.30
  -4  12  -3    3.10    3.10
  -5  12  -3    6.10    3.50
   7 -12   3  256.97    8.80
   8 -12   3   26.30    3.80
  -6 -11   3   21.40    4.50
   5  11  -3   57.99    6.00
  -5 -11   3   55.99    6.10
  -5 -11   3   63.09    4.00
   4  11  -3   65.19    6.10
  -4 -11   3   71.99    6.00
   3  11  -3    0.80    2.80
  -3 -11   3    2.40    2.80
  -2 -11   3    5.00    2.60
   1  11  -3   22.10    3.90
  -1 -11   3   24.10    3.50
   0  11  -3    7.50    3.00
  -1  11  -3   85.89    6.20
  -2  11  -3  155.18    8.00
  -3  11  -3   10.40    3.60
  -4  11  -3   45.50    5.90
  -5  11  -3  119.99    7.60
   6 -11   3    1.00    2.10
   7 -11   3  203.48    7.60
   8 -11   3    5.30    2.60
   9 -11   3   67.39    8.40
   6  10  -3   -2.20    2.60
  -6 -10   3    4.50    3.90
  -6 -10   3    4.50    2.60
   5  10  -3  268.97   11.20
  -5 -10   3  252.47   11.00
  -5 -10   3  244.58    8.80
   4  10  -3  119.59    7.30
  -4 -10   3  122.79    7.20
   3  10  -3  235.88    9.80
  -3 -10   3  231.98    9.30
   2  10  -3  421.06   14.30
  -2 -10   3  444.26   13.70
   1  10  -3   11.10    3.00
  -1 -10   3   15.40    2.90
   0  10  -3  154.68    7.50
  -1  10  -3   78.49    5.70
  -2  10  -3    0.50    2.60
  -3  10  -3    4.60    2.70
  -4  10  -3  247.38   10.00
  -5  10  -3   60.79    5.80
   6 -10   3  466.25   14.50
   7 -10   3    2.50    2.30
   8 -10   3  117.89    6.20
   9 -10   3   12.70    3.50
   7   9  -3   69.39    7.00
  -7  -9   3   59.39    7.70
  -7  -9   3   56.59    6.80
   6   9  -3    2.10    2.90
   6   9  -3    2.80    3.50
  -6  -9   3    3.50    2.40
  -6  -9   3    6.00    3.70
   5   9  -3  187.48    8.50
   5   9  -3  194.08    9.30
  -5  -9   3  196.78    7.40
  -5  -9   3  181.68    9.00
   4   9  -3  108.79    6.60
  -4  -9   3  113.19    6.60
  -4  -9   3  116.89    5.10
   3   9  -3   68.69    5.50
  -3  -9   3   71.49    5.30
   2   9  -3   39.70    4.50
  -2  -9   3   38.60    3.90
   1   9  -3  831.72   23.60
  -1  -9   3  841.92   22.60
   0   9  -3  346.97   11.50
   0  -9   3  321.37    9.80
  -1   9  -3 1569.24   41.20
  -2   9  -3  407.36   13.30
  -3   9  -3 1785.32   45.50
  -3   9  -3 1889.71   47.40
   3  -9   3 1771.22   45.60
  -4   9  -3  770.52   22.20
  -5   9  -3  855.21   24.20
   5  -9   3  892.41   22.30
   5  -9   3  784.42   22.10
  -6   9  -3  188.98    6.80
   6  -9   3  194.98    7.10
   7  -9   3  391.06   12.20
   8  -9   3   16.90    3.40
   8   8  -3    6.20    4.10
  -8  -8   3    1.10    2.80
  -8  -8   3    6.50    4.20
   7   8  -3   90.99    5.90
   7   8  -3  101.09    7.40
  -7  -8   3  101.09    7.60
  -7  -8   3  107.69    6.10
   6   8  -3   20.60    3.80
   6   8  -3   13.90    3.00
   6   8  -3   13.40    4.20
  -6  -8   3   13.80    4.20
  -6  -8   3   12.20    3.00
   5   8  -3  410.36   12.30
   5   8  -3  423.56   13.60
   5   8  -3  435.56   14.70
  -5  -8   3  436.46   12.80
  -5  -8   3  408.16   14.90
   4   8  -3   51.89    5.20
   4   8  -3   58.79    3.10
   4   8  -3   54.89    4.80
  -4  -8   3   58.59    3.70
  -4  -8   3   53.99    5.00
  -4  -8   3   54.89    3.20
   3   8  -3  388.26   12.50
  -3  -8   3  385.76   12.60
  -3  -8   3  391.96   11.10
   2   8  -3  773.72   21.50
  -2  -8   3  759.82   21.30
   1   8  -3 1386.06   36.10
  -1  -8   3 1362.96   35.30
   0   8  -3 2809.12   69.49
   0  -8   3 2704.33   68.19
  -1   8  -3 6064.59  149.39
  -2   8  -3  483.75   13.30
  -2   8  -3  481.35   14.60
  -3   8  -3 2255.57   57.09
  -3   8  -3 2214.68   55.59
  -4   8  -3  100.39    4.10
  -4   8  -3   98.99    5.90
   4  -8   3  110.39    4.20
   4  -8   3   94.19    4.00
  -5   8  -3    2.10    2.30
   5  -8   3    2.30    1.90
   5  -8   3    5.30    1.60
  -6   8  -3   47.10    3.70
   6  -8   3   51.09    3.90
   6  -8   3   51.09    3.30
  -7   8  -3   97.99    5.20
   7  -8   3   89.99    5.30
  -8   8  -3   32.70    4.00
   8  -8   3   25.20    3.80
   9  -8   3  117.59    6.70
  -8  -7   3  286.87   12.90
   7   7  -3  420.16   14.70
   7   7  -3  398.46   12.90
   7   7  -3  401.76   13.70
  -7  -7   3  424.36   13.40
  -7  -7   3  385.86   15.00
   6   7  -3   40.00    5.10
   6   7  -3   52.09    3.70
   6   7  -3   46.90    4.40
  -6  -7   3   46.20    4.20
  -6  -7   3   39.70    5.20
   5   7  -3  270.57   10.40
   5   7  -3  274.87    9.60
   5   7  -3  267.27    8.70
  -5  -7   3  263.97   10.60
  -5  -7   3  288.77    9.20
   4   7  -3    3.50    3.70
   4   7  -3    4.90    2.80
  -4  -7   3    2.10    1.60
  -4  -7   3   -1.00    2.60
  -4  -7   3    4.30    1.80
   3   7  -3  563.84   15.80
   3   7  -3  556.74   16.40
  -3  -7   3  568.54   14.70
  -3  -7   3  491.45   14.40
  -3  -7   3  554.24   16.10
   2   7  -3  716.33   19.80
  -2  -7   3  717.03   19.70
   1   7  -3 1063.99   28.00
  -1  -7   3 1055.59   27.40
   0   7  -3 1300.87   33.60
   0  -7   3 1283.57   32.60
  -1   7  -3   91.49    3.80
  -1   7  -3   86.59    4.60
  -2   7  -3  463.15   12.60
  -2   7  -3  455.55   13.60
  -3   7  -3    6.10    1.40
  -3   7  -3    1.50    1.90
  -4   7  -3   99.49    5.50
  -4   7  -3  103.29    4.00
  -4   7  -3  105.79    4.00
   4  -7   3  105.69    4.20
   4  -7   3  101.99    4.00
  -5   7  -3   12.60    2.20
  -5   7  -3    8.60    1.70
   5  -7   3    8.40    2.30
   5  -7   3   12.80    2.00
  -6   7  -3   95.99    4.30
  -6   7  -3   89.79    4.70
   6  -7   3   92.59    4.30
   6  -7   3   93.49    4.90
  -7   7  -3  116.59    5.90
  -7   7  -3  135.19    7.90
   7  -7   3  126.59    7.10
  -8   7  -3   46.20    4.90
  -8   7  -3   48.10    3.90
   8  -7   3   45.20    4.50
  -9   7  -3   95.39    5.20
  -9   7  -3  107.29    6.40
   9  -7   3   93.79    6.20
 -10   7  -3   23.20    4.30
  10  -7   3   19.20    4.00
   9   6  -3   40.50    5.80
  -9  -6   3   46.20    5.20
  -9  -6   3   35.60    6.00
   8   6  -3    5.60    3.80
   8   6  -3   12.30    3.10
  -8  -6   3    5.20    3.00
  -8  -6   3   10.30    4.20
   7   6  -3  101.69    6.60
   7   6  -3   98.69    5.60
  -7  -6   3  100.89    7.10
  -7  -6   3  109.99    5.90
   6   6  -3  137.79    5.90
   6   6  -3  140.09    6.90
   6   6  -3  138.79    7.00
  -6  -6   3  144.69    7.40
  -6  -6   3  133.49    6.10
   5   6  -3  275.67    9.80
   5   6  -3  270.07    8.90
   5   6  -3  270.37    8.50
  -5  -6   3  265.77    8.70
  -5  -6   3  266.47   10.10
  -5  -6   3  247.18    8.40
   4   6  -3  203.98    7.10
   4   6  -3  197.28    7.70
   4   6  -3  189.28    6.50
  -4  -6   3  202.88    6.60
  -4  -6   3  194.58    6.40
  -4  -6   3  194.88    7.80
   3   6  -3  366.76   10.80
   3   6  -3  363.26   11.30
   3   6  -3  355.56    9.90
  -3  -6   3  372.76   10.10
  -3  -6   3  345.37    9.80
   2   6  -3  523.95   15.20
   2   6  -3  543.55   14.90
  -2  -6   3  528.75   14.90
   1   6  -3 1968.90   49.20
  -1  -6   3 1935.91   48.80
   0   6  -3  789.02   20.70
   0   6  -3  774.72   20.20
   0  -6   3  744.93   20.10
   0  -6   3  773.72   19.90
  -1   6  -3 4702.13  112.39
  -1   6  -3 4664.03  112.99
   1  -6   3 4397.76  112.29
  -2   6  -3  223.38    6.70
  -2   6  -3  218.68    7.40
   2  -6   3  222.28    6.70
  -3   6  -3  119.39    4.00
  -3   6  -3  125.19    4.50
  -3   6  -3  127.19    5.30
   3  -6   3  137.79    4.20
   3  -6   3  122.39    4.10
  -4   6  -3  149.88    5.20
  -4   6  -3  152.38    5.30
   4  -6   3  154.08    5.10
  -5   6  -3  171.58    6.00
  -5   6  -3  166.68    6.00
   5  -6   3  174.28    6.10
  -6   6  -3  530.75   15.20
  -6   6  -3  532.15   15.00
   6  -6   3  537.95   15.20
  -7   6  -3    5.70    3.00
  -7   6  -3    3.70    2.30
  -7   6  -3    4.00    2.10
   7  -6   3    5.30    2.50
  -8   6  -3  769.82   21.70
  -8   6  -3  798.72   22.30
  -8   6  -3  755.22   22.00
   8  -6   3  768.32   22.00
  -9   6  -3   16.20    3.60
  -9   6  -3   16.50    3.40
  -9   6  -3   10.90    2.80
   9  -6   3    6.60    3.30
 -10   6  -3  151.48    8.00
 -10   6  -3  144.89    9.40
  10  -6   3  137.69    7.70
   9   5  -3   14.40    3.60
   9   5  -3   13.00    4.90
   8   5  -3   27.70    4.90
   8   5  -3   33.40    4.30
  -8  -5   3   36.60    4.70
  -8  -5   3   26.90    4.70
   7   5  -3   57.29    5.30
   7   5  -3   65.39    4.50
  -7  -5   3   56.59    5.50
  -7  -5   3   67.19    4.70
   6   5  -3  134.09    6.60
   6   5  -3  123.39    5.40
   6   5  -3  123.29    5.60
  -6  -5   3  128.79    6.90
  -6  -5   3  130.19    5.80
   5   5  -3  284.37    8.90
   5   5  -3  283.07    9.00
   5   5  -3  288.47    9.90
  -5  -5   3  283.27   10.20
  -5  -5   3  291.67    9.00
   4   5  -3  230.08    8.00
   4   5  -3  220.68    6.90
   4   5  -3  224.18    7.30
  -4  -5   3  229.38    6.90
  -4  -5   3  227.78    8.20
  -4  -5   3  223.78    7.10
   3   5  -3  789.42   20.70
   3   5  -3  779.52   21.20
   3   5  -3  770.82   20.00
  -3  -5   3  789.42   20.10
  -3  -5   3  775.92   20.10
  -3  -5   3  810.32   21.30
   2   5  -3   32.90    2.40
   2   5  -3   28.50    2.60
   2   5  -3   30.60    2.30
  -2  -5   3   31.60    2.50
   1   5  -3 4348.46  106.69
   1   5  -3 4376.96  106.89
   1   5  -3 4471.05  106.79
  -1  -5   3 4310.27  106.69
  -1  -5   3 4292.67  106.59
  -1  -5   3 4293.17  106.69
  -1  -5   3 4345.37  106.59
   0   5  -3 1806.72   44.00
   0   5  -3 1787.42   44.10
   0  -5   3 1762.42   43.70
   0  -5   3 1744.93   44.10
   0  -5   3 1694.23   43.80
  -1   5  -3  613.64   15.80
  -1   5  -3  610.64   16.20
   1  -5   3  588.74   16.10
   1  -5   3  583.54   15.70
  -2   5  -3 1255.27   31.60
  -2   5  -3 1240.48   32.10
   2  -5   3 1263.07   31.50
  -3   5  -3 1986.80   47.50
  -3   5  -3 1957.70   47.90
  -3   5  -3 1799.42   47.30
   3  -5   3 1888.81   47.40
   3  -5   3 1979.90   47.50
  -4   5  -3    3.40    1.30
  -4   5  -3    7.40    1.60
  -4   5  -3    6.80    1.40
   4  -5   3    6.90    1.40
   4  -5   3    5.40    1.40
   4  -5   3    6.90    1.60
  -5   5  -3 1298.17   32.80
  -5   5  -3 1237.58   32.80
  -5   5  -3 1289.87   32.60
   5  -5   3 1266.27   32.60
  -6   5  -3    1.10    1.70
  -6   5  -3   -1.00    2.00
  -6   5  -3    2.80    2.00
   6  -5   3    3.40    2.00
  -7   5  -3  187.38    7.80
  -7   5  -3  193.88    7.50
  -7   5  -3  194.98    7.70
   7  -5   3  181.98    7.40
  -8   5  -3    3.60    3.00
  -8   5  -3    3.80    2.70
  -8   5  -3    1.30    2.30
   8  -5   3    6.40    3.00
  -9   5  -3    2.10    2.60
  -9   5  -3    3.30    2.90
  -9   5  -3    5.80    3.20
   9  -5   3    5.00    3.10
 -10   5  -3    3.30    3.10
 -10   5  -3    3.80    3.30
  10  -5   3    6.30    3.40
  10   4  -3   30.60    5.60
  10   4  -3   48.10    5.60
 -10  -4   3   36.90    5.90
 -10  -4   3   44.10    5.50
   9   4  -3    1.00    3.60
   9   4  -3    2.10    3.00
  -9  -4   3    1.20    3.50
  -9  -4   3    7.40    3.30
   8   4  -3    1.20    2.60
   8   4  -3   -2.70    2.80
  -8  -4   3    0.90    3.00
  -8  -4   3   -3.30    2.40
   7   4  -3   -3.60    2.00
   7   4  -3   -0.80    2.60
  -7  -4   3   -0.50    2.40
  -7  -4   3   -0.40    2.80
   6   4  -3   -4.30    2.30
   6   4  -3   -2.60    1.80
  -6  -4   3   -1.40    2.50
  -6  -4   3   -3.60    1.90
   5   4  -3    2.40    1.50
   5   4  -3   -1.60    1.80
  -5  -4   3   -1.90    2.10
  -5  -4   3    1.10    1.70
   4   4  -3  665.73   17.60
   4   4  -3  657.83   17.70
  -4  -4   3  700.23   20.60
  -4  -4   3  684.23   17.80
  -4  -4   3  668.83   17.70
   3   4  -3  106.89    3.70
   3   4  -3  110.09    4.50
   3   4  -3  103.49    3.60
   3   4  -3  109.49    4.00
  -3  -4   3  111.69    3.70
  -3  -4   3  118.79    4.70
   2   4  -3   14.60    1.60
   2   4  -3   15.30    2.00
   2   4  -3   16.60    1.80
  -2  -4   3   18.40    1.30
  -2  -4   3   15.70    1.70
  -2  -4   3   14.00    1.90
  -2  -4   3   16.40    1.60
   1   4  -3    5.90    1.20
   1   4  -3    4.90    1.20
   1   4  -3    5.90    1.40
  -1  -4   3    6.20    1.20
  -1  -4   3    4.50    1.00
  -1  -4   3    6.00    1.10
  -1  -4   3    4.10    1.10
   0   4  -3 5074.09  120.89
   0  -4   3 4899.31  120.69
   0  -4   3 4963.40  120.89
   0  -4   3 4849.51  120.69
  -1   4  -3 1902.01   47.60
  -1   4  -3 1888.01   47.40
   1  -4   3 1964.70   47.90
   1  -4   3 1903.71   47.40
  -2   4  -3 1361.76   35.00
  -2   4  -3 1426.36   35.60
  -2   4  -3 1443.76   35.10
   2  -4   3 1406.76   35.00
   2  -4   3 1434.56   35.10
   2  -4   3 1489.45   35.60
   2  -4   3 1395.36   35.90
  -3   4  -3  689.03   17.20
  -3   4  -3  629.44   17.50
  -3   4  -3  640.64   17.10
  -3   4  -3  679.63   17.60
   3  -4   3  699.03   17.60
   3  -4   3  669.03   17.20
   3  -4   3  674.43   17.20
  -4   4  -3  514.55   13.80
  -4   4  -3  506.15   14.10
  -4   4  -3  527.85   14.10
   4  -4   3  526.05   14.00
   4  -4   3  490.45   13.70
   4  -4   3  503.15   13.80
  -5   4  -3  114.09    4.80
  -5   4  -3  114.99    5.10
   5  -4   3  114.09    4.70
  -6   4  -3  893.31   23.50
  -6   4  -3  849.91   24.10
   6  -4   3  871.91   23.40
  -7   4  -3    5.80    2.70
  -7   4  -3    9.10    2.80
   7  -4   3    9.80    2.90
  -8   4  -3  230.18    9.20
  -8   4  -3  236.58    9.80
   8  -4   3  236.18    9.10
  -9   4  -3    9.60    3.70
  -9   4  -3    7.50    4.30
   9  -4   3    7.50    3.30
 -10   4  -3   20.40    4.40
 -10   4  -3   24.40    4.10
  10  -4   3   21.00    4.30
 -11   4  -3   29.70    4.80
  11   3  -3    6.30    3.90
  10   3  -3 1326.87   37.70
  10   3  -3 1402.86   36.80
 -10  -3   3 1368.66   37.10
 -10  -3   3 1251.67   39.00
   9   3  -3  515.65   16.90
   9   3  -3  527.45   16.20
  -9  -3   3  520.55   16.50
  -9  -3   3  494.05   17.80
   8   3  -3  444.46   14.60
   8   3  -3  456.65   14.00
  -8  -3   3  449.06   14.10
  -8  -3   3  412.06   15.20
   7   3  -3  600.04   17.70
   7   3  -3  612.94   17.20
  -7  -3   3  603.24   17.30
  -7  -3   3  575.24   18.40
   6   3  -3  256.17    9.10
   6   3  -3  264.67    8.60
  -6  -3   3  265.37    8.70
  -6  -3   3  254.47    9.60
   5   3  -3  121.59    4.70
   5   3  -3  117.09    5.10
  -5  -3   3  120.79    5.60
   4   3  -3 1421.06   35.80
   4   3  -3 1381.06   36.30
  -4  -3   3 1428.46   35.90
  -4  -3   3 1482.35   36.90
  -4  -3   3 1425.36   35.80
   3   3  -3  675.13   17.70
   3   3  -3  662.43   18.50
   3   3  -3  693.53   17.70
   3   3  -3  706.63   18.30
  -3  -3   3  659.63   18.40
  -3  -3   3  727.73   17.90
  -3  -3   3  737.93   18.70
  -3  -3   3  696.93   17.80
   2   3  -3  569.64   14.50
   2   3  -3  570.54   15.00
   2   3  -3  547.75   14.20
   2   3  -3  548.05   14.20
   2   3  -3  563.74   14.90
  -2  -3   3  568.64   15.10
  -2  -3   3  576.94   14.80
  -2  -3   3  564.54   14.30
  -2  -3   3  554.34   14.30
  -2  -3   3  576.24   15.10
   1   3  -3 4678.53  115.79
  -1  -3   3 4800.72  115.99
  -1  -3   3 4779.32  115.79
  -1  -3   3 4744.43  115.69
   0   3  -3  525.45   13.60
   0   3  -3  527.75   13.60
   0  -3   3  520.15   13.40
   0  -3   3  509.55   13.60
   0  -3   3  526.05   13.60
  -1   3  -3  536.35   14.00
   1  -3   3  531.05   14.10
   1  -3   3  543.25   14.00
   1  -3   3  545.85   14.00
   1  -3   3  535.35   13.50
  -2   3  -3   94.29    3.40
  -2   3  -3   96.19    3.20
  -2   3  -3   92.09    3.00
  -2   3  -3   98.69    3.50
   2  -3   3   94.39    3.20
   2  -3   3   97.69    3.50
   2  -3   3   94.39    3.20
  -3   3  -3 2101.89   53.59
  -3   3  -3 2177.88   54.19
  -3   3  -3 2171.28   53.79
   3  -3   3 2148.39   53.79
   3  -3   3 2228.98   53.79
   3  -3   3 2114.59   54.19
   3  -3   3 2307.07   54.19
  -4   3  -3    2.20    1.30
  -4   3  -3   -0.50    1.30
   4  -3   3    1.40    1.20
   4  -3   3    0.80    1.00
   4  -3   3    1.10    1.20
  -5   3  -3    7.80    2.20
  -5   3  -3    3.00    1.90
   5  -3   3    2.60    1.60
  -6   3  -3  230.88    8.70
   6  -3   3  234.38    8.20
  -7   3  -3   14.50    3.10
  -7   3  -3   14.70    3.50
   7  -3   3   17.20    3.10
  -8   3  -3   50.49    5.00
  -8   3  -3   47.00    5.50
   8  -3   3   48.40    4.70
  -9   3  -3   29.10    4.70
  -9   3  -3   27.00    4.70
   9  -3   3   18.30    4.20
 -10   3  -3    3.90    3.10
 -10   3  -3   10.70    3.90
  10  -3   3    4.10    3.50
  10  -3   3    0.70    3.30
  10   2  -3  201.68    9.80
  10   2  -3  220.78    9.40
 -10  -2   3  196.48   10.40
 -10  -2   3  200.18    9.90
   9   2  -3  690.93   20.10
   9   2  -3  683.63   20.60
  -9  -2   3  641.04   21.40
  -9  -2   3  695.23   20.40
   8   2  -3    3.90    2.90
  -8  -2   3    6.00    3.20
   7   2  -3  961.10   25.10
   7   2  -3  918.81   25.50
  -7  -2   3  910.11   26.20
   6   2  -3  909.01   24.40
   6   2  -3  907.91   23.90
  -6  -2   3  901.11   24.10
  -6  -2   3  897.11   24.90
   5   2  -3  430.06   13.90
   5   2  -3  445.96   12.20
  -5  -2   3  434.26   13.50
  -5  -2   3  433.66   12.10
  -5  -2   3  419.66   15.80
   4   2  -3 2642.34   65.29
   4   2  -3 2672.03   64.89
  -4  -2   3 2629.44   64.89
  -4  -2   3 2627.24   64.99
  -4  -2   3 2707.53   65.69
  -4  -2   3 2517.45   65.29
   3   2  -3   21.10    1.90
   3   2  -3   21.40    2.10
  -3  -2   3   21.80    1.80
  -3  -2   3   24.70    1.60
  -3  -2   3   18.90    1.60
  -3  -2   3   23.20    2.00
   2   2  -3 1065.69   27.00
   2   2  -3 1042.00   26.50
   2   2  -3 1062.19   26.50
   2   2  -3 1106.59   26.80
  -2  -2   3 1076.59   27.00
  -2  -2   3 1064.99   27.10
  -2  -2   3 1079.69   26.70
  -2  -2   3 1053.49   26.50
   1   2  -3    2.40    0.60
   1   2  -3    2.30    0.60
   1   2  -3    2.60    0.90
   1   2  -3    1.60    0.70
  -1  -2   3    3.00    0.80
  -1  -2   3    2.90    0.80
  -1  -2   3    1.90    0.60
  -1  -2   3    2.60    0.60
  -1   2  -3 2469.05   59.69
  -1   2  -3 2401.26   59.59
  -1   2  -3 2416.36   59.99
   1  -2   3 2422.26   59.59
   1  -2   3 2482.45   59.59
   1  -2   3 2461.55   60.09
  -2   2  -3  106.69    3.50
  -2   2  -3  113.59    3.60
  -2   2  -3  106.89    3.90
   2  -2   3  109.79    3.50
   2  -2   3  112.19    4.00
   2  -2   3  107.39    3.60
  -3   2  -3  946.21   23.80
  -3   2  -3  930.01   23.30
  -3   2  -3  879.31   23.10
   3  -2   3  903.71   23.20
   3  -2   3  891.01   23.20
  -4   2  -3  339.37   10.30
  -4   2  -3  337.87    9.70
   4  -2   3  322.97    9.50
   4  -2   3  322.07    9.60
  -5   2  -3   83.59    4.20
  -5   2  -3   82.39    5.40
   5  -2   3   80.19    4.10
  -6   2  -3   83.09    5.30
  -6   2  -3   85.09    4.90
   6  -2   3   88.19    4.80
  -7   2  -3    4.10    2.60
  -7   2  -3    8.10    3.10
   7  -2   3    5.60    2.70
  -8   2  -3  229.98   12.10
  -8   2  -3  227.28    9.20
   8  -2   3  228.78    9.10
  -9   2  -3    0.30    3.00
  -9   2  -3    2.50    3.50
   9  -2   3    2.50    3.20
   9  -2   3   -5.90    2.60
 -10   2  -3   68.69    7.60
 -10   2  -3   56.89    5.90
  10  -2   3   59.09    6.00
  10  -2   3   49.60    5.40
  11   1  -3   56.49    8.20
 -11  -1   3   48.20    6.60
 -11  -1   3   70.69    8.10
  10   1  -3  150.38    7.80
  10   1  -3  137.99    7.90
 -10  -1   3  142.39    8.00
 -10  -1   3  130.19    8.20
   9   1  -3   36.30    4.60
   9   1  -3   37.30    5.20
  -9  -1   3   35.70    5.30
  -9  -1   3   41.60    5.10
   8   1  -3   39.60    4.40
   8   1  -3   35.20    4.30
  -8  -1   3   38.50    4.80
   7   1  -3   -1.70    2.10
  -7  -1   3    0.40    2.50
  -7  -1   3    0.30    2.30
   6   1  -3   28.00    3.10
  -6  -1   3   33.20    3.60
  -6  -1   3   40.20    3.90
   5   1  -3  484.95   13.40
  -5  -1   3  481.55   13.50
  -5  -1   3  459.65   13.30
  -5  -1   3  513.35   14.10
   4   1  -3  299.77    8.70
   4   1  -3  304.07    8.60
   4   1  -3  298.37    9.10
  -4  -1   3  326.47    9.30
  -4  -1   3  306.17    8.90
  -4  -1   3  296.07    8.60
  -4  -1   3  298.47    8.70
   3   1  -3  890.61   23.00
   3   1  -3  916.81   23.00
  -3  -1   3  947.61   23.50
  -3  -1   3  922.11   23.20
  -3  -1   3  900.71   23.00
  -3  -1   3  893.81   23.00
   2   1  -3   23.50    1.50
   2   1  -3   24.20    1.40
   2   1  -3   23.90    1.40
  -2  -1   3   22.60    1.60
  -2  -1   3   24.80    1.50
  -2  -1   3   22.60    1.40
  -2  -1   3   21.10    1.40
   1   1  -3  250.07    6.50
   1   1  -3  251.07    7.10
   1   1  -3  239.48    6.50
  -1  -1   3  244.28    6.50
  -1  -1   3  248.58    6.70
   0   1  -3  839.82   20.80
   0   1  -3  815.22   20.30
   0   1  -3  790.72   20.20
   0  -1   3  802.22   20.20
   0  -1   3  819.22   20.50
  -1   1  -3   64.09    2.70
  -1   1  -3   65.19    2.40
  -1   1  -3   66.79    2.40
   1  -1   3   67.89    2.40
   1  -1   3   66.79    2.40
   1  -1   3   67.79    2.70
  -2   1  -3  144.29    5.00
  -2   1  -3  145.69    4.60
  -2   1  -3  138.49    4.40
   2  -1   3  143.49    4.50
   2  -1   3  143.09    4.80
   2  -1   3  144.89    4.50
  -3   1  -3 2387.36   58.19
  -3   1  -3 2315.67   57.49
  -3   1  -3 2225.98   57.29
   3  -1   3 2375.86   57.89
   3  -1   3 2305.87   57.49
  -4   1  -3   22.30    2.40
  -4   1  -3   21.20    2.80
   4  -1   3   23.40    2.40
  -5   1  -3 3023.50   75.09
  -5   1  -3 3031.00   75.89
   5  -1   3 2980.10   74.89
  -6   1  -3  444.06   13.50
  -6   1  -3  429.26   14.30
   6  -1   3  461.05   13.50
  -7   1  -3   73.99    5.20
  -7   1  -3   75.39    6.00
   7  -1   3   74.09    5.20
   7  -1   3   85.29    4.80
  -8   1  -3  180.08   12.20
  -8   1  -3  165.58    8.80
   8  -1   3  174.68    7.90
   8  -1   3  170.68    7.50
  -9   1  -3  187.48    8.90
  -9   1  -3  183.28    9.70
   9  -1   3  179.48    8.80
   9  -1   3  194.78    8.30
 -10   1  -3    2.40    3.40
 -10   1  -3    8.40    4.20
  10  -1   3    1.90    3.20
  10  -1   3    3.80    3.30
  11   0  -3  279.57   12.00
  11   0  -3  310.37   15.30
 -11   0   3  297.87   12.20
  10   0  -3   15.40    4.30
  10   0  -3   11.60    4.30
 -10   0   3   20.80    4.40
 -10   0   3   19.20    4.20
   9   0  -3  130.29    7.30
  -9   0   3  125.99    8.80
   8   0  -3   98.89    5.70
  -8   0   3  110.59    6.30
  -8   0   3  110.59    6.10
   7   0  -3    9.70    2.70
  -7   0   3   11.20    3.00
  -7   0   3   10.40    3.00
   6   0  -3  279.07    8.80
  -6   0   3  271.67    8.90
  -6   0   3  277.77   10.70
   5   0  -3   17.20    2.30
  -5   0   3   21.20    2.00
  -5   0   3   23.10    2.50
  -5   0   3   23.20    2.50
   4   0  -3  261.27    7.90
   4   0  -3  255.67    7.60
   4   0  -3  249.18    7.50
  -4   0   3  260.47    7.70
  -4   0   3  267.77    7.90
  -4   0   3  254.87    7.90
  -4   0   3  261.07    7.50
   3   0  -3  513.05   13.60
   3   0  -3  509.15   13.60
  -3   0   3  531.55   13.90
  -3   0   3  508.85   13.60
  -3   0   3  533.95   13.60
  -3   0   3  531.35   13.70
   2   0  -3   19.90    1.40
   2   0  -3   19.70    1.30
  -2   0   3   19.90    1.40
  -2   0   3   19.70    1.40
  -2   0   3   20.50    1.20
   1   0  -3 1087.69   27.10
   1   0  -3 1093.39   27.00
   1   0  -3 1070.79   27.00
  -1   0   3 1077.69   27.10
  -1   0   3 1087.49   27.00
  -1   0   3 1119.79   27.00
   0   0  -3  697.43   18.00
   0   0  -3  706.53   18.30
   0   0  -3  730.13   18.10
   0   0   3  713.53   18.10
   0   0   3  726.83   18.10
   0   0   3  717.53   18.30
  -1   0  -3  165.68    5.00
  -1   0  -3  166.38    5.30
  -1   0  -3  169.68    5.10
   1   0   3  172.38    5.00
   1   0   3  168.28    5.00
   1   0   3  168.98    5.30
  -2   0  -3 1521.15   38.20
  -2   0  -3 1576.14   38.90
  -2   0  -3 1536.45   38.40
   2   0   3 1549.94   38.30
   2   0   3 1549.74   38.70
   2   0   3 1481.65   38.20
  -3   0  -3  303.37    9.20
  -3   0  -3  297.07    8.50
  -3   0  -3  275.57    8.20
   3   0   3  290.07    9.20
   3   0   3  271.17    8.30
   3   0   3  285.97    8.40
  -4   0  -3   38.70    3.40
  -4   0  -3   39.80    2.90
   4   0   3   38.70    2.60
   4   0   3   39.40    2.90
  -5   0  -3  609.74   17.40
  -5   0  -3  616.34   18.40
   5   0   3  622.64   17.40
   5   0   3  643.74   17.00
  -6   0  -3   14.00    2.80
  -6   0  -3   13.20    3.30
   6   0   3   15.70    2.80
   6   0   3   16.10    2.80
  -7   0  -3  585.14   18.00
  -7   0  -3  582.84   19.00
   7   0   3  629.34   17.50
   7   0   3  612.24   17.90
  -8   0  -3  343.77   12.40
  -8   0  -3  333.07   13.40
   8   0   3  344.27   12.20
   8   0   3  358.76   12.00
  -9   0  -3  148.09    9.10
  -9   0  -3  161.98    8.40
   9   0   3  154.08    8.10
   9   0   3  167.48    7.70
 -10   0  -3  103.89    7.70
 -10   0  -3  127.29    9.00
  10   0   3  111.39    7.70
  11  -1  -3   52.59    6.50
 -11   1   3   65.09    6.30
 -11   1   3   61.49    6.40
  10  -1  -3   31.20    4.90
 -10   1   3   23.30    4.30
 -10   1   3   24.30    4.70
  -9   1   3    0.60    2.90
   8  -1  -3   -0.60    2.50
  -8   1   3    2.80    2.70
  -8   1   3   -1.90    2.60
   7  -1  -3   50.79    4.00
  -7   1   3   42.90    4.10
  -7   1   3   48.50    4.20
   6  -1  -3   90.29    4.90
  -6   1   3   76.99    4.50
  -6   1   3  100.99    4.70
   5  -1  -3    0.70    1.40
   5  -1  -3    0.50    1.20
  -5   1   3    0.60    1.60
  -5   1   3    2.30    1.00
  -5   1   3   -0.40    1.50
   4  -1  -3  516.55   13.80
   4  -1  -3  510.35   13.80
  -4   1   3  508.25   13.80
  -4   1   3  530.85   13.90
  -4   1   3  520.75   13.40
  -4   1   3  497.75   13.70
   3  -1  -3 1616.24   40.10
   3  -1  -3 1617.04   40.10
  -3   1   3 1598.64   39.70
  -3   1   3 1626.34   40.10
  -3   1   3 1578.94   40.10
  -3   1   3 1644.14   40.10
   2  -1  -3   29.60    1.70
   2  -1  -3   30.60    1.70
  -2   1   3   30.00    1.70
  -2   1   3   31.70    1.70
  -2   1   3   29.60    1.30
   1  -1  -3 1670.03   40.80
   1  -1  -3 1681.93   40.60
   1  -1  -3 1687.23   40.90
  -1   1   3 1633.74   40.80
  -1   1   3 1602.04   40.80
  -1   1   3 1639.74   40.80
   0  -1  -3  222.88    6.60
   0  -1  -3  235.58    6.50
   0  -1  -3  225.88    6.40
   0   1   3  232.18    6.50
   0   1   3  229.28    6.60
   0   1   3  223.58    6.40
  -1  -1  -3  198.58    5.90
  -1  -1  -3  196.18    6.00
  -1  -1  -3  201.38    6.30
   1   1   3  203.18    5.90
   1   1   3  199.08    6.10
   1   1   3  199.48    6.00
  -2  -1  -3 1241.18   31.40
  -2  -1  -3 1295.97   31.70
  -2  -1  -3 1263.17   31.90
   2   1   3 1221.68   31.60
   2   1   3 1212.78   31.30
   2   1   3 1205.68   31.30
  -3  -1  -3  413.96   12.30
  -3  -1  -3  408.66   11.70
   3   1   3  405.06   11.20
   3   1   3  416.66   11.60
  -4  -1  -3 1233.78   35.20
  -4  -1  -3 1304.37   33.90
   4   1   3 1260.27   32.40
   4   1   3 1299.77   32.90
  -5  -1  -3 1377.06   37.90
  -5  -1  -3 1402.96   36.90
   5   1   3 1471.35   37.90
   5   1   3 1434.26   36.80
  -6  -1  -3    3.70    2.90
  -6  -1  -3    5.60    2.60
   6   1   3    4.60    2.60
   6   1   3    4.50    2.40
  -7  -1  -3  187.48    8.40
  -7  -1  -3  182.38    9.30
   7   1   3  189.38    8.00
   7   1   3  177.38    7.50
  -8  -1  -3  214.78   10.40
  -8  -1  -3  210.78    9.40
   8   1   3  227.08    8.90
   8   1   3  213.28    9.20
  -9  -1  -3    1.70    3.00
  -9  -1  -3    4.50    4.50
   9   1   3    4.00    2.80
   9   1   3    3.80    3.10
  10   1   3   88.79    6.00
 -12   2   3   11.00    3.80
 -11   2   3   17.50    3.70
  10  -2  -3   -1.10    3.20
 -10   2   3   -1.60    2.90
   9  -2  -3  230.68    9.20
  -9   2   3  226.48    9.40
   8  -2  -3    4.90    2.70
  -8   2   3    0.70    2.30
  -8   2   3   -1.60    2.50
   7  -2  -3  183.98    7.10
  -7   2   3  187.38    7.30
  -7   2   3  183.78    7.10
   6  -2  -3   35.80    3.20
  -6   2   3   37.10    3.10
  -6   2   3   37.50    3.90
   5  -2  -3  189.68    6.20
  -5   2   3  178.38    5.50
  -5   2   3  182.38    6.20
  -5   2   3  184.58    6.10
   4  -2  -3  303.07    8.80
   4  -2  -3  303.67    8.80
  -4   2   3  315.07    8.60
  -4   2   3  307.07    8.90
  -4   2   3  296.07    8.80
   3  -2  -3   51.89    2.40
   3  -2  -3   50.79    2.40
  -3   2   3   51.09    2.20
  -3   2   3   50.59    2.50
   2  -2  -3 1001.60   24.60
   2  -2  -3  931.11   24.50
  -2   2   3  954.50   24.60
  -2   2   3 1000.40   24.60
   1  -2  -3 1369.26   33.70
   1  -2  -3 1370.96   33.70
  -1   2   3 1362.46   33.70
  -1   2   3 1315.27   33.60
  -1   2   3 1327.17   33.50
   0  -2  -3   67.29    2.60
   0  -2  -3   64.39    2.60
   0  -2  -3   64.99    2.80
   0  -2  -3   69.09    2.90
   0   2   3   64.79    2.70
   0   2   3   70.49    2.80
   0   2   3   63.29    2.60
  -1  -2  -3  181.48    5.70
  -1  -2  -3  185.18    6.00
   1   2   3  172.88    5.80
   1   2   3  175.28    5.70
   1   2   3  179.28    5.60
  -2  -2  -3 1581.84   39.40
  -2  -2  -3 1523.65   38.80
  -2  -2  -3 1550.44   38.20
  -2  -2  -3 1533.55   38.60
   2   2   3 1501.75   39.00
   2   2   3 1548.55   38.70
   2   2   3 1516.25   38.40
  -3  -2  -3    6.80    1.70
  -3  -2  -3    3.80    1.80
   3   2   3    4.30    1.60
   3   2   3    5.20    1.60
  -4  -2  -3 1405.26   38.60
  -4  -2  -3 1500.65   37.90
   4   2   3 1470.35   37.50
   4   2   3 1495.45   37.80
  -5  -2  -3   54.49    4.80
  -5  -2  -3   56.99    4.10
   5   2   3   53.39    3.90
   5   2   3   52.39    4.10
  -6  -2  -3   16.90    3.30
  -6  -2  -3   21.90    3.90
   6   2   3   20.00    3.40
   6   2   3   26.80    3.60
  -7  -2  -3   51.99    5.70
  -7  -2  -3   45.60    4.90
   7   2   3   51.89    5.00
   7   2   3   48.00    4.70
  -8  -2  -3   43.00    5.80
  -8  -2  -3   38.50    5.40
   8   2   3   46.40    5.00
   8   2   3   50.49    5.50
  -9  -2  -3    6.30    3.60
  -9  -2  -3    2.20    3.40
   9   2   3   -2.80    3.10
   9   2   3    6.20    3.00
 -12   3   3   40.00    5.10
  11  -3  -3   -1.40    3.40
 -11   3   3    8.10    3.40
 -11   3   3    1.00    3.80
  10  -3  -3    9.60    3.90
 -10   3   3   21.30    5.30
   9  -3  -3  228.58    9.20
  -9   3   3  222.78    8.90
  -9   3   3  231.98    9.90
   8  -3  -3  109.89    5.80
  -8   3   3  107.89    5.70
  -8   3   3  102.49    6.00
   7  -3  -3   37.20    3.80
  -7   3   3   48.20    3.60
  -7   3   3   40.90    4.30
   6  -3  -3   88.09    4.30
  -6   3   3   81.79    4.00
  -6   3   3   84.89    6.40
   5  -3  -3  198.58    6.70
   5  -3  -3  199.58    6.10
  -5   3   3  200.48    6.20
  -5   3   3  192.98    6.60
   4  -3  -3  104.09    4.00
   4  -3  -3   98.79    4.00
  -4   3   3  102.99    3.80
  -4   3   3  106.49    4.10
   3  -3  -3   24.60    1.90
   3  -3  -3   29.20    2.00
  -3   3   3   28.20    1.90
  -3   3   3   28.60    2.00
  -3   3   3   25.90    1.80
   2  -3  -3  666.63   17.80
   2  -3  -3  692.53   17.90
  -2   3   3  660.23   17.80
  -2   3   3  699.43   17.90
  -2   3   3  714.83   18.00
   1  -3  -3  970.50   24.80
   1  -3  -3  987.10   24.70
   1  -3  -3  993.40   24.90
  -1   3   3  982.10   25.10
  -1   3   3  947.81   24.60
  -1   3   3  970.90   24.80
   0  -3  -3  161.78    5.30
   0  -3  -3  154.18    5.00
   0  -3  -3  152.18    5.00
   0  -3  -3  152.08    5.10
   0   3   3  166.98    5.20
   0   3   3  152.88    5.00
   0   3   3  151.08    5.00
  -1  -3  -3  864.51   22.20
  -1  -3  -3  873.71   22.60
  -1  -3  -3  897.41   22.90
   1   3   3  840.22   22.50
   1   3   3  858.71   22.50
  -2  -3  -3  308.27    8.80
  -2  -3  -3  297.57    9.20
  -2  -3  -3  311.37    9.10
  -2  -3  -3  314.87    9.80
   2   3   3  314.87    9.20
   2   3   3  294.67    9.10
  -3  -3  -3  241.18    8.10
  -3  -3  -3  249.88    8.80
   3   3   3  249.78    8.10
   3   3   3  241.98    8.00
  -4  -3  -3   46.50    4.50
  -4  -3  -3   44.80    3.70
  -5  -3  -3  348.87   11.60
  -5  -3  -3  359.96   12.80
   5   3   3  365.76   11.40
   5   3   3  364.86   11.60
  -6  -3  -3  311.17   11.70
   6   3   3  311.87   10.70
   6   3   3  311.37   10.90
  -7  -3  -3   -1.30    2.40
  -7  -3  -3    1.30    3.10
   7   3   3    0.00    4.00
   7   3   3   -1.10    3.30
  -8  -3  -3  122.39    7.40
  -8  -3  -3  128.59    8.50
   8   3   3  115.69    7.20
   8   3   3  137.69    7.00
  11  -4  -3   -5.70    3.70
  10  -4  -3   41.30    5.40
 -10   4   3   44.40    5.70
 -10   4   3   53.09    4.80
   9  -4  -3   50.79    5.00
  -9   4   3   50.39    5.40
  -9   4   3   55.99    4.60
   8  -4  -3  379.46   12.00
  -8   4   3  364.26   12.10
  -8   4   3  350.16   11.40
   7  -4  -3  200.28    7.30
  -7   4   3  175.18    7.30
   6  -4  -3 1493.25   39.20
   6  -4  -3 1560.04   39.70
  -6   4   3 1604.64   39.90
   5  -4  -3 2141.89   54.39
  -5   4   3 2178.18   54.19
  -5   4   3 2201.38   54.49
   4  -4  -3  365.76   10.60
   4  -4  -3  367.96   10.50
  -4   4   3  378.36   10.60
  -4   4   3  359.86   10.50
   3  -4  -3 1220.38   31.00
   3  -4  -3 1185.88   31.00
  -3   4   3 1241.58   31.00
  -3   4   3 1239.78   31.20
   2  -4  -3   22.20    2.00
   2  -4  -3   21.50    1.80
  -2   4   3   21.40    1.90
  -2   4   3   23.60    2.30
   1  -4  -3   -1.00    1.00
   1  -4  -3    0.30    0.80
   1  -4  -3    0.50    1.00
  -1   4   3    0.50    0.80
  -1   4   3   -0.80    1.00
  -1   4   3    0.80    0.80
   0  -4  -3    0.00    1.10
   0  -4  -3    1.20    1.10
   0  -4  -3    1.30    1.10
   0  -4  -3    2.50    1.20
   0   4   3    1.10    1.20
   0   4   3    2.10    1.10
  -1  -4  -3  575.84   15.90
  -1  -4  -3  595.04   15.90
  -1  -4  -3  558.94   15.40
  -1  -4  -3  574.14   15.60
   1   4   3  569.24   15.50
   1   4   3  543.45   15.50
  -2  -4  -3  189.68    7.10
  -2  -4  -3  182.78    6.50
   2   4   3  189.68    6.50
  -3  -4  -3 1052.69   28.00
  -3  -4  -3 1057.39   28.80
   3   4   3 1063.89   27.90
   3   4   3 1058.59   28.10
  -4  -4  -3  580.64   16.90
  -4  -4  -3  573.04   17.90
   4   4   3  580.24   16.80
   4   4   3  594.64   16.90
  -5  -4  -3   62.89    5.40
  -5  -4  -3   59.59    4.80
   5   4   3   60.69    4.70
   5   4   3   60.39    4.70
  -6  -4  -3  197.38    9.70
  -6  -4  -3  220.18    9.00
   6   4   3  212.78    8.60
   6   4   3  212.58    8.70
  -7  -4  -3   76.79    6.90
  -7  -4  -3   83.39    6.00
   7   4   3   83.89    5.70
   7   4   3   80.69    6.10
  -8  -4  -3   80.49    7.60
  -8  -4  -3  108.39    7.20
   8   4   3   97.59    6.20
   8   4   3  107.89    6.70
   9   4   3   63.19    5.90
   9   4   3   64.69    5.40
  11  -5  -3   26.50    5.00
  10  -5  -3  194.88    9.10
 -10   5   3  205.68    9.50
   9  -5  -3   44.60    5.00
  -9   5   3   46.40    5.30
  -8   5   3   95.39    5.90
   7  -5  -3  460.25   13.80
  -7   5   3  457.55   13.90
   6  -5  -3  193.18    7.10
  -6   5   3  201.28    7.20
  -6   5   3  197.98    7.00
   5  -5  -3   82.99    4.20
  -5   5   3   80.89    4.10
  -5   5   3   78.29    4.20
   4  -5  -3  323.17    9.70
   4  -5  -3  310.87    9.70
  -4   5   3  332.97    9.70
  -4   5   3  336.07   10.00
   3  -5  -3  435.16   12.60
   3  -5  -3  457.55   12.70
  -3   5   3  457.15   12.60
  -3   5   3  468.45   13.10
   2  -5  -3  140.09    5.10
   2  -5  -3  140.39    5.00
  -2   5   3  149.88    5.70
  -2   5   3  153.98    5.20
   1  -5  -3  146.69    5.20
   1  -5  -3  152.58    5.50
  -1   5   3  158.08    5.40
  -1   5   3  161.18    6.00
   0  -5  -3  497.45   13.60
   0  -5  -3  490.85   13.80
   0  -5  -3  517.35   13.90
   0   5   3  480.45   13.50
   0   5   3  484.75   13.70
  -1  -5  -3    5.80    1.80
  -1  -5  -3    5.50    1.90
   1   5   3    3.90    1.60
  -2  -5  -3    3.80    2.20
  -2  -5  -3    7.10    2.10
   2   5   3    7.10    2.00
  -3  -5  -3   -0.40    1.80
  -3  -5  -3   -2.40    2.20
   3   5   3    1.30    2.00
  -4  -5  -3   91.59    5.10
  -4  -5  -3   74.09    5.70
   4   5   3   84.59    5.10
   4   5   3   79.99    5.20
  -5  -5  -3   -2.30    2.50
   5   5   3   -1.40    2.30
   5   5   3    4.60    2.90
  -6  -5  -3    9.30    4.00
  -6  -5  -3    5.10    3.00
   6   5   3    9.30    3.20
   6   5   3    9.40    3.50
  -7  -5  -3    5.00    3.90
  -7  -5  -3   -0.70    2.90
   7   5   3    4.30    3.50
   7   5   3    6.20    3.10
   8   5   3   58.29    5.40
  10  -6  -3    5.80    3.50
 -10   6   3   11.60    4.20
   9  -6  -3  626.54   18.70
  -9   6   3  615.44   18.80
   8  -6  -3  991.20   26.70
  -8   6   3  951.90   26.70
   7  -6  -3  246.68    8.60
  -7   6   3  221.88    8.30
  -7   6   3  232.48    8.60
   6  -6  -3 4662.53  113.59
  -6   6   3 4532.65  113.39
   5  -6  -3  574.74   16.00
  -5   6   3  569.54   16.40
  -5   6   3  572.34   16.00
   4  -6  -3 1597.24   41.10
  -4   6   3 1655.33   41.80
  -4   6   3 1611.04   41.00
   3  -6  -3 2123.79   53.49
  -3   6   3 2127.49   53.29
  -3   6   3 2153.58   54.19
   2  -6  -3    5.30    1.80
   2  -6  -3    7.60    2.00
  -2   6   3    6.40    1.70
  -2   6   3    8.30    3.30
   1  -6  -3 1648.24   42.00
  -1   6   3 1663.03   41.80
  -1   6   3 1655.93   42.80
   0  -6  -3  259.87    8.40
   0  -6  -3  253.67    8.40
   0   6   3  261.67    8.30
  -1  -6  -3  408.86   12.30
  -1  -6  -3  394.96   12.00
   1   6   3  392.96   11.80
  -2  -6  -3   84.29    5.20
  -2  -6  -3   84.39    4.60
   2   6   3   83.59    4.50
  -3  -6  -3   46.00    4.70
  -3  -6  -3   50.49    4.10
   3   6   3   53.59    4.00
  -4  -6  -3    0.60    2.90
   4   6   3    2.00    2.50
  -5  -6  -3  208.88    8.70
  -5  -6  -3  194.78    9.60
   5   6   3  205.98    8.30
  -6  -6  -3   13.70    4.40
  -6  -6  -3   20.70    4.00
   6   6   3   23.70    4.30
   6   6   3   26.30    3.70
  -7  -6  -3   52.29    5.40
  -7  -6  -3   34.10    5.90
   7   6   3   59.99    5.00
   7   6   3   50.49    5.30
   8   6   3   34.30    7.10
 -11   7   3   24.60    4.70
  10  -7  -3   49.10    5.60
 -10   7   3   46.60    5.70
   9  -7  -3    2.40    3.00
  -9   7   3   10.30    3.60
   8  -7  -3   82.69    5.50
  -8   7   3   79.49    5.60
  -7   7   3  837.72   23.20
  -7   7   3  832.92   23.10
   6  -7  -3    0.80    2.20
  -6   7   3    1.30    2.30
  -6   7   3   -1.20    2.10
   5  -7  -3 1392.76   36.00
  -5   7   3 1409.16   36.60
  -5   7   3 1376.06   35.90
   4  -7  -3   10.00    2.40
  -4   7   3    9.70    2.50
  -4   7   3    8.80    2.20
   3  -7  -3 1641.94   41.70
  -3   7   3 1623.24   41.50
  -3   7   3 1654.83   42.70
   2  -7  -3  259.87    8.40
  -2   7   3  257.37    9.20
  -2   7   3  250.77    8.20
   1  -7  -3 1657.83   42.20
  -1   7   3 1663.23   43.30
  -1   7   3 1649.04   42.00
   0  -7  -3 1091.59   28.10
   0  -7  -3 1010.70   29.80
   0  -7  -3 1059.19   28.00
   0   7   3 1069.89   27.80
   0   7   3 1070.79   29.10
  -1  -7  -3   -0.30    2.30
  -1  -7  -3    1.40    2.00
   1   7   3   -0.30    1.90
  -2  -7  -3  106.79    5.30
  -2  -7  -3  103.69    6.00
   2   7   3  113.19    5.40
  -3  -7  -3  373.26   12.40
  -3  -7  -3  374.36   13.00
   3   7   3  335.87   12.50
  -4  -7  -3   31.80    5.00
  -4  -7  -3   43.90    4.50
   4   7   3   43.70    4.30
  -5  -7  -3   18.00    4.50
  -5  -7  -3   27.80    4.30
   5   7   3   38.60    4.10
  -6  -7  -3   12.10    5.90
  -6  -7  -3   12.90    4.40
  10  -8  -3  105.29    7.00
 -10   8   3  115.59    7.20
   9  -8  -3   43.00    5.10
  -9   8   3   44.90    4.90
   8  -8  -3   41.70    4.60
  -8   8   3   41.70    4.80
   7  -8  -3   42.20    4.30
  -7   8   3   48.10    4.90
  -7   8   3   45.70    4.50
   6  -8  -3   59.49    4.20
  -6   8   3   48.70    4.70
  -6   8   3   49.99    4.10
   5  -8  -3    3.30    2.30
  -5   8   3    8.70    2.40
  -5   8   3    7.30    2.60
   4  -8  -3  317.47   10.10
  -4   8   3  316.97   11.10
  -4   8   3  313.67    9.90
   3  -8  -3    1.80    2.00
   3  -8  -3    2.80    1.70
  -3   8   3    1.40    2.40
  -3   8   3   -0.50    1.80
   2  -8  -3   33.30    2.70
   2  -8  -3   32.90    3.30
  -2   8   3   32.90    3.00
  -2   8   3   33.00    4.30
   1  -8  -3  139.69    5.80
   1  -8  -3  167.38    6.30
  -1   8   3  157.08    6.00
  -1   8   3  162.48    7.50
   0  -8  -3  469.05   14.10
   0  -8  -3  493.65   14.40
   0  -8  -3  493.65   14.50
   0   8   3  523.95   16.00
   0   8   3  483.15   14.10
  -1  -8  -3  500.55   15.20
  -1  -8  -3  493.75   14.80
   1   8   3  489.25   14.50
   1   8   3  487.35   16.00
  -2  -8  -3  103.69    6.10
  -2  -8  -3  120.59    8.50
   2   8   3   94.69    6.60
   2   8   3   96.79    5.20
  -3  -8  -3  381.76   13.30
  -3  -8  -3  377.56   12.50
   3   8   3  379.86   13.80
   3   8   3  356.16   12.30
  -4  -8  -3   10.70    3.10
  -4  -8  -3    2.30    3.30
   4   8   3    2.60    3.30
   4   8   3   12.50    3.00
  -5  -8  -3  151.98    8.00
  -5  -8  -3  145.09    8.70
   5   8   3  137.39    8.50
   5   8   3  177.38    7.40
  -6  -8  -3  121.59    8.30
   9  -9  -3  184.08   10.00
   8  -9  -3   -1.90    2.70
  -8   9   3    1.70    3.10
  -8   9   3   -0.60    4.20
   7  -9  -3  782.02   22.00
  -7   9   3  771.32   21.90
  -7   9   3  794.52   22.80
   6  -9  -3   57.39    4.60
  -6   9   3   66.29    4.50
  -6   9   3   56.09    5.40
   5  -9  -3  206.08    8.80
  -5   9   3  202.98    8.80
  -5   9   3  197.18    7.40
   4  -9  -3    5.00    2.50
  -4   9   3    4.40    2.70
  -4   9   3    2.10    2.00
   3  -9  -3   50.19    4.00
   3  -9  -3   49.60    3.40
  -3   9   3   58.69    5.40
  -3   9   3   58.39    3.70
   2  -9  -3    8.50    2.60
   2  -9  -3    8.60    2.10
  -2   9   3    9.80    2.20
  -2   9   3    7.10    2.90
   1  -9  -3  144.89    6.20
  -1   9   3  141.99    5.70
  -1   9   3  135.89    7.40
   0  -9  -3   43.90    3.90
   0  -9  -3   45.70    4.50
   0   9   3   45.70    3.60
   0   9   3   41.30    5.10
  -1  -9  -3   22.20    3.40
  -1  -9  -3   25.70    3.60
   1   9   3   18.50    3.90
   1   9   3   22.80    3.10
  -2  -9  -3   12.70    3.20
  -2  -9  -3   16.20    3.40
   2   9   3   17.90    2.90
   2   9   3    7.70    3.30
  -3  -9  -3   79.59    6.20
  -3  -9  -3   68.49    5.20
   3   9   3   89.59    7.20
   3   9   3   97.49    5.10
  -4  -9  -3    2.90    2.80
  -4  -9  -3    4.20    3.10
   4   9   3    8.00    3.50
  -5  -9  -3   14.10    4.30
  -5  -9  -3   17.20    3.60
   9 -10  -3   53.99    5.50
   8 -10  -3  216.48    9.00
  -8  10   3  208.28    9.40
   7 -10  -3   25.60    3.80
  -7  10   3   21.40    4.10
   6 -10  -3  280.07    9.70
  -6  10   3  258.97   10.70
  -6  10   3  273.57    9.50
   5 -10  -3   27.00    3.60
  -5  10   3   27.00    4.40
  -5  10   3   29.20    3.40
   4 -10  -3  156.48    6.60
  -4  10   3  156.28    9.40
  -4  10   3  145.69    6.10
   3 -10  -3    7.70    2.90
  -3  10   3   11.20    2.40
  -3  10   3    6.90    3.60
   2 -10  -3   25.30    4.50
  -2  10   3   21.90    4.20
  -2  10   3   31.50    3.00
   1 -10  -3  132.49    6.20
  -1  10   3  140.89    5.60
  -1  10   3  120.39    7.60
   0 -10  -3    0.90    2.40
   0  10   3    1.20    3.00
  -1 -10  -3  110.59    5.90
  -1 -10  -3  120.19    6.30
   1  10   3  113.19    7.60
   1  10   3  126.39    5.50
  -2 -10  -3   76.99    9.80
  -2 -10  -3   68.49    5.10
   2  10   3   66.09    6.60
  -3 -10  -3   29.70    4.60
  -3 -10  -3   21.40    3.90
   3  10   3   11.90    4.10
  -4 -10  -3    7.90    3.70
  -4 -10  -3    3.80    3.00
   4  10   3    0.40    3.50
   8 -11  -3  101.99    6.30
  -8  11   3  110.89    7.30
   7 -11  -3    8.70    3.20
  -7  11   3    9.80    3.80
   6 -11  -3  142.09    6.90
  -6  11   3  151.98    8.40
   5 -11  -3  375.86   12.20
  -5  11   3  390.96   14.30
   4 -11  -3  169.88    7.20
  -4  11   3  171.58    9.00
   3 -11  -3   77.09    5.00
  -3  11   3   68.09    6.60
   2 -11  -3  990.50   26.90
  -2  11   3 1000.60   29.50
   1 -11  -3  284.87   10.10
  -1  11   3  279.37   12.10
   0 -11  -3  328.47   11.20
   0  11   3  327.07   13.20
  -1 -11  -3  170.08    7.50
  -1 -11  -3  163.08    7.50
   1  11   3  150.28    9.20
  -2 -11  -3  107.79    6.50
  -3 -11  -3   20.40    3.80
  -3 -11  -3   21.70    3.70
   3  11   3    9.70    4.40
  -4 -11  -3   76.69    6.60
  -8  12   3   -3.20    3.50
   7 -12  -3   17.50    3.50
  -7  12   3    5.90    5.00
  -6  12   3    0.10    3.60
   5 -12  -3  250.37    9.30
  -5  12   3  262.67   11.80
   4 -12  -3   88.79    5.40
  -4  12   3   89.89    7.50
   3 -12  -3  424.86   13.30
  -3  12   3  423.06   15.80
   2 -12  -3  233.38    8.80
  -2  12   3  218.98   11.00
   1 -12  -3  498.35   15.40
  -1  12   3  500.55   18.20
   0 -12  -3  594.74   17.70
   0  12   3  566.04   23.00
  -1 -12  -3  125.39    6.70
   1  12   3  125.49    8.90
   6 -13  -3   51.79    6.70
  -6  13   3   31.80    5.30
   5 -13  -3   48.60    4.50
  -5  13   3   53.89    7.00
   4 -13  -3  443.76   14.10
  -4  13   3  466.55   17.10
   3 -13  -3  399.16   13.70
  -3  13   3  400.86   15.80
   2 -13  -3  435.06   13.90
  -2  13   3  443.16   16.90
   1 -13  -3  630.84   18.70
  -1  13   3  650.53   23.30
   0 -13  -3   60.69    7.00
   0  15  -4   -2.10    4.30
  -2  15  -4   -1.90    3.40
  -3  15  -4  217.38   12.80
   3  14  -4   97.89    7.60
   2  14  -4    1.00    3.40
   1  14  -4   97.49   12.10
   0  14  -4  196.08   10.30
  -1  14  -4   -0.60    3.30
  -2  14  -4  388.26   14.90
  -3  14  -4  143.39    9.40
  -4  14  -4  171.88   12.10
  -5  14  -4  339.77   14.20
  -4 -13   4   81.19    6.10
   3  13  -4   89.29    7.20
  -3 -13   4  103.49    6.30
   2  13  -4   11.90    3.70
   1  13  -4   97.39    7.10
   0  13  -4    4.70    3.30
  -1  13  -4    7.50    3.50
  -2  13  -4   57.09    6.30
  -3  13  -4  159.38    9.10
  -4  13  -4   36.10    5.30
  -5  13  -4  176.28    9.80
   5  12  -4    7.00    3.30
  -5 -12   4    9.70    5.10
   4  12  -4    0.60    2.90
  -4 -12   4    4.90    3.30
   3  12  -4   -2.00    2.90
  -3 -12   4    4.80    3.20
   2  12  -4  152.68    8.40
  -2 -12   4  157.58    7.30
   1  12  -4   26.80    4.30
  -1 -12   4   29.60    3.80
   0  12  -4  206.58    9.50
  -1  12  -4   47.50    5.60
  -2  12  -4   65.59    6.10
  -3  12  -4    3.30    3.20
  -4  12  -4   78.09    6.70
  -5  12  -4    6.90    3.50
   8 -12   4  166.18    7.10
  -6 -11   4   78.19    6.90
   5  11  -4  144.59    7.90
  -5 -11   4  139.69    8.40
   4  11  -4    2.00    2.80
  -4 -11   4    3.20    3.40
  -3 -11   4   80.59    5.70
   2  11  -4   13.40    3.50
  -2 -11   4   19.50    3.40
   1  11  -4    9.00    3.20
  -1 -11   4    8.80    2.50
   0  11  -4   40.20    4.90
  -1  11  -4   28.90    4.20
  -2  11  -4  209.28    9.30
  -3  11  -4   62.09    5.80
  -4  11  -4   20.10    3.90
  -5  11  -4   92.09    6.80
   6 -11   4    0.30    2.00
   7 -11   4    0.40    2.30
   8 -11   4   43.40    4.80
  -7 -10   4    8.70    4.30
  -7 -10   4    5.80    2.60
   6  10  -4   92.49    6.20
  -6 -10   4  103.69    5.40
  -6 -10   4   99.19    7.40
   5  10  -4   73.79    5.70
  -5 -10   4   74.19    4.40
  -5 -10   4   71.79    6.40
   4  10  -4   19.50    3.60
   3  10  -4  290.97   11.00
  -3 -10   4  294.27   10.70
   2  10  -4    3.00    2.60
  -2 -10   4    5.50    2.70
   1  10  -4  642.14   19.20
  -1 -10   4  637.24   18.00
   0  10  -4  674.73   19.90
   0 -10   4  675.13   18.30
  -1  10  -4  215.88    9.00
  -2  10  -4  878.11   25.00
  -3  10  -4   66.99    3.80
  -3  10  -4   72.99    5.60
  -4  10  -4  100.69    6.40
  -4  10  -4   96.79    4.50
   7 -10   4    4.70    2.50
   8 -10   4   24.70    3.70
   9 -10   4    2.60    2.80
   7   9  -4   38.60    5.60
  -7  -9   4   37.80    4.30
   6   9  -4    8.70    4.00
   6   9  -4    5.90    2.70
  -6  -9   4    6.00    3.50
  -6  -9   4    6.60    2.60
   5   9  -4  139.69    8.00
   5   9  -4  148.09    7.20
  -5  -9   4  147.39    8.00
   4   9  -4   22.30    3.40
  -4  -9   4   26.80    2.80
  -4  -9   4   25.20    4.10
   3   9  -4 1820.52   46.80
  -3  -9   4 1772.22   46.70
   2   9  -4   80.19    5.40
  -2  -9   4   86.99    5.00
   1   9  -4 1646.44   43.00
  -1  -9   4 1647.74   42.10
   0   9  -4  353.96   11.70
   0  -9   4  341.67   10.30
  -1   9  -4   -2.40    2.40
  -1   9  -4    1.30    1.70
  -2   9  -4   29.40    2.80
  -2   9  -4   23.90    3.40
  -3   9  -4    6.40    1.80
  -3   9  -4    3.50    2.70
  -4   9  -4  275.37   10.40
  -4   9  -4  283.87    8.70
  -5   9  -4   21.40    2.70
   5  -9   4   23.10    2.90
   5  -9   4   29.60    2.40
  -6   9  -4  158.28    6.00
  -6   9  -4  167.28    6.10
   6  -9   4  170.98    6.50
  -7   9  -4    7.20    2.00
   7  -9   4    7.30    2.80
   8  -9   4    0.90    2.60
   9  -9   4    9.20    3.20
   8   8  -4    3.90    4.00
  -8  -8   4   11.20    3.60
  -8  -8   4    6.20    4.20
   7   8  -4   16.10    4.40
  -7  -8   4   19.30    4.80
  -7  -8   4   16.90    3.20
   6   8  -4  242.98   10.60
   6   8  -4  253.77    9.40
  -6  -8   4  232.18   10.60
  -6  -8   4  258.27    9.00
   5   8  -4    5.90    3.40
   5   8  -4   10.60    2.80
   5   8  -4   16.80    2.90
  -5  -8   4   11.40    2.60
  -5  -8   4   14.30    3.70
   4   8  -4 1162.08   32.50
   4   8  -4 1203.98   31.70
  -4  -8   4 1192.28   32.30
  -4  -8   4 1182.28   30.50
   3   8  -4   37.50    4.50
   3   8  -4   40.20    4.10
  -3  -8   4   38.00    4.20
   2   8  -4 1487.85   38.30
  -2  -8   4 1444.66   38.00
   1   8  -4  174.98    7.20
  -1  -8   4  181.08    6.50
   0   8  -4 1218.78   31.80
   0   8  -4 1200.28   31.10
   0  -8   4 1174.38   30.60
  -1   8  -4  329.87   11.30
  -1   8  -4  355.56   10.40
  -2   8  -4    5.60    2.30
  -2   8  -4   10.90    1.80
  -3   8  -4   -0.40    1.30
  -3   8  -4   -1.70    2.20
  -4   8  -4  527.05   14.90
   4  -8   4  545.05   14.40
  -5   8  -4  153.48    5.90
  -5   8  -4  172.98    6.10
   5  -8   4  174.98    6.10
   5  -8   4  165.08    5.80
  -6   8  -4    1.20    1.70
  -6   8  -4    1.10    1.90
   6  -8   4   -2.90    2.10
  -7   8  -4   13.40    2.80
  -7   8  -4    6.90    2.20
   7  -8   4   10.60    2.80
  -8   8  -4   42.00    3.80
  -8   8  -4   47.90    4.50
   8  -8   4   43.70    4.60
  -9   8  -4   -9.40    4.80
   8   7  -4   15.80    4.20
  -8  -7   4    9.00    4.30
  -8  -7   4    8.90    3.40
   7   7  -4  549.35   17.80
   7   7  -4  549.74   16.10
  -7  -7   4  511.75   18.20
  -7  -7   4  575.34   16.60
   6   7  -4   20.00    4.10
   6   7  -4   21.90    3.00
   6   7  -4   22.70    3.00
  -6  -7   4   22.60    4.40
   5   7  -4 1771.62   45.30
   5   7  -4 1686.83   46.20
   5   7  -4 1833.62   47.30
  -5  -7   4 1862.31   45.70
  -5  -7   4 1839.02   47.50
   4   7  -4  133.69    6.50
   4   7  -4  125.99    4.60
   4   7  -4  133.69    5.80
  -4  -7   4  127.39    5.00
  -4  -7   4  134.19    6.50
  -4  -7   4  125.99    4.70
   3   7  -4 2892.71   73.69
   3   7  -4 2940.91   72.99
  -3  -7   4 2935.21   73.39
   2   7  -4 1218.48   31.50
  -2  -7   4 1187.48   31.40
   1   7  -4    3.40    1.90
  -1  -7   4    4.50    1.60
   0   7  -4  574.64   15.60
   0   7  -4  564.44   15.90
   0  -7   4  546.05   15.10
  -1   7  -4 2073.29   52.99
  -1   7  -4 2114.99   52.49
  -2   7  -4 1340.57   34.20
  -3   7  -4   13.00    2.50
  -3   7  -4   13.80    1.90
  -4   7  -4 2001.30   50.19
  -4   7  -4 1980.80   49.60
   4  -7   4 2084.89   49.80
   4  -7   4 1925.41   49.60
  -5   7  -4  498.85   14.30
  -5   7  -4  508.55   14.00
   5  -7   4  530.85   14.20
   5  -7   4  482.25   13.90
  -6   7  -4  494.65   13.70
  -6   7  -4  475.85   13.90
   6  -7   4  410.66   13.90
   6  -7   4  490.85   13.90
  -7   7  -4  421.56   12.90
  -7   7  -4  419.26   13.00
   7  -7   4  408.06   13.00
  -8   7  -4    3.80    2.70
  -8   7  -4    3.90    2.30
  -8   7  -4    1.90    2.40
   8  -7   4    1.60    2.70
  -9   7  -4  222.48    8.90
  -9   7  -4  242.18   10.20
  -9   7  -4  258.57    9.60
   9  -7   4  221.18    9.40
   9   6  -4  406.36   15.20
  -9  -6   4  422.36   14.30
  -9  -6   4  410.56   16.10
   8   6  -4   54.59    5.60
   8   6  -4   54.89    4.90
  -8  -6   4   56.59    5.00
  -8  -6   4   53.89    6.10
   7   6  -4  297.27   10.00
   7   6  -4  293.47   11.40
  -7  -6   4  284.47   11.70
  -7  -6   4  313.07   10.40
   6   6  -4   27.40    3.20
   6   6  -4   26.00    4.20
  -6  -6   4   25.30    4.30
  -6  -6   4   23.50    3.30
   5   6  -4  147.19    6.80
   5   6  -4  143.99    5.80
   5   6  -4  148.09    5.50
  -5  -6   4  149.69    5.80
  -5  -6   4  149.29    7.10
  -5  -6   4  145.19    5.50
   4   6  -4   80.19    4.90
   4   6  -4   86.69    4.20
   4   6  -4   80.99    3.50
  -4  -6   4   77.89    3.50
  -4  -6   4   78.09    4.80
  -4  -6   4   82.59    3.70
   3   6  -4    2.10    2.20
   3   6  -4    5.20    1.50
  -3  -6   4    2.80    3.00
  -3  -6   4    4.60    1.20
  -3  -6   4    3.20    1.20
   2   6  -4   -1.00    1.70
   2   6  -4   -0.20    1.30
  -2  -6   4    2.20    1.50
   1   6  -4  712.13   19.20
   1   6  -4  722.63   19.20
  -1  -6   4  707.63   19.00
   0   6  -4 2497.35   60.79
   0   6  -4 2583.84   60.99
   0  -6   4 2368.56   60.69
   0  -6   4 2340.67   60.69
   0  -6   4 2411.56   60.49
  -1   6  -4   20.80    2.50
  -1   6  -4   27.00    2.10
   1  -6   4   22.90    2.00
   1  -6   4   22.80    1.80
  -2   6  -4 1232.98   32.00
  -2   6  -4 1220.58   31.40
   2  -6   4 1243.78   31.40
  -3   6  -4  247.88    7.60
   3  -6   4  237.88    7.00
   3  -6   4  247.98    7.00
  -4   6  -4   86.29    3.90
  -4   6  -4   78.99    3.80
   4  -6   4   89.59    3.80
   4  -6   4   81.39    3.40
  -5   6  -4  131.29    5.40
  -5   6  -4  124.99    5.10
   5  -6   4  129.59    5.30
  -6   6  -4   42.40    3.80
  -6   6  -4   45.30    3.70
  -6   6  -4   43.70    3.70
   6  -6   4   44.30    3.90
  -7   6  -4   55.49    4.30
  -7   6  -4   59.39    4.60
  -8   6  -4  157.58    7.10
  -8   6  -4  161.08    7.50
  -8   6  -4  147.19    7.40
   8  -6   4  155.18    7.20
  -9   6  -4   -0.10    5.40
  -9   6  -4    6.20    2.80
   9  -6   4   -2.90    2.80
 -10   6  -4  374.66   13.50
  10  -6   4  358.76   15.10
   9   5  -4   25.60    5.00
   9   5  -4   23.30    4.10
  -9  -5   4   32.80    5.40
  -9  -5   4   22.70    4.20
   8   5  -4   -3.30    2.60
   8   5  -4   -2.60    3.00
  -8  -5   4    2.60    2.80
  -8  -5   4    3.90    3.20
   7   5  -4   67.79    5.60
   7   5  -4   58.09    5.30
  -7  -5   4   61.69    5.70
   6   5  -4    1.10    2.60
   6   5  -4    2.30    2.10
  -6  -5   4    6.50    2.40
  -6  -5   4   -0.50    2.60
   5   5  -4  218.68    8.20
   5   5  -4  219.98    7.20
  -5  -5   4  225.88    8.70
  -5  -5   4  224.18    7.40
   4   5  -4  217.28    6.90
   4   5  -4  218.48    7.80
  -4  -5   4  213.68    6.80
  -4  -5   4  220.38    8.00
  -4  -5   4  218.38    6.70
   3   5  -4  974.00   24.90
   3   5  -4 1000.00   26.10
   3   5  -4  989.60   25.50
  -3  -5   4 1003.90   26.30
   2   5  -4   10.50    1.50
   2   5  -4    7.60    1.90
  -2  -5   4   10.30    1.80
   1   5  -4 1424.06   35.20
   1   5  -4 1414.16   35.40
   1   5  -4 1406.76   35.40
  -1  -5   4 1369.16   35.30
  -1  -5   4 1394.36   35.10
  -1  -5   4 1398.96   35.30
  -1  -5   4 1342.07   35.10
   0   5  -4    4.40    1.30
   0   5  -4    2.20    1.10
   0  -5   4    3.10    1.10
   0  -5   4    4.20    1.20
   0  -5   4    1.90    0.90
  -1   5  -4 1602.84   39.70
  -1   5  -4 1609.04   40.00
   1  -5   4 1533.15   40.00
  -2   5  -4  991.80   25.40
   2  -5   4  982.80   25.30
  -3   5  -4 1597.74   41.00
  -3   5  -4 1622.84   40.40
   3  -5   4 1665.13   41.00
   3  -5   4 1592.24   40.40
   3  -5   4 1656.83   40.50
  -4   5  -4  813.52   21.30
  -4   5  -4  806.42   20.80
  -4   5  -4  779.02   21.20
   4  -5   4  784.32   20.80
   4  -5   4  818.72   21.30
  -5   5  -4  108.79    5.00
  -5   5  -4  107.29    4.90
  -5   5  -4  109.59    4.70
   5  -5   4  113.59    4.90
  -6   5  -4  629.04   18.00
  -6   5  -4  640.44   18.60
  -6   5  -4  685.33   18.50
   6  -5   4  629.14   18.00
  -7   5  -4   21.80    3.40
  -7   5  -4   17.70    3.60
  -7   5  -4   22.50    3.50
   7  -5   4   27.70    3.70
  -8   5  -4  410.56   13.60
  -8   5  -4  425.36   14.30
  -8   5  -4  441.06   13.90
   8  -5   4  388.76   13.40
  -9   5  -4  243.78    9.90
  -9   5  -4  250.67   10.50
   9  -5   4  233.68    9.80
 -10   5  -4   68.49    5.60
 -10   5  -4   80.89    6.10
  10  -5   4   69.89    6.20
  10   4  -4  172.98    8.30
  10   4  -4  158.78    9.10
 -10  -4   4  166.28    8.60
 -10  -4   4  145.99    9.40
   9   4  -4  115.79    7.40
   9   4  -4  112.19    6.30
  -9  -4   4  107.69    7.70
  -9  -4   4  116.99    6.90
   8   4  -4   66.49    5.60
   8   4  -4   73.69    5.20
  -8  -4   4   70.69    5.30
  -8  -4   4   64.19    5.90
   7   4  -4  263.47    9.80
  -7  -4   4  251.57   10.40
  -7  -4   4  275.17    9.30
   6   4  -4  173.28    7.10
   6   4  -4  173.28    6.50
  -6  -4   4  176.28    7.80
  -6  -4   4  176.48    6.60
   5   4  -4  191.68    7.20
   5   4  -4  198.18    6.40
  -5  -4   4  186.98    7.50
   4   4  -4  564.74   16.80
   4   4  -4  564.74   15.10
  -4  -4   4  577.34   15.20
  -4  -4   4  583.24   15.30
   3   4  -4  498.65   13.00
   3   4  -4  496.15   13.90
   3   4  -4  487.45   13.00
  -3  -4   4  499.35   13.20
  -3  -4   4  507.45   14.20
  -3  -4   4  512.45   13.10
   2   4  -4 1504.35   38.10
   2   4  -4 1515.25   38.30
   2   4  -4 1509.95   37.70
  -2  -4   4 1487.35   38.30
  -2  -4   4 1483.85   37.70
  -2  -4   4 1529.05   37.20
  -2  -4   4 1504.75   38.30
  -2  -4   4 1545.05   37.30
  -2  -4   4 1538.45   37.90
   1   4  -4 4536.75  111.49
   1   4  -4 4520.05  111.59
   1   4  -4 4644.74  111.89
  -1  -4   4 4530.35  111.49
  -1  -4   4 4590.14  111.59
  -1   4  -4  155.78    5.00
   1  -4   4  149.59    4.90
   1  -4   4  148.79    4.90
   1  -4   4  149.29    5.10
  -2   4  -4 1652.93   40.40
  -2   4  -4 1634.94   41.00
   2  -4   4 1639.94   40.40
   2  -4   4 1564.94   41.20
   2  -4   4 1678.63   41.10
   2  -4   4 1635.54   40.40
  -3   4  -4    6.20    1.40
  -3   4  -4    7.70    1.50
   3  -4   4    8.90    1.80
   3  -4   4   11.30    1.50
   3  -4   4    9.00    1.40
  -4   4  -4   60.29    3.50
  -4   4  -4   64.59    3.50
  -4   4  -4   63.79    3.20
   4  -4   4   57.69    3.00
  -5   4  -4  176.38    6.80
  -5   4  -4  173.58    6.30
   5  -4   4  163.18    6.20
  -6   4  -4  118.09    5.70
  -6   4  -4  120.49    6.10
   6  -4   4  124.29    5.60
  -7   4  -4   19.30    3.50
  -7   4  -4   17.30    3.50
   7  -4   4   18.30    3.30
  -8   4  -4   55.49    5.50
  -8   4  -4   55.19    5.20
   8  -4   4   55.99    5.10
  -9   4  -4  234.88   10.60
  -9   4  -4  240.28    9.80
   9  -4   4  232.48    9.70
 -10   4  -4  229.78    9.80
 -10   4  -4  235.68   10.60
  10  -4   4  204.18    9.80
  10   3  -4   14.60    5.20
  10   3  -4    8.70    3.90
 -10  -3   4   10.30    4.50
   9   3  -4  203.08    9.20
   9   3  -4  224.88    8.90
  -9  -3   4  182.68    9.60
  -9  -3   4  196.88    8.90
   8   3  -4  419.06   13.20
   8   3  -4  418.96   13.80
  -8  -3   4  387.86   14.30
  -8  -3   4  410.96   13.30
   7   3  -4  133.59    6.10
   7   3  -4  132.79    6.50
  -7  -3   4  135.49    7.10
   6   3  -4  155.28    6.00
   6   3  -4  159.58    6.60
  -6  -3   4  157.28    6.40
  -6  -3   4  159.88    7.10
   5   3  -4  232.68    7.30
   5   3  -4  236.98    7.90
  -5  -3   4  235.18    8.30
  -5  -3   4  226.68    7.50
   4   3  -4  512.05   13.80
   4   3  -4  510.25   14.30
  -4  -3   4  525.25   14.00
  -4  -3   4  511.65   13.80
  -4  -3   4  531.45   14.80
   3   3  -4 2173.78   53.89
   3   3  -4 2186.78   54.49
   3   3  -4 2119.99   53.99
  -3  -3   4 2189.18   53.99
  -3  -3   4 2239.68   54.99
  -3  -3   4 2204.78   54.79
  -3  -3   4 2249.97   54.09
   2   3  -4  416.96   10.90
   2   3  -4  415.66   11.40
   2   3  -4  431.16   11.70
   2   3  -4  411.46   10.90
  -2  -3   4  430.46   12.10
  -2  -3   4  431.06   11.80
  -2  -3   4  425.66   11.00
  -2  -3   4  429.16   11.00
  -1  -3   4 6738.53  163.68
   0   3  -4  416.26   11.20
   0  -3   4  414.76   11.10
   0  -3   4  408.76   11.20
  -1   3  -4 3147.98   78.89
  -1   3  -4 3210.68   78.29
  -1   3  -4 3144.69   78.19
   1  -3   4 3294.37   78.89
   1  -3   4 3221.08   78.29
   1  -3   4 3280.37   78.99
   1  -3   4 3219.08   78.29
   1  -3   4 3165.08   78.89
  -2   3  -4  347.87    9.40
  -2   3  -4  349.17    9.90
  -2   3  -4  355.06    9.90
   2  -3   4  344.87    9.40
   2  -3   4  351.36    9.30
   2  -3   4  355.46   10.00
   2  -3   4  332.77    9.90
  -3   3  -4  112.39    4.10
  -3   3  -4  120.99    4.60
   3  -3   4  113.99    4.10
   3  -3   4  113.89    4.10
   3  -3   4  120.89    4.60
  -4   3  -4   60.29    3.70
  -4   3  -4   59.39    3.20
   4  -3   4   56.19    3.00
  -5   3  -4  373.86   12.00
  -5   3  -4  366.76   11.10
   5  -3   4  367.96   11.10
  -6   3  -4   19.30    3.00
  -6   3  -4   22.40    3.70
   6  -3   4   20.10    3.10
  -7   3  -4   64.49    5.10
  -7   3  -4   66.19    5.50
   7  -3   4   76.79    4.90
  -8   3  -4   30.00    4.20
   8  -3   4   32.30    4.50
  -9   3  -4   40.50    5.20
  -9   3  -4   35.70    5.40
   9  -3   4   21.30    4.10
   9  -3   4   27.20    4.50
 -10   3  -4    0.70    2.90
  10  -3   4   -1.00    3.20
  10  -3   4    6.00    3.40
  11   2  -4   50.19    5.70
 -11  -2   4   44.70    7.00
  10   2  -4   55.19    5.90
  10   2  -4   48.70    5.70
 -10  -2   4   52.79    6.50
 -10  -2   4   49.40    5.90
   9   2  -4  131.29    7.10
   9   2  -4  123.89    7.00
  -9  -2   4  125.59    7.80
  -9  -2   4  130.39    7.30
   8   2  -4    6.00    3.00
  -8  -2   4    3.60    3.10
   7   2  -4   31.60    3.80
   7   2  -4   38.60    4.00
  -7  -2   4   36.70    4.20
  -7  -2   4   39.30    4.10
   6   2  -4    2.80    2.10
   6   2  -4   -0.80    1.90
  -6  -2   4    2.30    2.30
  -6  -2   4   -2.20    2.00
   5   2  -4  154.88    5.50
   5   2  -4  149.99    6.90
  -5  -2   4  154.08    5.40
  -5  -2   4  162.48    6.10
   4   2  -4  104.89    3.90
  -4  -2   4  100.99    4.00
  -4  -2   4  104.49    3.90
  -4  -2   4   99.69    4.10
  -4  -2   4  110.39    4.50
   3   2  -4    4.00    1.00
   3   2  -4    4.20    1.20
   3   2  -4    2.60    1.20
  -3  -2   4    5.60    1.20
  -3  -2   4    4.10    1.00
  -3  -2   4    3.50    1.30
   2   2  -4    5.50    0.90
   2   2  -4    2.50    1.00
   2   2  -4    4.40    1.10
   2   2  -4    5.00    0.90
  -2  -2   4    3.50    1.00
  -2  -2   4    4.90    0.90
  -2  -2   4    5.10    1.00
   1   2  -4  609.94   15.60
   1   2  -4  613.64   15.60
   1   2  -4  622.74   16.10
  -1  -2   4  637.04   16.20
  -1  -2   4  618.64   15.70
  -1  -2   4  613.04   15.60
  -1  -2   4  634.74   15.80
  -1   2  -4  158.38    4.60
  -1   2  -4  156.58    5.00
  -1   2  -4  152.78    4.50
   1  -2   4  156.58    5.10
   1  -2   4  148.99    4.60
   1  -2   4  157.58    4.60
  -2   2  -4 7616.84  185.08
  -3   2  -4  380.76   11.30
  -3   2  -4  379.06   10.70
   3  -2   4  371.56   10.60
   3  -2   4  391.36   11.20
  -4   2  -4  840.62   22.40
  -4   2  -4  822.22   21.60
   4  -2   4  786.62   21.40
  -5   2  -4 1057.79   28.60
  -5   2  -4 1034.80   27.60
   5  -2   4 1048.10   27.60
  -6   2  -4  100.79    6.10
  -6   2  -4   93.19    5.30
   6  -2   4  104.79    5.30
  -7   2  -4    4.70    3.10
  -7   2  -4    4.60    2.80
   7  -2   4    3.10    2.50
  -8   2  -4   82.89    6.60
   8  -2   4   81.49    5.70
   8  -2   4   82.99    5.30
  -9   2  -4  252.87   10.30
  -9   2  -4  235.58   11.00
   9  -2   4  224.88    9.30
   9  -2   4  221.78    9.80
 -10   2  -4   40.90    6.20
 -10   2  -4   65.29    6.50
  10  -2   4   34.60    5.80
  10  -2   4   51.29    5.10
  11   1  -4   77.39    6.30
  11   1  -4   67.49    6.60
 -11  -1   4   64.29    6.50
 -11  -1   4   72.79    6.90
  10   1  -4   -2.30    3.20
  10   1  -4   -5.00    3.20
 -10  -1   4   -2.60    3.40
 -10  -1   4   -0.80    3.40
   9   1  -4   15.20    3.80
   9   1  -4   16.80    3.80
  -9  -1   4   17.90    4.30
   8   1  -4   13.80    3.30
  -8  -1   4    9.00    3.10
  -8  -1   4    9.00    3.40
   7   1  -4  202.48    7.50
  -7  -1   4  201.58    8.20
  -7  -1   4  203.98    7.70
   6   1  -4   26.00    2.90
  -6  -1   4   22.70    3.20
  -6  -1   4   30.30    3.50
   5   1  -4   -1.80    1.40
  -5  -1   4   -2.30    1.40
  -5  -1   4    0.00    1.10
   4   1  -4  339.37    9.60
  -4  -1   4  338.47    9.60
  -4  -1   4  343.27    9.70
  -4  -1   4  333.17    9.80
  -4  -1   4  357.96   10.20
   3   1  -4  263.37    7.50
   3   1  -4  254.77    7.30
  -3  -1   4  256.07    7.30
  -3  -1   4  262.97    7.80
  -3  -1   4  255.97    7.50
  -3  -1   4  257.67    7.40
   2   1  -4   67.29    2.60
   2   1  -4   62.29    2.40
   2   1  -4   64.99    2.40
  -2  -1   4   70.49    2.60
  -2  -1   4   67.09    2.60
  -2  -1   4   65.59    2.50
   1   1  -4   85.09    2.90
   1   1  -4   84.89    3.00
   1   1  -4   85.79    2.80
  -1  -1   4   84.99    3.00
  -1  -1   4   85.39    2.90
  -1  -1   4   85.49    2.90
   0   1  -4  206.78    5.80
   0   1  -4  210.08    5.90
   0   1  -4  207.28    6.10
   0  -1   4  212.88    5.90
   0  -1   4  207.38    6.30
   0  -1   4  202.98    5.80
  -1   1  -4  109.69    4.00
  -1   1  -4  108.59    3.50
  -1   1  -4  105.79    3.60
   1  -1   4  104.79    4.00
   1  -1   4  102.09    3.60
   1  -1   4  107.59    3.60
  -2   1  -4  584.74   15.80
  -2   1  -4  563.74   15.00
  -2   1  -4  580.64   15.20
   2  -1   4  570.64   15.10
   2  -1   4  581.04   15.60
   2  -1   4  571.54   15.20
  -3   1  -4  158.58    5.60
  -3   1  -4  178.48    6.30
   3  -1   4  164.88    5.60
   3  -1   4  162.58    5.40
  -4   1  -4 3104.79   77.39
  -4   1  -4 3130.69   79.39
  -5   1  -4   20.40    3.30
  -5   1  -4   14.70    2.60
   5  -1   4   20.30    2.80
  -6   1  -4  891.31   24.80
  -6   1  -4  891.21   25.90
   6  -1   4  915.81   24.80
   6  -1   4  919.21   24.10
  -7   1  -4   -0.80    2.40
  -7   1  -4   -1.20    2.90
   7  -1   4    0.70    2.40
   7  -1   4    0.70    2.50
  -8   1  -4   75.29    6.90
  -8   1  -4   73.69    5.90
   8  -1   4   79.19    5.20
   8  -1   4   75.89    5.80
  -9   1  -4   12.00    3.50
  -9   1  -4   12.60    4.40
   9  -1   4   17.60    3.70
   9  -1   4   13.10    3.90
 -10   1  -4  146.09   11.20
 -10   1  -4  142.09    8.30
  11   0  -4    1.70    3.80
  11   0  -4   11.50    4.10
 -11   0   4   16.50    6.40
 -11   0   4    2.20    4.10
  10   0  -4   11.60    3.90
  10   0  -4   10.80    3.90
 -10   0   4    3.00    3.60
 -10   0   4    9.60    4.00
   9   0  -4   37.30    4.80
  -9   0   4   44.70    5.00
  -9   0   4   59.29    8.90
   8   0  -4    5.80    2.70
  -8   0   4    3.80    2.90
  -8   0   4    6.60    3.10
   7   0  -4   17.30    3.10
  -7   0   4   12.80    3.10
  -7   0   4   16.20    3.20
   6   0  -4   76.49    4.10
  -6   0   4   82.69    5.60
  -6   0   4   77.69    4.30
   5   0  -4  453.45   12.60
  -5   0   4  434.86   12.50
  -5   0   4  443.96   12.70
  -5   0   4  477.25   13.10
   4   0  -4    2.70    1.30
   4   0  -4    2.40    1.20
  -4   0   4    0.10    1.30
  -4   0   4    1.50    0.80
  -4   0   4    2.70    1.20
   3   0  -4 1556.64   37.70
   3   0  -4 1511.45   37.80
  -3   0   4 1455.05   37.60
  -3   0   4 1522.55   37.80
  -3   0   4 1517.95   37.90
  -3   0   4 1538.15   38.10
   2   0  -4 2275.17   55.39
   2   0  -4 2242.38   55.49
   2   0  -4 2225.88   55.49
  -2   0   4 2277.47   55.39
  -2   0   4 2256.27   55.49
  -2   0   4 2247.78   55.49
   1   0  -4 4368.16  109.29
  -1   0   4 4597.34  109.29
   0   0  -4 4053.29   97.49
   0   0  -4 3953.90   97.39
   0   0   4 3984.70   97.39
   0   0   4 3958.60   97.69
  -2   0  -4 2270.97   55.89
  -2   0  -4 2189.18   54.99
  -2   0  -4 2211.78   55.19
   2   0   4 2231.18   55.19
   2   0   4 2212.28   55.59
  -3   0  -4  955.00   25.20
  -3   0  -4  952.80   24.40
   3   0   4  900.41   24.30
  -4   0  -4  740.63   21.20
  -4   0  -4  754.02   20.30
   4   0   4  754.72   20.30
  -5   0  -4    3.00    2.10
  -5   0  -4    4.40    2.60
   5   0   4    4.50    2.10
  -6   0  -4  153.58    7.90
  -6   0  -4  160.18    7.10
   6   0   4  165.28    6.50
   6   0   4  168.48    7.00
  -7   0  -4   44.50    4.90
  -7   0  -4   45.80    5.50
   7   0   4   48.90    6.20
   7   0   4   55.39    4.30
  -8   0  -4   10.00    3.40
  -8   0  -4    4.80    3.80
   8   0   4    6.40    3.30
  -9   0  -4   24.30    4.60
   9   0   4   21.00    3.80
  10   0   4   43.60    4.70
  11  -1  -4  216.98   10.20
 -11   1   4  202.28    9.70
 -11   1   4  208.18    9.80
  10  -1  -4    3.40    3.30
 -10   1   4   -2.30    3.10
   9  -1  -4    9.50    4.10
  -9   1   4    4.80    3.50
  -9   1   4   11.40    3.70
   8  -1  -4    9.40    3.00
  -8   1   4   10.10    3.10
  -8   1   4   10.40    3.20
   7  -1  -4  433.96   13.20
  -7   1   4  445.96   13.40
  -7   1   4  444.16   13.50
   6  -1  -4    1.40    2.00
  -6   1   4    0.10    1.90
  -6   1   4   -0.60    1.90
   5  -1  -4 4537.45  109.59
  -5   1   4 4626.54  109.69
  -5   1   4 4694.53  109.89
  -5   1   4 3997.60  109.09
   4  -1  -4  529.45   14.00
   4  -1  -4  497.55   13.90
  -4   1   4  525.25   14.00
  -4   1   4  515.15   14.00
  -4   1   4  537.35   14.10
  -4   1   4  497.25   13.50
   3  -1  -4 2274.47   55.39
   3  -1  -4 2288.07   55.49
  -3   1   4 2242.28   55.49
  -3   1   4 2173.28   54.99
  -3   1   4 2235.08   55.49
   2  -1  -4 1581.04   40.70
   2  -1  -4 1624.74   40.70
   2  -1  -4 1685.33   40.70
  -2   1   4 1656.63   40.80
  -2   1   4 1669.13   40.40
  -2   1   4 1610.04   40.70
   1  -1  -4  845.62   21.40
   1  -1  -4  858.51   21.20
   1  -1  -4  824.22   21.40
  -1   1   4  826.72   21.40
  -1   1   4  847.52   21.40
  -1   1   4  825.22   21.50
   0  -1  -4  163.08    5.40
   0  -1  -4  158.08    5.00
   0  -1  -4  163.18    5.20
   0   1   4  156.68    5.20
   0   1   4  166.98    5.20
   0   1   4  161.28    5.10
  -1  -1  -4 2032.20   50.59
  -1  -1  -4 2034.10   50.99
   1   1   4 2026.30   50.59
   1   1   4 2026.30   50.89
   1   1   4 2056.29   51.49
  -2  -1  -4 1792.62   45.10
  -2  -1  -4 1864.11   45.80
  -2  -1  -4 1771.72   44.90
   2   1   4 1791.12   45.10
   2   1   4 1764.22   45.00
  -3  -1  -4    7.70    2.20
  -3  -1  -4    6.40    1.80
   3   1   4    6.60    1.70
  -4  -1  -4 2072.09   51.19
  -4  -1  -4 1948.41   51.99
   4   1   4 2030.20   51.09
  -5  -1  -4  566.14   17.90
  -5  -1  -4  599.64   17.00
   5   1   4  578.54   16.80
  -6  -1  -4    9.20    3.00
  -6  -1  -4   21.90    4.10
   6   1   4    7.50    2.80
   6   1   4   13.80    2.90
  -7  -1  -4  171.68    8.10
  -7  -1  -4  153.78    8.70
   7   1   4  180.78   10.00
   7   1   4  160.88    7.10
  -8  -1  -4   39.10    5.90
  -8  -1  -4   35.70    5.10
   8   1   4   40.80    4.50
   8   1   4   36.60    5.00
  -9  -1  -4   10.00    3.80
  -9  -1  -4    7.10    4.30
   9   1   4   11.10    3.30
 -11   2   4   68.19    5.60
  10  -2  -4    7.00    3.40
 -10   2   4   11.90    3.50
 -10   2   4   12.60    3.80
   9  -2  -4   32.40    4.60
  -9   2   4   38.30    4.70
  -9   2   4   28.30    5.20
   8  -2  -4   21.90    3.50
  -8   2   4   20.40    3.70
  -8   2   4   18.80    3.30
   7  -2  -4    0.10    2.10
  -7   2   4   -1.10    2.40
  -7   2   4    0.90    2.10
   6  -2  -4  430.86   12.50
  -6   2   4  425.06   12.50
  -6   2   4  419.26   12.30
   5  -2  -4  281.17    8.60
  -5   2   4  273.77    8.40
  -5   2   4  284.27    8.70
   4  -2  -4  919.51   24.10
  -4   2   4  934.51   24.10
  -4   2   4  941.91   23.90
   3  -2  -4 1861.51   46.40
   3  -2  -4 1809.72   46.80
  -3   2   4 1876.31   46.40
  -3   2   4 1842.22   46.40
  -3   2   4 1916.21   46.10
   2  -2  -4  180.28    5.60
   2  -2  -4  171.48    5.50
  -2   2   4  180.08    5.60
  -2   2   4  176.98    5.40
   1  -2  -4 4523.15  109.59
   1  -2  -4 4406.36  109.49
  -1   2   4 4337.07  109.39
  -1   2   4 4531.75  109.49
  -1   2   4 4578.94  109.99
   0  -2  -4   21.50    1.90
   0  -2  -4   19.60    1.70
   0  -2  -4   21.30    1.90
   0   2   4   17.40    1.70
   0   2   4   18.50    1.60
   0   2   4   21.40    1.90
  -1  -2  -4 3094.79   75.49
  -1  -2  -4 3014.50   75.29
  -1  -2  -4 3186.38   75.99
   1   2   4 3078.19   75.39
   1   2   4 2983.50   75.49
   1   2   4 2960.90   75.29
  -2  -2  -4 1212.88   31.50
  -2  -2  -4 1183.08   30.80
  -3  -2  -4   -0.10    1.90
  -3  -2  -4    0.70    1.60
   3   2   4    2.40    1.70
  -4  -2  -4 1131.59   29.80
  -4  -2  -4 1110.09   30.80
   4   2   4 1133.99   29.80
  -5  -2  -4   49.40    5.00
  -5  -2  -4   49.30    4.20
   5   2   4   56.79    4.00
   5   2   4   49.90    4.20
  -6  -2  -4   44.10    4.70
   6   2   4   45.50    4.50
   6   2   4   50.99    4.30
  -7  -2  -4   36.70    5.30
  -7  -2  -4   33.00    4.70
   7   2   4   36.00    4.70
   7   2   4   34.40    4.20
  -8  -2  -4   65.69    6.10
  -8  -2  -4   59.39    6.50
   8   2   4   66.99    5.20
   8   2   4   65.29    5.80
  -9  -2  -4   47.80    6.10
   9   2   4   54.19    6.00
  11  -3  -4   14.00    4.80
 -11   3   4   15.00    3.60
  10  -3  -4   -3.90    3.20
 -10   3   4   -1.10    3.70
 -10   3   4    3.40    2.60
   9  -3  -4  240.68    9.30
  -9   3   4  197.58   12.90
  -9   3   4  231.38    9.00
   8  -3  -4  256.77    9.20
  -8   3   4  237.48    8.80
  -8   3   4  241.18    9.20
   7  -3  -4   43.40    3.80
  -7   3   4   44.20    3.60
  -7   3   4   45.30    4.10
   6  -3  -4  473.75   13.50
  -6   3   4  466.25   13.20
  -6   3   4  462.35   13.50
   5  -3  -4 1071.39   27.70
  -5   3   4 1057.09   27.40
  -5   3   4 1031.80   26.90
   4  -3  -4  197.38    6.40
   4  -3  -4  189.28    6.30
  -4   3   4  199.58    6.10
  -4   3   4  190.48    5.90
  -4   3   4  193.98    6.40
   3  -3  -4  190.28    6.00
   3  -3  -4  171.38    5.90
  -3   3   4  188.38    6.00
  -3   3   4  189.48    5.90
   2  -3  -4 3113.39   75.39
   2  -3  -4 3062.59   75.39
  -2   3   4 2946.21   75.29
  -2   3   4 3193.68   75.39
  -2   3   4 2963.60   74.99
   1  -3  -4   40.90    2.40
   1  -3  -4   45.20    2.60
  -1   3   4   40.60    2.30
  -1   3   4   44.50    2.60
  -1   3   4   40.90    2.30
   0  -3  -4 4189.08  105.39
   0  -3  -4 4272.87  105.09
   0  -3  -4 4257.97  105.59
   0   3   4 4442.46  105.49
  -1  -3  -4   16.30    2.20
  -1  -3  -4   15.20    2.30
  -1  -3  -4   16.10    1.80
   1   3   4   15.60    2.10
  -2  -3  -4  759.72   21.20
   2   3   4  767.42   20.50
  -3  -3  -4  103.99    5.70
  -3  -3  -4  104.29    5.00
   3   3   4  101.09    4.80
   3   3   4  107.99    4.90
  -4  -3  -4   12.00    3.40
  -4  -3  -4    5.30    2.30
   4   3   4    7.80    2.50
   4   3   4    7.90    2.70
  -5  -3  -4   85.99    6.10
  -5  -3  -4   82.39    5.40
   5   3   4   83.59    5.30
   5   3   4   81.89    4.90
  -6  -3  -4   37.60    5.30
  -6  -3  -4   30.00    4.40
   6   3   4   30.50    4.30
   6   3   4   35.80    4.40
  -7  -3  -4   69.89    6.00
  -7  -3  -4   66.29    6.60
   7   3   4   70.09    6.00
   7   3   4   79.29    5.70
  -8  -3  -4  187.58   10.30
  -8  -3  -4  177.78   11.50
   8   3   4  193.98    9.00
   8   3   4  193.38    8.50
   9   3   4   63.39    6.10
  11  -4  -4  156.28    8.60
 -11   4   4  169.58    9.10
  10  -4  -4   75.79    6.30
 -10   4   4   83.09    6.70
 -10   4   4   84.99    5.50
   9  -4  -4  105.09    6.30
  -9   4   4  111.49    7.20
  -9   4   4  111.59    5.80
   8  -4  -4   -0.50    2.50
  -8   4   4   -0.30    2.70
  -8   4   4    2.70    3.00
   7  -4  -4    3.60    2.30
  -7   4   4    2.00    2.50
   6  -4  -4  553.24   15.90
  -6   4   4  574.44   16.10
   5  -4  -4   20.00    2.70
  -5   4   4   17.70    2.60
  -5   4   4   20.20    2.50
  -4   4   4   48.50    3.10
  -4   4   4   55.89    3.10
   3  -4  -4   53.09    2.90
   3  -4  -4   50.49    2.70
  -3   4   4   49.40    2.90
  -3   4   4   50.99    3.00
   2  -4  -4  346.57   10.30
   2  -4  -4  370.26   12.10
  -2   4   4  345.37   10.20
  -2   4   4  360.96   10.60
   1  -4  -4   52.29    3.00
   1  -4  -4   63.49    3.00
  -1   4   4   54.79    3.00
  -1   4   4   58.09    2.70
   0  -4  -4   37.80    2.40
   0  -4  -4   42.40    2.80
   0  -4  -4   37.30    2.80
   0  -4  -4   35.70    2.40
   0   4   4   33.50    2.30
   0   4   4   37.90    2.70
  -1  -4  -4   14.30    2.40
  -1  -4  -4   17.80    3.20
  -1  -4  -4    9.30    2.00
   1   4   4   10.30    2.10
  -2  -4  -4    8.10    2.40
  -2  -4  -4    5.80    2.10
   2   4   4    5.60    2.10
  -3  -4  -4   75.99    5.20
  -3  -4  -4   74.19    4.50
  -4  -4  -4   10.40    2.80
  -4  -4  -4   12.00    3.40
   4   4   4   11.20    3.00
   4   4   4    8.70    2.80
   5   4   4  643.74   18.80
   5   4   4  629.14   18.60
  -6  -4  -4   37.30    5.20
  -6  -4  -4   47.20    5.10
   6   4   4   50.69    5.00
   6   4   4   44.40    4.60
  -7  -4  -4  405.76   16.00
  -7  -4  -4  429.66   14.80
   7   4   4  407.36   14.00
   7   4   4  430.86   14.40
  -8  -4  -4    0.90    3.40
  -8  -4  -4   10.40    4.80
   8   4   4    5.00    3.20
   8   4   4   10.50    3.50
  11  -5  -4    3.00    3.90
 -11   5   4    5.80    3.70
  10  -5  -4  629.94   19.20
 -10   5   4  612.84   19.40
   9  -5  -4  681.03   20.00
  -9   5   4  674.43   20.30
   8  -5  -4  225.38   10.30
  -8   5   4  229.58    8.90
   7  -5  -4  840.82   22.90
  -7   5   4  818.12   22.80
   6  -5  -4   10.60    2.50
  -6   5   4    9.30    2.60
  -6   5   4    8.10    2.20
   5  -5  -4  350.86   10.80
  -5   5   4  353.06   10.70
  -5   5   4  352.36   10.70
   4  -5  -4    6.60    1.90
  -4   5   4    9.40    2.00
  -4   5   4    7.20    1.90
   3  -5  -4    5.90    1.80
   3  -5  -4    8.10    2.10
  -3   5   4    7.20    1.80
  -3   5   4    5.90    1.80
   2  -5  -4   79.39    3.70
   2  -5  -4   83.19    4.10
  -2   5   4   83.19    4.40
  -2   5   4   85.49    3.90
   1  -5  -4  413.56   11.50
   1  -5  -4  380.26   11.40
   1  -5  -4  412.86   11.70
  -1   5   4  384.16   11.30
  -1   5   4  405.06   11.60
   0  -5  -4  184.08    6.60
   0  -5  -4  187.78    6.70
   0   5   4  184.78    6.50
  -1  -5  -4    0.40    1.90
  -1  -5  -4   -0.70    1.60
   1   5   4   -1.80    1.60
  -2  -5  -4    0.20    2.20
  -2  -5  -4   -3.30    1.80
   2   5   4   -2.70    1.80
  -3  -5  -4  414.36   13.00
  -3  -5  -4  404.06   13.80
   3   5   4  426.36   13.00
  -4  -5  -4  111.29    6.90
  -4  -5  -4  125.39    6.30
   4   5   4  121.99    6.20
  -5  -5  -4   61.29    6.00
  -5  -5  -4   69.19    5.40
   5   5   4   63.69    5.00
  -6  -5  -4   69.59    5.70
  -6  -5  -4   66.29    6.30
   6   5   4   66.59    5.30
  -7  -5  -4   12.90    3.60
  -7  -5  -4   10.50    4.00
   7   5   4    9.80    3.50
   7   5   4    9.00    3.60
 -11   6   4   60.99    6.40
  10  -6  -4   25.30    4.70
 -10   6   4   35.00    4.80
   9  -6  -4  147.09    7.50
  -9   6   4  134.79    7.70
   8  -6  -4  159.48    7.30
  -8   6   4  151.68    7.40
   7  -6  -4  337.67   10.90
  -7   6   4  311.47   10.60
  -7   6   4  328.37   10.90
   6  -6  -4   -0.40    2.30
  -6   6   4    0.20    2.30
  -6   6   4    4.40    2.50
   5  -6  -4 1478.65   38.20
  -5   6   4 1515.45   42.10
  -5   6   4 1455.45   38.10
   4  -6  -4 1671.13   42.10
  -4   6   4 1613.64   43.80
  -4   6   4 1664.43   42.00
   3  -6  -4  350.46   10.80
  -3   6   4  358.36   11.30
  -3   6   4  353.26   10.60
   2  -6  -4 1406.46   36.20
  -2   6   4 1425.96   36.90
  -2   6   4 1392.46   36.10
   1  -6  -4  203.38    7.40
   1  -6  -4  211.38    7.00
  -1   6   4  210.58    8.10
  -1   6   4  210.98    7.30
   0  -6  -4   35.40    3.30
   0  -6  -4   34.10    3.40
   0   6   4   34.20    3.20
  -1  -6  -4    0.80    2.00
  -1  -6  -4    3.40    2.40
   1   6   4    1.50    2.00
  -2  -6  -4   47.40    4.60
  -2  -6  -4   49.80    3.90
   2   6   4   51.29    4.00
  -3  -6  -4  377.16   12.30
  -3  -6  -4  364.16   13.10
   3   6   4  381.16   12.20
  -4  -6  -4   39.10    6.10
  -4  -6  -4   37.90    4.50
   4   6   4   36.80    4.40
  -5  -6  -4  282.27   10.70
  -5  -6  -4  259.87   11.70
   5   6   4  280.17   10.30
  -6  -6  -4  240.58   11.80
  -6  -6  -4  278.07   11.40
   6   6   4  267.77   10.20
   7   6   4   11.20    3.60
  10  -7  -4   38.50    5.00
 -10   7   4   42.20    5.20
   9  -7  -4    1.20    2.80
  -9   7   4    3.70    3.30
   8  -7  -4    0.50    2.70
  -8   7   4   -3.40    2.60
   7  -7  -4   58.79    4.70
  -7   7   4   54.89    4.70
  -7   7   4   49.30    4.60
   6  -7  -4   31.10    3.80
  -6   7   4   28.10    4.10
  -6   7   4   33.30    3.80
   5  -7  -4   29.50    3.50
  -5   7   4   27.50    3.90
  -5   7   4   31.30    3.40
   4  -7  -4  202.88    7.60
  -4   7   4  215.28    8.30
  -4   7   4  209.78    7.50
   3  -7  -4  523.65   15.00
  -3   7   4  518.45   14.80
  -3   7   4  511.35   15.70
   2  -7  -4   15.50    2.80
  -2   7   4   13.20    2.80
  -2   7   4   17.10    2.60
   1  -7  -4  186.68    6.90
  -1   7   4  175.28    6.70
  -1   7   4  179.98    7.80
   0  -7  -4   83.39    4.70
   0  -7  -4   84.99    4.90
   0   7   4   90.69    4.70
   0   7   4   83.59    5.70
  -1  -7  -4   34.80    3.50
  -1  -7  -4   33.50    4.00
   1   7   4   33.20    3.50
  -2  -7  -4    3.80    2.30
  -2  -7  -4   -1.90    2.60
  -3  -7  -4   66.69    4.90
  -3  -7  -4   66.59    5.80
   3   7   4   71.19    4.90
  -4  -7  -4   59.79    6.00
  -4  -7  -4   73.69    5.20
   4   7   4   67.79    4.90
  -5  -7  -4  381.96   13.20
  -5  -7  -4  352.76   14.40
   5   7   4  370.36   12.70
  -6  -7  -4  334.37   14.60
  -6  -7  -4  355.36   13.20
   6   7   4  361.16   12.60
  10  -8  -4  231.08    9.80
 -10   8   4  214.78   10.10
   9  -8  -4    8.70    3.30
  -9   8   4   13.30    4.20
   8  -8  -4  180.28    7.90
  -8   8   4  177.08    7.80
  -8   8   4  179.88    7.90
   7  -8  -4   11.70    3.20
  -7   8   4    7.00    2.90
  -7   8   4   13.80    3.20
   6  -8  -4   25.40    3.50
  -6   8   4   30.00    3.70
  -6   8   4   28.00    3.80
   5  -8  -4   65.39    4.50
  -5   8   4   59.89    5.00
  -5   8   4   57.09    4.40
   4  -8  -4   36.90    3.80
  -4   8   4   38.00    3.50
  -4   8   4   35.10    4.40
   3  -8  -4   24.50    3.20
  -3   8   4   23.70    3.50
  -3   8   4   25.80    3.20
   2  -8  -4   46.90    3.80
  -2   8   4   41.20    4.60
  -2   8   4   37.60    3.50
   1  -8  -4  308.87   10.10
  -1   8   4  300.77    9.80
  -1   8   4  300.07   11.30
   0  -8  -4  136.29    6.20
   0  -8  -4  125.49    6.00
   0   8   4  132.89    7.20
   0   8   4  118.49    5.50
  -1  -8  -4   26.50    4.00
   1   8   4   22.80    4.00
   1   8   4   28.80    3.60
  -2  -8  -4   15.80    3.20
  -2  -8  -4   17.40    3.80
   2   8   4   12.80    3.60
   2   8   4   18.50    3.40
  -3  -8  -4    6.60    2.90
  -3  -8  -4   11.40    3.70
   3   8   4   12.60    3.10
  -4  -8  -4   45.90    4.80
  -4  -8  -4   43.20    5.60
   4   8   4   54.19    4.40
  -5  -8  -4   17.00    3.70
   6   8   4   21.10    4.60
   9  -9  -4   69.49    5.80
   8  -9  -4   11.10    3.30
  -8   9   4   15.90    3.60
   7  -9  -4    0.90    2.60
  -7   9   4   -1.60    2.50
  -7   9   4   -0.20    2.70
   6  -9  -4   76.49    5.20
  -6   9   4   78.09    5.00
  -6   9   4   76.79    6.00
   5  -9  -4  388.46   12.30
  -5   9   4  386.66   12.10
  -5   9   4  382.56   13.40
  -4   9   4   33.90    4.90
  -4   9   4   32.40    3.60
   3  -9  -4  459.55   14.00
  -3   9   4  449.46   13.60
  -3   9   4  461.55   15.40
   2  -9  -4  166.68    7.10
  -2   9   4  167.88    8.30
  -2   9   4  158.28    6.60
  -1   9   4    8.40    2.50
   0  -9  -4   -5.00    2.10
   0  -9  -4    4.10    2.40
   0   9   4   -3.60    2.70
   0   9   4    1.70    2.20
  -1  -9  -4   64.19    4.90
  -1  -9  -4   58.39    4.50
   1   9   4   49.99    4.40
   1   9   4   54.79    5.80
  -2  -9  -4   92.59    5.70
  -2  -9  -4   94.09    6.30
   2   9   4   87.69    5.20
   2   9   4   85.59    7.00
  -3  -9  -4   14.20    3.70
  -3  -9  -4   17.80    3.60
   3   9   4   14.60    4.10
  -4  -9  -4   19.70    4.30
  -4  -9  -4   10.70    3.50
   4   9   4    7.40    5.80
  -5  -9  -4   27.00    5.20
   5   9   4   17.70    4.70
   8 -10  -4   23.10    4.20
  -8  10   4   14.50    4.00
   7 -10  -4   95.19    5.90
  -7  10   4   86.79    6.40
   6 -10  -4  116.59    6.10
  -6  10   4  111.49    5.90
  -6  10   4  110.99    7.20
   5 -10  -4    9.60    3.10
  -5  10   4   12.30    3.50
  -5  10   4    7.60    2.80
   4 -10  -4   30.80    4.00
  -4  10   4   44.20    3.80
  -4  10   4   27.80    4.40
   3 -10  -4   23.40    3.40
  -3  10   4   21.00    4.20
  -3  10   4   30.80    3.50
   2 -10  -4   10.30    3.00
  -2  10   4    9.60    2.40
  -2  10   4   11.70    3.60
   1 -10  -4  106.49    5.90
  -1  10   4   96.29    7.00
  -1  10   4  109.59    5.20
   0 -10  -4   75.59    5.00
   0  10   4   63.09    6.30
   0  10   4   83.89    5.10
  -1 -10  -4    3.50    2.70
  -1 -10  -4    4.20    2.60
   1  10   4    2.10    3.10
  -2 -10  -4  150.38    7.30
  -2 -10  -4  152.78    7.70
   2  10   4  139.69    9.10
  -3 -10  -4   51.89    5.30
  -3 -10  -4   41.70    4.50
   3  10   4   37.20    5.70
  -4 -10  -4  213.08   10.30
   8 -11  -4   11.00    3.80
  -8  11   4    4.90    3.60
   7 -11  -4  177.18    7.80
  -7  11   4  161.28    8.60
   6 -11  -4  107.89    6.30
  -6  11   4  123.49    7.80
   5 -11  -4  144.19    7.00
  -5  11   4  150.48    8.60
   4 -11  -4  703.33   20.20
  -4  11   4  699.03   22.20
   3 -11  -4   12.10    3.50
  -3  11   4   15.00    4.10
   2 -11  -4  926.01   25.60
  -2  11   4  910.91   27.80
   1 -11  -4  294.57   10.60
  -1  11   4  293.37   12.50
   0 -11  -4   76.29    5.30
   0  11   4   50.69    6.60
  -2 -11  -4   10.90    3.40
  -2 -11  -4    8.20    3.10
   2  11   4   -0.80    3.60
  -3 -11  -4   12.30    4.50
  -8  12   4   28.80    5.00
  -7  12   4  443.36   16.20
   6 -12  -4   21.00    3.60
   5 -12  -4 1053.79   31.30
  -5  12   4 1090.09   31.70
   4 -12  -4  174.78    8.40
  -4  12   4  152.08    9.30
   3 -12  -4  395.36   13.00
  -3  12   4  401.76   16.30
   2 -12  -4  177.58    8.80
   1 -12  -4   51.09    6.60
  -1  12   4   58.39    7.00
   0 -12  -4   12.20    3.00
   0  12   4    7.40    4.00
   4 -13  -4    8.20    3.60
  -4  13   4   11.80    4.70
   3 -13  -4   42.70    4.90
   0  15  -5   24.70    5.00
  -1  15  -5   65.59    7.60
  -2  15  -5   49.80    6.80
  -3  15  -5   -5.40    3.50
   3  14  -5    3.40    3.20
  -3 -14   5   11.20    3.50
   1  14  -5   97.49    7.80
   0  14  -5   17.90    4.60
  -1  14  -5  423.06   15.70
  -2  14  -5  228.88   11.20
  -3  14  -5   89.79    7.80
  -4  14  -5  386.66   17.40
   5  13  -5   -2.90    3.90
   4  13  -5   33.60    4.60
   3  13  -5    4.50    3.20
  -3 -13   5    8.70    3.40
   2  13  -5   42.30    5.80
  -2 -13   5   43.60    5.50
   1  13  -5    2.60    3.20
   0  13  -5  141.39    8.40
  -1  13  -5   42.70    5.70
  -2  13  -5  119.79    8.00
  -3  13  -5   10.80    3.90
  -4  13  -5  131.79    8.50
   5  12  -5   30.40    6.20
  -5 -12   5   44.90    7.90
   4  12  -5    1.80    2.70
  -4 -12   5    5.40    3.50
   3  12  -5    9.40    3.50
  -3 -12   5    2.80    2.80
   2  12  -5   33.00    4.50
  -2 -12   5   41.90    4.50
   1  12  -5    9.80    3.30
  -1 -12   5    5.30    2.60
   0  12  -5    2.50    3.20
  -1  12  -5    1.40    2.70
  -2  12  -5   47.80    5.80
  -3  12  -5   56.29    6.00
  -4  12  -5   60.29    6.30
   8 -12   5   64.99    4.70
  -6 -11   5   -4.50    3.50
   5  11  -5  425.16   14.40
  -5 -11   5  416.26   15.20
  -4 -11   5  134.89    7.60
   3  11  -5   68.09    5.90
  -3 -11   5   69.89    5.50
   2  11  -5  219.58    9.50
  -2 -11   5  226.18    8.70
   1  11  -5    9.00    3.10
  -1 -11   5   15.50    2.80
   0  11  -5    2.00    2.70
  -1  11  -5   90.69    6.30
  -2  11  -5   36.00    5.00
  -3  11  -5   51.89    8.30
  -3  11  -5   54.59    3.80
  -4  11  -5  251.37    8.60
  -4  11  -5  262.17   10.80
  -5  11  -5    3.40    1.90
   7 -11   5    1.50    2.20
   7  10  -5  193.28   13.00
  -7 -10   5  188.28    7.80
  -7 -10   5  182.18   10.10
   6  10  -5   20.10    3.30
   6  10  -5   17.30    5.60
  -6 -10   5   30.10    4.90
  -6 -10   5   12.20    2.80
   5  10  -5  575.04   17.70
  -5 -10   5  588.94   19.00
   4  10  -5  148.89    7.40
   3  10  -5   81.39    6.00
  -3 -10   5   80.89    5.40
   2  10  -5  127.09    6.80
  -2 -10   5  123.29    6.10
   1  10  -5   35.70    4.20
  -1 -10   5   34.00    3.40
   0  10  -5   76.39    5.60
   0 -10   5   78.79    4.20
  -1  10  -5   69.69    5.40
  -1  10  -5   71.99    4.30
  -2  10  -5   39.90    4.90
  -2  10  -5   49.10    3.60
  -3  10  -5   28.60    4.00
  -3  10  -5   34.30    3.10
  -4  10  -5    6.60    2.10
  -5  10  -5  119.19    5.30
  -6  10  -5    0.30    1.80
   6 -10   5    1.10    2.40
  -7  10  -5  142.89    5.90
   7 -10   5  137.49    6.20
   8 -10   5   14.10    3.20
   9 -10   5   72.19    6.80
  -8  -9   5   60.69    5.30
  -7  -9   5   26.20    5.20
  -7  -9   5   33.00    4.00
   6   9  -5   90.49    6.80
   6   9  -5   76.59    5.40
  -6  -9   5   85.69    4.90
  -6  -9   5   85.89    6.60
   5   9  -5  260.07    9.60
   5   9  -5  253.17   10.70
  -5  -9   5  249.28   10.60
  -5  -9   5  253.87    8.40
   4   9  -5   93.09    5.80
  -4  -9   5   90.79    6.00
   3   9  -5  500.75   15.50
  -3  -9   5  512.65   15.70
   2   9  -5   23.90    3.40
  -2  -9   5   19.30    3.20
   1   9  -5   -2.40    2.30
  -1  -9   5    0.50    2.20
   0   9  -5  424.66   13.40
   0   9  -5  422.26   12.70
   0  -9   5  407.26   12.10
  -1   9  -5  954.10   26.20
  -1   9  -5  947.11   25.40
  -2   9  -5   29.60    3.50
  -2   9  -5   31.40    3.70
  -3   9  -5  136.59    6.80
  -3   9  -5  138.69    5.60
  -4   9  -5  227.98    8.90
  -5   9  -5  119.49    5.20
   5  -9   5  103.69    6.00
   5  -9   5  127.99    5.00
  -6   9  -5   22.90    3.40
  -6   9  -5   25.70    2.90
   6  -9   5   25.90    3.20
  -7   9  -5   73.09    4.30
   7  -9   5   73.59    4.70
  -8   9  -5   66.69    4.40
   8  -9   5   60.79    5.10
   9  -9   5   72.29    5.60
   8   8  -5  193.18    9.80
  -8  -8   5  194.98    9.90
  -8  -8   5  169.38   10.00
   7   8  -5   74.19    6.50
  -7  -8   5   80.59    5.20
  -7  -8   5   73.29    6.60
   6   8  -5  297.27   11.70
   6   8  -5  299.07   10.10
  -6  -8   5  303.47    9.90
  -6  -8   5  285.87   11.90
   5   8  -5    9.10    2.70
   5   8  -5   12.70    2.00
  -5  -8   5   13.70    3.70
  -5  -8   5   12.70    2.40
   4   8  -5   29.00    3.50
   4   8  -5   29.80    4.30
  -4  -8   5   35.10    4.60
  -4  -8   5   22.80    2.80
   3   8  -5  465.25   14.70
   3   8  -5  461.55   14.60
  -3  -8   5  471.65   14.40
   2   8  -5 1209.58   32.30
  -2  -8   5 1147.09   31.10
   1   8  -5   44.90    4.00
  -1  -8   5   52.59    3.50
   0   8  -5 1936.51   48.50
   0  -8   5 1840.22   47.50
  -1   8  -5  889.01   24.10
  -1   8  -5  888.41   23.40
   1  -8   5  850.51   22.80
  -2   8  -5  251.97    9.10
  -2   8  -5  245.68    8.10
  -3   8  -5  130.79    5.30
  -4   8  -5   28.60    2.90
   4  -8   5   30.60    2.70
  -5   8  -5   20.40    2.50
  -5   8  -5   21.90    2.80
   5  -8   5   26.40    2.90
   5  -8   5   27.40    2.50
  -6   8  -5  359.96   11.40
  -6   8  -5  362.76   11.00
   6  -8   5  359.06   11.20
  -7   8  -5   10.90    2.60
  -7   8  -5   18.40    2.90
   7  -8   5   15.30    3.20
  -8   8  -5   65.69    4.50
   8  -8   5   55.79    5.00
  -9   8  -5   67.39    5.00
   9  -8   5   80.89    5.80
  -9  -7   5  158.88   11.70
  -9  -7   5  170.78    8.10
   8   7  -5    1.00    3.40
  -8  -7   5   -1.50    2.60
  -8  -7   5   -1.50    3.20
   7   7  -5  285.27    9.40
   7   7  -5  290.87   11.30
  -7  -7   5  262.77   11.60
  -7  -7   5  283.17   10.00
   6   7  -5   10.20    3.70
   6   7  -5   10.70    2.10
  -6  -7   5    4.10    2.40
  -6  -7   5    5.10    3.40
   5   7  -5   89.79    6.30
   5   7  -5   99.59    6.00
   5   7  -5   85.69    4.80
  -5  -7   5   88.29    4.60
  -5  -7   5   97.29    6.00
  -5  -7   5   97.39    4.40
   4   7  -5   53.39    3.80
   4   7  -5   58.09    4.60
  -4  -7   5   56.09    4.50
  -4  -7   5   55.99    3.10
  -4  -7   5   54.69    3.30
   3   7  -5   17.50    3.20
   3   7  -5    6.00    2.20
  -3  -7   5    9.70    2.70
   2   7  -5   -2.60    1.60
   2   7  -5    3.00    2.10
  -2  -7   5   -1.40    1.70
   1   7  -5   -1.40    1.40
   1   7  -5    3.50    1.70
  -1  -7   5    2.10    1.70
   0   7  -5  345.67   10.50
   0   7  -5  364.76   10.90
   0  -7   5  340.97   10.20
  -1   7  -5   -0.20    1.30
  -1   7  -5    0.20    1.60
  -2   7  -5    2.00    1.50
  -2   7  -5    3.00    1.90
  -3   7  -5  470.05   13.40
  -4   7  -5   40.10    2.70
  -4   7  -5   41.80    3.20
   4  -7   5   37.20    2.50
   4  -7   5   39.10    2.90
  -5   7  -5  334.77    9.90
  -5   7  -5  337.47   10.40
   5  -7   5  335.17   10.00
   5  -7   5  305.67    9.70
  -6   7  -5  597.04   17.10
  -6   7  -5  603.14   16.80
   6  -7   5  579.84   16.80
  -7   7  -5    0.10    2.40
  -7   7  -5   -0.20    2.00
   7  -7   5    6.10    2.70
  -8   7  -5  125.99    6.30
  -8   7  -5  117.49    6.50
   8  -7   5  106.39    6.40
  -9   7  -5   14.10    3.10
   9  -7   5    6.10    3.40
   9   6  -5    1.30    3.50
  -9  -6   5   -2.10    3.40
  -9  -6   5   -0.30    3.10
   8   6  -5   15.60    3.30
   8   6  -5   21.60    4.80
  -8  -6   5   20.20    3.80
  -8  -6   5   24.90    5.10
   7   6  -5   23.20    4.10
   7   6  -5   18.90    3.10
  -7  -6   5   23.40    3.60
  -7  -6   5   17.00    4.50
   6   6  -5   69.09    3.90
   6   6  -5   62.99    5.10
  -6  -6   5   61.39    5.40
  -6  -6   5   61.79    4.40
  -6  -6   5   59.89    3.90
   5   6  -5   21.60    3.60
   5   6  -5   24.40    2.50
  -5  -6   5   21.10    3.50
  -5  -6   5   25.30    2.60
  -5  -6   5   23.30    2.90
   4   6  -5   75.49    3.20
   4   6  -5   75.39    4.70
   4   6  -5   77.49    3.80
  -4  -6   5   79.09    4.80
  -4  -6   5   76.49    3.60
  -4  -6   5   73.89    3.40
   3   6  -5   31.90    3.40
   3   6  -5   38.70    2.90
  -3  -6   5   38.10    3.30
  -3  -6   5   37.90    2.20
   2   6  -5  184.98    6.80
   2   6  -5  198.18    6.50
   2   6  -5  192.08    6.80
  -2  -6   5  190.98    6.80
   1   6  -5  667.93   17.80
   1   6  -5  653.93   18.00
  -1  -6   5  656.93   17.90
   0   6  -5   71.59    3.50
   0   6  -5   71.49    3.60
  -1   6  -5  167.58    6.10
  -1   6  -5  166.18    5.80
  -2   6  -5  215.98    7.10
  -3   6  -5  126.89    5.10
  -3   6  -5  125.59    4.20
   3  -6   5  118.59    5.50
   3  -6   5  133.19    4.40
  -4   6  -5  538.65   17.10
  -4   6  -5  644.24   16.90
   4  -6   5  588.04   16.00
   4  -6   5  637.64   16.30
  -5   6  -5 1588.54   39.00
  -5   6  -5 1620.14   39.60
   5  -6   5 1312.87   39.30
   5  -6   5 1592.34   39.10
  -6   6  -5   35.40    3.80
  -6   6  -5   33.50    3.70
  -6   6  -5   42.40    4.00
   6  -6   5   30.90    3.70
  -7   6  -5  944.21   26.10
  -7   6  -5  941.81   25.80
  -7   6  -5  912.51   25.30
   7  -6   5  899.31   25.40
  -8   6  -5   22.00    3.60
  -8   6  -5   26.10    4.20
  -8   6  -5   27.00    4.00
   8  -6   5   26.60    4.00
  -9   6  -5   40.60    4.80
  -9   6  -5   45.30    5.50
  -9   6  -5   55.59    7.80
 -10   6  -5   27.50    5.80
 -10   6  -5   23.50    6.40
   9   5  -5   -0.70    2.90
   9   5  -5    0.00    3.60
  -9  -5   5    2.60    3.10
  -9  -5   5   -2.00    3.30
   8   5  -5    2.80    2.70
   8   5  -5    9.60    3.80
  -8  -5   5    3.80    3.50
  -8  -5   5   10.90    3.40
   7   5  -5    5.00    2.40
   7   5  -5    5.40    3.70
  -7  -5   5    6.30    3.90
   6   5  -5  335.27   10.20
   6   5  -5  334.87   11.40
  -6  -5   5  346.67   10.50
  -6  -5   5  315.47   11.80
   5   5  -5   29.70    3.70
   5   5  -5   29.00    2.70
  -5  -5   5   31.70    3.70
   4   5  -5 1545.95   39.00
   4   5  -5 1553.64   40.20
  -4  -5   5 1598.24   39.20
  -4  -5   5 1528.85   39.70
  -4  -5   5 1585.54   40.60
   3   5  -5 1392.56   35.90
   3   5  -5 1379.96   35.10
  -3  -5   5 1407.06   34.90
  -3  -5   5 1414.16   34.80
  -3  -5   5 1402.66   36.20
   2   5  -5  302.97    9.20
   2   5  -5  316.57    9.40
   2   5  -5  316.97    8.90
  -2  -5   5  311.67    9.60
  -2  -5   5  279.57    9.10
  -2  -5   5  308.37    9.40
   1   5  -5 3796.22   89.79
   1   5  -5 3737.13   90.09
   1   5  -5 3693.83   89.89
  -1  -5   5 3602.34   89.59
  -1  -5   5 3430.56   92.19
  -1  -5   5 3626.84   90.19
   0   5  -5   13.30    1.80
   0   5  -5   15.60    1.90
   0  -5   5   12.00    1.60
   0  -5   5   14.80    1.50
  -1   5  -5  354.46   10.20
   1  -5   5  347.17   10.10
  -2   5  -5  685.53   18.40
   2  -5   5  681.93   17.40
   2  -5   5  677.03   17.50
   2  -5   5  694.83   18.40
  -3   5  -5  105.69    3.90
  -3   5  -5  109.99    4.50
   3  -5   5  104.69    3.80
   3  -5   5  107.19    3.90
  -4   5  -5   27.70    2.90
  -4   5  -5   31.40    2.70
  -4   5  -5   28.80    2.80
   4  -5   5   30.80    2.70
  -5   5  -5  106.39    5.20
  -5   5  -5  102.49    4.80
  -5   5  -5  110.99    7.80
   5  -5   5  108.99    4.90
  -6   5  -5  401.86   12.40
  -6   5  -5  409.36   12.80
  -6   5  -5  391.16   12.90
   6  -5   5  402.76   12.40
  -7   5  -5    0.10    2.50
  -7   5  -5   -0.70    2.40
  -7   5  -5    1.70    2.70
   7  -5   5    2.50    2.60
  -8   5  -5  114.29    7.00
  -8   5  -5  105.49    6.40
   8  -5   5   96.59    6.20
  -9   5  -5   59.69    5.30
  -9   5  -5   36.90    5.00
  -9   5  -5   47.60    5.50
   9  -5   5   39.50    7.90
 -10   5  -5   21.70    4.30
 -10   5  -5   26.80    4.80
 -10   5  -5   13.40    4.00
  10   4  -5  286.97   12.20
  10   4  -5  314.87   11.30
 -10  -4   5  305.17   11.90
 -10  -4   5  275.67   12.80
   9   4  -5    1.00    2.70
   9   4  -5    9.20    3.60
  -9  -4   5    1.30    3.10
  -9  -4   5    0.60    3.40
   8   4  -5   12.40    3.10
   8   4  -5   12.50    3.60
  -8  -4   5   13.90    3.30
  -8  -4   5   12.10    4.00
   7   4  -5  105.69    5.90
   7   4  -5   96.39    5.40
  -7  -4   5   89.79    6.20
   6   4  -5   60.39    4.50
   6   4  -5   61.69    3.80
  -6  -4   5   52.59    4.10
  -6  -4   5   66.79    4.80
   5   4  -5 1178.48   31.40
   5   4  -5 1201.88   30.50
  -5  -4   5 1198.58   32.00
  -5  -4   5 1206.38   30.80
   4   4  -5  534.15   14.70
   4   4  -5  564.14   15.60
  -4  -4   5  584.54   16.70
  -4  -4   5  554.34   14.90
  -4  -4   5  540.45   14.80
   3   4  -5 3146.59   78.29
   3   4  -5 3207.58   79.39
   3   4  -5 3198.08   79.09
   3   4  -5 3135.79   78.19
  -3  -4   5 3266.27   79.59
  -3  -4   5 3198.88   78.29
  -3  -4   5 3243.58   78.39
   2   4  -5 1258.17   31.40
   2   4  -5 1264.17   31.80
   2   4  -5 1296.67   32.20
  -2  -4   5 1215.88   31.40
  -2  -4   5 1265.67   31.00
  -2  -4   5 1213.28   32.10
  -2  -4   5 1260.77   32.20
   1   4  -5 2387.06   58.69
   1   4  -5 2396.36   59.09
   1   4  -5 2413.96   58.69
  -1  -4   5 2343.57   58.49
  -1  -4   5 2381.56   58.69
  -1  -4   5 2337.57   59.09
   0   4  -5  337.97    9.80
   0  -4   5  340.37    9.80
   0  -4   5  351.96    9.90
  -1   4  -5   28.50    2.20
   1  -4   5   31.40    1.50
   1  -4   5   29.00    1.90
   1  -4   5   32.40    2.10
   1  -4   5   29.10    2.10
  -2   4  -5  336.87    9.30
  -2   4  -5  329.77    9.10
  -2   4  -5  342.57   10.00
   2  -4   5  350.06   10.10
   2  -4   5  345.47    9.30
  -3   4  -5  114.09    4.80
  -3   4  -5  124.29    4.80
  -3   4  -5  122.29    4.30
   3  -4   5  118.39    4.30
   3  -4   5  118.29    4.20
  -4   4  -5  743.03   20.00
  -4   4  -5  762.82   20.80
  -4   4  -5  764.82   20.60
   4  -4   5  747.93   20.00
  -5   4  -5  868.01   23.30
  -5   4  -5  838.12   23.40
  -5   4  -5  831.42   22.60
   5  -4   5  831.32   22.60
  -6   4  -5   37.80    4.40
  -6   4  -5   35.00    4.70
   6  -4   5   34.60    3.80
  -7   4  -5   94.49    5.70
  -7   4  -5  110.79    6.60
   7  -4   5   98.09    5.60
  -8   4  -5    5.30    3.50
  -8   4  -5    5.60    3.00
   8  -4   5    3.40    2.90
  -9   4  -5    9.20    3.70
  -9   4  -5    8.40    3.60
   9  -4   5    6.30    3.60
 -10   4  -5    9.10    3.50
 -10   4  -5   -4.90    2.80
  10  -4   5    8.00    3.40
  11   3  -5    9.00    4.10
  10   3  -5   65.09   11.20
  10   3  -5   57.59    5.80
 -10  -3   5   45.80    6.30
   9   3  -5    2.80    3.10
   9   3  -5    6.40    3.40
  -9  -3   5    0.70    3.30
  -9  -3   5   -0.30    3.10
   8   3  -5   36.90    4.50
   8   3  -5   42.00    4.70
  -8  -3   5   39.60    5.40
   7   3  -5  104.69    5.70
  -7  -3   5   95.19    6.10
  -7  -3   5   99.89    5.50
   6   3  -5  383.56   12.10
   6   3  -5  396.96   11.50
  -6  -3   5  374.66   12.60
  -6  -3   5  394.76   11.80
   5   3  -5   47.70    3.00
   5   3  -5   46.40    3.50
  -5  -3   5   45.50    3.30
  -5  -3   5   44.00    3.80
   4   3  -5  457.25   12.30
   4   3  -5  465.95   12.90
  -4  -3   5  449.95   13.40
  -4  -3   5  454.55   12.40
  -4  -3   5  460.05   12.50
   3   3  -5  348.27    9.20
   3   3  -5  343.07    9.70
   3   3  -5  331.37    9.20
   3   3  -5  342.97   10.00
  -3  -3   5  340.27    9.30
  -3  -3   5  344.17    9.30
  -3  -3   5  327.57    9.90
  -3  -3   5  337.37   10.20
   2   3  -5   46.30    2.20
   2   3  -5   41.60    2.50
   2   3  -5   39.90    1.80
   2   3  -5   41.80    1.80
  -2  -3   5   41.50    1.90
  -2  -3   5   43.10    2.00
  -2  -3   5   38.20    2.30
   1   3  -5   81.69    3.30
   1   3  -5   77.79    2.60
  -1  -3   5   77.99    2.70
  -1  -3   5   84.09    2.70
  -1  -3   5   82.69    3.00
   0   3  -5   22.90    1.20
   0   3  -5   21.20    1.20
   0   3  -5   23.00    1.80
   0  -3   5   20.60    1.40
   0  -3   5   19.50    1.60
   0  -3   5   21.80    1.30
   0  -3   5   21.40    1.80
  -1   3  -5  882.51   22.90
  -1   3  -5  908.11   23.10
  -1   3  -5  911.91   23.70
   1  -3   5  929.91   23.00
   1  -3   5  918.61   23.10
   1  -3   5  944.21   24.50
  -2   3  -5  195.18    5.90
  -2   3  -5  202.68    6.60
   2  -3   5  204.28    6.10
   2  -3   5  209.68    6.70
   2  -3   5  200.28    6.00
  -3   3  -5    1.50    1.30
  -3   3  -5    2.80    1.30
  -3   3  -5    2.70    1.40
   3  -3   5    2.50    1.30
  -4   3  -5  208.88    7.10
  -4   3  -5  212.08    7.80
   4  -3   5  212.28    7.10
  -5   3  -5  115.89    5.30
  -5   3  -5  123.09    6.00
   5  -3   5  114.29    5.30
  -6   3  -5  202.78    8.60
  -6   3  -5  193.58    7.80
   6  -3   5  202.28    7.70
  -7   3  -5    0.70    2.70
  -7   3  -5    3.40    2.60
   7  -3   5    3.40    2.50
  -8   3  -5   32.60    5.30
  -8   3  -5   32.20    4.70
   8  -3   5   26.90    4.10
   8  -3   5   32.90    4.60
  -9   3  -5    4.80    3.60
  -9   3  -5    3.60    3.00
   9  -3   5    2.90    3.60
 -10   3  -5   21.30    4.60
 -10   3  -5   54.49    6.20
  10  -3   5   36.20    4.60
  11   2  -5   83.49    6.50
 -11  -2   5   80.59    7.30
  10   2  -5  181.28    8.60
  10   2  -5  178.88    8.80
 -10  -2   5  188.88    8.90
 -10  -2   5  172.88    9.40
   9   2  -5    6.30    3.40
   9   2  -5   -4.30    2.90
  -9  -2   5    0.90    3.20
   8   2  -5   -1.20    2.40
  -8  -2   5   -1.40    2.80
   7   2  -5   -0.80    2.10
   7   2  -5    4.30    2.50
  -7  -2   5    4.10    2.70
  -7  -2   5    5.50    2.60
   6   2  -5   24.80    3.20
   6   2  -5   27.50    3.00
  -6  -2   5   25.60    3.50
  -6  -2   5   24.50    3.10
   5   2  -5  302.37    9.00
  -5  -2   5  288.57    9.00
  -5  -2   5  321.37   10.60
  -5  -2   5  310.07    9.20
   4   2  -5   93.49    3.60
  -4  -2   5   92.19    4.30
  -4  -2   5   91.79    4.30
  -4  -2   5   93.79    3.80
  -4  -2   5   94.89    3.70
   3   2  -5 1258.07   31.30
   3   2  -5 1275.57   31.80
   3   2  -5 1204.38   31.30
  -3  -2   5 1277.37   31.40
  -3  -2   5 1279.97   32.10
  -3  -2   5 1262.67   31.40
  -3  -2   5 1193.98   31.70
   2   2  -5 1120.49   27.00
   2   2  -5 1033.20   26.90
   2   2  -5 1078.49   26.90
   2   2  -5 1082.39   27.50
  -2  -2   5 1078.19   27.40
  -2  -2   5 1081.29   27.00
  -2  -2   5 1070.89   27.00
   1   2  -5  560.14   14.80
   1   2  -5  550.24   14.30
   1   2  -5  557.44   14.30
  -1  -2   5  559.64   14.80
  -1  -2   5  563.04   14.40
  -1  -2   5  552.54   14.30
   0   2  -5    2.60    0.90
   0   2  -5    2.80    0.90
   0   2  -5    4.40    1.10
   0  -2   5    3.00    0.90
   0  -2   5    4.00    1.10
   0  -2   5    3.30    1.00
   0  -2   5    3.30    0.90
  -1   2  -5  122.99    4.40
  -1   2  -5  118.59    4.10
   1  -2   5  123.79    4.10
   1  -2   5  126.09    5.00
   1  -2   5  117.99    4.00
  -2   2  -5  291.37    8.50
  -2   2  -5  300.77    8.70
  -2   2  -5  315.47    9.10
  -2   2  -5  303.67    9.30
   2  -2   5  293.17    8.50
   2  -2   5  307.07    8.70
   2  -2   5  303.87    9.20
  -3   2  -5   29.90    2.40
  -3   2  -5   32.60    2.80
   3  -2   5   30.20    2.30
   3  -2   5   34.80    2.60
  -4   2  -5  236.58    7.80
  -4   2  -5  228.38    8.50
   4  -2   5  237.18    7.70
  -5   2  -5  271.17   10.10
  -5   2  -5  270.97   10.80
   5  -2   5  272.17    9.10
  -6   2  -5  785.02   22.00
  -6   2  -5  769.02   23.10
   6  -2   5  799.22   22.00
  -7   2  -5    3.30    2.80
  -7   2  -5    9.10    3.60
   7  -2   5   10.20    3.00
  -8   2  -5  571.94   19.60
  -8   2  -5  589.74   18.40
   8  -2   5  598.74   18.30
   8  -2   5  595.84   17.40
  -9   2  -5   55.19    6.30
  -9   2  -5   44.40    5.30
   9  -2   5   51.19    4.70
 -10   2  -5  101.09    7.20
  11   1  -5    2.20    3.80
  11   1  -5    9.50    4.30
 -11  -1   5    1.80    3.60
 -11  -1   5    7.40    3.90
  10   1  -5   38.70    5.40
  10   1  -5   43.40    5.30
 -10  -1   5   25.70    4.80
   9   1  -5  190.58    8.10
   9   1  -5  188.48    8.30
  -9  -1   5  172.28    8.70
  -9  -1   5  188.88    8.40
   8   1  -5   30.50    3.80
  -8  -1   5   35.20    4.60
  -8  -1   5   33.40    4.30
   7   1  -5   59.49    4.20
  -7  -1   5   58.69    4.40
  -7  -1   5   58.99    4.70
   6   1  -5  252.77    8.30
  -6  -1   5  262.27    8.60
  -6  -1   5  265.97    9.10
   5   1  -5  626.34   16.70
  -5  -1   5  594.64   16.70
  -5  -1   5  645.24   17.40
   4   1  -5  718.73   18.50
  -4  -1   5  716.33   18.60
  -4  -1   5  729.03   19.20
  -4  -1   5  666.13   18.60
  -4  -1   5  711.53   18.60
   3   1  -5  410.46   11.30
   3   1  -5  423.76   11.50
   3   1  -5  427.86   11.30
  -3  -1   5  407.66   11.40
  -3  -1   5  413.66   11.30
  -3  -1   5  427.66   11.90
  -3  -1   5  415.96   11.30
   2   1  -5  284.07    7.90
   2   1  -5  292.97    8.10
   2   1  -5  273.57    7.90
  -2  -1   5  282.97    7.90
  -2  -1   5  284.97    8.10
  -2  -1   5  282.37    7.90
   1   1  -5  284.07    8.10
   1   1  -5  276.37    7.80
  -1  -1   5  280.47    7.80
  -1  -1   5  277.27    7.80
  -1  -1   5  290.07    8.00
   0   1  -5 1166.28   29.90
   0   1  -5 1188.08   30.20
   0   1  -5 1223.78   30.10
   0  -1   5 1219.78   30.10
   0  -1   5 1175.08   30.00
   0  -1   5 1202.58   30.60
  -1   1  -5  761.72   19.70
  -1   1  -5  765.02   20.00
  -1   1  -5  754.02   19.50
  -1   1  -5  753.02   20.20
   1  -1   5  757.32   20.10
   1  -1   5  756.12   19.60
   1  -1   5  760.22   19.60
  -2   1  -5 1577.24   40.80
  -2   1  -5 1613.64   40.20
   2  -1   5 1595.44   40.10
   2  -1   5 1594.94   40.00
  -3   1  -5 1139.99   30.00
  -3   1  -5 1132.99   29.10
   3  -1   5 1093.29   29.00
   3  -1   5 1143.69   29.10
  -4   1  -5 1203.48   32.20
  -4   1  -5 1195.68   31.20
   4  -1   5 1193.68   31.20
  -5   1  -5  268.27   10.30
  -5   1  -5  284.47    9.50
   5  -1   5  282.27    9.50
  -6   1  -5   76.09    5.90
  -6   1  -5   81.39    5.20
   6  -1   5   76.79    5.10
  -7   1  -5    0.20    2.60
  -7   1  -5   -2.50    3.00
   7  -1   5    3.10    2.30
   7  -1   5    4.00    2.90
  -8   1  -5   -3.00    3.00
  -8   1  -5    0.30    3.50
   8  -1   5    0.20    3.20
   8  -1   5    0.60    2.50
  -9   1  -5   13.20    4.00
   9  -1   5   11.00    4.10
  11   0  -5   15.60    4.40
  11   0  -5   17.00    4.30
 -11   0   5   19.20    4.40
 -11   0   5   13.60    4.50
  10   0  -5    3.70    2.90
 -10   0   5    4.80    3.60
   9   0  -5  129.29    6.90
  -9   0   5  150.58    9.30
  -9   0   5  134.99    7.30
   8   0  -5  351.76   11.50
  -8   0   5  335.37   11.90
  -8   0   5  358.36   11.70
   7   0  -5  131.69    5.80
  -7   0   5  130.99    6.20
  -7   0   5  126.99    5.90
   6   0  -5  300.77    9.60
  -6   0   5  307.97    9.70
  -6   0   5  309.77   10.00
   5   0  -5   10.60    1.90
  -5   0   5   10.90    2.10
  -5   0   5   10.30    2.00
   4   0  -5    1.60    1.20
  -4   0   5    1.50    1.30
  -4   0   5    1.30    0.80
  -4   0   5    1.50    1.10
  -4   0   5    1.30    1.20
   3   0  -5 1455.75   36.20
   3   0  -5 1392.46   36.20
   3   0  -5 1499.15   36.10
  -3   0   5 1456.35   36.30
  -3   0   5 1425.26   36.10
  -3   0   5 1434.16   36.30
   2   0  -5  496.25   13.10
   2   0  -5  500.15   13.20
  -2   0   5  482.65   13.20
  -2   0   5  493.35   13.20
  -2   0   5  506.45   13.10
   0   0  -5 1472.25   36.80
   0   0  -5 1468.35   36.80
   0   0   5 1509.45   37.80
   0   0   5 1478.75   36.80
   0   0   5 1396.86   36.60
  -1   0  -5 8582.24  211.38
   1   0   5 8794.72  211.98
  -2   0  -5  128.99    5.30
  -2   0  -5  129.09    4.80
   2   0   5  121.69    4.50
   2   0   5  125.99    4.70
  -3   0  -5  396.26   13.60
  -3   0  -5  361.16   11.10
   3   0   5  366.76   11.20
  -4   0  -5  663.33   19.60
  -4   0  -5  665.63   18.60
   4   0   5  672.63   18.60
  -5   0  -5  128.89    6.10
  -5   0  -5  133.99    7.00
   5   0   5  131.89    6.10
  -6   0  -5   63.39    5.00
  -6   0  -5   67.09    5.70
   6   0   5   69.19    5.10
  -7   0  -5    1.70    3.20
  -7   0  -5    6.40    3.80
   7   0   5    6.00    2.50
   7   0   5    4.30    2.90
  -8   0  -5  216.28   11.00
  -8   0  -5  228.48   10.10
   8   0   5  241.18   10.00
  -9   0  -5    6.10    3.90
  -9   0  -5    2.80    3.40
   9   0   5    7.90    3.00
   9   0   5    4.60    3.50
  11  -1  -5    8.30    4.30
 -11   1   5   13.70    3.80
  10  -1  -5  165.58    8.00
 -10   1   5  147.89    8.20
 -10   1   5  156.88    8.20
   9  -1  -5   61.39    6.20
  -9   1   5   57.19    5.40
  -9   1   5   55.79    5.30
   8  -1  -5   10.50    3.10
  -8   1   5    6.40    3.00
  -8   1   5    9.70    3.00
   7  -1  -5   58.09    4.10
  -7   1   5   62.09    4.50
  -7   1   5   52.49    4.30
   6  -1  -5  957.70   25.50
  -6   1   5  948.51   25.50
  -6   1   5  989.10   25.80
   5  -1  -5   19.40    2.40
  -5   1   5   17.30    2.30
  -5   1   5   19.50    2.60
  -5   1   5   14.80    1.50
   4  -1  -5 1391.46   34.70
   4  -1  -5 1423.66   35.20
  -4   1   5 1398.76   35.20
  -4   1   5 1407.56   35.30
  -4   1   5 1324.77   34.60
   3  -1  -5  548.25   15.10
   3  -1  -5  575.94   14.70
   3  -1  -5  573.34   15.10
  -3   1   5  557.94   14.70
  -3   1   5  561.04   15.10
  -3   1   5  579.44   15.20
   2  -1  -5 1968.80   48.10
   2  -1  -5 1868.41   48.40
   2  -1  -5 1986.10   48.50
  -2   1   5 1944.41   48.50
  -2   1   5 1971.50   48.50
   1  -1  -5  424.66   11.70
   1  -1  -5  431.26   12.40
   1  -1  -5  438.56   11.50
  -1   1   5  428.76   11.70
  -1   1   5  410.66   11.70
  -1   1   5  406.76   11.50
   0  -1  -5 3003.30   73.39
   0  -1  -5 2902.81   73.19
   0  -1  -5 3010.10   73.69
   0   1   5 2881.51   73.49
   0   1   5 2947.01   73.49
   0   1   5 3067.89   73.39
  -1  -1  -5  147.59    5.10
  -1  -1  -5  150.38    5.70
  -1  -1  -5  146.99    5.30
   1   1   5  155.18    5.30
   1   1   5  154.88    5.90
   1   1   5  146.39    5.10
  -2  -1  -5  518.95   14.50
  -2  -1  -5  515.25   15.10
   2   1   5  515.85   14.40
  -3  -1  -5    0.30    1.80
   3   1   5   -2.50    2.40
  -4  -1  -5   19.80    3.00
  -4  -1  -5   13.40    3.20
   4   1   5   19.30    3.00
  -5  -1  -5  105.09    6.60
  -5  -1  -5  107.09    5.70
   5   1   5  107.09    5.60
  -6  -1  -5  132.69    6.80
  -6  -1  -5  125.89    9.00
   6   1   5  124.89    6.50
  -7  -1  -5  310.57   13.10
  -7  -1  -5  324.57   12.00
   7   1   5  337.87   12.00
  -8  -1  -5   -1.10    3.60
  -8  -1  -5   -0.60    3.30
   8   1   5    4.90    3.30
  -9  -1  -5  492.15   17.50
 -12   2   5   22.30    4.50
 -11   2   5   12.40    3.60
  10  -2  -5   61.39    5.70
 -10   2   5   65.59    5.60
 -10   2   5   66.49    6.10
   9  -2  -5  275.37   10.10
  -9   2   5  261.37   10.20
  -9   2   5  253.47   10.00
   8  -2  -5  210.18    8.10
  -8   2   5  200.98    8.10
  -8   2   5  213.38    8.40
   7  -2  -5   19.50    3.00
  -7   2   5   14.70    2.80
  -7   2   5   16.80    3.10
   6  -2  -5   38.60    3.20
  -6   2   5   34.20    3.40
  -6   2   5   32.00    3.10
   5  -2  -5   26.00    2.60
  -5   2   5   25.70    2.40
  -5   2   5   27.30    2.70
   4  -2  -5   16.20    2.10
  -4   2   5   15.70    1.90
  -4   2   5   17.10    2.20
   3  -2  -5 1747.03   43.30
   3  -2  -5 1676.53   43.80
  -3   2   5 1780.52   43.40
  -3   2   5 1690.53   44.30
   2  -2  -5  579.34   14.60
   2  -2  -5  557.54   15.10
   2  -2  -5  576.74   15.20
  -2   2   5  540.55   15.00
  -2   2   5  546.35   15.00
  -2   2   5  559.74   15.10
   1  -2  -5 1526.45   39.60
   1  -2  -5 1655.13   39.50
   1  -2  -5 1571.54   39.70
  -1   2   5 1577.84   39.80
  -1   2   5 1516.45   39.60
  -1   2   5 1611.94   39.80
   0  -2  -5  149.39    5.50
   0  -2  -5  144.79    5.20
   0  -2  -5  143.19    5.00
   0   2   5  140.29    5.10
   0   2   5  140.49    5.30
   0   2   5  146.99    5.20
  -1  -2  -5  324.17   10.20
  -1  -2  -5  322.87    9.80
   1   2   5  327.97    9.80
  -2  -2  -5  148.69    6.20
   2   2   5  149.49    5.70
  -3  -2  -5  145.29    6.80
  -3  -2  -5  147.39    6.10
   3   2   5  152.08    6.10
  -4  -2  -5    9.80    3.20
  -4  -2  -5    6.20    2.30
   4   2   5    8.40    2.50
  -5  -2  -5  174.28    7.50
  -5  -2  -5  161.68    8.30
   5   2   5  165.58    7.30
  -6  -2  -5  458.05   14.50
  -6  -2  -5  410.06   15.40
   6   2   5  413.86   13.30
   6   2   5  435.66   14.20
  -7  -2  -5  140.89    8.80
  -7  -2  -5  141.49    7.90
   7   2   5  150.78    7.90
  -8  -2  -5   57.89    6.60
   8   2   5   65.99    6.10
  11  -3  -5    2.50    4.50
 -11   3   5   20.50    3.70
  10  -3  -5   14.80    3.90
 -10   3   5   16.60    3.50
 -10   3   5   16.60    4.50
   9  -3  -5   92.19    6.10
  -9   3   5  103.19    6.60
  -9   3   5  101.69    5.80
   8  -3  -5  123.49    6.20
  -8   3   5  118.79    5.90
  -8   3   5  124.59    6.40
   7  -3  -5   34.10    3.60
  -7   3   5   23.80    3.30
  -7   3   5   36.40    3.80
   6  -3  -5  741.73   20.00
  -6   3   5  721.43   20.00
  -6   3   5  718.43   19.50
   5  -3  -5  247.28    8.00
  -5   3   5  238.98    8.00
  -5   3   5  237.18    7.40
   4  -3  -5   -2.00    1.20
  -4   3   5    0.40    1.50
  -4   3   5   -0.30    1.00
  -4   3   5   -0.10    1.10
   3  -3  -5  285.67    9.60
   3  -3  -5  302.07    9.00
  -3   3   5  307.97    8.90
  -3   3   5  300.77    9.00
  -3   3   5  294.17    8.60
   2  -3  -5   48.60    2.90
   2  -3  -5   48.30    2.60
   2  -3  -5   48.90    2.20
  -2   3   5   48.60    2.80
  -2   3   5   46.20    2.50
   1  -3  -5    8.00    1.60
   1  -3  -5    5.90    1.40
  -1   3   5    9.90    1.80
  -1   3   5    7.70    1.50
   0  -3  -5  306.17    9.50
   0  -3  -5  319.37    9.70
   0  -3  -5  301.67    9.40
   0   3   5  297.37    9.20
   0   3   5  320.07    9.50
  -1  -3  -5  581.24   16.70
   1   3   5  584.14   16.30
  -2  -3  -5  556.74   16.10
  -2  -3  -5  560.14   16.70
   2   3   5  574.74   16.10
  -3  -3  -5 1378.86   37.60
  -3  -3  -5 1426.66   36.70
   3   3   5 1397.86   36.50
  -4  -3  -5  325.17   10.90
  -4  -3  -5  308.27   11.80
   4   3   5  317.87   10.80
  -5  -3  -5  514.25   16.60
   5   3   5  522.65   16.00
  -6  -3  -5   32.20    4.50
  -6  -3  -5   28.90    5.20
   6   3   5   25.00    3.90
  -7  -3  -5  382.46   15.60
  -7  -3  -5  392.56   14.30
   7   3   5  416.36   14.10
  -8  -3  -5   24.40    4.60
  -8  -3  -5   18.80    5.30
   8   3   5   19.50    6.60
  11  -4  -5    3.30    3.90
 -11   4   5   -0.80    4.40
  10  -4  -5   78.59    6.30
 -10   4   5   86.79    5.40
 -10   4   5   69.99    6.50
   9  -4  -5   69.99    5.60
  -9   4   5   54.89    4.50
  -9   4   5   68.69    7.40
   8  -4  -5   83.49    5.30
  -8   4   5   74.69    4.70
  -8   4   5   80.89    5.60
   7  -4  -5  415.86   12.60
  -7   4   5  392.46   12.60
   6  -4  -5  113.39    5.30
  -6   4   5  110.69    5.30
   5  -4  -5   10.90    2.50
  -5   4   5   13.10    2.00
  -5   4   5   14.10    2.70
   4  -4  -5  445.66   12.80
  -4   4   5  438.36   12.80
  -4   4   5  449.36   12.70
   3  -4  -5  125.19    5.50
  -3   4   5  121.09    4.90
  -3   4   5  120.49    5.00
   2  -4  -5  173.78    6.40
   2  -4  -5  182.28    7.20
  -2   4   5  176.88    6.10
  -2   4   5  162.78    5.60
  -1   4   5   62.09    3.50
  -1   4   5   58.69    3.00
   0  -4  -5 1173.18   30.30
   0  -4  -5 1140.79   30.20
   0   4   5 1144.79   30.10
  -1  -4  -5  172.88    6.70
   1   4   5  177.78    6.70
  -2  -4  -5 1729.33   44.60
  -2  -4  -5 1733.03   45.30
  -3  -4  -5 1311.67   34.90
  -3  -4  -5 1323.77   35.90
   3   4   5 1312.47   34.70
  -4  -4  -5  878.11   26.10
  -4  -4  -5  903.61   25.00
   4   4   5  885.01   24.70
  -5  -4  -5  543.75   16.80
  -5  -4  -5  513.45   18.00
   5   4   5  539.55   16.60
  -6  -4  -5  309.77   11.70
  -6  -4  -5  290.77   12.80
   6   4   5  323.57   11.50
   6   4   5  279.07   10.80
  -7  -4  -5  105.89    8.10
  -7  -4  -5  122.79    8.40
   7   4   5  118.59    7.20
   7   4   5  110.29    6.30
   8   4   5    4.80    3.60
  11  -5  -5  420.96   14.80
 -11   5   5  400.96   16.60
  10  -5  -5   13.70    4.00
 -10   5   5   17.00    4.50
   9  -5  -5  871.81   24.80
  -9   5   5  870.21   27.60
   8  -5  -5  927.51   25.60
  -8   5   5  915.71   25.70
   7  -5  -5   98.19    5.40
  -7   5   5   95.69    5.50
   6  -5  -5 1913.01   48.00
  -6   5   5 1854.71   47.50
  -6   5   5 1858.41   47.90
   5  -5  -5  631.04   17.70
  -5   5   5  630.54   17.60
   4  -5  -5  104.99    4.80
  -4   5   5   99.89    5.00
  -4   5   5  107.49    4.80
   3  -5  -5   58.69    3.60
  -3   5   5   64.69    3.70
  -3   5   5   58.79    4.10
   2  -5  -5  134.19    5.50
  -2   5   5  135.49    5.40
   1  -5  -5 1017.40   26.80
  -1   5   5 1004.90   26.60
   0  -5  -5 1319.77   34.90
   0  -5  -5 1354.86   35.00
   0   5   5 1338.57   34.80
  -1  -5  -5 1463.35   38.10
  -1  -5  -5 1489.85   38.60
   1   5   5 1435.16   38.00
  -2  -5  -5 1169.78   31.60
  -2  -5  -5 1198.68   32.30
   2   5   5 1178.28   31.50
  -3  -5  -5  399.56   12.80
  -3  -5  -5  384.06   13.60
   3   5   5  386.46   12.60
  -4  -5  -5  613.84   18.70
  -4  -5  -5  610.94   21.70
   4   5   5  628.64   18.50
  -5  -5  -5    5.90    3.80
  -5  -5  -5    4.20    2.90
   5   5   5    8.20    3.20
  -6  -5  -5   53.69    6.40
  -6  -5  -5   51.79    5.50
   6   5   5   55.19    5.30
  -7  -5  -5    1.90    3.50
  -7  -5  -5    5.30    4.80
   7   5   5    6.30    3.20
 -10   6   5   43.30    5.40
   9  -6  -5   17.00    3.80
  -9   6   5   21.00    4.90
   8  -6  -5  372.56   12.50
  -8   6   5  369.66   12.50
  -7   6   5   11.20    2.60
  -7   6   5   14.00    3.30
   6  -6  -5  245.68    8.80
  -6   6   5  240.18    8.80
  -6   6   5  246.48    8.70
   5  -6  -5   52.99    4.10
  -5   6   5   56.09    4.30
  -5   6   5   49.30    5.50
   4  -6  -5   35.90    3.60
  -4   6   5   45.60    4.10
  -4   6   5   31.40    3.50
   3  -6  -5   32.40    3.30
  -3   6   5   27.40    3.60
  -3   6   5   29.70    3.10
   2  -6  -5    1.40    1.90
  -2   6   5    2.20    2.00
  -2   6   5    1.40    2.00
   1  -6  -5   43.80    3.70
  -1   6   5   44.90    3.60
   0  -6  -5  128.59    5.90
   0   6   5  125.69    5.70
  -1  -6  -5  182.08    7.70
  -1  -6  -5  185.68    7.40
  -2  -6  -5   10.00    2.90
  -2  -6  -5    6.70    3.00
   2   6   5   13.40    3.10
  -3  -6  -5  116.29    7.20
  -3  -6  -5  118.29    6.30
   3   6   5  123.69    6.30
  -4  -6  -5  151.78    8.60
  -4  -6  -5  152.68    7.50
   4   6   5  157.88    7.40
  -5  -6  -5   83.79    7.20
  -5  -6  -5  101.99    6.50
  -6  -6  -5   39.00    6.20
  -6  -6  -5   43.80    5.40
   6   6   5   56.49    5.30
 -11   7   5   22.00    6.80
  10  -7  -5   -0.10    3.20
 -10   7   5    2.20    3.40
   9  -7  -5    2.90    3.30
  -9   7   5    2.90    3.20
   8  -7  -5   69.19    5.30
  -8   7   5   67.69    5.10
  -8   7   5   63.89    5.40
   7  -7  -5   28.90    4.00
  -7   7   5   24.50    3.40
  -7   7   5   29.50    4.00
   6  -7  -5   41.20    5.00
  -6   7   5   38.30    4.10
  -6   7   5   40.30    4.60
   5  -7  -5    1.10    2.40
  -5   7   5    4.70    2.40
  -5   7   5    4.10    2.50
   4  -7  -5   -0.80    2.10
  -4   7   5    0.50    2.10
  -4   7   5    1.60    2.20
   3  -7  -5   80.59    4.60
  -3   7   5   70.09    4.30
  -3   7   5   76.99    5.20
   2  -7  -5  262.37    8.90
  -2   7   5  245.18    8.60
  -2   7   5  252.97    9.70
   1  -7  -5   11.70    2.70
  -1   7   5   13.10    3.10
  -1   7   5   10.30    2.40
   0  -7  -5  117.09    5.80
   0  -7  -5  120.09    5.80
   0   7   5  115.19    5.60
  -1  -7  -5  386.16   12.70
  -1  -7  -5  362.86   12.20
   1   7   5  364.76   12.00
  -2  -7  -5   69.09    5.20
  -2  -7  -5   68.69    5.50
   2   7   5   76.79    5.10
  -3  -7  -5  176.68    8.80
  -3  -7  -5  187.68    8.20
   3   7   5  161.58    7.50
  -4  -7  -5   59.49    6.30
  -4  -7  -5   65.99    5.30
   4   7   5   64.19    4.90
  -5  -7  -5   14.50    4.30
  -5  -7  -5    7.60    3.30
   5   7   5   14.70    3.10
 -10   8   5   -0.90    5.60
  -9   8   5   83.39    5.90
   8  -8  -5    0.50    2.80
  -8   8   5    1.80    2.70
  -8   8   5    1.60    2.90
   7  -8  -5  113.49    6.30
  -7   8   5  110.19    6.20
  -7   8   5  111.09    6.00
   6  -8  -5  226.98    8.60
  -6   8   5  218.38    9.00
  -6   8   5  209.58    8.40
   5  -8  -5   53.99    5.60
  -5   8   5   52.89    5.00
  -5   8   5   56.79    4.50
   4  -8  -5   -1.10    2.10
  -4   8   5   -4.60    2.20
   3  -8  -5   11.10    2.90
  -3   8   5    9.00    2.80
  -3   8   5   14.70    2.90
   2  -8  -5  651.03   18.30
  -2   8   5  618.44   17.90
  -2   8   5  618.34   19.20
   1  -8  -5  161.18    7.00
  -1   8   5  161.78    6.80
  -1   8   5  164.98    8.10
   0  -8  -5  317.77   11.00
   0  -8  -5  330.57   11.30
   0   8   5  314.47   11.60
  -1  -8  -5   18.80    3.50
  -1  -8  -5   17.40    3.60
   1   8   5   14.50    3.80
   1   8   5   17.60    3.40
  -2  -8  -5   93.59    6.20
  -2  -8  -5   84.39    5.60
   2   8   5   85.39    5.50
  -3  -8  -5    8.60    2.80
  -3  -8  -5   12.60    3.80
   3   8   5    9.40    2.90
  -4  -8  -5   33.70    5.00
  -4  -8  -5   39.60    5.40
  -5  -8  -5   45.30    5.90
   9  -9  -5   19.10    4.20
  -9   9   5   12.70    3.60
   8  -9  -5  274.27   10.40
  -8   9   5  254.77   10.30
  -8   9   5  269.37   10.50
   7  -9  -5    7.50    3.10
  -7   9   5    9.60    3.00
   6  -9  -5  335.27   11.50
  -6   9   5  329.57   11.30
  -6   9   5  337.87   12.90
   5  -9  -5    6.30    2.90
  -5   9   5    4.00    2.70
  -5   9   5    5.30    3.10
   4  -9  -5  226.08    8.70
  -4   9   5  231.78    9.60
  -4   9   5  234.38   10.30
   3  -9  -5    0.90    2.50
  -3   9   5    2.90    2.70
   2  -9  -5   32.80    4.10
  -2   9   5   33.80    4.10
  -2   9   5   25.70    4.20
   1  -9  -5   24.70    3.90
  -1   9   5   27.10    4.20
   0  -9  -5   64.89    4.80
   0  -9  -5   64.29    4.90
   0   9   5   66.39    4.60
   0   9   5   58.19    6.20
  -1  -9  -5    1.30    2.70
  -1  -9  -5    3.60    2.90
   1   9   5    3.20    2.70
   1   9   5    0.60    3.10
  -2  -9  -5   19.40    4.00
  -2  -9  -5   19.50    3.70
   2   9   5   23.20    4.50
  -3  -9  -5   99.59    6.80
  -3  -9  -5   92.89    6.30
   3   9   5   83.09    7.70
  -4  -9  -5   73.19    6.50
   4   9   5   52.69    6.90
   8 -10  -5  219.78    9.30
  -8  10   5  215.08    9.50
   7 -10  -5    1.50    3.00
  -7  10   5   -0.60    2.60
   6 -10  -5  299.47   10.70
  -6  10   5  283.07   10.60
  -6  10   5  309.67   11.90
   5 -10  -5  262.37    9.80
  -5  10   5  256.87    9.40
  -5  10   5  266.27   11.10
   4 -10  -5    8.40    3.30
  -4  10   5   14.20    2.90
  -4  10   5    6.40    3.30
   3 -10  -5  129.39    6.60
  -3  10   5  137.29    7.20
  -3  10   5  135.99    8.10
   2 -10  -5   94.19    5.80
  -2  10   5   87.89    6.90
  -2  10   5   91.99    5.80
   1 -10  -5   16.70    3.50
  -1  10   5   17.10    3.80
   0 -10  -5   67.99    5.10
   0  10   5   57.59    6.40
  -1 -10  -5  242.48    9.60
   1  10   5  232.48   11.30
  -2 -10  -5   34.80    4.40
  -2 -10  -5   35.20    4.80
   2  10   5   20.90    4.70
  -3 -10  -5  239.58   15.10
   3  10   5  258.17   14.40
  -8  11   5   14.90    4.00
   7 -11  -5    8.20    3.30
  -7  11   5    4.00    3.30
   6 -11  -5   84.49    6.70
  -6  11   5  103.19    7.40
   5 -11  -5   20.90    3.60
  -5  11   5   19.20    4.00
   4 -11  -5   43.70    4.70
  -4  11   5   39.80    5.40
   3 -11  -5    4.10    2.70
  -3  11   5   -0.60    3.30
   2 -11  -5   19.00    3.60
  -2  11   5   12.20    4.10
   1 -11  -5    3.40    2.80
  -1  11   5    1.30    3.40
   0 -11  -5   22.00    4.00
   0  11   5   13.60    4.10
  -1 -11  -5   24.90    4.00
   1  11   5   19.60    4.60
  -2 -11  -5   10.20    4.60
  -7  12   5  339.57   13.40
  -6  12   5  104.29    8.00
   5 -12  -5  215.38    9.00
  -5  12   5  218.08   11.00
   4 -12  -5  273.17   10.20
  -4  12   5  245.38   12.00
   3 -12  -5    5.50    3.00
  -3  12   5   -3.60    3.50
   2 -12  -5  121.19    6.50
  -2  12   5  121.29    9.00
   1 -12  -5   77.69    6.00
  -1  12   5   61.19    7.90
   1  15  -6   81.79    7.70
  -1  15  -6   48.80    7.00
  -2  15  -6  318.67   13.60
  -3  15  -6  165.28   10.20
   3  14  -6    2.60    3.90
   2  14  -6   49.40    6.10
   1  14  -6   12.00    4.00
   0  14  -6  105.39    7.80
  -1  14  -6   54.99    6.90
  -2  14  -6  314.37   13.30
  -3  14  -6   26.50    4.90
  -5 -13   6   11.00    4.00
   4  13  -6   30.20    4.30
  -4 -13   6   36.50    5.00
   3  13  -6    2.40    3.10
  -3 -13   6    3.20    3.00
   2  13  -6    1.40    3.10
   1  13  -6    3.70    3.20
  -1 -13   6    0.30    2.60
   0  13  -6   -1.40    2.90
  -1  13  -6    0.60    3.10
  -2  13  -6    6.80    3.60
  -3  13  -6  150.58    8.80
   5  12  -6    1.10    2.70
  -5 -12   6    7.60    4.40
   4  12  -6    3.20    2.80
  -4 -12   6    8.60    3.50
   3  12  -6   59.29    5.70
  -3 -12   6   60.79    5.30
   2  12  -6    6.00    3.20
  -2 -12   6    1.90    3.00
   1  12  -6   30.30    4.50
  -1 -12   6   30.10    3.80
   0  12  -6  243.38   10.40
  -1  12  -6  232.08   10.10
  -2  12  -6  179.88    9.00
  -3  12  -6  243.08    8.90
  -3  12  -6  269.77   11.10
  -4  12  -6  115.19    5.60
  -5  12  -6  195.38    7.60
   8 -12   6   10.70    2.60
  -6 -11   6  220.68   11.10
   5  11  -6   72.49    8.90
  -5 -11   6   76.39    6.50
   4  11  -6  113.39    6.60
  -4 -11   6  109.39    7.10
   3  11  -6  141.69    7.20
  -3 -11   6  122.49    6.90
   2  11  -6   33.10    4.30
  -2 -11   6   31.20    4.10
   1  11  -6  100.19    6.40
  -1 -11   6   98.79    5.30
   0  11  -6   49.80    5.10
   0 -11   6   40.80    3.60
  -1  11  -6    4.60    2.70
  -2  11  -6    5.10    2.30
  -2  11  -6    3.40    2.90
  -3  11  -6   65.09    6.40
  -3  11  -6   58.99    4.40
  -4  11  -6   20.70    2.90
  -5  11  -6    1.00    2.00
  -6  11  -6   75.79    4.70
   7 -11   6   14.30    2.80
   8 -11   6   62.69    4.90
   7  10  -6  136.79    8.60
  -7 -10   6  130.29    8.60
   6  10  -6   16.30    4.40
  -6 -10   6   16.00    2.60
  -6 -10   6   12.70    4.60
   5  10  -6   49.70    4.80
  -5 -10   6   52.69    5.80
   4  10  -6  129.39    6.60
   3  10  -6   86.29    5.70
  -3 -10   6   92.79    5.90
   2  10  -6   23.30    3.60
  -2 -10   6   23.90    3.40
   1  10  -6   -0.50    2.30
  -1 -10   6    1.90    2.10
   0  10  -6  444.66   13.40
   0  10  -6  446.76   14.00
   0 -10   6  389.06   13.50
  -1  10  -6  319.57   11.20
  -1  10  -6  318.87   10.40
   1 -10   6  306.57    9.60
  -2  10  -6    0.00    1.90
  -2  10  -6   -0.70    2.30
  -3  10  -6    2.00    2.10
  -4  10  -6   75.39    4.50
  -5  10  -6   20.30    2.90
  -6  10  -6    1.00    2.00
   6 -10   6   -1.40    1.90
  -7  10  -6    7.60    2.20
   7 -10   6    7.90    2.60
  -8  -9   6   28.90    4.10
  -7  -9   6   74.79    6.80
  -7  -9   6   73.09    5.00
   6   9  -6    8.20    3.90
   6   9  -6    7.50    2.50
  -6  -9   6    5.30    2.20
  -6  -9   6    5.10    3.80
   5   9  -6   41.90    5.30
   5   9  -6   38.00    4.10
  -5  -9   6   38.00    5.30
   4   9  -6  149.79    8.90
   4   9  -6  149.39    6.80
  -4  -9   6  156.58    7.60
   3   9  -6   84.09    5.50
  -3  -9   6   94.89    5.60
   2   9  -6  201.68    8.00
  -2  -9   6  199.98    7.80
   1   9  -6   41.90    4.30
  -1  -9   6   41.10    3.50
   0   9  -6  374.76   11.90
   0   9  -6  390.96   12.40
   0  -9   6  374.06   11.40
  -1   9  -6    7.60    2.70
  -1   9  -6   10.80    2.30
   1  -9   6   10.70    2.10
  -2   9  -6   29.10    3.70
  -2   9  -6   30.30    3.20
  -3   9  -6   20.40    2.70
  -4   9  -6    4.20    2.10
  -5   9  -6  199.38    7.60
   5  -9   6  213.48    7.10
  -6   9  -6  275.47    9.40
   6  -9   6  261.37    9.50
  -7   9  -6    9.80    2.60
   7  -9   6   13.20    3.10
  -8   9  -6   41.30    4.20
   8  -9   6   55.49    4.70
   8   8  -6   24.90    4.90
  -8  -8   6   22.10    4.70
   7   8  -6   59.09    5.80
  -7  -8   6   59.29    6.20
  -7  -8   6   54.59    4.50
   6   8  -6   86.29    6.30
  -6  -8   6   86.69    4.80
  -6  -8   6   77.29    6.40
  -5  -8   6   49.60    3.50
  -5  -8   6   40.90    5.00
   4   8  -6  123.19    6.70
   4   8  -6  128.69    6.70
  -4  -8   6  121.39    6.60
   3   8  -6    1.40    2.50
   3   8  -6   -2.40    2.10
  -3  -8   6    1.60    2.40
  -2  -8   6  200.48    7.70
   1   8  -6  577.74   16.50
   1   8  -6  562.34   16.40
  -1  -8   6  566.84   16.20
   0   8  -6   72.69    4.70
   0   8  -6   79.79    4.40
   0  -8   6   78.29    4.10
  -1   8  -6  693.23   19.40
  -1   8  -6  714.63   20.00
  -2   8  -6 2529.85   63.79
  -3   8  -6   15.30    2.50
  -4   8  -6 1402.16   35.50
   4  -8   6 1212.08   34.90
   4  -8   6 1467.75   34.60
  -5   8  -6   71.39    4.00
  -5   8  -6   67.49    4.50
   5  -8   6   69.19    4.10
   5  -8   6   72.59    3.60
  -6   8  -6  151.88    5.90
  -6   8  -6  142.29    6.60
   6  -8   6  147.79    7.40
  -7   8  -6   16.20    2.90
  -7   8  -6   27.60    3.50
   7  -8   6   17.70    3.20
  -8   8  -6   36.30    6.70
   8  -8   6   27.40    4.00
   9  -8   6   28.40    4.40
   9   7  -6   29.40    5.30
  -9  -7   6   25.90    5.40
  -9  -7   6   20.70    4.10
   8   7  -6   66.99    6.00
  -8  -7   6   63.49    5.10
  -8  -7   6   59.49    6.50
   7   7  -6   21.10    4.50
   7   7  -6   21.40    3.20
  -7  -7   6   16.80    3.40
  -7  -7   6   16.70    4.20
   6   7  -6   38.40    3.10
   6   7  -6   40.20    4.70
  -6  -7   6   34.00    4.80
  -6  -7   6   36.30    3.70
   5   7  -6   29.40    4.30
   5   7  -6   22.50    2.40
  -5  -7   6   26.30    4.10
  -5  -7   6   24.00    2.50
  -5  -7   6   25.10    2.90
   4   7  -6  139.59    5.50
   4   7  -6  136.39    6.50
  -4  -7   6  140.69    6.70
   3   7  -6   14.50    2.20
   3   7  -6   13.60    3.00
  -3  -7   6   12.30    2.80
   2   7  -6  701.93   20.00
   2   7  -6  724.53   20.10
   2   7  -6  734.73   19.70
  -2  -7   6  733.43   20.40
   1   7  -6  291.17    9.60
   1   7  -6  302.57    9.50
  -1  -7   6  300.07    9.50
   0   7  -6 1640.74   41.90
   0   7  -6 1637.34   42.20
  -1   7  -6  218.48   10.40
  -1   7  -6  212.98    7.40
  -2   7  -6  126.19    5.20
  -4   7  -6   29.20    3.30
  -4   7  -6   31.20    2.50
   4  -7   6   30.10    2.40
   4  -7   6   32.60    2.90
  -5   7  -6   12.80    2.40
  -5   7  -6   15.50    2.80
   5  -7   6   15.90    2.10
   5  -7   6   15.70    2.70
  -6   7  -6   30.10    4.00
  -6   7  -6   28.10    3.50
   6  -7   6   31.30    3.60
  -7   7  -6   13.00    3.10
  -7   7  -6   14.20    3.20
   7  -7   6   13.60    3.20
  -8   7  -6    3.30    3.00
  -8   7  -6    2.60    2.70
   8  -7   6    1.30    2.80
  -9   7  -6   35.80    4.80
   9  -7   6   31.20    4.60
   9   6  -6   11.70    3.90
  -9  -6   6   10.40    4.10
  -9  -6   6    9.50    4.50
   8   6  -6    1.50    2.50
   8   6  -6   -1.40    3.00
  -8  -6   6   -1.00    2.80
  -8  -6   6    0.70    3.50
   7   6  -6    5.00    3.20
   7   6  -6    5.40    2.40
  -7  -6   6    5.40    2.80
  -7  -6   6    9.40    4.00
   6   6  -6   -0.80    2.60
   6   6  -6    2.70    1.90
  -6  -6   6    4.00    2.00
  -6  -6   6   -1.00    2.10
  -6  -6   6    2.30    2.90
   5   6  -6   20.60    2.50
   5   6  -6   14.30    3.20
  -5  -6   6   19.10    3.30
  -5  -6   6   22.50    2.40
   4   6  -6  171.58    5.40
   4   6  -6  170.98    7.00
  -4  -6   6  173.98    5.70
  -4  -6   6  179.48    7.30
   3   6  -6   48.80    3.70
   3   6  -6   48.80    3.10
  -3  -6   6   50.09    3.70
   2   6  -6   18.30    2.50
   2   6  -6   20.30    2.60
   2   6  -6   17.00    2.30
  -2  -6   6   17.80    2.50
   1   6  -6  187.38    6.40
   1   6  -6  186.38    6.70
  -1  -6   6  189.08    6.60
   0   6  -6   71.39    3.70
   0   6  -6   76.29    3.80
  -1   6  -6  925.21   24.50
  -2   6  -6  192.08    6.70
  -3   6  -6  456.75   12.20
  -3   6  -6  452.35   13.60
   3  -6   6  446.56   12.20
  -4   6  -6  163.18    5.80
  -4   6  -6  166.08    6.50
   4  -6   6  174.48    6.00
   4  -6   6  153.08    5.90
  -5   6  -6  128.89    6.00
  -5   6  -6  125.69    5.40
   5  -6   6  110.39    5.00
   5  -6   6  127.59    5.50
  -6   6  -6  244.08    9.00
  -6   6  -6  233.88    8.40
   6  -6   6  218.38    8.40
  -7   6  -6   46.50    4.60
  -7   6  -6   42.90    4.80
  -7   6  -6   41.30    4.60
   7  -6   6   40.30    4.50
  -8   6  -6  281.97   11.20
  -8   6  -6  280.97   10.30
  -8   6  -6  271.57   10.60
   8  -6   6  255.97   10.20
  -9   6  -6  178.38    8.50
  -9   6  -6  183.28    9.10
   9  -6   6  177.68    8.60
 -10   6  -6   20.20    4.60
  10   5  -6   97.39   11.00
 -10  -5   6   92.89    9.40
   9   5  -6  160.88    8.50
   9   5  -6  172.48    7.50
  -9  -5   6  157.58    7.80
  -9  -5   6  144.99    8.70
   8   5  -6   50.39    5.40
   8   5  -6   51.19    4.80
  -8  -5   6   52.39    4.80
  -8  -5   6   49.99    5.80
   7   5  -6   87.49    4.90
  -7  -5   6   94.49    7.00
   6   5  -6  428.46   13.40
   6   5  -6  411.36   12.00
  -6  -5   6  410.56   13.70
  -6  -5   6  401.36   12.10
   5   5  -6   -2.10    2.00
   5   5  -6   -0.80    1.30
  -5  -5   6   -0.90    2.30
  -5  -5   6    4.50    2.30
  -5  -5   6    0.70    2.00
   4   5  -6  158.38    5.30
   4   5  -6  164.78    6.50
  -4  -5   6  166.48    5.60
  -4  -5   6  167.38    6.80
  -4  -5   6  165.88    5.40
   3   5  -6  118.29    4.90
   3   5  -6  115.09    4.20
   3   5  -6  119.69    5.20
  -3  -5   6  115.99    4.00
  -3  -5   6  118.19    4.00
   2   5  -6    1.40    1.50
   2   5  -6    1.60    1.20
   2   5  -6    2.10    1.10
  -2  -5   6   -0.30    1.30
   1   5  -6   17.90    2.10
   0   5  -6    7.60    1.60
  -1   5  -6 1766.72   44.60
   1  -5   6 1757.42   44.60
  -2   5  -6  104.49    3.70
  -2   5  -6  112.29    4.60
   2  -5   6  111.49    3.90
  -3   5  -6  366.06   11.00
   3  -5   6  358.46   10.10
  -4   5  -6   14.10    2.20
  -4   5  -6    7.80    2.20
   4  -5   6   13.00    2.30
  -5   5  -6   24.70    3.50
  -5   5  -6   25.80    3.10
  -5   5  -6   23.60    3.20
   5  -5   6   25.40    3.20
  -6   5  -6  236.28    8.80
  -6   5  -6  265.07    9.50
  -6   5  -6  236.58    9.50
   6  -5   6  230.88    8.70
  -7   5  -6  185.18    8.20
  -7   5  -6  162.78    8.30
  -7   5  -6  170.78    7.60
   7  -5   6  171.68    7.60
  -8   5  -6    1.70    2.90
  -8   5  -6    8.10    3.20
  -8   5  -6    1.70    2.60
   8  -5   6    0.60    2.90
  -9   5  -6  276.07   11.70
  -9   5  -6  265.07   10.70
  -9   5  -6  283.27   11.40
   9  -5   6  256.67   10.80
 -10   5  -6   67.19    6.20
 -10   5  -6   95.79    7.00
  10   4  -6    7.30    3.80
  10   4  -6    4.30    3.50
 -10  -4   6   -3.10    3.50
 -10  -4   6    2.20    3.80
   9   4  -6  196.18    9.00
   9   4  -6  200.58    8.40
  -9  -4   6  197.48    8.60
  -9  -4   6  178.28    9.60
   8   4  -6    2.00    2.50
   8   4  -6    1.70    2.90
  -8  -4   6    3.30    3.30
   7   4  -6  427.96   13.70
   7   4  -6  423.26   12.70
  -7  -4   6  426.26   13.10
  -7  -4   6  404.16   14.20
   6   4  -6  342.07   10.40
   6   4  -6  342.67   11.40
  -6  -4   6  355.66   12.00
  -6  -4   6  351.26   10.80
   5   4  -6 1195.18   30.40
   5   4  -6 1183.78   31.30
  -5  -4   6 1180.18   31.90
  -5  -4   6 1206.98   30.70
   4   4  -6  943.01   25.40
   4   4  -6 1011.80   26.10
  -4  -4   6 1019.10   26.00
  -4  -4   6  990.60   25.40
  -4  -4   6  998.50   26.70
   3   4  -6   41.70    2.70
   3   4  -6   34.80    2.00
   3   4  -6   33.80    2.70
  -3  -4   6   35.80    2.30
  -3  -4   6   40.50    2.20
  -3  -4   6   37.40    2.90
   2   4  -6  120.79    4.70
   2   4  -6  112.39    3.70
   2   4  -6  120.99    4.40
  -2  -4   6  116.99    3.80
  -2  -4   6  121.69    3.80
  -2  -4   6  120.19    4.10
   1   4  -6  828.62   21.80
  -1  -4   6  820.82   21.80
   0   4  -6   26.10    2.20
   0  -4   6   26.50    2.20
   0  -4   6   26.00    1.60
  -1   4  -6  465.55   13.00
  -1   4  -6  455.05   12.00
  -1   4  -6  432.06   11.80
   1  -4   6  470.35   12.30
   1  -4   6  454.75   12.10
   1  -4   6  471.35   13.10
  -2   4  -6  180.88    5.70
  -2   4  -6  184.68    6.40
   2  -4   6  178.58    5.50
   2  -4   6  178.38    5.70
  -3   4  -6  143.39    5.20
  -3   4  -6  142.79    5.80
   3  -4   6  156.18    5.70
  -4   4  -6  686.13   19.50
  -4   4  -6  682.93   18.60
  -4   4  -6  697.33   19.30
   4  -4   6  677.83   18.60
  -5   4  -6  106.79    5.80
  -5   4  -6  103.69    5.20
  -5   4  -6  103.69    5.60
   5  -4   6  101.99    5.10
  -6   4  -6  109.59    6.30
  -6   4  -6  102.99    5.50
  -6   4  -6  100.09    6.00
   6  -4   6  102.69    5.50
  -7   4  -6  264.57   11.10
  -7   4  -6  265.67    9.90
  -7   4  -6  259.87   10.90
   7  -4   6  257.07    9.80
  -8   4  -6   44.10    5.60
  -8   4  -6   34.50    5.10
  -8   4  -6   44.50    4.80
   8  -4   6   38.20    4.60
  -9   4  -6  194.58    9.60
  -9   4  -6  214.48   10.30
  -9   4  -6  180.78    8.90
   9  -4   6  192.18    9.00
 -10   4  -6   18.30    4.20
  10   3  -6   12.30    3.80
 -10  -3   6    8.70    3.90
 -10  -3   6   11.00    6.90
   9   3  -6   35.60    5.00
   9   3  -6   38.30    4.90
  -9  -3   6   30.70    5.30
   8   3  -6   62.09    5.20
   8   3  -6   61.09    4.90
  -8  -3   6   61.99    5.20
  -8  -3   6   53.89    5.70
   7   3  -6  205.48    8.10
  -7  -3   6  200.08    7.70
  -7  -3   6  189.28    8.40
   6   3  -6   17.60    2.60
   6   3  -6   22.00    3.20
  -6  -3   6   21.50    3.00
  -6  -3   6   22.40    3.50
   5   3  -6  954.70   25.30
   5   3  -6  943.71   24.60
  -5  -3   6  959.50   25.90
  -5  -3   6  949.40   24.80
   4   3  -6   18.30    2.00
   4   3  -6   19.50    2.40
   4   3  -6   22.60    2.40
  -4  -3   6   21.00    2.70
  -4  -3   6   24.80    2.40
  -4  -3   6   18.60    2.00
   3   3  -6 1499.05   36.90
   3   3  -6 1487.05   37.80
   3   3  -6 1477.05   37.30
  -3  -3   6 1490.85   37.00
  -3  -3   6 1476.85   37.10
  -3  -3   6 1458.75   38.00
   2   3  -6 1234.28   30.70
   2   3  -6 1249.77   31.60
   2   3  -6 1205.58   30.80
  -2  -3   6 1223.38   31.50
  -2  -3   6 1232.18   30.80
  -2  -3   6 1230.18   30.80
  -2  -3   6 1251.07   30.80
   1   3  -6 1103.29   27.80
   1   3  -6 1122.19   28.70
  -1  -3   6 1111.29   28.70
  -1  -3   6 1111.09   28.20
  -1  -3   6 1136.59   28.00
   0   3  -6 1819.82   45.90
   0   3  -6 1847.22   46.00
   0   3  -6 1867.81   46.80
   0  -3   6 1855.01   46.80
   0  -3   6 1890.41   46.10
   0  -3   6 1896.31   46.10
  -1   3  -6  463.85   12.40
  -1   3  -6  464.65   12.50
  -1   3  -6  463.45   13.10
   1  -3   6  481.55   13.40
   1  -3   6  474.95   12.50
   1  -3   6  464.55   12.50
  -2   3  -6 1607.94   40.10
  -2   3  -6 1611.34   40.70
   2  -3   6 1594.44   40.10
   2  -3   6 1578.64   40.00
  -3   3  -6  385.66   12.00
  -3   3  -6  387.76   11.20
   3  -3   6  395.56   11.30
  -4   3  -6  653.23   18.20
  -4   3  -6  667.43   19.20
   4  -3   6  667.63   18.20
  -5   3  -6  638.74   19.00
  -5   3  -6  620.34   18.70
   5  -3   6  637.04   17.90
  -6   3  -6  148.19    7.60
  -6   3  -6  140.79    6.70
   6  -3   6  153.78    6.80
  -7   3  -6   10.60    4.40
  -7   3  -6    6.00    2.90
   7  -3   6   12.90    3.30
  -8   3  -6   55.69    6.30
  -8   3  -6   54.79    5.50
   8  -3   6   58.99    5.30
  -9   3  -6   32.80    6.20
  -9   3  -6   24.00    4.00
   9  -3   6   19.70    4.20
 -10   3  -6    5.60    3.90
  11   2  -6   85.19    6.70
 -11  -2   6   76.19    7.10
  10   2  -6    0.30    3.20
  10   2  -6    4.70    3.50
 -10  -2   6    6.10    3.60
   9   2  -6    1.20    2.80
   9   2  -6    0.30    3.10
  -9  -2   6    1.40    3.60
  -9  -2   6    3.00    3.10
   8   2  -6  138.09    6.50
  -8  -2   6  135.29    7.30
  -8  -2   6  147.79   10.00
   7   2  -6  139.39    6.00
   7   2  -6  143.49    6.40
  -7  -2   6  135.19    6.20
  -7  -2   6  136.09    6.80
   6   2  -6  268.67    8.60
  -6  -2   6  270.97    9.60
  -6  -2   6  269.67    8.80
   5   2  -6 2350.46   58.49
  -5  -2   6 2322.97   58.59
  -5  -2   6 2374.76   59.49
   4   2  -6  262.57    7.80
   4   2  -6  268.27    8.30
  -4  -2   6  264.07    8.00
  -4  -2   6  274.07    8.70
  -4  -2   6  259.67    8.00
   3   2  -6 1066.09   27.00
   3   2  -6 1029.90   26.30
  -3  -2   6 1051.59   26.50
  -3  -2   6 1065.89   26.50
  -3  -2   6  993.00   26.80
   2   2  -6 6055.59  150.78
  -2  -2   6 6208.98  150.88
  -2  -2   6 6314.37  151.28
   1   2  -6   90.89    3.20
   1   2  -6   94.39    3.70
   1   2  -6   84.99    3.20
  -1  -2   6   93.79    3.60
  -1  -2   6   90.09    3.30
  -1  -2   6   86.99    3.30
   0   2  -6 7099.79  175.28
   0  -2   6 7287.97  176.18
   0  -2   6 7233.38  175.38
  -1   2  -6  599.94   16.20
  -1   2  -6  596.24   16.50
  -1   2  -6  611.94   16.10
   1  -2   6  620.54   17.50
   1  -2   6  610.14   16.00
   1  -2   6  609.84   16.10
  -2   2  -6  571.04   15.40
  -2   2  -6  568.74   15.80
  -2   2  -6  569.04   16.10
   2  -2   6  562.24   15.20
   2  -2   6  566.74   15.40
  -3   2  -6  211.48    8.60
  -3   2  -6  206.18    6.90
   3  -2   6  197.58    6.90
  -4   2  -6  219.18    8.60
  -4   2  -6  229.08    7.80
   4  -2   6  222.68    7.80
  -5   2  -6   35.80    4.40
  -5   2  -6   40.00    3.80
   5  -2   6   35.40    3.70
  -6   2  -6    4.60    2.60
  -6   2  -6    3.30    3.00
   6  -2   6    4.00    2.40
  -7   2  -6   23.10    4.60
  -7   2  -6   27.80    4.30
   7  -2   6   30.90    4.40
  -8   2  -6    4.10    3.20
  -8   2  -6    7.50    3.90
   8  -2   6    7.10    3.30
  -9   2  -6   18.50    3.90
  -9   2  -6   11.60    4.30
   9  -2   6   14.00    4.10
  11   1  -6   54.79    6.10
  11   1  -6   55.79    6.10
 -11  -1   6   66.29    6.40
 -11  -1   6   57.19    6.20
  10   1  -6   22.80    4.40
  10   1  -6   23.50    4.20
 -10  -1   6   26.30    4.90
 -10  -1   6   30.90    4.80
   9   1  -6   -0.60    2.80
   9   1  -6    0.60    3.10
  -9  -1   6   -0.50    3.30
  -9  -1   6   -1.60    3.10
   8   1  -6   77.69    5.20
  -8  -1   6   75.79    5.20
  -8  -1   6   83.19    5.80
   7   1  -6   -2.10    2.10
  -7  -1   6    1.90    2.50
  -7  -1   6    2.40    2.50
   6   1  -6  859.31   22.80
  -6  -1   6  850.11   22.90
  -6  -1   6  854.81   23.50
   5   1  -6  125.39    4.80
  -5  -1   6  133.29    6.10
  -5  -1   6  119.59    5.00
   4   1  -6  452.15   12.40
   4   1  -6  447.16   12.30
  -4  -1   6  450.25   12.80
  -4  -1   6  450.95   12.90
  -4  -1   6  454.55   12.40
  -4  -1   6  415.46   12.30
   3   1  -6  777.42   20.30
   3   1  -6  778.62   20.10
  -3  -1   6  787.82   20.20
  -3  -1   6  772.82   20.40
  -3  -1   6  773.02   20.20
   2   1  -6   27.00    1.70
   2   1  -6   27.20    1.90
   2   1  -6   30.70    2.00
  -2  -1   6   28.40    2.10
  -2  -1   6   27.90    1.90
  -2  -1   6   25.60    1.90
   1   1  -6  615.04   16.60
   1   1  -6  635.14   16.70
   1   1  -6  634.14   16.90
  -1  -1   6  627.94   16.70
  -1  -1   6  642.94   16.80
  -1  -1   6  671.13   17.40
   0   1  -6   21.50    1.60
   0   1  -6   17.70    1.90
   0   1  -6   18.50    1.70
   0  -1   6   20.20    1.90
   0  -1   6   23.20    1.90
   0  -1   6   18.50    1.60
  -1   1  -6   40.00    2.60
  -1   1  -6   41.20    2.50
  -1   1  -6   40.00    2.90
   1  -1   6   37.80    2.20
   1  -1   6   40.30    2.50
  -2   1  -6  709.63   19.70
  -2   1  -6  717.23   18.90
   2  -1   6  710.03   18.90
   2  -1   6  686.53   18.70
  -3   1  -6   68.59    3.70
  -3   1  -6   67.89    4.40
   3  -1   6   67.49    3.70
  -4   1  -6  814.42   22.20
  -4   1  -6  789.02   23.10
   4  -1   6  818.72   22.10
  -5   1  -6   81.99    5.70
  -5   1  -6   81.29    5.00
   5  -1   6   74.49    4.80
  -6   1  -6    7.10    2.90
  -6   1  -6    0.40    2.80
   6  -1   6    2.70    2.70
  -7   1  -6    2.70    3.50
  -7   1  -6    2.10    3.60
   7  -1   6    4.50    2.90
  -8   1  -6   80.29    7.20
  -8   1  -6   84.39    6.40
   8  -1   6   84.89    6.50
  -9   1  -6    8.20    3.50
  -9   1  -6    8.30    3.70
   9  -1   6    6.00    3.40
  11   0  -6   -1.30    3.30
  11   0  -6   -5.80    3.20
 -11   0   6    5.50    3.60
  10   0  -6   -1.90    3.10
 -10   0   6   -4.00    3.60
 -10   0   6    1.30    3.40
   9   0  -6  196.88    8.40
  -9   0   6  192.38    8.50
  -9   0   6  187.48   13.00
   8   0  -6   21.60    3.50
  -8   0   6   21.70    3.80
  -8   0   6   27.30    4.20
   7   0  -6    6.10    2.50
  -7   0   6    3.90    2.60
  -7   0   6    4.90    2.40
  -6   0   6   41.00    3.60
  -6   0   6   45.80    3.60
   5   0  -6  415.06   11.90
  -5   0   6  415.46   12.30
  -5   0   6  414.56   12.00
   4   0  -6 2627.84   63.59
   4   0  -6 2556.64   63.69
  -4   0   6 2497.95   63.79
  -4   0   6 2562.24   63.79
  -4   0   6 2597.24   64.19
   3   0  -6   91.49    3.50
   3   0  -6   89.29    3.60
  -3   0   6   90.99    3.70
  -3   0   6   85.79    3.30
  -3   0   6   84.19    4.90
   2   0  -6 3517.85   86.69
   2   0  -6 3572.74   86.69
   2   0  -6 3477.75   86.69
  -2   0   6 3459.55   86.69
  -2   0   6 3538.85   86.69
  -2   0   6 3593.64   86.69
   1   0  -6  228.98    7.00
   1   0  -6  218.18    6.80
   1   0  -6  231.98    7.00
  -1   0   6  228.88    7.30
  -1   0   6  234.78    7.00
  -1   0   6  216.08    6.80
   0   0  -6   36.50    2.30
   0   0  -6   34.20    2.30
   0   0   6   40.60    2.40
   0   0   6   26.90    2.20
  -1   0  -6  303.57    9.70
  -1   0  -6  312.27    9.20
   1   0   6  311.97    9.20
   1   0   6  300.67    9.00
  -2   0  -6  807.32   21.60
  -2   0  -6  813.02   23.30
   2   0   6  806.52   21.60
  -3   0  -6  570.94   17.10
  -3   0  -6  573.74   16.50
   3   0   6  577.34   16.20
  -4   0  -6  107.49    6.20
  -4   0  -6  113.49    5.40
   4   0   6  105.89    5.30
  -5   0  -6  365.66   13.20
  -5   0  -6  363.16   12.20
   5   0   6  381.46   12.20
  -6   0  -6  171.08    7.90
  -6   0  -6  167.78    8.80
  -7   0  -6    5.40    3.70
  -7   0  -6   11.30    3.70
   7   0   6    3.90    3.10
  -8   0  -6    9.20    3.90
  -8   0  -6   13.70    4.50
   8   0   6   14.60    3.70
  -9   0  -6   83.19    7.20
  11  -1  -6   32.20    5.00
 -11   1   6   34.00    5.40
 -11   1   6   32.00    4.90
  10  -1  -6    1.70    3.40
 -10   1   6   -4.00    3.30
 -10   1   6   -2.30    2.90
  -9   1   6  310.27   11.10
  -9   1   6  293.47   11.20
   8  -1  -6  424.56   13.50
  -8   1   6  437.86   13.90
  -8   1   6  438.56   13.70
   7  -1  -6 1619.54   41.80
  -7   1   6 1619.44   42.10
  -7   1   6 1625.84   41.90
   6  -1  -6 3070.89   77.19
  -6   1   6 3131.09   77.29
   5  -1  -6  790.42   21.00
  -5   1   6  800.62   21.20
  -5   1   6  774.02   21.10
   4  -1  -6 2453.65   58.49
   4  -1  -6 2386.36   58.99
  -4   1   6 2406.16   58.99
  -4   1   6 2217.78   58.39
   3  -1  -6  116.49    4.00
   3  -1  -6  115.29    4.40
  -3   1   6  110.99    3.90
  -3   1   6  112.99    4.40
  -3   1   6  113.89    5.20
   2  -1  -6  127.89    4.60
   2  -1  -6  127.79    4.40
  -2   1   6  125.09    4.70
  -2   1   6  129.59    4.70
  -2   1   6  122.49    4.50
   1  -1  -6  435.16   12.00
   1  -1  -6  404.96   12.10
   1  -1  -6  435.76   11.80
  -1   1   6  419.76   11.80
  -1   1   6  435.46   12.00
  -1   1   6  415.96   12.10
   0  -1  -6    2.00    1.20
   0   1   6    0.70    1.20
  -1  -1  -6   41.10    3.20
  -1  -1  -6   43.50    2.90
   1   1   6   45.40    3.00
  -2  -1  -6  447.36   12.90
  -2  -1  -6  433.26   13.60
  -3  -1  -6  306.47   11.00
  -3  -1  -6  314.17   10.20
   3   1   6  318.67   10.10
  -4  -1  -6  141.29    7.20
  -4  -1  -6  139.39    6.50
   4   1   6  141.39    6.30
  -5  -1  -6  206.58    8.50
  -5  -1  -6  203.68    9.40
   5   1   6  217.18    8.50
  -6  -1  -6  113.89    7.60
  -6  -1  -6  101.59    6.50
   6   1   6   99.29    6.30
  -7  -1  -6    7.30    4.00
  -7  -1  -6   12.90    3.90
   7   1   6    6.90    3.40
  -8  -1  -6   30.40    5.40
 -12   2   6   18.80    4.00
 -11   2   6   99.79    7.30
 -11   2   6   92.39    6.40
  10  -2  -6   87.59    6.40
 -10   2   6   85.09    6.60
 -10   2   6   93.39    6.30
   9  -2  -6  404.56   13.30
  -9   2   6  404.56   13.50
  -9   2   6  393.46   13.30
   8  -2  -6   16.80    3.30
  -8   2   6   19.60    3.70
  -8   2   6   14.30    3.20
   7  -2  -6   50.19    4.00
  -7   2   6   45.00    3.90
  -7   2   6   45.80    4.10
   6  -2  -6  188.68    6.90
  -6   2   6  185.68    7.00
  -6   2   6  182.78    6.70
   5  -2  -6   47.90    3.40
  -5   2   6   51.39    3.50
  -5   2   6   55.29    3.30
   4  -2  -6   38.70    2.90
  -4   2   6   44.70    3.00
   3  -2  -6   45.80    2.90
   3  -2  -6   43.50    2.20
  -3   2   6   48.10    2.90
   2  -2  -6  197.08    6.50
   2  -2  -6  198.68    6.00
  -2   2   6  185.08    6.40
  -2   2   6  199.98    6.60
   1  -2  -6  622.44   16.70
   1  -2  -6  626.24   16.40
  -1   2   6  575.64   16.60
  -1   2   6  620.14   16.70
   0  -2  -6  351.96   10.50
   0  -2  -6  342.57   10.70
   0   2   6  346.17   10.40
  -1  -2  -6  527.45   15.70
  -1  -2  -6  536.05   15.30
   1   2   6  537.75   15.20
  -2  -2  -6  389.36   12.00
  -2  -2  -6  381.46   12.70
   2   2   6  409.46   12.10
  -3  -2  -6  126.59    6.60
  -3  -2  -6  130.79    5.90
   3   2   6  127.99    5.80
  -4  -2  -6  203.58    9.10
  -4  -2  -6  210.58    8.20
   4   2   6  210.58    8.20
  -5  -2  -6  631.44   18.70
  -5  -2  -6  589.04   20.20
   5   2   6  628.64   18.50
  -6  -2  -6  104.49    6.80
  -6  -2  -6   95.09    7.50
   6   2   6  105.69    6.50
  -7  -2  -6  527.05   17.40
  -7  -2  -6  501.95   18.60
   7   2   6  514.75   16.90
  -8  -2  -6   19.30    4.40
  -8  -2  -6   21.30    6.00
   8   2   6   24.80    4.60
  11  -3  -6  100.89    7.10
 -11   3   6  112.09    6.40
 -11   3   6  104.19    9.40
  10  -3  -6    0.50    3.20
 -10   3   6    9.30    3.10
 -10   3   6    5.40    3.70
   9  -3  -6    7.50    3.30
  -9   3   6    8.90    3.00
  -9   3   6   14.00    3.60
   8  -3  -6  108.59    6.00
  -8   3   6  110.49    6.10
  -8   3   6  110.19    5.60
   7  -3  -6  257.47    9.50
  -7   3   6  338.57   13.00
  -7   3   6  273.87    9.80
   6  -3  -6  558.74   16.10
  -6   3   6  549.65   15.70
  -6   3   6  584.14   16.30
   5  -3  -6   -2.20    1.70
  -5   3   6   -1.20    1.80
  -5   3   6    1.00    1.40
   4  -3  -6   15.90    2.30
  -4   3   6   14.50    2.40
  -4   3   6   15.50    2.00
   3  -3  -6  229.28    8.00
  -3   3   6  232.18    7.50
  -3   3   6  210.58    7.00
   2  -3  -6   61.49    2.90
   2  -3  -6   60.59    3.50
  -2   3   6   60.89    3.10
  -2   3   6   67.99    3.60
   1  -3  -6 4478.15  110.59
  -1   3   6 4490.65  110.59
   0  -3  -6  303.57    9.80
   0  -3  -6  295.37    9.60
   0   3   6  304.77    9.60
  -1  -3  -6 3396.36   84.39
  -1  -3  -6 3400.76   83.89
   1   3   6 3291.27   84.89
  -2  -3  -6   24.30    3.70
  -2  -3  -6   24.30    3.20
   2   3   6   29.50    3.50
  -3  -3  -6  557.54   17.60
  -3  -3  -6  568.14   16.80
   3   3   6  561.74   16.60
  -4  -3  -6   44.50    4.40
  -4  -3  -6   48.40    5.20
   4   3   6   43.10    4.40
  -5  -3  -6  103.59    7.30
  -5  -3  -6  115.29    6.50
   5   3   6  109.49    6.40
  -6  -3  -6   90.19    6.40
  -6  -3  -6   83.19    7.30
   6   3   6   84.49    6.20
  -7  -3  -6  108.39    8.30
   7   3   6  110.39    7.10
   8   3   6  109.79    7.10
  11  -4  -6   -1.00    3.20
 -11   4   6    3.10    3.80
 -11   4   6    4.10    5.00
  10  -4  -6  427.66   14.40
 -10   4   6  413.46   13.50
 -10   4   6  420.76   14.50
   9  -4  -6  266.47   10.00
  -9   4   6  245.08    9.10
  -9   4   6  246.58   10.00
   8  -4  -6   -1.60    4.50
  -8   4   6   -0.80    2.80
   7  -4  -6  177.88    7.40
  -7   4   6  186.48    7.60
   6  -4  -6    2.40    2.10
  -6   4   6    2.90    2.20
   5  -4  -6    1.90    2.00
  -5   4   6    0.70    1.90
  -5   4   6   -1.30    1.50
   4  -4  -6 1709.33   43.60
  -4   4   6 1735.93   44.20
  -4   4   6 1679.43   43.40
   3  -4  -6   31.50    3.10
  -3   4   6   32.80    3.00
  -3   4   6   33.40    3.20
   2  -4  -6 4098.59  101.39
   2  -4  -6 4178.18  102.29
  -2   4   6 4127.59  102.19
   1  -4  -6  174.88    6.80
  -1   4   6  177.98    6.80
   0  -4  -6 4566.24  111.09
   0  -4  -6 4430.06  110.59
   0   4   6 4401.16  110.49
  -1  -4  -6    2.40    2.20
  -1  -4  -6    3.20    2.20
   1   4   6    3.00    2.20
  -2  -4  -6 2223.38   57.49
  -2  -4  -6 2215.28   56.79
   2   4   6 2223.98   56.69
  -3  -4  -6    5.00    2.80
  -3  -4  -6    3.40    2.90
   3   4   6    5.50    2.80
  -4  -4  -6  247.88    9.60
  -4  -4  -6  234.78   10.60
   4   4   6  238.18    9.40
  -5  -4  -6  154.98    7.80
  -5  -4  -6  156.58    8.80
  -6  -4  -6   18.10    4.60
  -6  -4  -6   13.40    3.70
   6   4   6   16.20    3.90
  -7  -4  -6   52.69    6.00
  -7  -4  -6   51.39    6.70
   7   4   6   67.09    5.80
  11  -5  -6   35.10    6.70
 -11   5   6   51.89    6.70
  10  -5  -6  334.27   12.30
 -10   5   6  312.07   12.20
   9  -5  -6   24.20    4.50
  -9   5   6   29.30    4.80
   8  -5  -6  295.87   10.50
  -8   5   6  281.37   10.60
   7  -5  -6   23.30    3.60
  -7   5   6   25.90    3.80
   6  -5  -6   59.49    4.50
  -6   5   6   67.99    4.70
  -6   5   6   57.59    4.30
   5  -5  -6  259.57    9.10
  -5   5   6  269.97    9.10
  -5   5   6  257.97    8.90
   4  -5  -6   58.29    4.10
  -4   5   6   47.70    5.50
  -4   5   6   65.59    4.70
   3  -5  -6 3698.93   92.29
  -3   5   6 3731.93   92.49
  -3   5   6 3705.63   92.19
   2  -5  -6   90.89    3.80
   2  -5  -6   85.39    4.90
  -2   5   6   85.19    4.80
   1  -5  -6 5632.14  134.79
  -1   5   6 5289.27  134.49
   0  -5  -6 1213.78   33.10
   0  -5  -6 1286.27   33.30
  -1  -5  -6  287.17    9.80
  -1  -5  -6  277.37   10.20
   1   5   6  269.97    9.60
  -2  -5  -6  339.97   12.00
  -2  -5  -6  328.87   11.30
   2   5   6  315.37   11.00
  -3  -5  -6  330.97   12.70
  -3  -5  -6  355.36   12.20
   3   5   6  352.66   12.00
  -4  -5  -6    5.30    2.80
  -4  -5  -6    4.30    3.40
   4   5   6    3.10    2.80
  -5  -5  -6  221.68   10.90
  -5  -5  -6  234.78   10.00
   5   5   6  235.18    9.70
  -6  -5  -6  141.09    8.00
  -6  -5  -6  125.99    8.90
   6   5   6  147.59    7.60
   7   5   6   47.50    5.60
 -11   6   6   14.60    4.30
  10  -6  -6   88.79    6.40
 -10   6   6   77.59    6.40
   9  -6  -6  109.49    6.70
  -9   6   6  105.49    6.90
   8  -6  -6   90.89    6.00
  -8   6   6   93.69    6.10
   7  -6  -6  216.68    8.50
  -7   6   6  215.08    8.50
  -7   6   6  208.78    7.90
   6  -6  -6  660.83   18.70
  -6   6   6  638.54   18.60
  -6   6   6  643.84   18.50
   5  -6  -6  359.56   11.70
  -5   6   6  363.26   11.60
  -5   6   6  363.36   11.80
   4  -6  -6  618.44   17.90
  -4   6   6  612.24   17.70
  -4   6   6  643.14   18.20
   3  -6  -6  221.48    8.10
  -3   6   6  219.88    8.60
   2  -6  -6   56.19    4.10
  -2   6   6   58.49    4.80
   1  -6  -6  120.09    5.80
  -1   6   6  130.49    6.80
   0  -6  -6   66.69    4.70
   0  -6  -6   72.19    4.60
   0   6   6   67.19    4.60
  -1  -6  -6  453.15   14.40
  -1  -6  -6  475.85   14.90
   1   6   6  448.66   14.30
  -2  -6  -6   33.30    4.60
  -2  -6  -6   33.90    4.20
   2   6   6   36.90    4.10
  -3  -6  -6  416.06   13.80
  -3  -6  -6  403.36   14.60
   3   6   6  395.76   13.40
  -4  -6  -6   30.10    4.50
  -4  -6  -6   25.90    4.90
   4   6   6   37.20    4.40
  -5  -6  -6  240.48   11.50
   5   6   6  244.98   10.10
   6   6   6  135.49    7.30
 -11   7   6   21.50    4.90
  10  -7  -6   26.40    4.70
 -10   7   6   24.10    4.30
   9  -7  -6   34.90    4.80
  -9   7   6   39.80    4.90
   8  -7  -6   19.40    3.80
  -8   7   6   15.60    3.60
  -8   7   6   12.20    3.00
   7  -7  -6   72.89    5.30
  -7   7   6   74.49    5.20
  -7   7   6   67.79    5.10
   6  -7  -6   74.59    5.10
  -6   7   6   72.69    5.30
  -6   7   6   67.59    5.00
   5  -7  -6   35.90    4.40
  -5   7   6   34.90    4.00
  -5   7   6   28.60    3.80
   4  -7  -6    2.60    2.30
  -4   7   6    4.10    2.40
  -4   7   6    3.90    2.50
   3  -7  -6    4.00    2.40
  -3   7   6    6.40    2.40
  -3   7   6    2.40    2.40
   2  -7  -6   37.20    3.90
  -2   7   6   36.80    4.60
  -2   7   6   38.50    3.70
   1  -7  -6   34.20    4.10
  -1   7   6   34.20    3.80
  -1   7   6   27.80    4.10
   0  -7  -6   -0.50    2.30
   0  -7  -6   -1.10    3.50
   0   7   6   -1.30    2.40
  -1  -7  -6   35.60    4.20
  -1  -7  -6   37.80    4.50
   1   7   6   35.90    4.20
  -2  -7  -6    0.30    2.60
  -2  -7  -6    2.70    3.10
   2   7   6    0.90    2.70
  -3  -7  -6   -0.30    2.90
  -3  -7  -6    1.50    3.00
   3   7   6    5.90    3.10
  -4  -7  -6    0.80    3.20
   4   7   6    4.00    2.60
  -5  -7  -6    8.40    3.80
 -10   8   6   -0.90    3.70
   9  -8  -6    5.90    3.60
  -9   8   6    5.10    3.40
   8  -8  -6   36.80    4.60
  -8   8   6   30.50    3.90
  -8   8   6   29.00    4.60
   7  -8  -6   53.49    5.00
  -7   8   6   50.19    4.90
  -7   8   6   55.49    4.90
   6  -8  -6    4.00    2.80
  -6   8   6    4.50    2.80
  -6   8   6    3.30    2.60
   5  -8  -6  197.58    8.20
  -5   8   6  191.98    8.00
  -5   8   6  205.38    8.80
   4  -8  -6  497.05   15.50
  -4   8   6  523.55   15.50
  -4   8   6  511.05   16.40
   3  -8  -6   29.50    3.90
  -3   8   6   28.60    3.70
  -3   8   6   23.40    3.90
   2  -8  -6 1246.88   32.70
  -2   8   6 1205.18   33.70
  -2   8   6 1176.88   32.30
   1  -8  -6  328.77   11.10
  -1   8   6  306.97   10.90
  -1   8   6  304.87   12.00
   0  -8  -6   19.70    3.40
   0  -8  -6   23.90    3.80
   0   8   6   22.70    3.40
   0   8   6   22.00    4.20
  -1  -8  -6  283.17   10.40
  -1  -8  -6  270.17   10.60
   1   8   6  269.57   11.60
   1   8   6  271.87   10.10
  -2  -8  -6   91.49    6.10
  -2  -8  -6   91.09    6.40
   2   8   6  101.19    5.70
  -3  -8  -6   55.19    5.90
   3   8   6   60.29    5.20
  -4  -8  -6    1.80    3.70
  -4  -8  -6    4.50    3.90
  -9   9   6   30.20    5.00
   8  -9  -6   74.79    5.90
  -8   9   6   56.19    5.70
  -8   9   6   69.89    7.70
   7  -9  -6   10.30    3.60
  -7   9   6   17.10    3.60
  -7   9   6    7.40    3.10
   6  -9  -6   12.30    3.40
  -6   9   6    4.00    3.00
  -6   9   6   12.40    3.10
   5  -9  -6   13.50    3.30
  -5   9   6    9.60    3.20
  -5   9   6    8.30    3.40
   4  -9  -6   23.30    3.70
  -4   9   6   24.10    4.30
  -4   9   6   25.80    3.60
   3  -9  -6  155.28    7.20
  -3   9   6  148.79    6.90
  -3   9   6  164.08    8.40
   2  -9  -6    5.30    2.80
  -2   9   6    7.40    2.70
  -2   9   6    4.90    3.10
   1  -9  -6  402.36   13.30
  -1   9   6  399.36   14.70
  -1   9   6  383.36   12.80
   0  -9  -6  114.89    6.30
   0   9   6  120.19    7.90
   0   9   6  110.19    6.10
  -1  -9  -6  102.59    6.10
  -1  -9  -6   95.39    7.20
   1   9   6  101.79    5.60
   1   9   6   91.49    7.30
  -2  -9  -6   72.19    5.90
  -2  -9  -6   84.29    6.10
   2   9   6   67.69    8.10
  -3  -9  -6   41.60    5.50
  -3  -9  -6   36.80    7.30
  -8  10   6   18.70    3.90
   7 -10  -6   36.70    4.80
  -7  10   6   38.20    5.20
   6 -10  -6   16.20    3.70
  -6  10   6   20.70    3.60
  -6  10   6   13.00    3.70
   5 -10  -6  137.19    7.10
  -5  10   6  140.79    8.20
  -5  10   6  144.79    7.10
   4 -10  -6   14.70    3.60
  -4  10   6   13.80    4.00
  -4  10   6   16.00    3.40
   3 -10  -6  113.19    6.40
  -3  10   6  131.39    6.40
  -3  10   6  124.79    7.90
   2 -10  -6   29.30    4.30
  -2  10   6   46.00    5.30
  -2  10   6   22.60    4.40
   1 -10  -6    3.30    2.80
  -1  10   6    0.60    3.10
   0 -10  -6   17.20    4.50
   0  10   6   11.60    4.20
  -1 -10  -6    9.90    3.30
  -1 -10  -6   18.60    3.90
   1  10   6    8.20    4.30
  -2 -10  -6   11.60    3.40
   2  10   6    7.50    4.80
  -3 -10  -6   54.39    5.80
  -8  11   6  217.18   12.00
  -7  11   6    1.50    3.40
   6 -11  -6  226.68    9.40
  -6  11   6  224.38   10.60
   5 -11  -6   12.70    3.60
  -5  11   6    3.90    3.70
   4 -11  -6    9.70    3.20
  -4  11   6    5.30    3.80
   3 -11  -6   20.60    3.70
  -3  11   6   16.80    4.40
   2 -11  -6    8.80    3.10
  -2  11   6    4.10    4.40
   1 -11  -6   19.60    3.50
  -1  11   6   10.00    4.20
   0  11   6   49.70    7.10
  -6  12   6   -1.70    3.70
  -5  12   6   84.79    7.50
  -4  12   6    8.10    4.00
   1  15  -7  103.49    8.00
   0  15  -7  116.29    8.80
  -1  15  -7  257.27   12.30
  -2  15  -7   37.50    5.70
   4  14  -7   -5.30    3.20
  -4 -14   7   12.60    3.90
  -3 -14   7   72.49    5.60
   2  14  -7    7.60    3.50
  -2 -14   7   31.10    4.30
   1  14  -7    0.70    3.30
   0  14  -7   -0.30    3.30
  -1  14  -7    0.70    3.70
  -2  14  -7   22.90    4.80
  -5 -13   7   18.30    4.30
   4  13  -7    4.90    3.90
  -4 -13   7   20.40    4.10
   3  13  -7   72.29    6.30
  -3 -13   7   64.49    5.90
   2  13  -7    2.30    3.00
  -2 -13   7    2.30    3.00
   1  13  -7  193.18    9.50
  -1 -13   7  203.68    8.10
   0  13  -7   22.60    4.20
  -1  13  -7  239.58   10.90
  -2  13  -7    9.90    3.70
  -4  13  -7   91.29    5.30
  -5 -12   7   22.40    5.80
   4  12  -7    6.30    3.30
  -4 -12   7    1.00    3.40
   3  12  -7    5.30    3.00
  -3 -12   7    4.30    3.00
   2  12  -7  184.38    8.80
  -2 -12   7  201.18    8.40
   1  12  -7   71.39    6.00
  -1 -12   7   66.79    4.80
   0  12  -7  702.63   21.20
   0 -12   7  684.33   19.50
  -1  12  -7  533.85   17.50
  -2  12  -7   49.50    5.90
  -2  12  -7   45.40    4.30
  -3  12  -7  149.99    6.80
  -4  12  -7  118.29    5.90
  -5  12  -7   35.40    3.80
  -6  12  -7    9.80    3.60
  -6 -11   7   63.29    6.90
   5  11  -7   14.70    3.00
  -5 -11   7   31.80    5.30
   4  11  -7   15.90    3.40
  -4 -11   7   12.50    3.90
   3  11  -7  210.18    8.90
  -3 -11   7  202.28    9.20
   2  11  -7    1.90    2.50
  -2 -11   7    2.40    2.60
   1  11  -7  270.27   10.40
  -1 -11   7  260.97    9.50
   0  11  -7   -0.40    2.70
   0 -11   7    2.80    2.00
  -1  11  -7   97.49    5.50
  -1  11  -7   91.99    6.40
  -2  11  -7   71.79    4.90
  -2  11  -7   73.29    7.00
  -3  11  -7  298.97   10.30
  -4  11  -7   36.10    3.90
  -5  11  -7  130.59    6.10
  -6  11  -7    4.30    2.30
   7 -11   7   53.49    4.00
   8 -11   7   19.50    3.20
   7  10  -7   25.80    5.00
  -7 -10   7   18.00    3.10
  -7 -10   7   14.40    4.80
   6  10  -7  145.69    8.50
  -6 -10   7  147.89    8.80
   5  10  -7   57.49    4.80
  -5 -10   7   65.09    6.10
   4  10  -7   38.90    4.50
  -4 -10   7   45.00    5.60
   3  10  -7  190.48    8.10
  -3 -10   7  190.38    8.30
   2  10  -7   97.39    5.70
  -2 -10   7   93.49    5.50
   1  10  -7   91.49    5.60
  -1 -10   7   96.19    5.10
   0  10  -7  293.57   10.60
   0  10  -7  278.77   10.00
   0 -10   7  287.17    9.50
  -1  10  -7   25.80    3.50
  -1  10  -7   29.40    3.90
   1 -10   7   27.10    3.40
  -2  10  -7   95.59    5.20
  -3  10  -7   -0.30    2.00
  -4  10  -7  205.48    8.00
  -5  10  -7   18.80    3.00
  -6  10  -7    4.90    2.20
   6 -10   7    0.30    2.10
  -7  10  -7   15.30    2.90
   7 -10   7   20.30    3.10
  -8  10  -7    8.80    4.20
   8 -10   7   10.70    3.20
  -8  -9   7   34.90    4.40
  -8  -9   7   38.10    7.40
   7   9  -7  213.38   11.80
  -7  -9   7  179.18   10.00
  -7  -9   7  195.18    7.60
   6   9  -7    5.30    3.80
  -6  -9   7    0.50    2.10
  -6  -9   7   -4.50    3.30
   5   9  -7  520.55   16.70
   5   9  -7  492.55   14.80
  -5  -9   7  490.35   16.60
   4   9  -7   48.60    4.50
   4   9  -7   50.69    5.10
  -4  -9   7   47.30    4.90
   3   9  -7  397.86   12.70
  -3  -9   7  411.06   13.40
   2   9  -7  580.94   17.00
  -2  -9   7  584.34   17.20
   1   9  -7  110.59    5.70
   1   9  -7  115.19    5.80
  -1  -9   7  112.79    5.50
   0   9  -7  449.76   14.00
   0   9  -7  468.85   14.20
   0  -9   7  445.56   13.60
  -1   9  -7  484.25   14.90
  -1   9  -7  476.55   14.40
   1  -9   7  467.65   13.90
  -2   9  -7    3.90    2.10
  -3   9  -7   73.79    4.50
  -4   9  -7   -0.30    1.80
  -5   9  -7   64.29    4.50
   5  -9   7   72.89    4.00
  -6   9  -7    3.50    2.20
   6  -9   7    4.20    2.10
  -7   9  -7    1.90    2.30
   7  -9   7   -2.60    2.20
   8  -9   7   18.40    4.50
   8   8  -7   19.70    4.40
  -8  -8   7   11.80    3.40
  -8  -8   7   15.20    4.90
   7   8  -7   -1.70    3.00
  -7  -8   7    1.10    2.40
  -7  -8   7    2.30    3.80
   6   8  -7  257.07   10.50
  -6  -8   7  251.07    9.00
  -6  -8   7  250.97   10.90
   5   8  -7   10.00    4.00
  -5  -8   7    3.90    3.10
  -5  -8   7   10.40    2.20
   4   8  -7 1253.27   33.90
   4   8  -7 1223.58   32.50
  -4  -8   7 1276.47   34.10
   3   8  -7  160.68    6.30
   3   8  -7  153.38    7.00
  -3  -8   7  154.38    7.00
   2   8  -7 1151.98   31.10
  -2  -8   7 1167.58   31.00
   1   8  -7 1115.19   29.30
   1   8  -7 1107.99   29.60
  -1  -8   7 1089.49   29.30
   0   8  -7  307.37   10.10
   0   8  -7  322.47   10.30
   0  -8   7  292.37    9.90
  -1   8  -7  386.86   12.00
  -2   8  -7  358.66   11.40
  -3   8  -7  206.98    7.70
  -4   8  -7   16.10    2.90
   4  -8   7   18.50    2.10
   4  -8   7   23.00    2.50
  -5   8  -7  157.98    7.00
   5  -8   7  171.28    6.40
  -6   8  -7   40.00    4.10
   6  -8   7   41.50    4.00
  -7   8  -7    1.40    2.60
   7  -8   7    4.10    2.60
  -8   8  -7   41.20    4.60
   8  -8   7   45.70    7.10
   9   7  -7   20.60    4.40
  -9  -7   7   14.80    3.60
  -9  -7   7   13.00    4.30
   8   7  -7   60.69    5.90
  -8  -7   7   47.90    6.30
  -8  -7   7   57.69    5.10
   7   7  -7   87.09    6.40
  -7  -7   7   94.29    6.90
  -7  -7   7   94.29    5.40
   6   7  -7   13.90    3.50
   6   7  -7   17.90    2.40
  -6  -7   7   17.70    3.00
  -6  -7   7   16.30    3.90
   5   7  -7  109.39    6.00
   5   7  -7   99.49    4.00
  -5  -7   7  104.09    4.30
  -5  -7   7  109.69    4.70
  -5  -7   7  109.79    6.40
   4   7  -7   35.50    4.20
  -4  -7   7   32.50    4.00
   3   7  -7  223.88    8.30
   3   7  -7  226.58    8.20
   3   7  -7  214.08    7.30
  -3  -7   7  215.98    8.30
   2   7  -7  390.36   12.20
   2   7  -7  398.76   11.60
  -2  -7   7  379.86   12.10
   1   7  -7  221.58    8.00
   1   7  -7  224.18    7.80
  -1  -7   7  234.78    9.40
   0   7  -7 1361.16   35.50
  -1   7  -7   75.29    4.20
  -2   7  -7 1228.08   32.30
  -3   7  -7  325.07   10.80
   3  -7   7  367.56   11.10
   3  -7   7  327.87    9.70
  -4   7  -7  428.66   12.40
  -4   7  -7  455.45   13.60
   4  -7   7  464.65   12.70
   4  -7   7  415.36   12.20
  -5   7  -7 1566.04   40.50
  -5   7  -7 1586.14   41.60
   5  -7   7 1614.94   40.80
  -6   7  -7   46.00    3.80
  -6   7  -7   33.00    4.30
   6  -7   7   30.20    3.80
  -7   7  -7  330.87   11.40
  -7   7  -7  390.26   17.10
   7  -7   7  326.87   11.60
  -8   7  -7  129.09    7.10
   8  -7   7  121.29    6.80
  -9   7  -7    3.20    2.90
   9   6  -7    4.80    3.60
  -9  -6   7    2.60    3.90
  -9  -6   7    2.90    5.50
   8   6  -7    8.40    3.60
   8   6  -7    7.60    3.60
  -8  -6   7    3.70    3.50
  -8  -6   7    9.00    3.20
   7   6  -7   -1.00    2.20
   7   6  -7   -4.10    2.80
  -7  -6   7   -3.40    2.20
  -7  -6   7   -1.50    3.10
   6   6  -7  107.79    6.20
   6   6  -7  117.29    4.90
  -6  -6   7  110.49    6.50
   5   6  -7   91.69    5.40
  -5  -6   7   93.59    4.40
  -5  -6   7   93.79    4.00
  -5  -6   7   93.09    5.60
   4   6  -7  188.28    7.40
  -4  -6   7  181.38    6.00
  -4  -6   7  198.18    7.90
  -4  -6   7  200.78    6.30
   3   6  -7    1.40    1.70
   3   6  -7   -0.20    1.90
   3   6  -7    0.50    1.30
  -3  -6   7    4.70    2.10
   2   6  -7  128.59    5.50
   2   6  -7  125.29    5.20
  -2  -6   7  129.79    5.60
   1   6  -7  148.69    5.80
  -2   6  -7 1060.19   27.80
   2  -6   7 1040.20   26.50
   2  -6   7 1038.00   26.40
  -3   6  -7 1042.80   27.00
  -3   6  -7 1080.09   28.30
   3  -6   7 1087.89   27.20
   3  -6   7 1024.50   27.00
  -4   6  -7  147.59    6.30
  -4   6  -7  138.49    5.30
   4  -6   7  131.39    5.10
   4  -6   7  139.39    5.50
  -5   6  -7 1278.57   33.40
  -5   6  -7 1293.57   34.30
   5  -6   7 1277.07   33.50
  -6   6  -7   48.40    4.70
  -6   6  -7   41.80    4.20
   6  -6   7   45.50    4.30
  -7   6  -7   36.90    4.70
  -7   6  -7   38.20    4.40
   7  -6   7   39.50    4.60
  -8   6  -7    8.60    3.20
  -8   6  -7    5.50    3.20
  -8   6  -7    4.20    2.90
   8  -6   7    6.90    3.40
  -9   6  -7  163.68    8.40
  -9   6  -7  125.69    7.70
  10   5  -7   31.60    7.80
 -10  -5   7   21.20    5.70
   9   5  -7    2.50    3.40
   9   5  -7   -0.80    3.10
  -9  -5   7   -3.80    3.40
  -9  -5   7   -2.40    3.00
   8   5  -7  340.47   12.70
   8   5  -7  353.56   11.50
  -8  -5   7  333.17   13.20
  -8  -5   7  354.86   11.80
   7   5  -7   49.80    3.90
  -7  -5   7   44.50    5.20
   6   5  -7   57.99    3.60
   6   5  -7   67.29    4.90
  -6  -5   7   58.09    4.20
  -6  -5   7   59.09    3.50
  -6  -5   7   56.29    5.10
   5   5  -7  284.17    8.50
   5   5  -7  275.07    9.60
  -5  -5   7  295.97    8.90
  -5  -5   7  283.47   10.20
  -5  -5   7  282.27    8.70
   4   5  -7  280.17    9.20
   4   5  -7  275.77    8.00
  -4  -5   7  288.67    8.30
  -4  -5   7  282.77    9.70
  -4  -5   7  273.17    8.30
   3   5  -7   38.70    3.00
   3   5  -7   39.60    3.20
  -3  -5   7   41.70    3.40
  -3  -5   7   40.20    3.00
  -3  -5   7   40.90    2.40
   2   5  -7  145.69    7.90
   2   5  -7  167.08    5.70
   1   5  -7  951.50   25.30
   0   5  -7  103.69    4.50
  -1   5  -7  529.65   14.90
   1  -5   7  527.15   13.80
   1  -5   7  511.95   13.60
  -2   5  -7   22.20    2.60
  -2   5  -7   18.60    1.80
   2  -5   7   17.70    1.70
   2  -5   7   18.10    2.00
  -3   5  -7   12.20    1.90
  -3   5  -7   15.00    2.50
   3  -5   7   15.60    2.20
  -4   5  -7  411.16   12.70
  -4   5  -7  410.16   11.90
   4  -5   7  392.06   11.70
   4  -5   7  395.86   11.90
  -5   5  -7  323.67   11.00
  -5   5  -7  320.87   11.20
  -5   5  -7  305.67   10.20
   5  -5   7  319.37   10.40
  -6   5  -7  122.59    6.70
  -6   5  -7  114.99    6.60
  -6   5  -7  117.89    6.00
   6  -5   7  112.09    6.10
  -7   5  -7    9.80    3.10
  -7   5  -7    8.50    4.00
  -7   5  -7    9.50    3.30
   7  -5   7   11.50    3.20
  -8   5  -7   79.29    6.60
  -8   5  -7   82.79    5.90
  -8   5  -7   73.29    6.10
   8  -5   7   78.09    5.90
  -9   5  -7    2.90    3.20
  10   4  -7    0.80    5.30
  10   4  -7    6.30    3.70
 -10  -4   7    3.20    3.60
 -10  -4   7    2.30    3.40
   9   4  -7   28.60    4.70
   9   4  -7   34.50    4.40
  -9  -4   7   27.30    5.10
   8   4  -7   12.20    3.70
   8   4  -7   12.00    3.00
  -8  -4   7   13.40    3.40
  -8  -4   7   14.20    4.20
   7   4  -7   61.39    5.00
   7   4  -7   63.19    4.20
  -7  -4   7   57.99    5.20
  -7  -4   7   61.69    4.50
   6   4  -7  302.37   10.30
   6   4  -7  308.17    9.50
  -6  -4   7  304.87   11.00
  -6  -4   7  305.77    9.80
   5   4  -7   -1.80    1.70
   5   4  -7   -2.70    1.30
  -5  -4   7    0.30    1.90
  -5  -4   7    1.00    2.20
   4   4  -7  788.82   21.00
   4   4  -7  767.32   21.40
   4   4  -7  773.92   20.20
  -4  -4   7  780.72   20.50
  -4  -4   7  789.42   21.80
  -4  -4   7  794.92   20.50
   3   4  -7  110.79    4.40
   3   4  -7  112.19    3.80
   3   4  -7  105.19    4.70
  -3  -4   7  104.59    3.90
  -3  -4   7  106.89    4.00
   2   4  -7  130.79    4.10
   2   4  -7  128.69    4.20
   2   4  -7  135.49    5.20
  -2  -4   7  130.89    4.50
  -2  -4   7  133.79    4.30
   1   4  -7  103.19    4.30
   1   4  -7   96.79    3.20
   1   4  -7   95.79    3.30
  -1  -4   7   99.69    3.40
  -1  -4   7   98.49    3.40
   0   4  -7   16.00    2.10
   0   4  -7   11.20    1.20
   0   4  -7   11.90    1.20
   0  -4   7   12.90    1.50
  -1   4  -7   16.50    1.60
  -1   4  -7   16.30    2.20
   1  -4   7   16.30    1.80
   1  -4   7   18.50    1.50
  -2   4  -7    5.00    2.30
  -2   4  -7    7.40    1.60
   2  -4   7    4.70    1.20
   2  -4   7    5.30    1.70
  -3   4  -7   -0.10    1.50
  -3   4  -7    1.10    1.70
   3  -4   7    1.40    1.60
  -4   4  -7   44.90    3.70
  -4   4  -7   43.10    4.00
  -4   4  -7   49.40    4.20
   4  -4   7   47.40    3.70
  -5   4  -7  232.28    9.10
  -5   4  -7  234.58    8.40
  -5   4  -7  231.98    9.30
   5  -4   7  233.18    8.40
  -6   4  -7   -1.60    2.70
  -6   4  -7   -1.30    2.30
  -6   4  -7    2.00    2.50
   6  -4   7    0.80    2.40
  -7   4  -7  855.61   25.00
  -7   4  -7  832.92   25.40
  -7   4  -7  853.21   24.10
   7  -4   7  818.22   24.00
  -8   4  -7  123.29    7.90
  -8   4  -7  114.19    7.40
  -8   4  -7  129.19    7.20
   8  -4   7  110.59    6.90
  -9   4  -7  254.07   11.80
  -9   4  -7  261.77   10.70
  -9   4  -7  245.08   11.20
  10   3  -7   53.29    8.60
  10   3  -7   52.89    5.50
 -10  -3   7   42.70    6.20
   9   3  -7  393.76   14.00
   9   3  -7  429.16   13.40
  -9  -3   7  384.66   14.70
  -9  -3   7  407.06   13.70
   8   3  -7  577.24   17.80
   8   3  -7  583.74   17.00
  -8  -3   7  596.34   17.50
  -8  -3   7  573.04   18.60
   7   3  -7   69.39    5.00
  -7  -3   7   78.49    5.50
  -7  -3   7   69.09    4.70
   6   3  -7  647.54   18.50
   6   3  -7  651.63   17.80
  -6  -3   7  662.83   18.10
  -6  -3   7  638.44   19.10
   5   3  -7  553.04   15.20
   5   3  -7  561.34   15.80
  -5  -3   7  559.64   16.50
  -5  -3   7  560.44   15.50
   4   3  -7   64.99    3.10
   4   3  -7   72.39    3.80
   4   3  -7   68.69    3.60
  -4  -3   7   72.49    3.80
  -4  -3   7   70.49    3.30
  -4  -3   7   69.19    4.10
   3   3  -7  470.85   13.60
   3   3  -7  473.95   12.90
   3   3  -7  492.75   12.80
  -3  -3   7  471.05   12.90
  -3  -3   7  469.65   12.80
   2   3  -7  106.89    3.70
   2   3  -7  111.09    4.50
  -2  -3   7  108.49    3.80
  -2  -3   7  105.79    3.70
  -2  -3   7  108.89    3.90
   1   3  -7   17.30    2.00
   1   3  -7   15.50    1.40
   1   3  -7   16.40    1.40
  -1  -3   7   16.70    1.60
  -1  -3   7   17.90    2.70
  -1  -3   7   15.70    1.50
   0   3  -7  358.26    9.90
   0   3  -7  354.36   10.60
   0  -3   7  366.76   10.10
   0  -3   7  360.96    9.90
  -1   3  -7  116.99    4.80
  -1   3  -7  123.79    4.40
   1  -3   7  123.59    4.40
   1  -3   7  115.59    4.20
  -2   3  -7  234.28    7.30
  -2   3  -7  236.88    8.30
   2  -3   7  216.68    7.00
  -3   3  -7    9.20    2.40
  -3   3  -7    8.10    2.00
  -3   3  -7    5.20    1.90
   3  -3   7    8.40    2.10
  -4   3  -7 1095.49   29.00
  -4   3  -7 1106.09   30.10
  -4   3  -7 1096.59   29.70
   4  -3   7 1086.39   29.00
  -5   3  -7  152.98    7.60
  -5   3  -7  162.38    7.50
  -5   3  -7  156.28    6.80
   5  -3   7  160.58    6.80
  -6   3  -7   31.90    4.10
  -6   3  -7   31.60    4.70
   6  -3   7   31.30    4.00
  -7   3  -7  111.49    6.50
  -7   3  -7  101.99    7.30
   7  -3   7  102.89    6.40
  -8   3  -7   44.50    6.10
  -8   3  -7   54.99    5.40
   8  -3   7   44.50    5.10
  -9   3  -7   48.90    6.30
  -9   3  -7   59.79    5.70
  11   2  -7   -3.70    3.40
 -11  -2   7    2.70    4.10
  10   2  -7    3.50    3.50
  10   2  -7   12.50    4.00
 -10  -2   7   19.40    4.90
   9   2  -7   24.00    4.40
   9   2  -7   16.60    3.50
  -9  -2   7   25.30    4.30
  -9  -2   7   18.00    4.40
   8   2  -7   15.70    3.30
   8   2  -7   19.60    4.80
  -8  -2   7   16.20    3.40
  -8  -2   7   18.30    4.00
   7   2  -7   76.39    5.00
   7   2  -7   73.89    4.60
  -7  -2   7   78.89    5.40
  -7  -2   7   89.49    5.00
   6   2  -7  322.27   10.00
  -6  -2   7  322.87   11.00
  -6  -2   7  321.27   10.20
   5   2  -7  846.42   22.50
  -5  -2   7  864.21   22.70
  -5  -2   7  858.51   23.50
   4   2  -7  258.37    8.20
   4   2  -7  248.28    7.70
  -4  -2   7  259.97    9.40
  -4  -2   7  251.57    7.90
   3   2  -7  429.06   11.80
   3   2  -7  438.76   12.40
  -3  -2   7  437.86   12.00
  -3  -2   7  431.46   12.00
   2   2  -7 1319.77   32.80
   2   2  -7 1315.77   33.30
  -2  -2   7 1286.67   32.90
  -2  -2   7 1283.27   32.80
  -2  -2   7 1299.67   33.70
   1   2  -7   17.90    2.00
   1   2  -7   15.60    1.60
  -1  -2   7   15.10    1.80
  -1  -2   7   17.70    1.60
   0   2  -7   27.50    2.40
   0   2  -7   33.50    2.10
   0  -2   7   32.30    2.00
   0  -2   7   28.80    2.10
  -1   2  -7  110.99    4.30
  -1   2  -7  111.69    4.60
   1  -2   7  109.89    4.10
   1  -2   7  104.09    4.30
  -2   2  -7  128.79    5.30
  -2   2  -7  122.49    4.90
  -2   2  -7  122.69    5.70
   2  -2   7  119.99    4.60
   2  -2   7  124.69    4.90
  -3   2  -7   -2.10    1.60
  -3   2  -7   -0.70    1.60
  -3   2  -7    0.80    1.90
   3  -2   7    1.20    1.60
  -4   2  -7    7.60    2.80
   4  -2   7    1.30    1.90
  -5   2  -7    8.20    2.70
  -5   2  -7    5.90    3.00
   5  -2   7    8.80    2.80
  -6   2  -7   54.69    6.50
  -6   2  -7   65.79    5.20
   6  -2   7   64.09    5.00
  -7   2  -7   18.80    4.70
  -7   2  -7   15.40    5.30
   7  -2   7   14.80    3.60
  -8   2  -7   20.90    4.10
  -8   2  -7   13.20    4.00
   8  -2   7   12.70    4.80
  -9   2  -7  123.59    7.80
  11   1  -7   54.19    6.10
  11   1  -7   57.49    7.80
 -11  -1   7   66.09    6.30
  10   1  -7   17.60    4.50
  10   1  -7   18.70    3.90
 -10  -1   7   21.90    4.60
 -10  -1   7   29.80    4.90
   9   1  -7  175.08    7.80
  -9  -1   7  163.98    8.50
  -9  -1   7  167.08    7.90
   8   1  -7  451.25   13.70
  -8  -1   7  427.96   14.50
   7   1  -7  416.76   12.80
  -7  -1   7  434.96   13.20
  -7  -1   7  430.56   13.80
   6   1  -7  356.36   10.90
  -6  -1   7  363.46   11.70
  -6  -1   7  354.66   11.00
   5   1  -7 1955.40   49.40
  -5  -1   7 1967.40   50.19
  -5  -1   7 1970.10   49.50
   4   1  -7   89.99    3.90
   4   1  -7   99.19    4.10
  -4  -1   7   86.69    3.90
  -4  -1   7   99.99    4.60
   3   1  -7   -0.70    1.00
   3   1  -7    1.50    1.20
  -3  -1   7    0.20    0.80
  -3  -1   7    1.20    1.10
  -3  -1   7   -0.10    1.10
   2   1  -7  700.83   18.60
   2   1  -7  691.53   18.30
  -2  -1   7  681.43   18.40
  -2  -1   7  697.53   18.40
  -2  -1   7  718.53   18.60
   1   1  -7 1945.71   48.30
   1   1  -7 1959.60   48.10
  -1  -1   7 1876.71   48.00
  -1  -1   7 1911.11   48.10
   0   1  -7  471.95   12.90
   0   1  -7  447.66   13.00
   0  -1   7  461.65   12.80
   0  -1   7  463.55   12.90
  -1   1  -7 1747.13   44.50
  -1   1  -7 1781.32   44.20
   1  -1   7 1709.73   44.00
   1  -1   7 1759.32   44.20
  -2   1  -7    7.80    2.30
  -2   1  -7    5.20    1.90
   2  -1   7    5.20    1.70
  -3   1  -7  423.56   12.70
  -3   1  -7  417.46   13.70
   3  -1   7  433.66   12.80
  -4   1  -7   12.90    3.20
  -4   1  -7   13.30    3.00
   4  -1   7    9.30    2.60
  -5   1  -7   12.80    3.50
  -5   1  -7    8.50    2.80
   5  -1   7   10.50    2.80
  -6   1  -7  542.15   17.00
  -6   1  -7  535.35   18.20
   6  -1   7  546.35   16.80
  -7   1  -7   19.40    4.90
  -7   1  -7   24.00    4.40
   7  -1   7   17.60    4.00
  -8   1  -7  133.79    7.90
  -8   1  -7  125.89   10.30
   8  -1   7  137.39    9.30
  -9   1  -7   75.59    7.70
  11   0  -7    3.50    3.50
  11   0  -7   -2.40    2.90
 -11   0   7    6.70    3.40
 -11   0   7    3.30    3.80
  10   0  -7  891.81   25.10
 -10   0   7  855.01   25.30
 -10   0   7  860.21   25.90
   9   0  -7   73.29    5.60
  -9   0   7   62.09    7.50
  -9   0   7   78.29    5.80
   8   0  -7  315.97   10.80
  -8   0   7  310.27   11.30
  -8   0   7  327.47   11.70
   7   0  -7  198.58    7.50
  -7   0   7  209.88    7.80
  -7   0   7  198.68    8.10
   6   0  -7  173.98    6.60
  -6   0   7  167.08    6.70
  -6   0   7  186.58    7.10
   5   0  -7   42.80    3.10
  -5   0   7   43.10    3.30
   4   0  -7  266.17    7.90
   4   0  -7  257.87    8.00
  -4   0   7  247.28    7.70
   3   0  -7  662.53   17.50
   3   0  -7  668.53   17.30
  -3   0   7  627.04   17.40
  -3   0   7  629.34   17.20
  -3   0   7  662.73   17.50
   2   0  -7  974.30   25.10
   2   0  -7  991.20   25.10
  -2   0   7  978.80   25.20
  -2   0   7  927.11   25.10
   1   0  -7  982.30   25.20
   1   0  -7  991.60   25.30
  -1   0   7  924.31   25.10
  -1   0   7  978.10   25.30
   0   0  -7 1147.49   29.30
   0   0  -7 1144.59   29.20
   0   0   7 1149.08   29.20
   0   0   7 1062.69   28.90
  -1   0  -7  685.93   18.50
  -1   0  -7  665.63   18.70
  -2   0  -7  251.27    8.50
  -2   0  -7  256.37    9.30
   2   0   7  250.87    8.50
  -3   0  -7   58.09    4.00
  -3   0  -7   53.59    4.50
   3   0   7   52.39    3.90
  -4   0  -7  953.10   27.70
  -4   0  -7  972.20   26.50
   4   0   7  978.80   26.50
  -5   0  -7  399.86   14.70
  -5   0  -7  396.96   13.20
   5   0   7  388.76   12.90
  -6   0  -7  143.79    8.40
  -6   0  -7  130.89    8.10
   6   0   7  140.09    7.20
  -7   0  -7  396.76   16.00
  -7   0  -7  439.66   15.10
   7   0   7  448.56   14.90
  -8   0  -7   18.10    4.60
   8   0   7   18.50    3.70
  11  -1  -7    9.40    4.50
 -11   1   7   17.80    4.10
 -11   1   7   15.70    4.80
  10  -1  -7   84.99    6.50
 -10   1   7   84.19    6.50
 -10   1   7   83.59    6.60
   9  -1  -7    0.90    3.60
  -9   1   7   -3.40    2.90
  -9   1   7   -1.20    3.00
   8  -1  -7    2.20    2.70
  -8   1   7    7.00    3.10
  -8   1   7    5.80    2.90
   7  -1  -7    9.20    2.70
  -7   1   7    8.60    2.80
  -7   1   7    9.90    2.80
   6  -1  -7    5.60    2.10
  -6   1   7    6.20    2.50
  -6   1   7    7.00    2.40
  -5   1   7  478.25   13.60
  -5   1   7  446.76   13.40
   4  -1  -7   37.50    2.30
   4  -1  -7   37.90    2.90
  -4   1   7   37.20    3.00
   3  -1  -7 2143.79   52.99
   3  -1  -7 2093.59   53.39
  -3   1   7 2156.78   53.49
   2  -1  -7  104.99    4.10
   2  -1  -7   97.59    4.30
  -2   1   7  103.79    4.40
   1  -1  -7  239.88    7.40
   1  -1  -7  232.48    7.60
  -1   1   7  228.98    7.60
   0  -1  -7  215.08    7.30
   0  -1  -7  205.08    7.20
   0   1   7  222.28    7.40
  -1  -1  -7   74.69    4.10
  -1  -1  -7   73.69    4.50
   1   1   7   79.49    4.10
  -2  -1  -7  342.27   11.80
  -2  -1  -7  348.57   11.00
   2   1   7  356.36   11.00
  -3  -1  -7  866.81   23.60
  -3  -1  -7  828.32   24.50
   3   1   7  867.81   23.50
  -4  -1  -7  146.69    7.80
  -4  -1  -7  157.08    7.00
   4   1   7  155.38    6.90
  -5  -1  -7  645.04   19.50
  -5  -1  -7  638.84   20.80
   5   1   7  670.93   20.30
  -6  -1  -7    0.30    3.20
  -6  -1  -7    6.10    3.10
   6   1   7    1.80    2.80
  -7  -1  -7  402.16   14.10
  -7  -1  -7  364.76   15.20
   7   1   7  387.86   13.90
  11  -2  -7    2.40    4.40
 -11   2   7    7.00    3.10
 -11   2   7   -0.40    3.50
  10  -2  -7  450.55   14.70
 -10   2   7  446.26   15.10
 -10   2   7  428.96   14.70
   9  -2  -7   57.09    5.30
  -9   2   7   57.79    5.10
  -9   2   7   56.59    5.50
   8  -2  -7    3.00    2.50
  -8   2   7    0.20    2.50
  -8   2   7   -0.20    2.60
   7  -2  -7   85.19    4.90
  -7   2   7   81.29    5.00
  -7   2   7   78.49    4.80
   6  -2  -7  246.58    8.60
  -6   2   7  258.17    8.80
   5  -2  -7  386.56   11.70
  -5   2   7  378.36   11.70
  -5   2   7  391.46   11.60
   4  -2  -7    2.00    1.10
   4  -2  -7    0.30    1.70
  -4   2   7    3.10    1.80
  -4   2   7    1.40    1.30
   3  -2  -7  607.04   16.70
   3  -2  -7  581.74   15.90
  -3   2   7  610.14   16.90
   2  -2  -7   -1.30    1.10
   2  -2  -7    0.80    1.40
  -2   2   7    2.10    1.60
   1  -2  -7  173.18    6.00
   1  -2  -7  168.08    6.20
  -1   2   7  168.68    6.30
  -1  -2  -7  664.23   19.10
  -1  -2  -7  657.13   18.50
   1   2   7  650.23   18.40
  -2  -2  -7   26.90    3.50
  -2  -2  -7   25.60    4.00
   2   2   7   25.80    3.30
  -3  -2  -7 1052.99   30.00
  -3  -2  -7 1077.69   29.00
   3   2   7 1074.79   28.90
  -4  -2  -7  197.38    9.30
  -4  -2  -7  204.28    8.40
   4   2   7  212.18    8.40
  -5  -2  -7  627.64   18.80
  -5  -2  -7  580.64   19.90
   5   2   7  619.14   18.80
  -6  -2  -7  343.37   14.40
  -6  -2  -7  361.96   13.20
   6   2   7  381.76   13.20
  -7  -2  -7    6.60    3.90
   7   2   7    6.80    3.70
  11  -3  -7   14.40    4.40
 -11   3   7   20.30    4.70
 -11   3   7   21.60    3.90
  10  -3  -7   28.90    4.50
 -10   3   7   30.00    4.90
 -10   3   7   31.60    4.90
   9  -3  -7    2.70    3.00
  -9   3   7    0.70    2.40
  -9   3   7    1.30    3.10
   8  -3  -7   89.89    6.00
  -8   3   7   86.09    5.60
  -8   3   7   71.39    5.00
   7  -3  -7    2.20    2.40
  -7   3   7   -1.00    2.20
  -7   3   7    3.80    2.50
   6  -3  -7  679.73   19.00
  -6   3   7  669.63   18.60
  -6   3   7  671.03   19.00
   5  -3  -7   11.60    2.50
  -5   3   7    9.20    2.30
  -5   3   7   10.50    2.20
   4  -3  -7 1899.11   48.00
  -4   3   7 1903.31   47.60
  -4   3   7 1855.41   48.00
   3  -3  -7  557.04   15.30
   3  -3  -7  580.34   16.40
  -3   3   7  602.74   17.30
   2  -3  -7 2034.80   50.89
   2  -3  -7 2034.10   51.59
   1  -3  -7 2864.31   70.29
   1  -3  -7 2781.22   70.79
   0  -3  -7  163.58    6.70
   0   3   7  168.68    6.60
  -1  -3  -7  138.99    6.60
  -1  -3  -7  132.39    6.10
   1   3   7  141.69    6.20
  -2  -3  -7    0.40    2.00
  -2  -3  -7    1.50    2.60
   2   3   7    1.20    2.10
  -3  -3  -7  242.18    9.10
  -3  -3  -7  227.38    9.90
   3   3   7  233.78    9.00
  -4  -3  -7   15.00    4.10
  -4  -3  -7   13.50    3.40
   4   3   7   16.40    3.50
  -5  -3  -7   29.80    5.20
  -5  -3  -7   31.80    4.60
   5   3   7   29.10    4.40
  -6  -3  -7    4.10    3.80
  -6  -3  -7    6.00    3.20
   6   3   7    5.70    3.40
  -7  -3  -7   17.40    4.20
  -7  -3  -7   23.90    6.20
   7   3   7   22.60    5.10
  11  -4  -7   -3.50    3.20
 -11   4   7   -0.50    3.80
  10  -4  -7   97.89    6.80
 -10   4   7   93.79    6.90
   9  -4  -7   50.69    5.20
  -9   4   7   40.90    4.30
  -9   4   7   42.80    5.30
   8  -4  -7  217.08    8.60
  -8   4   7  198.68    8.60
   7  -4  -7  590.94   17.10
  -7   4   7  559.34   16.30
  -7   4   7  580.34   17.10
   6  -4  -7 2101.89   53.89
  -6   4   7 2119.19   53.99
   5  -4  -7 1483.35   37.90
  -5   4   7 1445.36   37.80
  -5   4   7 1483.45   37.40
  -5   4   7 1407.36   37.10
   4  -4  -7 5950.10  147.79
  -4   4   7 6085.79  147.69
  -4   4   7 5987.00  147.79
   3  -4  -7   -0.80    2.10
  -3   4   7   -3.00    2.00
   2  -4  -7 1658.93   42.60
   2  -4  -7 1710.73   43.70
  -2   4   7 1711.93   43.60
   1  -4  -7  570.84   16.70
  -1   4   7  576.24   16.60
   0  -4  -7   86.19    4.90
   0  -4  -7   86.69    5.20
   0   4   7   89.89    4.90
  -1  -4  -7   17.40    3.10
  -1  -4  -7   13.50    3.30
   1   4   7   17.50    3.10
  -2  -4  -7  359.26   12.20
  -2  -4  -7  364.36   12.90
   2   4   7  371.66   12.20
  -3  -4  -7  111.19    7.00
   3   4   7  108.39    6.10
  -4  -4  -7  236.78   10.70
  -4  -4  -7  238.98    9.70
   4   4   7  229.88   10.20
  -5  -4  -7  102.69    6.70
  -5  -4  -7   95.29    7.40
   5   4   7  102.29    6.40
  -6  -4  -7    0.10    3.40
  -6  -4  -7    2.90    3.70
   6   4   7    1.00    2.90
   7   4   7   14.90    4.00
 -11   5   7  124.39    7.90
 -10   5   7   -6.80    3.30
   9  -5  -7  397.66   13.60
  -9   5   7  401.36   13.80
   8  -5  -7  100.49    6.10
  -8   5   7   98.09    7.20
   7  -5  -7  598.74   17.80
  -7   5   7  565.44   17.30
   6  -5  -7   46.00    4.30
  -6   5   7   48.60    4.50
  -6   5   7   48.60    4.10
   5  -5  -7  131.19    6.10
  -5   5   7  133.19    6.10
  -5   5   7  127.19    6.10
   4  -5  -7  260.27    9.00
  -4   5   7  246.78    8.90
  -4   5   7  252.47    9.00
   3  -5  -7   29.40    3.70
  -3   5   7   28.10    3.80
  -3   5   7   22.60    3.30
   2  -5  -7  873.41   24.00
   2  -5  -7  857.11   22.90
  -2   5   7  880.41   23.90
   1  -5  -7    7.20    2.30
  -1   5   7    7.30    2.60
   0  -5  -7  174.78    7.40
   0  -5  -7  175.98    7.50
   0   5   7  169.68    7.30
  -1  -5  -7  315.87   11.10
  -1  -5  -7  326.17   11.60
   1   5   7  311.37   11.00
  -2  -5  -7   52.59    5.30
  -2  -5  -7   59.19    5.50
   2   5   7   53.29    4.70
  -3  -5  -7  118.59    6.60
  -3  -5  -7  120.99    7.50
   3   5   7  122.29    6.60
  -4  -5  -7  135.29    7.30
  -4  -5  -7  126.79    8.10
   4   5   7  134.09    7.20
  -5  -5  -7   28.50    5.60
   5   5   7   37.10    4.70
   6   5   7   30.40    5.40
 -11   6   7   29.90    5.00
  10  -6  -7  150.58    8.00
 -10   6   7  124.09    7.70
   9  -6  -7   39.10    5.20
  -9   6   7   35.80    5.10
   8  -6  -7  351.56   12.30
   7  -6  -7  162.28    7.50
  -7   6   7  156.08    6.70
  -7   6   7  164.68    7.60
   6  -6  -7  439.16   14.20
  -6   6   7  442.16   13.90
  -6   6   7  424.46   13.50
   5  -6  -7  383.56   12.50
  -5   6   7  384.66   12.50
  -5   6   7  394.56   12.70
   4  -6  -7  216.48    8.40
  -4   6   7  226.58    8.40
  -4   6   7  221.48    8.60
   3  -6  -7    8.40    2.90
  -3   6   7   10.00    2.70
  -3   6   7    4.10    2.50
   2  -6  -7    9.30    2.80
   2  -6  -7    8.10    1.80
  -2   6   7    5.90    2.70
  -2   6   7    7.70    2.60
   1  -6  -7   -1.40    2.20
  -1   6   7    1.60    2.20
   0  -6  -7    7.50    2.70
   0   6   7   10.50    3.00
  -1  -6  -7   16.10    3.40
  -1  -6  -7   17.60    3.70
   1   6   7   14.10    3.20
  -2  -6  -7    7.20    2.80
   2   6   7    5.50    2.90
  -3  -6  -7   21.40    4.20
  -3  -6  -7   21.40    4.30
   3   6   7   21.90    3.90
  -4  -6  -7   27.80    5.00
  -4  -6  -7   28.30    4.40
   4   6   7   28.60    4.30
  -5  -6  -7    7.10    3.40
  -5  -6  -7    0.90    3.40
   5   6   7   15.70    3.20
   6   6   7   18.90    4.10
 -10   7   7   34.00    4.80
   9  -7  -7  160.78   12.00
  -9   7   7  189.88    8.80
   8  -7  -7  160.18    7.70
  -8   7   7  153.18    7.50
  -8   7   7  149.69    7.00
   7  -7  -7   35.70    4.50
  -7   7   7   36.60    4.40
  -7   7   7   35.70    4.60
   6  -7  -7  278.57   10.10
  -6   7   7  249.97    9.70
  -6   7   7  268.47    9.90
   5  -7  -7  930.31   26.40
  -5   7   7  993.30   27.00
  -5   7   7  944.71   26.30
   4  -7  -7  133.99    6.70
  -4   7   7  128.79    6.90
  -4   7   7  130.49    6.40
  -3   7   7  572.24   17.70
  -3   7   7  563.54   16.90
   2  -7  -7  925.41   29.70
  -2   7   7  942.61   26.60
  -2   7   7  904.41   25.60
   1  -7  -7   -4.50    2.30
  -1   7   7   -4.90    2.90
  -1   7   7   -4.40    2.40
   0  -7  -7   99.79    5.90
   0   7   7   86.89    5.60
  -1  -7  -7    2.70    2.80
  -1  -7  -7   -0.50    2.60
   1   7   7   -1.40    2.50
  -2  -7  -7   25.60    4.20
  -2  -7  -7   15.30    3.90
   2   7   7   31.10    4.00
  -3  -7  -7    4.40    2.90
  -3  -7  -7    3.90    3.50
   3   7   7    4.70    2.90
  -4  -7  -7   84.09    6.30
  -4  -7  -7   83.19    8.60
   4   7   7  101.49    6.40
 -10   8   7   -0.80    5.10
   9  -8  -7   35.90    4.90
  -9   8   7   49.80    5.60
   8  -8  -7    8.10    5.30
  -8   8   7    4.50    3.10
   7  -8  -7  138.79    7.10
  -7   8   7  136.19    6.90
  -7   8   7  132.99    7.10
   6  -8  -7   57.49    5.10
  -6   8   7   58.89    5.00
  -6   8   7   47.00    5.10
   5  -8  -7  416.16   14.00
  -5   8   7  444.36   14.70
  -5   8   7  439.66   13.90
   4  -8  -7    5.00    2.90
  -4   8   7    5.80    2.70
  -4   8   7    3.20    2.90
   3  -8  -7  196.28    8.40
  -3   8   7  204.08    9.50
  -3   8   7  193.38    8.10
   2  -8  -7  101.29    6.20
  -2   8   7  110.49    5.90
  -2   8   7  111.79    7.30
   1  -8  -7  170.18    7.90
  -1   8   7  174.18    7.70
  -1   8   7  179.78    9.10
   0  -8  -7  172.58    8.10
   0   8   7  182.68    7.80
   0   8   7  173.68    9.10
  -1  -8  -7   56.09    5.20
  -1  -8  -7   54.69    5.20
   1   8   7   75.89    5.10
  -2  -8  -7   45.10    5.40
  -3  -8  -7    3.70    3.20
  -3  -8  -7    9.80    3.70
   8  -9  -7   88.39    6.30
  -8   9   7   71.19    5.80
  -7   9   7   11.90    3.40
   6  -9  -7  233.98    9.40
  -6   9   7  223.28    9.10
  -6   9   7  222.28    9.80
   5  -9  -7    6.50    3.10
  -5   9   7    4.40    3.10
  -5   9   7   10.60    2.90
   4  -9  -7    5.10    2.90
  -4   9   7   13.40    3.10
  -4   9   7    3.80    3.30
   3  -9  -7    9.60    3.10
  -3   9   7   11.80    3.00
  -3   9   7    2.20    3.10
   2  -9  -7   10.50    3.20
  -2   9   7   17.40    3.10
  -2   9   7    7.10    3.30
   1  -9  -7    3.90    2.80
  -1   9   7   -3.60    3.00
  -1   9   7    7.80    2.50
   0  -9  -7   22.10    3.80
   0   9   7   26.20    4.70
  -1  -9  -7   56.79    5.10
  -2  -9  -7    9.10    3.30
  -2  -9  -7    8.30    3.90
   2   9   7   -0.30    3.40
  -3  -9  -7   17.70    3.80
  -8  10   7   45.90    5.60
   7 -10  -7    4.50    3.40
  -7  10   7   -2.50    2.80
   6 -10  -7    8.10    3.50
  -6  10   7    8.20    3.40
  -5  10   7   10.80    3.80
  -5  10   7   18.70    5.80
   4 -10  -7   27.80    4.80
  -4  10   7   24.00    4.70
  -4  10   7   24.40    3.70
   3 -10  -7    5.40    3.30
  -3  10   7    3.50    3.40
  -3  10   7   16.90    3.70
  -2  10   7    9.10    3.90
   1 -10  -7   30.00    4.40
   0 -10  -7   18.40    3.80
   0  10   7   11.70    4.10
  -2 -10  -7   21.10    4.30
  -7  11   7    6.00    3.70
  -6  11   7   12.50    3.90
  -5  11   7    0.70    3.50
   4 -11  -7   25.20    4.80
  -4  11   7   12.80    4.40
   3 -11  -7   54.69    5.50
  -3  11   7   33.70    5.50
  -2  11   7   64.79    6.90
   2  15  -8   -7.10    3.50
   1  15  -8   34.80    5.20
   0  15  -8    1.20    3.60
  -1  15  -8   42.30    5.90
  -4 -14   8   13.30    3.70
   3  14  -8    5.40    3.40
  -3 -14   8   12.20    3.50
   2  14  -8   -0.60    3.00
  -2 -14   8    4.90    2.90
   1  14  -8   94.39    7.30
  -1 -14   8   92.89    6.90
   0  14  -8  124.39    8.30
  -1  14  -8   78.69    7.20
  -4  14  -8   43.30    5.40
  -5 -13   8  162.98    9.60
   4  13  -8    3.60    3.60
  -4 -13   8   -1.80    2.90
   3  13  -8  566.34   18.00
  -3 -13   8  553.44   17.90
   2  13  -8  121.19    7.50
  -2 -13   8  124.59    6.70
   1  13  -8  317.67   12.40
  -1 -13   8  303.97   10.90
   0  13  -8  482.05   16.40
   0 -13   8  463.45   14.40
  -1  13  -8   14.10    4.00
  -2  13  -8   30.60    3.90
  -3  13  -8   46.70    5.20
  -4  13  -8   29.90    4.30
  -5  13  -8   12.30    3.00
   4  12  -8  101.89    6.40
  -4 -12   8   91.69    6.90
   3  12  -8   15.90    3.50
  -3 -12   8   19.30    4.00
   2  12  -8   90.79    6.50
  -2 -12   8   85.89    5.90
   1  12  -8  107.39    7.00
  -1 -12   8  117.99    6.10
   0  12  -8   61.89    6.00
   0 -12   8   57.39    4.30
  -1  12  -8  172.48    8.90
  -1  12  -8  168.78    7.80
  -2  12  -8    5.10    2.50
  -3  12  -8  126.39    6.40
  -4  12  -8    2.40    2.40
  -5  12  -8  149.59    8.20
  -6  12  -8   93.19    5.50
  -6 -11   8   49.99    6.50
   5  11  -8  111.99    6.10
  -5 -11   8  118.29    7.80
   4  11  -8  191.88    8.30
  -4 -11   8  193.58    9.10
   3  11  -8  576.14   18.00
  -3 -11   8  631.14   22.30
   2  11  -8   10.10    3.00
  -2 -11   8   10.10    3.00
   1  11  -8  240.08    9.80
  -1 -11   8  249.38    9.10
   0  11  -8  284.07   10.30
   0  11  -8  286.17   10.70
   0 -11   8  261.37    9.50
  -1  11  -8    5.90    2.50
   1 -11   8    7.90    2.30
  -2  11  -8    7.00    2.60
   2 -11   8    6.60    2.10
  -3  11  -8    0.00    2.10
  -4  11  -8   21.60    3.30
  -5  11  -8    2.50    2.30
  -6  11  -8  108.39    5.90
   7 -11   8    5.20    2.20
   7  10  -8  152.88    8.80
  -7 -10   8  141.29    9.20
   6  10  -8  107.89    7.50
  -6 -10   8  101.69    7.60
   5  10  -8  115.89    5.90
  -5 -10   8  107.99    7.40
   4  10  -8  237.78    9.00
  -4 -10   8  249.18   10.20
   3  10  -8   13.70    3.00
  -3 -10   8    8.90    3.20
   2  10  -8   74.59    5.20
  -2 -10   8   74.59    5.10
   1  10  -8   44.80    4.40
   1  10  -8   54.59    4.70
  -1 -10   8   49.10    4.10
   0  10  -8   25.40    3.40
   0  10  -8   24.60    3.60
   0 -10   8   24.20    3.20
  -1  10  -8    0.30    2.00
   1 -10   8   -0.50    1.90
  -2  10  -8    1.10    2.10
  -3  10  -8    6.50    2.50
  -4  10  -8   31.50    3.90
  -5  10  -8   27.50    3.70
   6 -10   8  243.98    8.50
  -7  10  -8    8.90    2.80
   7 -10   8    9.50    2.70
   8 -10   8   72.69    5.50
  -8  -9   8  168.48    7.40
   7   9  -8   12.30    3.90
  -7  -9   8   -4.20    3.80
  -7  -9   8    0.70    2.40
   6   9  -8  231.18   10.20
  -6  -9   8  215.88    7.50
  -6  -9   8  204.18   10.10
   5   9  -8  383.76   13.70
  -5  -9   8  386.66   13.90
   4   9  -8    3.80    2.30
   4   9  -8    5.40    3.20
  -4  -9   8    8.80    3.20
   3   9  -8  542.45   15.80
  -3  -9   8  537.55   16.70
   2   9  -8    4.50    2.50
   2   9  -8    4.70    2.30
  -2  -9   8    7.00    2.60
   1   9  -8  163.18    7.10
   1   9  -8  165.58    7.10
  -1  -9   8  165.48    6.90
   0   9  -8   34.00    3.70
   0  -9   8   33.40    3.40
  -1   9  -8   31.40    3.50
  -2   9  -8   -1.30    1.80
  -3   9  -8   25.10    3.40
  -4   9  -8  218.18    8.40
  -5   9  -8    2.40    2.30
   5  -9   8    2.00    1.90
  -6   9  -8  338.77   14.90
   6  -9   8  347.77   11.10
  -7   9  -8   31.90    4.30
   7  -9   8   42.70    4.20
  -8   9  -8   21.50    3.50
   8  -9   8   25.40    3.90
   8   8  -8   18.50    4.30
  -8  -8   8   14.90    4.60
  -8  -8   8   17.30    3.60
   7   8  -8   94.99    6.90
  -7  -8   8   88.49    7.20
  -7  -8   8  102.59    5.40
   6   8  -8   16.80    4.10
  -6  -8   8   14.10    4.00
  -6  -8   8   13.00    3.00
   5   8  -8  136.19    7.50
   4   8  -8   92.09    4.80
   4   8  -8  103.69    6.10
  -4  -8   8  102.69    6.20
   3   8  -8   35.40    4.10
   3   8  -8   35.50    4.00
   3   8  -8   28.00    3.40
  -3  -8   8   34.40    4.00
   2   8  -8  223.78    8.60
   2   8  -8  230.08    8.30
  -2  -8   8  230.08    8.60
   1   8  -8   47.10    3.80
  -1  -8   8   43.90    3.90
   0   8  -8  109.59    5.40
  -1   8  -8  780.22   21.80
  -2   8  -8  110.09    5.40
  -3   8  -8   93.59    5.20
  -4   8  -8  186.78    7.70
   4  -8   8  188.18    6.40
   4  -8   8  170.48    6.20
  -5   8  -8  197.18    8.00
  -5   8  -8  168.38    6.80
   5  -8   8  185.18    6.90
  -6   8  -8   19.70    4.00
   6  -8   8   20.70    3.10
  -7   8  -8   -0.30    2.60
   7  -8   8   -2.40    2.40
  -8   8  -8   60.19    5.40
   8  -8   8   66.39    5.40
  -9   8  -8   93.19    8.30
   9   7  -8   13.70    4.00
  -9  -7   8   11.30    4.80
  -9  -7   8   12.30    3.80
   8   7  -8   88.99    6.70
  -8  -7   8   84.39    7.30
  -8  -7   8   89.19    5.80
   7   7  -8    2.60    3.10
  -7  -7   8   -0.10    3.30
  -7  -7   8    4.90    2.70
   6   7  -8  291.77   11.10
   6   7  -8  278.67    9.30
  -6  -7   8  279.57   11.30
  -6  -7   8  291.77    9.30
   5   7  -8  471.35   14.80
  -5  -7   8  448.06   13.10
  -5  -7   8  480.55   15.30
   4   7  -8  227.08    8.70
  -4  -7   8  232.98    9.10
   3   7  -8  570.74   17.00
   3   7  -8  582.94   16.80
  -3  -7   8  577.04   17.20
   2   7  -8  274.67    9.60
  -2  -7   8  280.97    9.70
   1   7  -8  722.13   20.30
   0   7  -8   22.70    2.90
  -1   7  -8 1535.85   39.90
  -2   7  -8  149.69    6.40
  -3   7  -8  463.85   14.00
   3  -7   8  440.26   12.40
   3  -7   8  462.35   12.70
  -4   7  -8    0.80    2.20
   4  -7   8    0.40    1.70
   4  -7   8   -0.40    1.50
  -5   7  -8    6.50    2.70
  -5   7  -8   13.40    2.10
   5  -7   8   11.50    2.60
  -6   7  -8   57.19    4.20
  -6   7  -8   43.90    6.60
   6  -7   8   42.00    4.40
  -7   7  -8   17.90    3.70
   7  -7   8   15.60    3.40
  -8   7  -8   56.19    5.60
   8  -7   8   61.79    5.40
  -9   7  -8   10.90    3.80
   9   6  -8   17.10    4.40
  -9  -6   8   10.30    4.70
  -9  -6   8   10.60    4.30
   8   6  -8   59.19    5.70
  -8  -6   8   60.79    6.10
  -8  -6   8   59.89    4.90
   7   6  -8    1.40    3.20
   7   6  -8    0.20    2.10
  -7  -6   8   -2.50    3.00
   6   6  -8   -0.70    2.50
   6   6  -8    1.10    1.70
  -6  -6   8   -1.50    2.70
  -6  -6   8   -0.10    2.20
   5   6  -8   26.30    3.80
   5   6  -8   19.90    3.10
  -5  -6   8   21.90    2.40
  -5  -6   8   26.10    2.80
  -5  -6   8   19.10    3.60
   4   6  -8   42.50    3.80
   4   6  -8   42.90    3.90
  -4  -6   8   41.00    4.00
  -4  -6   8   47.60    3.00
  -4  -6   8   44.70    2.70
   3   6  -8    4.50    2.20
   3   6  -8    3.20    1.80
  -3  -6   8    3.20    2.20
   2   6  -8  194.68    6.80
   2   6  -8  193.38    7.30
   1   6  -8   89.39    4.60
   0   6  -8  628.84   17.80
  -1   6  -8  204.68    7.50
  -2   6  -8  712.53   19.60
  -2   6  -8  660.83   18.00
   2  -6   8  709.73   18.30
  -3   6  -8   14.10    3.10
  -3   6  -8   12.40    2.70
   3  -6   8   15.70    2.00
   3  -6   8   11.70    2.10
  -4   6  -8   80.19    4.10
  -4   6  -8   84.49    5.20
   4  -6   8   79.09    4.30
  -5   6  -8   31.10    3.30
  -5   6  -8   30.50    4.00
   5  -6   8   29.40    3.60
   6  -6   8  250.57    9.40
  -7   6  -8  279.07   10.40
  -7   6  -8  272.97   11.10
   7  -6   8  263.87   10.30
  -8   6  -8  252.77   11.00
   8  -6   8  261.57   10.60
  -9   6  -8  173.88    9.20
 -10  -5   8   -2.10    6.60
   9   5  -8    3.20    3.60
  -9  -5   8    5.00    3.80
  -9  -5   8    5.80    3.20
   8   5  -8   35.90    5.10
   8   5  -8   31.60    3.80
  -8  -5   8   27.20    5.00
   7   5  -8   56.59    7.00
   7   5  -8   52.19    3.80
  -7  -5   8   42.40    5.00
  -7  -5   8   46.20    4.40
   6   5  -8   35.70    4.10
   6   5  -8   29.00    3.00
  -6  -5   8   31.10    3.60
  -6  -5   8   30.60    4.40
  -6  -5   8   41.60    3.00
   5   5  -8  580.44   16.20
   5   5  -8  611.04   17.50
  -5  -5   8  626.64   18.30
  -5  -5   8  627.74   16.60
  -5  -5   8  585.24   16.60
   4   5  -8  288.07    9.30
   4   5  -8  292.77    9.70
   4   5  -8  276.77    8.20
  -4  -5   8  282.67    8.50
  -4  -5   8  278.57    9.90
  -4  -5   8  286.67    8.50
   3   5  -8  188.28    5.70
   3   5  -8  186.78    7.20
   3   5  -8  197.18    6.70
  -3  -5   8  191.98    6.00
  -3  -5   8  192.88    7.40
   2   5  -8  518.55   15.10
  -2  -5   8  527.05   13.70
  -2  -5   8  516.05   13.70
   1   5  -8   44.70    3.20
  -1  -5   8   42.50    2.20
   0   5  -8   18.20    2.50
   0  -5   8   15.30    1.40
   0  -5   8   16.80    1.70
  -1   5  -8    3.10    1.10
  -1   5  -8    3.40    1.70
   1  -5   8    2.20    1.00
   1  -5   8    2.80    1.40
  -2   5  -8  567.94   16.30
  -2   5  -8  588.44   17.20
   2  -5   8  560.04   15.30
   2  -5   8  531.65   15.00
  -3   5  -8  328.57   10.70
  -3   5  -8  307.47    9.60
   3  -5   8  315.97    9.70
  -4   5  -8 2043.10   50.89
  -4   5  -8 1983.30   49.80
   4  -5   8 2005.20   49.90
   4  -5   8 1813.42   50.29
  -5   5  -8  224.88    9.10
  -5   5  -8  221.58    8.20
   5  -5   8  221.28    8.30
  -6   5  -8 1125.59   31.60
  -6   5  -8 1120.19   30.60
   6  -5   8 1132.89   30.70
  -7   5  -8   31.30    5.10
  -7   5  -8   47.90    4.90
  -7   5  -8   36.10    5.10
   7  -5   8   31.50    4.40
  -8   5  -8  391.66   15.00
  -8   5  -8  406.46   13.70
  -8   5  -8  370.56   14.40
  -9   5  -8   36.20    5.50
  -9   5  -8   43.80    5.80
  10   4  -8   37.00    5.60
 -10  -4   8   32.30    4.80
 -10  -4   8   24.50    5.20
   9   4  -8   -4.30    2.60
   9   4  -8    1.40    3.10
  -9  -4   8   -3.10    3.50
   8   4  -8   10.40    3.00
   8   4  -8    7.10    3.40
  -8  -4   8    7.20    4.00
  -8  -4   8   10.10    3.50
   7   4  -8   23.80    3.20
   7   4  -8   29.90    4.10
  -7  -4   8   18.90    4.10
  -7  -4   8   29.10    3.80
   6   4  -8  141.59    5.70
   6   4  -8  153.78    6.60
  -6  -4   8  148.59    6.10
  -6  -4   8  139.89    7.00
   5   4  -8   28.00    3.30
   5   4  -8   30.70    2.60
  -5  -4   8   28.10    3.70
  -5  -4   8   28.30    3.10
   4   4  -8   23.40    2.90
   4   4  -8   17.60    2.60
   4   4  -8   15.60    2.00
  -4  -4   8   23.20    2.50
  -4  -4   8   21.40    3.10
   3   4  -8  262.97    8.20
   3   4  -8  267.27    8.90
   3   4  -8  270.57    7.70
  -3  -4   8  275.37    8.80
  -3  -4   8  263.87    7.90
   2   4  -8  117.59    4.00
  -2  -4   8  121.69    4.20
  -2  -4   8  120.99    4.20
   1   4  -8 1520.55   38.80
   1   4  -8 1569.84   41.10
  -1  -4   8 1555.54   38.90
  -1  -4   8 1586.04   39.00
   0   4  -8   22.80    1.80
   0   4  -8   29.70    3.40
   0  -4   8   26.40    2.10
   0  -4   8   21.70    1.70
  -1   4  -8 3606.04   87.69
  -1   4  -8 3340.77   87.09
   1  -4   8 3619.74   86.69
  -2   4  -8   58.49    3.90
  -2   4  -8   53.39    3.20
   2  -4   8   51.09    3.30
  -3   4  -8 2241.48   57.09
  -3   4  -8 2306.87   57.99
   3  -4   8 2271.97   57.19
  -4   4  -8  509.05   15.40
  -4   4  -8  489.75   14.40
   4  -4   8  472.95   14.40
  -5   4  -8  697.93   20.50
  -5   4  -8  680.33   19.40
  -5   4  -8  672.03   20.70
   5  -4   8  669.13   19.40
  -6   4  -8  111.09    7.20
  -6   4  -8  103.09    6.00
  -6   4  -8   98.69    6.70
   6  -4   8  118.49    6.30
  -7   4  -8  145.99    8.00
  -7   4  -8  142.09    8.50
  -7   4  -8  144.79    7.50
   7  -4   8  140.09    7.40
  -8   4  -8   12.40    3.90
  -8   4  -8   17.80    3.50
  -8   4  -8    4.60    3.20
   8  -4   8    8.00    3.50
  -9   4  -8   17.50    5.10
  10   3  -8    9.30    4.50
  10   3  -8    1.10    3.10
 -10  -3   8   -1.60    4.40
   9   3  -8  194.28    8.20
   9   3  -8  201.78    9.10
  -9  -3   8  208.68    9.10
  -9  -3   8  190.48    9.80
   8   3  -8  232.68    8.80
   8   3  -8  238.48    9.50
  -8  -3   8  237.08    9.20
  -8  -3   8  223.78   10.00
   7   3  -8  139.99    6.60
  -7  -3   8  125.69    7.00
  -7  -3   8  126.59    6.10
   6   3  -8  652.83   18.40
   6   3  -8  677.93   19.20
  -6  -3   8  681.83   20.00
  -6  -3   8  695.23   18.80
   5   3  -8 1779.12   45.20
   5   3  -8 1821.42   45.80
   5   3  -8 1767.32   46.00
  -5  -3   8 1819.92   45.50
  -5  -3   8 1795.92   46.70
   4   3  -8   28.00    2.40
   4   3  -8   26.60    2.90
   4   3  -8   31.30    2.70
  -4  -3   8   29.70    3.20
  -4  -3   8   29.10    2.70
   3   3  -8  435.16   11.90
   3   3  -8  445.46   12.80
  -3  -3   8  425.86   12.10
   2   3  -8  332.17   10.00
   2   3  -8  329.17    9.20
  -2  -3   8  300.27    9.50
  -2  -3   8  330.97    9.30
  -2  -3   8  322.07    9.30
   1   3  -8   53.79    3.20
   1   3  -8   52.09    2.60
  -1  -3   8   51.79    2.80
  -1  -3   8   53.49    2.60
   0   3  -8  466.15   13.60
   0   3  -8  448.86   12.60
   0  -3   8  461.95   12.80
   0  -3   8  461.05   12.60
  -1   3  -8  115.29    5.10
  -1   3  -8  115.79    4.50
   1  -3   8  109.89    4.30
   1  -3   8  115.59    4.70
  -2   3  -8 1485.55   38.50
  -2   3  -8 1503.95   37.90
   2  -3   8 1457.45   37.90
  -3   3  -8   40.10    3.30
  -3   3  -8   39.30    3.70
   3  -3   8   38.50    3.30
  -4   3  -8  627.84   18.20
  -4   3  -8  628.44   18.80
  -4   3  -8  639.64   19.30
   4  -3   8  636.54   18.10
  -5   3  -8   31.90    4.30
  -5   3  -8   28.40    4.40
  -5   3  -8   27.70    3.80
   5  -3   8   28.60    3.80
  -6   3  -8   13.70    3.60
  -6   3  -8   21.50    4.50
  -6   3  -8   22.40    3.70
   6  -3   8   14.50    3.50
  -7   3  -8    2.10    3.40
  -7   3  -8   -4.60    2.70
   7  -3   8   -1.30    2.50
  -8   3  -8   18.80    5.10
  -8   3  -8   31.00    4.60
   8  -3   8   22.70    4.00
  -9   3  -8  126.79    7.80
  11   2  -8   54.79    6.10
 -11  -2   8   60.49    6.60
  10   2  -8    0.90    3.00
  10   2  -8    4.10    3.50
 -10  -2   8    8.40    4.00
   9   2  -8  276.67   11.00
   9   2  -8  299.87   10.60
  -9  -2   8  285.97   11.80
  -9  -2   8  293.97   10.90
   8   2  -8  252.47    9.90
   8   2  -8  262.67    9.50
  -8  -2   8  272.87    9.90
   7   2  -8    1.80    2.40
   7   2  -8    2.50    2.20
  -7  -2   8    0.60    2.30
  -7  -2   8   -2.80    2.50
   6   2  -8  367.76   11.00
  -6  -2   8  356.36   11.20
  -6  -2   8  359.96   12.10
   5   2  -8  161.98    5.90
   5   2  -8  160.68    6.30
  -5  -2   8  167.28    6.20
  -5  -2   8  161.88    6.80
   4   2  -8  311.97    9.70
   4   2  -8  309.87    9.20
  -4  -2   8  315.27    9.40
  -4  -2   8  308.37   10.30
   3   2  -8   49.10    3.10
   3   2  -8   51.09    2.80
  -3  -2   8   49.50    2.80
   2   2  -8    0.60    1.00
   2   2  -8    0.00    1.20
  -2  -2   8   -0.10    0.90
  -2  -2   8    0.50    1.20
   1   2  -8   26.10    2.20
   1   2  -8   30.60    2.60
  -1  -2   8   28.40    2.30
  -1  -2   8   29.50    2.00
   0   2  -8  419.06   11.70
   0   2  -8  398.76   12.00
   0  -2   8  417.96   12.10
   0  -2   8  399.26   11.50
  -1   2  -8   64.79    3.70
  -1   2  -8   66.49    3.50
   1  -2   8   60.79    3.40
  -2   2  -8   77.99    4.40
  -2   2  -8   80.89    4.10
   2  -2   8   77.79    4.10
  -3   2  -8   39.10    3.30
  -3   2  -8   32.50    3.80
  -3   2  -8   36.60    4.00
   3  -2   8   42.90    3.50
  -4   2  -8  502.45   14.90
  -4   2  -8  485.55   15.50
  -4   2  -8  488.15   16.00
   4  -2   8  488.95   14.80
  -5   2  -8   -1.00    2.60
  -5   2  -8    0.00    2.30
  -6   2  -8   29.80    4.90
  -6   2  -8   32.10    4.30
   6  -2   8   28.70    4.10
  -7   2  -8   20.30    4.70
  -7   2  -8   11.90    3.70
   7  -2   8   19.10    4.00
  -8   2  -8    7.60    3.30
  -8   2  -8    2.40    3.70
   8  -2   8    3.40    3.20
  11   1  -8   -2.80    3.20
 -11  -1   8    4.30    3.50
  10   1  -8    3.30    3.20
  10   1  -8    2.00    3.50
 -10  -1   8    2.10    3.40
 -10  -1   8    5.70    3.40
   9   1  -8   22.70    4.10
  -9  -1   8   31.10    4.90
  -9  -1   8   25.10    4.30
   8   1  -8   73.59    5.00
  -8  -1   8   77.59    5.40
  -8  -1   8   72.69    5.60
   7   1  -8   10.00    2.60
  -7  -1   8    4.00    2.70
  -7  -1   8    6.10    2.70
  -6  -1   8  189.38    7.10
  -6  -1   8  178.68    7.60
   5   1  -8  109.29    4.70
   5   1  -8  103.49    4.60
  -5  -1   8  105.69    4.90
  -5  -1   8  101.69    5.30
   4   1  -8   74.69    3.70
   4   1  -8   72.09    3.60
  -4  -1   8   70.69    3.70
   3   1  -8  905.81   23.50
   3   1  -8  925.91   23.80
  -3  -1   8  857.01   23.60
  -3  -1   8  909.61   23.80
   2   1  -8   64.49    3.40
   2   1  -8   64.09    3.20
  -2  -1   8   62.49    3.10
  -2  -1   8   62.59    3.40
   1   1  -8    1.10    1.40
   1   1  -8    1.50    1.40
  -1  -1   8    2.20    1.10
  -1  -1   8    1.80    1.40
   0   1  -8  713.63   19.10
   0   1  -8  709.13   19.40
   0  -1   8  719.33   19.70
   0  -1   8  681.13   19.00
  -1   1  -8 1230.28   32.00
  -1   1  -8 1238.58   32.40
   1  -1   8 1231.18   32.10
  -2   1  -8   -1.10    1.70
  -2   1  -8    0.40    1.80
  -2   1  -8   -0.40    1.90
   2  -1   8    2.00    1.80
  -3   1  -8  711.53   19.70
  -3   1  -8  699.93   20.80
   3  -1   8  686.23   19.60
  -4   1  -8  315.37   12.10
  -4   1  -8  324.87   11.00
   4  -1   8  332.77   11.00
  -5   1  -8  138.79    7.90
  -5   1  -8  133.19    6.90
   5  -1   8  135.39    6.80
  -6   1  -8  191.68    9.90
  -6   1  -8  188.78   10.70
   6  -1   8  204.58    8.70
  -7   1  -8  109.39    6.90
  -7   1  -8  103.09    7.90
   7  -1   8  102.19    6.60
  -8   1  -8    6.80    4.30
   8  -1   8   10.50    3.80
  11   0  -8   -6.80    2.90
  11   0  -8   -2.70    3.20
 -11   0   8    2.30    4.40
  10   0  -8   30.40    4.90
 -10   0   8   34.80    5.00
 -10   0   8   35.20    5.00
  -9   0   8   54.19    5.40
  -9   0   8   44.90    5.30
   8   0  -8   40.40    4.40
  -8   0   8   37.00    4.60
  -8   0   8   44.90    4.80
   7   0  -8  372.26   11.80
  -7   0   8  381.36   12.50
  -7   0   8  378.76   12.00
   6   0  -8  244.38    8.30
  -6   0   8  241.08    8.50
  -6   0   8  246.38    8.90
   5   0  -8   33.50    2.70
   5   0  -8   29.20    3.00
  -5   0   8   33.80    3.20
  -5   0   8   33.20    3.30
   4   0  -8   55.39    3.40
   4   0  -8   60.79    3.20
  -4   0   8   56.59    3.50
   3   0  -8  280.17    8.60
   3   0  -8  283.27    8.80
  -3   0   8  276.67    8.80
   2   0  -8 1205.88   31.30
   2   0  -8 1215.08   31.20
   1   0  -8 4177.18  102.39
   1   0  -8 4120.39  102.29
  -1   0   8 4141.89  103.09
   0   0  -8  410.36   14.50
   0   0  -8  398.86   11.90
   0   0   8  386.26   11.90
  -1   0  -8 3672.53   92.09
  -1   0  -8 3727.83   91.89
   1   0   8 3697.33   91.89
  -2   0  -8   29.80    3.30
  -2   0  -8   25.80    3.70
   2   0   8   30.90    3.30
  -3   0  -8  822.32   22.90
  -3   0  -8  814.82   24.10
   3   0   8  829.32   22.90
  -4   0  -8  291.27   11.60
  -4   0  -8  282.97   10.40
   4   0   8  300.57   10.40
  -5   0  -8   60.69    5.90
  -5   0  -8   52.89    5.00
   5   0   8   53.09    4.90
  -6   0  -8  545.55   17.70
  -6   0  -8  536.35   19.10
   6   0   8  581.24   17.90
  -7   0  -8   45.90    5.40
   7   0   8   50.49    5.60
  -8   0  -8   52.09    6.00
 -11   1   8    1.10    3.70
 -11   1   8    6.50    3.20
  10  -1  -8  234.98    9.80
 -10   1   8  227.78   10.00
 -10   1   8  224.48    9.90
   9  -1  -8  341.67   11.80
  -9   1   8  332.47   11.90
  -9   1   8  320.07   12.90
   8  -1  -8   12.90    3.10
  -8   1   8   13.40    3.30
  -8   1   8   14.70    3.70
   7  -1  -8  975.60   26.80
  -7   1   8 1008.10   27.00
  -7   1   8  996.50   27.20
   6  -1  -8    1.40    2.00
  -6   1   8    0.20    2.00
  -6   1   8   -0.80    2.10
   5  -1  -8  883.01   23.40
   5  -1  -8  904.41   24.10
  -5   1   8  913.51   24.40
  -5   1   8  900.31   24.20
   4  -1  -8  165.88    5.60
   4  -1  -8  165.08    8.40
  -4   1   8  160.18    6.20
   3  -1  -8  536.35   14.70
   3  -1  -8  534.05   15.10
  -3   1   8  534.85   15.20
   2  -1  -8  103.09    4.60
   2  -1  -8  101.69    4.40
  -2   1   8  100.79    4.70
   1  -1  -8    0.40    1.40
   1  -1  -8   -0.30    1.70
  -1   1   8    1.70    1.70
   0  -1  -8  830.72   22.60
   0   1   8  827.92   22.60
  -1  -1  -8   23.80    3.10
   1   1   8   34.50    3.30
  -2  -1  -8  391.16   13.40
  -2  -1  -8  397.06   12.60
   2   1   8  408.66   12.60
  -3  -1  -8   32.80    3.80
  -3  -1  -8   37.10    4.80
   3   1   8   34.50    3.80
  -4  -1  -8  353.86   18.70
  -4  -1  -8  359.56   12.30
   4   1   8  365.06   12.30
  -5  -1  -8  211.98    9.20
  -5  -1  -8  209.18   10.30
   5   1   8  223.38    9.20
  -6  -1  -8  103.09    7.70
  -6  -1  -8  102.89    6.80
   6   1   8  107.99    6.70
  -7  -1  -8   54.19    6.50
   7   1   8   60.09    6.10
  11  -2  -8   12.30    4.00
 -11   2   8   24.20    4.30
 -11   2   8   18.90    4.70
  10  -2  -8  166.18    8.30
 -10   2   8  157.68    8.10
 -10   2   8  162.38    8.60
   9  -2  -8  125.09    6.90
  -9   2   8  117.09    6.60
  -9   2   8  140.19    7.30
   8  -2  -8  586.94   17.60
  -8   2   8  622.94   19.40
  -8   2   8  575.54   17.60
   7  -2  -8    1.50    2.20
  -7   2   8    1.70    2.20
  -7   2   8    1.30    2.30
   6  -2  -8  329.67   10.90
  -6   2   8  344.17   11.00
  -6   2   8  347.17   11.20
   5  -2  -8  646.14   18.40
  -5   2   8  671.93   18.60
   4  -2  -8  278.67    8.50
   4  -2  -8  292.67    9.40
  -4   2   8  287.37    9.40
   3  -2  -8    5.10    1.60
   3  -2  -8    2.30    1.80
  -3   2   8    3.80    1.90
   2  -2  -8  651.93   18.40
   2  -2  -8  655.43   17.90
  -2   2   8  668.43   18.50
   1  -2  -8 1073.79   29.00
   1  -2  -8 1131.99   28.80
  -1   2   8 1074.89   29.00
   0  -2  -8   25.50    3.10
   0  -2  -8   28.80    3.10
   0   2   8   23.80    3.10
  -1  -2  -8   32.80    3.50
  -1  -2  -8   31.10    3.90
   1   2   8   34.00    3.50
  -2  -2  -8   35.50    3.80
  -2  -2  -8   34.40    4.40
   2   2   8   34.60    3.70
  -3  -2  -8   46.10    4.30
  -3  -2  -8   39.60    5.00
   3   2   8   39.30    4.20
  -4  -2  -8    5.00    5.40
  -4  -2  -8   -0.50    3.00
  -5  -2  -8   39.00    5.00
  -5  -2  -8   42.10    6.30
   5   2   8   39.30    4.80
  -6  -2  -8   23.40    4.30
  -6  -2  -8   11.40    5.20
   6   2   8   16.70    3.90
  -7  -2  -8   59.69    5.90
   7   2   8   67.39    6.00
  11  -3  -8    2.90    3.60
 -11   3   8    5.70    3.40
 -11   3   8    5.60    4.00
  10  -3  -8   98.19    6.60
 -10   3   8   95.19    6.10
 -10   3   8   98.49    6.90
   9  -3  -8   61.29    5.40
  -9   3   8   53.59    5.60
  -9   3   8   59.19    4.90
   8  -3  -8  759.82   21.90
  -8   3   8  778.52   22.50
  -8   3   8  753.02   21.50
   7  -3  -8   15.30    3.10
  -7   3   8   10.60    2.90
  -7   3   8   11.70    3.20
   6  -3  -8  425.36   13.20
  -6   3   8  420.06   12.80
  -6   3   8  429.16   13.30
   5  -3  -8  270.17    9.50
  -5   3   8  281.87    8.80
  -5   3   8  284.07    9.70
   4  -3  -8    9.40    2.40
  -4   3   8    7.00    2.40
  -4   3   8    1.10    2.20
   3  -3  -8   12.20    2.60
   3  -3  -8   12.80    2.00
  -3   3   8   13.40    2.80
   2  -3  -8  204.28    7.00
   2  -3  -8  199.08    7.50
  -2   3   8  201.28    7.60
   1  -3  -8   31.90    3.60
   1  -3  -8   22.20    2.90
  -1   3   8   28.90    3.30
   0  -3  -8  123.09    5.80
   0   3   8  115.09    5.80
  -1  -3  -8   12.70    2.70
  -1  -3  -8   11.90    3.20
   1   3   8   10.00    2.70
  -2  -3  -8    3.40    2.30
  -2  -3  -8    3.80    2.80
   2   3   8    4.60    2.50
  -3  -3  -8   50.39    7.20
   3   3   8   52.69    4.70
  -4  -3  -8   45.40    5.20
  -4  -3  -8   46.00    5.70
   4   3   8   45.10    4.80
  -5  -3  -8  273.37   11.10
  -5  -3  -8  279.27   12.50
   5   3   8  280.47   11.10
  -6  -3  -8    2.80    3.60
  -6  -3  -8    7.30    4.10
   6   3   8    5.60    3.20
 -11   4   8  160.88    8.80
  10  -4  -8   13.50    3.80
 -10   4   8   17.50    4.40
   9  -4  -8  165.38    8.00
  -9   4   8  154.68    6.90
  -9   4   8  158.18    8.10
   8  -4  -8  235.58    9.40
  -8   4   8  233.48    9.50
  -7   4   8  135.29    6.00
  -7   4   8  148.29    7.00
   6  -4  -8  169.58    7.20
  -6   4   8  153.58    7.10
  -6   4   8  160.68    6.40
   5  -4  -8   43.70    4.30
  -5   4   8   56.99    4.00
  -5   4   8   48.00    4.30
   4  -4  -8   67.59    4.50
  -4   4   8   67.59    4.60
  -4   4   8   70.19    4.70
   3  -4  -8  568.44   16.70
  -3   4   8  566.44   16.60
   2  -4  -8  120.29    5.80
   2  -4  -8  110.59    4.90
  -2   4   8  107.69    5.70
   1  -4  -8  980.00   26.40
   1  -4  -8  954.70   25.60
  -1   4   8  939.41   26.10
   0  -4  -8  922.11   25.70
   0   4   8  930.31   25.70
  -1  -4  -8    4.40    2.60
  -1  -4  -8    6.40    3.00
   1   4   8    8.90    3.00
  -2  -4  -8  177.58    8.70
   2   4   8  186.68    8.00
  -3  -4  -8   68.09    6.10
  -3  -4  -8   74.29    5.40
   3   4   8   61.69    5.50
  -4  -4  -8   23.50    4.60
  -4  -4  -8   29.80    4.40
   4   4   8   27.40    4.30
  -5  -4  -8    3.30    3.70
   5   4   8    5.90    3.20
   6   4   8   86.99    6.30
 -11   5   8  135.09    9.90
  10  -5  -8  226.18   10.00
 -10   5   8  219.68   10.10
   9  -5  -8   67.39    6.10
  -9   5   8   71.39    6.20
   8  -5  -8  120.79    6.70
  -8   5   8  129.99    7.10
   7  -5  -8    6.20    3.00
  -7   5   8    3.70    3.00
  -6   5   8   -2.40    2.50
  -6   5   8    2.00    2.00
   5  -5  -8   45.60    4.30
  -5   5   8   39.30    4.20
  -5   5   8   50.79    4.30
   4  -5  -8   -0.10    2.20
  -4   5   8    1.40    2.40
  -4   5   8    2.80    2.30
   3  -5  -8  221.98    8.50
  -3   5   8  226.68    8.80
  -3   5   8  217.98    8.40
   2  -5  -8  111.69    4.90
   2  -5  -8  108.19    5.70
  -2   5   8  107.89    5.80
   1  -5  -8    2.30    2.40
   1  -5  -8    1.10    1.80
  -1   5   8    0.70    2.30
   0  -5  -8   34.90    4.00
   0   5   8   35.30    4.20
  -1  -5  -8   79.99    5.50
  -1  -5  -8   80.49    5.80
   1   5   8   79.39    5.40
  -2  -5  -8   35.80    5.10
  -2  -5  -8   44.40    4.60
   2   5   8   45.50    4.60
  -3  -5  -8   39.60    5.10
  -3  -5  -8   41.20    5.50
   3   5   8   35.70    4.40
  -4  -5  -8   48.70    5.50
  -4  -5  -8   53.09    6.30
   4   5   8   53.19    5.50
  -5  -5  -8   82.19    6.50
  -5  -5  -8   76.29    7.40
   5   5   8   86.39    6.20
   6   5   8    7.30    3.90
  10  -6  -8   34.90    5.50
 -10   6   8   28.70    5.60
   9  -6  -8    2.50    3.50
  -9   6   8   -6.50    3.00
   8  -6  -8    2.20    3.10
  -8   6   8    6.80    3.40
   7  -6  -8    0.00    3.00
  -7   6   8   -1.00    2.90
  -7   6   8    2.00    2.40
   6  -6  -8  254.27    9.90
  -6   6   8  269.27   10.00
  -6   6   8  258.37    9.50
   5  -6  -8   38.00    4.50
  -5   6   8   43.30    4.50
  -5   6   8   49.00    4.70
  -4   6   8    4.70    2.60
  -4   6   8    0.70    2.50
   3  -6  -8   37.80    4.30
  -3   6   8   36.10    4.60
  -3   6   8   31.80    3.90
   2  -6  -8   68.69    7.70
   2  -6  -8   65.49    4.00
  -2   6   8   68.79    5.00
   1  -6  -8  127.29    6.40
   1  -6  -8  109.49    5.50
  -1   6   8  119.79    6.30
   0  -6  -8    7.30    2.90
   0   6   8    6.20    2.80
  -1  -6  -8   -0.50    2.80
  -1  -6  -8    1.20    2.70
   1   6   8    5.00    3.10
  -2  -6  -8    5.50    2.80
  -2  -6  -8    2.80    3.00
  -3  -6  -8    4.00    3.10
  -3  -6  -8    2.30    3.20
   3   6   8    3.70    3.20
  -4  -6  -8   -1.10    3.10
  -4  -6  -8    1.80    3.50
   4   6   8    7.10    3.00
   5   6   8   14.50    3.50
 -10   7   8    2.70    4.90
   9  -7  -8  230.38    9.90
  -9   7   8  234.28   10.00
   8  -7  -8    2.30    3.10
  -8   7   8    6.80    3.50
   7  -7  -8  406.16   13.70
  -7   7   8  424.36   16.20
  -7   7   8  389.76   13.10
   6  -7  -8   79.69    5.80
  -6   7   8   84.29    5.80
  -6   7   8   75.09    5.50
   5  -7  -8  140.19    7.20
  -5   7   8  137.99    7.40
  -5   7   8  147.59    7.10
   4  -7  -8  289.97   10.80
  -4   7   8  308.57   11.30
  -4   7   8  298.97   10.70
   3  -7  -8   -2.80    2.50
  -3   7   8    0.60    2.90
  -3   7   8   -3.60    2.50
   2  -7  -8  147.19    7.30
  -2   7   8  148.59    8.00
  -2   7   8  146.99    7.10
   1  -7  -8   90.89    5.80
   1  -7  -8   85.59    5.00
  -1   7   8   81.69    5.50
   0  -7  -8   27.20    4.20
   0   7   8   29.20    4.10
  -1  -7  -8   19.10    3.90
   1   7   8   23.80    3.90
  -2  -7  -8    5.00    3.00
  -2  -7  -8    5.70    3.20
   2   7   8    6.00    2.90
  -3  -7  -8  208.08    9.60
  -3  -7  -8  209.48   10.60
   3   7   8  222.98    9.40
  -9   8   8    3.00    3.70
   8  -8  -8    1.60    3.10
  -8   8   8    2.20    3.10
   7  -8  -8    7.90    3.20
  -7   8   8    1.50    4.30
  -7   8   8    7.70    3.00
   6  -8  -8   21.80    4.00
  -6   8   8   20.90    3.80
  -6   8   8   26.10    4.20
   5  -8  -8   85.59    5.90
  -5   8   8   80.19    6.40
  -5   8   8   87.39    5.70
   4  -8  -8   41.40    4.60
  -4   8   8   41.90    4.50
  -4   8   8   48.90    5.30
   3  -8  -8   86.39    6.00
  -3   8   8   90.39    5.70
  -3   8   8   84.99    6.60
   2  -8  -8   39.20    4.80
  -2   8   8   31.60    4.70
  -2   8   8   44.40    4.50
   1  -8  -8  109.99    5.80
   1  -8  -8  123.19    6.80
  -1   8   8  121.89    7.80
  -1   8   8  129.69    6.70
   0  -8  -8    4.10    2.90
   0   8   8    6.70    2.80
   0   8   8    1.10    3.20
   1   8   8  163.58    7.60
  -2  -8  -8   85.89    6.70
  -2  -8  -8   75.19    6.00
   2   8   8   94.59    6.00
  -3  -8  -8    2.80    3.00
  -8   9   8    0.30    3.80
   7  -9  -8   15.10    3.90
  -7   9   8   19.60    3.90
  -7   9   8   20.90    3.70
   6  -9  -8   65.19    5.70
  -6   9   8   70.09    5.30
  -6   9   8   50.19    5.80
   5  -9  -8   44.50    5.10
  -5   9   8   49.00    5.00
  -5   9   8   36.80    5.00
   4  -9  -8  127.09    7.00
  -4   9   8  144.09    6.90
  -4   9   8  134.49    8.10
   3  -9  -8   34.30    4.60
  -3   9   8   40.40    4.30
  -3   9   8   23.50    4.40
   2  -9  -8   71.59    5.60
  -2   9   8   73.49    6.80
  -2   9   8   78.59    5.20
   1  -9  -8   18.70    4.00
   1  -9  -8   23.60    6.80
  -1   9   8   13.10    4.00
   0  -9  -8   38.90    4.70
   0   9   8   57.79    7.30
   0   9   8   28.70    5.00
   1   9   8   11.60    4.10
  -7  10   8   79.49    6.60
  -6  10   8   11.60    3.50
   5 -10  -8   28.10    4.40
  -5  10   8   12.90    4.00
   4 -10  -8   12.50    3.30
  -4  10   8   11.30    4.00
   3 -10  -8   14.20    3.50
   2 -10  -8    9.40    3.30
  -2  10   8    6.70    3.80
  -1  10   8   -3.70    3.20
  -6  11   8    7.00    4.20
  -5  11   8   18.00    4.90
   2  15  -9   69.59    6.80
   1  15  -9    3.90    3.50
   0  15  -9    3.40    3.60
  -4 -14   9  115.89    8.50
   3  14  -9   14.90    3.30
  -3 -14   9   26.50    4.10
   2  14  -9   51.59    5.70
  -2 -14   9   45.20    4.80
   1  14  -9    8.50    3.50
  -1 -14   9   11.50    3.10
   0  14  -9   -1.60    2.90
  -3  14  -9    9.60    3.20
  -5 -13   9   12.80    6.80
  -4 -13   9   13.20    6.00
   3  13  -9    2.80    3.20
  -3 -13   9   12.00    3.60
   2  13  -9    9.50    3.50
  -2 -13   9   11.90    3.40
   1  13  -9   75.89    6.50
   0 -13   9   -1.00    2.20
  -1  13  -9  245.98   10.00
  -2  13  -9  161.08    7.70
  -3  13  -9   38.40    4.60
  -4  13  -9  103.79    6.10
  -5 -12   9   54.89    7.40
   4  12  -9  237.78    9.60
  -4 -12   9  262.37   11.10
   3  12  -9    3.10    2.70
  -3 -12   9    3.60    3.10
   2  12  -9   23.20    3.70
  -2 -12   9   24.50    3.90
   1  12  -9   -2.70    2.50
  -1 -12   9    5.70    2.60
   0  12  -9   10.20    3.00
   0 -12   9   10.60    2.80
  -1  12  -9   39.40    4.50
   1 -12   9   26.80    3.50
  -2  12  -9   42.70    4.50
  -3  12  -9    1.40    2.40
  -4  12  -9   25.10    3.70
  -5  12  -9   44.00    4.40
  -6 -11   9  159.18    9.40
  -5 -11   9   57.79    6.30
   4  11  -9   39.30    4.40
  -4 -11   9   40.80    5.30
   3  11  -9   15.80    3.30
  -3 -11   9   23.40    4.10
   2  11  -9    1.00    2.50
  -2 -11   9    5.20    2.70
   1  11  -9    5.00    2.90
  -1 -11   9    2.30    2.40
   0  11  -9   11.70    3.50
   0 -11   9   15.00    2.80
  -1  11  -9   38.30    4.30
   1 -11   9   37.30    3.90
  -2  11  -9  116.09    6.40
   2 -11   9  113.19    5.70
  -3  11  -9    9.30    2.70
  -4  11  -9   94.29    8.20
  -5  11  -9  172.38    7.90
  -6  11  -9    2.60    2.60
   7  10  -9   31.80    5.80
  -7 -10   9   23.40    5.20
   6  10  -9   10.90    4.30
  -6 -10   9   11.40    4.30
  -5 -10   9   -0.10    3.20
   4  10  -9  125.39    6.20
  -4 -10   9  137.09    7.60
   3  10  -9   30.90    4.10
  -3 -10   9   33.10    4.30
  -2 -10   9   99.49    5.90
   1  10  -9   52.69    4.70
  -1 -10   9   56.89    4.60
   0  10  -9  202.18    8.40
   0 -10   9  202.18    8.00
  -1  10  -9   97.49    5.60
  -2  10  -9  349.67   11.90
  -3  10  -9   66.79    4.90
  -4  10  -9   33.50    4.00
  -5  10  -9    9.50    2.90
  -6  10  -9   15.70    3.10
   6 -10   9   12.70    2.50
  -7  10  -9   -1.30    2.40
  -8  -9   9   69.99    5.10
   7   9  -9  158.98    9.70
  -7  -9   9  143.39    6.30
   6   9  -9  230.68   10.30
  -6  -9   9  218.48   10.40
   5   9  -9   35.40    5.00
  -5  -9   9   19.20    4.40
   4   9  -9  183.68    8.30
  -3  -9   9  221.38    9.10
   2   9  -9    8.10    2.50
  -2  -9   9    9.30    2.90
   1   9  -9  544.15   16.80
  -1  -9   9  556.94   16.70
   0   9  -9   42.90    3.90
  -1   9  -9    1.60    2.10
  -2   9  -9   30.20    3.60
  -3   9  -9    3.80    2.30
  -4   9  -9   28.70    3.80
  -5   9  -9   62.69    5.90
   5  -9   9   62.69    3.90
  -6   9  -9    6.60    2.90
   6  -9   9    2.60    2.20
  -7   9  -9   16.10    3.60
   7  -9   9   12.10    3.60
   8   8  -9    2.80    3.90
  -8  -8   9    8.70    3.40
  -8  -8   9    9.90    4.40
   7   8  -9  168.18    8.70
  -7  -8   9  174.28    7.00
  -7  -8   9  156.18    9.00
   6   8  -9   45.40    5.30
  -6  -8   9   35.80    5.20
  -6  -8   9   35.40    3.60
   5   8  -9  129.89    7.10
  -5  -8   9  121.19    7.10
   4   8  -9  230.38    9.30
  -4  -8   9  241.98    9.70
   3   8  -9  629.14   19.00
  -3  -8   9  650.03   19.20
   2   8  -9    2.60    2.10
  -2  -8   9    5.70    2.60
   1   8  -9  703.83   20.30
   0   8  -9   55.59    4.10
  -1   8  -9   44.30    3.90
  -2   8  -9   34.00    3.60
  -3   8  -9   48.80    4.20
  -4   8  -9    9.00    2.70
   4  -8   9   13.40    2.20
   5  -8   9   49.70    3.80
  -6   8  -9   69.39    5.50
   6  -8   9   72.09    4.70
  -7   8  -9   45.40    4.90
   7  -8   9   42.30    4.50
   9   7  -9   11.30    3.80
  -9  -7   9    8.40    3.30
  -9  -7   9    2.60    6.70
   8   7  -9   54.89    5.90
  -8  -7   9   55.19    5.00
  -8  -7   9   45.50    6.30
   7   7  -9   38.70    5.20
  -7  -7   9   29.50    4.90
   6   7  -9  304.07   11.60
  -6  -7   9  316.07   12.10
   5   7  -9  324.67   11.40
  -5  -7   9  334.97   10.00
  -5  -7   9  321.07   12.00
   4   7  -9  199.78    8.20
   4   7  -9  187.08    7.80
  -4  -7   9  202.58    8.50
   3   7  -9  407.26   13.00
   3   7  -9  397.06   12.50
  -3  -7   9  414.86   13.30
   2   7  -9   50.79    3.90
  -2  -7   9   47.30    4.10
   1   7  -9  337.87   11.10
   0   7  -9  247.78    8.90
  -1   7  -9  170.48    7.00
  -2   7  -9  414.16   13.10
  -3   7  -9  264.07    8.30
  -3   7  -9  296.67   10.20
   3  -7   9  277.17    8.50
   3  -7   9  289.07    8.70
  -4   7  -9   50.29    4.50
  -4   7  -9   47.50    3.10
   4  -7   9   46.10    3.50
  -5   7  -9  543.45   19.80
  -5   7  -9  559.84   15.80
   5  -7   9  541.85   16.10
  -6   7  -9   18.10    3.90
   6  -7   9   18.10    3.20
  -7   7  -9   12.60    3.50
   7  -7   9   10.60    3.30
   8  -7   9    5.90    5.60
   9   6  -9  154.78    8.70
  -9  -6   9  171.38    7.90
  -9  -6   9  145.79    9.00
   8   6  -9  215.18    9.60
  -8  -6   9  190.88    9.80
   7   6  -9   36.10    4.90
   7   6  -9   31.30    4.00
  -7  -6   9   33.80    4.90
  -7  -6   9   32.30    3.90
   6   6  -9  248.08    9.70
   6   6  -9  253.07    8.20
  -6  -6   9  266.47    8.70
  -6  -6   9  261.77   10.80
   5   6  -9   69.19    4.90
  -5  -6   9   77.99    5.50
  -5  -6   9   78.79    4.10
  -5  -6   9   76.59    3.70
   4   6  -9   59.39    4.40
   4   6  -9   53.09    2.70
   4   6  -9   53.59    4.10
  -4  -6   9   65.99    4.80
  -4  -6   9   66.69    3.50
  -4  -6   9   64.99    3.10
   3   6  -9    9.40    2.30
  -3  -6   9   13.10    2.80
  -3  -6   9   11.50    1.90
   2   6  -9    1.30    1.80
   1   6  -9   56.09    3.90
   0   6  -9  345.77   11.10
  -1   6  -9   18.00    2.80
   1  -6   9   17.70    2.10
  -2   6  -9  784.22   21.80
  -2   6  -9  745.13   20.20
   2  -6   9  816.52   20.60
   2  -6   9  747.43   20.20
  -3   6  -9   51.09    4.50
  -3   6  -9   56.29    3.20
   3  -6   9   56.89    3.50
  -4   6  -9  629.64   18.40
  -4   6  -9  581.74   16.80
   4  -6   9  604.54   17.20
  -5   6  -9   29.40    6.80
  -5   6  -9   35.50    3.70
   5  -6   9   32.30    3.70
  -6   6  -9  728.03   20.90
  -6   6  -9  742.23   22.30
   6  -6   9  720.23   21.10
  -7   6  -9   19.40    4.20
  -7   6  -9   29.50    4.60
   7  -6   9   18.30    3.80
  -8   6  -9  214.48   10.40
   9   5  -9   40.40    5.80
  -9  -5   9   26.70    5.20
   8   5  -9   -0.80    2.30
   8   5  -9   -0.10    3.20
  -8  -5   9    0.30    2.80
  -8  -5   9    4.00    3.40
   7   5  -9   42.90    5.20
   7   5  -9   43.10    3.60
  -7  -5   9   45.40    4.20
  -7  -5   9   44.40    5.20
   6   5  -9  527.65   15.10
   6   5  -9  554.14   16.50
  -6  -5   9  527.05   17.10
  -6  -5   9  556.34   15.60
   5   5  -9    0.00    1.40
   5   5  -9   -1.50    2.10
  -5  -5   9    1.40    1.30
  -5  -5   9   -2.20    1.80
  -5  -5   9   -1.10    2.40
   4   5  -9  465.05   14.20
   4   5  -9  461.85   13.60
   4   5  -9  460.55   13.60
  -4  -5   9  485.55   13.00
  -4  -5   9  445.16   12.90
  -4  -5   9  465.75   14.70
   3   5  -9   47.50    3.70
   3   5  -9   52.29    2.60
  -3  -5   9   57.69    3.10
  -3  -5   9   50.19    2.80
   2   5  -9  434.06   13.50
   2   5  -9  446.56   11.90
  -2  -5   9  475.45   12.60
  -2  -5   9  425.26   12.10
   1   5  -9  647.54   18.20
  -1  -5   9  624.64   16.70
   0   5  -9 2142.39   55.09
   0   5  -9 2272.27   56.69
   0  -5   9 2197.68   55.29
   0  -5   9 2306.17   55.39
  -1   5  -9  650.43   17.40
  -1   5  -9  664.33   18.80
   1  -5   9  679.43   17.70
   1  -5   9  642.74   17.40
  -2   5  -9 1500.55   38.30
  -2   5  -9 1427.46   37.00
   2  -5   9 1383.26   36.90
   2  -5   9 1507.45   37.20
  -3   5  -9  510.45   14.50
  -3   5  -9  529.25   15.80
   3  -5   9  489.65   14.30
   3  -5   9  521.35   14.70
  -4   5  -9  215.78    7.70
  -4   5  -9  210.88    8.70
   4  -5   9  211.28    7.80
  -5   5  -9  125.09   10.10
   5  -5   9  112.69    5.90
  -6   5  -9    1.80    2.70
  -6   5  -9    1.40    3.10
   6  -5   9    8.00    2.90
  -7   5  -9   11.00    3.70
  -7   5  -9    9.00    3.10
   7  -5   9    3.20    3.10
  -8   5  -9   43.30    5.80
  -8   5  -9   46.80    5.60
  10   4  -9    5.50    3.30
 -10  -4   9    3.40    3.90
   9   4  -9  296.37   12.00
   9   4  -9  323.57   11.00
  -9  -4   9  320.27   11.60
  -9  -4   9  301.07   12.80
   8   4  -9  215.68    8.20
   8   4  -9  207.58    9.20
  -8  -4   9  223.98    8.70
  -8  -4   9  199.08    9.50
   7   4  -9   26.00    4.20
   7   4  -9   21.70    3.10
  -7  -4   9   24.60    4.00
  -7  -4   9   23.30    4.30
   6   4  -9  220.58    7.60
   6   4  -9  225.78    8.50
  -6  -4   9  230.68    8.10
  -6  -4   9  222.48    9.20
   5   4  -9   -0.30    2.10
   5   4  -9    1.60    1.60
   5   4  -9    1.70    2.20
  -5  -4   9   -2.50    2.30
  -5  -4   9    4.30    1.40
  -5  -4   9    2.50    1.90
   4   4  -9  268.17    8.70
   4   4  -9  270.97    8.20
   4   4  -9  272.27    9.40
  -4  -4   9  281.97    8.60
  -4  -4   9  271.77    9.80
   3   4  -9 1067.59   28.40
   3   4  -9 1063.59   27.10
  -3  -4   9 1083.39   27.30
  -3  -4   9 1035.80   27.40
   2   4  -9 1895.21   48.10
   2   4  -9 1847.42   47.20
  -2  -4   9 1883.11   47.00
  -2  -4   9 1888.81   47.00
   1   4  -9 2446.96   61.19
   1   4  -9 2381.46   60.39
  -1  -4   9 2520.05   60.29
  -1  -4   9 2334.27   59.99
   0   4  -9 1793.52   46.10
   0   4  -9 1773.12   44.90
   0  -4   9 1845.62   45.20
   0  -4   9 1765.32   45.00
  -1   4  -9 1589.54   40.20
  -1   4  -9 1578.64   41.10
   1  -4   9 1593.04   40.30
  -2   4  -9  314.07   10.50
  -2   4  -9  303.17    9.50
   2  -4   9  303.57    9.60
  -3   4  -9  303.07   10.60
  -3   4  -9  305.57    9.80
   3  -4   9  301.07    9.80
  -4   4  -9   71.89    5.20
  -4   4  -9   67.29    4.40
   4  -4   9   74.49    4.50
  -5   4  -9   38.30    4.20
  -5   4  -9   43.00    4.80
   5  -4   9   49.20    4.30
  -6   4  -9  406.76   14.70
  -6   4  -9  424.36   13.80
  -6   4  -9  416.36   15.30
   6  -4   9  410.36   13.80
  -7   4  -9   39.00    5.30
  -7   4  -9   35.60    5.40
   7  -4   9   25.60    4.30
  -8   4  -9  151.38    8.90
  -8   4  -9  158.48    9.30
  10   3  -9   44.10    5.00
  10   3  -9   45.00    5.60
 -10  -3   9   36.30    6.90
 -10  -3   9   44.50    5.60
   9   3  -9   52.99    5.60
   9   3  -9   54.79    4.80
  -9  -3   9   50.19    6.00
  -9  -3   9   56.99    5.40
   8   3  -9  393.76   13.50
   8   3  -9  411.76   12.80
  -8  -3   9  383.06   14.20
  -8  -3   9  418.06   13.20
   7   3  -9   45.60    4.60
   7   3  -9   52.89    4.00
  -7  -3   9   56.39    6.80
  -7  -3   9   49.70    5.00
   6   3  -9 1044.10   27.70
   6   3  -9 1059.89   28.30
  -6  -3   9 1041.50   27.90
  -6  -3   9 1063.09   29.30
   5   3  -9    6.80    2.10
   5   3  -9    8.20    2.40
   5   3  -9    7.20    2.30
  -5  -3   9    7.70    2.70
  -5  -3   9    7.10    2.30
   4   3  -9  371.36   10.80
   4   3  -9  370.36   10.90
   4   3  -9  374.76   11.70
  -4  -3   9  375.46   11.00
  -4  -3   9  382.56   12.30
   3   3  -9  410.26   12.30
   3   3  -9  404.76   11.40
  -3  -3   9  400.26   11.60
   2   3  -9 1344.97   34.00
   2   3  -9 1351.96   34.90
  -2  -3   9 1329.17   34.20
   1   3  -9 1172.98   30.10
   1   3  -9 1204.38   31.10
  -1  -3   9 1129.09   32.10
  -1  -3   9 1207.28   30.30
   0   3  -9 3830.52   96.39
   0   3  -9 3845.32   95.59
   0  -3   9 3960.90   95.79
  -1   3  -9   32.60    3.30
  -1   3  -9   34.60    2.80
   1  -3   9   35.30    3.00
  -2   3  -9  708.93   20.40
  -2   3  -9  723.43   19.80
   2  -3   9  727.63   19.80
  -3   3  -9   80.09    5.20
  -3   3  -9   86.49    4.60
   3  -3   9   85.19    4.60
  -4   3  -9   10.40    2.90
  -4   3  -9   11.40    2.60
   4  -3   9   13.20    2.80
  -5   3  -9   50.69    5.50
  -5   3  -9   63.59    5.30
  -5   3  -9   60.19    4.90
   5  -3   9   59.89    4.80
  -6   3  -9   44.60    5.30
  -6   3  -9   40.20    5.50
  -6   3  -9   48.60    4.80
   6  -3   9   44.90    4.80
  -7   3  -9    8.00    3.60
  -7   3  -9   11.70    3.50
  -7   3  -9    8.00    3.50
   7  -3   9    7.10    3.50
  -8   3  -9   24.10    5.50
  -8   3  -9   28.40    6.00
  10   2  -9   57.29    5.30
 -10  -2   9   61.69    6.00
 -10  -2   9   49.40    6.30
   9   2  -9   75.69    5.50
   9   2  -9   74.99    6.00
  -9  -2   9   54.89    6.10
  -9  -2   9   69.09    5.70
   8   2  -9  212.28    9.00
   8   2  -9  228.68    8.70
  -8  -2   9  220.78    9.80
  -8  -2   9  233.38    9.10
   7   2  -9  149.59    6.30
   7   2  -9  137.89    6.60
  -7  -2   9  136.29    7.20
  -7  -2   9  145.59    6.50
   6   2  -9   11.70    2.50
  -6  -2   9   10.30    3.20
  -6  -2   9   14.40    2.80
   5   2  -9   14.30    2.50
   5   2  -9   15.10    2.40
  -5  -2   9   16.40    3.10
  -5  -2   9   18.70    2.80
   4   2  -9 1425.16   36.10
   4   2  -9 1361.56   35.40
  -4  -2   9 1372.46   35.60
   3   2  -9  810.62   23.30
   3   2  -9  803.42   21.30
  -3  -2   9  811.52   21.50
   2   2  -9  850.61   22.40
   2   2  -9  831.22   23.90
  -2  -2   9  871.61   22.60
   1   2  -9  346.37   10.90
   1   2  -9  362.46   10.50
  -1  -2   9  354.86   10.60
   0   2  -9   70.19    3.60
   0   2  -9   65.49    4.10
   0  -2   9   69.29    3.70
  -1   2  -9   33.70    3.30
  -1   2  -9   29.60    2.80
   1  -2   9   29.10    2.90
  -2   2  -9    7.40    2.10
  -2   2  -9    8.50    2.40
   2  -2   9    3.10    2.00
  -3   2  -9    5.30    2.30
  -3   2  -9    9.90    2.60
   3  -2   9    4.80    2.20
  -4   2  -9  141.59    7.70
  -4   2  -9  151.68    7.50
  -4   2  -9  145.59    6.70
   4  -2   9  158.98    6.80
  -5   2  -9   60.99    5.50
  -5   2  -9   64.49    5.00
  -5   2  -9   64.59    6.00
   5  -2   9   68.39    5.10
  -6   2  -9  387.76   15.00
  -6   2  -9  367.16   15.60
  -6   2  -9  410.46   14.80
   6  -2   9  402.46   13.60
  -7   2  -9    5.40    3.00
   7  -2   9    6.80    4.00
  -8   2  -9   91.89    6.70
  11   1  -9   40.70    5.40
 -11  -1   9   63.19    6.50
  10   1  -9    1.00    3.70
  10   1  -9    0.90    3.10
 -10  -1   9   -1.50    3.30
   9   1  -9    1.30    2.80
  -9  -1   9    1.70    3.20
  -9  -1   9    0.90    3.30
   8   1  -9  354.86   11.70
  -8  -1   9  354.76   14.70
  -8  -1   9  355.56   12.10
   7   1  -9    4.50    2.40
  -7  -1   9    5.50    2.60
  -7  -1   9    3.50    2.80
   6   1  -9  921.91   24.70
  -6  -1   9  929.41   25.00
  -6  -1   9  916.21   25.70
   5   1  -9  792.82   21.30
   5   1  -9  795.12   21.50
  -5  -1   9  771.42   21.50
  -5  -1   9  803.82   22.30
   4   1  -9  107.99    4.70
   4   1  -9  106.09    4.80
  -4  -1   9  109.99    4.90
   3   1  -9 1677.73   43.20
   3   1  -9 1736.73   43.50
  -3  -1   9 1699.63   43.40
   2   1  -9   22.70    2.70
   2   1  -9   19.30    2.50
  -2  -1   9   23.00    2.70
   1   1  -9  752.42   20.30
   1   1  -9  742.53   20.50
  -1  -1   9  747.93   20.30
   0   1  -9    4.90    1.80
   0   1  -9    1.50    1.80
   0  -1   9    8.20    2.00
  -1   1  -9  349.87   11.00
  -1   1  -9  344.77   11.30
   1  -1   9  348.67   11.00
  -2   1  -9  351.66   11.30
  -2   1  -9  347.87   11.60
   2  -1   9  346.77   11.20
  -3   1  -9    2.20    2.20
  -3   1  -9   -1.90    2.50
  -3   1  -9    2.10    2.30
   3  -1   9    0.70    2.10
  -4   1  -9  146.69    7.00
  -5   1  -9  144.89    8.50
  -5   1  -9  142.39    7.20
   5  -1   9  143.79    7.10
  -6   1  -9    1.90    3.40
  -6   1  -9    0.90    2.90
   6  -1   9    0.70    2.90
  -7   1  -9  135.89    7.60
  -7   1  -9  127.49    8.80
   7  -1   9  131.89    7.60
  -8   1  -9   10.60    3.70
 -11   0   9   67.79    6.60
  10   0  -9   83.09    6.10
 -10   0   9   64.19    7.10
 -10   0   9   65.69    6.00
   9   0  -9   74.59    5.50
  -9   0   9   66.99    5.90
  -9   0   9   80.19    6.00
   8   0  -9    2.40    2.60
  -8   0   9   -1.40    2.70
  -8   0   9   -1.90    2.60
   7   0  -9  112.69    5.60
  -7   0   9  111.49    6.20
  -7   0   9  115.99    5.90
   6   0  -9    7.70    2.30
  -6   0   9    6.90    2.50
  -6   0   9    5.50    2.50
   5   0  -9   26.70    3.10
   5   0  -9   24.90    2.70
  -5   0   9   24.50    3.10
  -5   0   9   22.40    3.20
   4   0  -9   10.10    1.90
   4   0  -9   13.30    2.30
  -4   0   9   10.10    2.30
   3   0  -9  129.99    5.30
   3   0  -9  125.89    5.20
  -3   0   9  129.89    5.40
   2   0  -9   15.50    2.30
   2   0  -9   15.60    2.30
  -2   0   9   17.70    2.60
   1   0  -9  927.81   25.00
   1   0  -9  946.51   25.00
  -1   0   9  929.11   25.10
   0   0  -9  800.52   21.80
   0   0  -9  779.52   21.60
   0   0   9  769.12   21.50
  -1   0  -9   -1.00    1.90
  -1   0  -9    0.40    1.90
   1   0   9    1.20    1.90
  -2   0  -9 2042.50   53.39
  -2   0  -9 2090.69   52.99
   2   0   9 2060.19   52.99
  -3   0  -9  484.35   16.00
  -3   0  -9  471.45   14.70
   3   0   9  463.05   14.60
  -4   0  -9  777.12   22.70
  -4   0  -9  763.82   24.00
   4   0   9  806.12   22.70
  -5   0  -9  105.19    6.60
  -5   0  -9  104.89    7.60
   5   0   9  107.29    6.40
  -6   0  -9   91.39    6.30
  -6   0  -9   95.09    7.70
   6   0   9   97.09    6.50
  -7   0  -9   60.39    7.10
   7   0   9   56.99    5.70
  11  -1  -9   -2.60    3.20
 -11   1   9    4.10    3.60
  10  -1  -9  162.08    7.90
 -10   1   9  141.29    8.00
 -10   1   9  153.28    8.30
   9  -1  -9  157.98    7.60
  -9   1   9  151.48    7.80
  -9   1   9  147.29    7.70
   8  -1  -9    9.20    2.90
  -8   1   9    9.20    3.20
  -8   1   9   10.70    3.20
   7  -1  -9   11.20    3.00
  -7   1   9   17.50    3.30
  -7   1   9   16.80    3.30
   6  -1  -9   76.09    4.70
  -6   1   9   71.19    4.70
  -6   1   9   68.19    4.80
   5  -1  -9  701.73   18.80
   5  -1  -9  683.93   19.40
  -5   1   9  701.43   19.50
   4  -1  -9    8.40    2.40
   4  -1  -9    8.60    1.70
  -4   1   9    4.80    2.20
   3  -1  -9  105.69    4.50
   3  -1  -9  102.19    4.90
  -3   1   9   95.79    4.90
   2  -1  -9  145.09    5.90
   2  -1  -9  146.99    5.70
  -2   1   9  147.09    6.10
   1  -1  -9  129.69    5.50
   1  -1  -9  130.99    5.70
  -1   1   9  121.49    5.60
   0  -1  -9  615.24   17.70
   0  -1  -9  618.64   17.70
   0   1   9  614.54   17.70
  -1  -1  -9   87.69    5.10
  -1  -1  -9   90.09    5.00
   1   1   9   88.49    4.90
  -2  -1  -9   27.60    3.60
  -2  -1  -9   22.90    3.90
   2   1   9   27.20    3.50
  -3  -1  -9  249.18    9.40
  -3  -1  -9  243.78   11.80
   3   1   9  245.18    9.40
  -4  -1  -9   17.20    4.40
   4   1   9   22.20    4.00
  -5  -1  -9   53.49    5.40
  -5  -1  -9   60.29    6.30
   5   1   9   71.29    5.60
  -6  -1  -9   99.29    8.00
  -6  -1  -9  106.69    6.90
   6   1   9   93.09    6.50
  -7  -1  -9   10.70    3.70
  11  -2  -9   82.99    6.60
 -11   2   9   86.49    6.40
  10  -2  -9  483.65   15.80
 -10   2   9  501.25   16.80
 -10   2   9  456.15   15.70
   9  -2  -9   46.60    5.10
  -9   2   9   41.20    5.40
  -9   2   9   40.40    4.70
  -8   2   9   77.59    5.40
  -8   2   9   84.69    5.90
   7  -2  -9  525.25   16.00
  -7   2   9  541.85   16.20
  -7   2   9  534.45   16.30
   6  -2  -9    1.60    2.20
  -6   2   9    0.40    2.00
  -6   2   9    0.10    2.20
   5  -2  -9  727.43   19.60
   5  -2  -9  735.13   20.60
  -5   2   9  748.33   20.70
   4  -2  -9   97.19    5.10
   4  -2  -9   95.29    4.20
  -4   2   9  101.09    5.20
   3  -2  -9  122.29    5.60
   3  -2  -9  118.79    4.90
  -3   2   9  120.79    5.60
   2  -2  -9  247.18    8.80
   2  -2  -9  258.87    8.40
  -2   2   9  256.87    9.00
   1  -2  -9   59.29    3.90
   1  -2  -9   62.79    4.30
  -1   2   9   60.49    4.20
   0  -2  -9   20.70    3.20
   0  -2  -9   24.10    3.20
   0   2   9   23.60    3.30
  -1  -2  -9   18.10    3.20
  -1  -2  -9   12.80    2.90
   1   2   9   13.30    2.80
  -2  -2  -9   38.20    4.70
  -2  -2  -9   42.80    4.40
   2   2   9   38.10    4.20
  -3  -2  -9   -2.50    2.70
  -3  -2  -9   -0.80    2.70
  -4  -2  -9   75.99    5.70
  -4  -2  -9   66.59    6.50
   4   2   9   75.59    5.60
  -5  -2  -9   75.29    5.90
  -5  -2  -9   71.59    6.80
   5   2   9   82.09    6.10
  -6  -2  -9   22.40    4.40
  -6  -2  -9   28.90    5.50
   6   2   9   21.30    4.70
  10  -3  -9  131.19    7.50
 -10   3   9  147.29    8.50
 -10   3   9  117.59    6.50
   9  -3  -9  210.38    9.10
  -9   3   9  213.28    9.30
  -9   3   9  219.78    8.70
   8  -3  -9    3.70    3.00
  -8   3   9   -1.50    2.40
  -8   3   9    2.40    3.00
   7  -3  -9  531.75   16.40
  -7   3   9  540.85   17.10
  -7   3   9  536.95   16.00
   6  -3  -9  212.38    8.40
  -6   3   9  217.08    8.10
  -6   3   9  220.58    8.50
   5  -3  -9  317.77   10.60
  -5   3   9  301.97   10.60
  -5   3   9  316.17    9.80
   4  -3  -9  658.83   17.90
   4  -3  -9  678.83   19.20
  -4   3   9  677.43   19.30
   3  -3  -9  355.26   10.80
   3  -3  -9  359.16   11.70
  -3   3   9  370.86   11.80
   2  -3  -9   95.69    5.30
   2  -3  -9   95.69    5.50
  -2   3   9   90.49    5.20
   1  -3  -9  399.96   12.30
   1  -3  -9  396.66   12.70
  -1   3   9  386.26   12.60
   0  -3  -9   28.10    3.60
   0  -3  -9   27.30    3.50
   0   3   9   29.40    3.80
  -1  -3  -9  115.99    6.10
   1   3   9  103.79    5.90
  -2  -3  -9    6.50    3.40
   2   3   9    6.20    2.80
  -3  -3  -9  148.09    8.40
  -3  -3  -9  145.09    7.50
   3   3   9  152.38    7.60
  -4  -3  -9   24.70    4.30
  -4  -3  -9   27.10    4.90
   4   3   9   22.20    4.10
  -5  -3  -9   64.19    7.90
  -5  -3  -9   60.49    5.90
   5   3   9   56.39    5.70
   6   3   9   21.10    4.00
  10  -4  -9   -4.40    3.40
 -10   4   9   -3.80    5.30
   9  -4  -9    1.30    2.90
  -9   4   9    4.90    3.30
  -9   4   9    3.80    2.70
   8  -4  -9   51.49    5.00
  -8   4   9   47.20    5.00
  -8   4   9   48.00    4.30
   7  -4  -9    2.20    2.90
  -7   4   9    5.40    2.40
   6  -4  -9  328.37   11.20
  -6   4   9  306.37   11.00
  -6   4   9  318.67   10.40
   5  -4  -9   60.59    4.70
  -5   4   9   58.09    4.60
  -5   4   9   68.39    4.40
   4  -4  -9    3.20    2.50
  -4   4   9    3.40    2.20
  -4   4   9    3.20    2.40
   3  -4  -9   53.29    4.30
   3  -4  -9   46.30    3.30
  -3   4   9   51.79    4.30
   2  -4  -9  315.67   10.60
   2  -4  -9  341.77   11.30
  -2   4   9  332.47   11.20
   1  -4  -9    4.40    2.40
   1  -4  -9    3.50    2.10
  -1   4   9    5.80    2.60
   0  -4  -9   77.39    4.90
   0  -4  -9   79.89    5.20
   0   4   9   77.29    5.30
  -1  -4  -9  150.48    8.60
   1   4   9  147.29    7.30
  -2  -4  -9  238.08   10.50
  -2  -4  -9  241.58    9.80
  -3  -4  -9  117.19    7.20
  -3  -4  -9  106.69    7.40
   3   4   9  112.69    6.70
  -4  -4  -9  617.04   21.20
  -5  -4  -9    5.40    3.60
  -5  -4  -9   -2.00    3.00
  10  -5  -9    8.10    3.70
 -10   5   9    8.70    4.40
   9  -5  -9   62.29    5.70
  -9   5   9   49.99    5.60
   8  -5  -9   75.49    5.80
  -8   5   9   66.29    5.70
   7  -5  -9   90.09    5.90
  -7   5   9   79.09    5.90
   6  -5  -9   79.79    5.50
  -6   5   9   79.19    5.50
  -6   5   9   76.79    5.10
   5  -5  -9  143.99    7.70
  -5   5   9  154.48    7.00
  -5   5   9  155.88    7.20
   4  -5  -9  232.98    9.00
  -4   5   9  214.58    8.70
  -4   5   9  217.38    8.80
   3  -5  -9   10.20    2.80
  -3   5   9   11.80    3.10
   2  -5  -9  115.59    5.30
   2  -5  -9  116.79    6.20
  -2   5   9  108.09    6.10
   1  -5  -9   22.40    3.10
  -1   5   9   22.70    3.70
   0  -5  -9    0.70    2.30
   0  -5  -9   -1.10    1.90
   0   5   9    0.00    2.50
  -1  -5  -9   27.60    4.20
   1   5   9   27.80    4.30
  -2  -5  -9   51.89    5.70
  -2  -5  -9   55.29    5.20
   2   5   9   49.00    5.00
  -3  -5  -9   27.90    4.60
  -3  -5  -9   15.20    4.20
   3   5   9   21.60    4.10
  -4  -5  -9  151.38    9.40
  -4  -5  -9  158.38    8.80
   4   5   9  150.38    7.90
   5   5   9    8.20    3.40
 -10   6   9   76.39    6.70
   9  -6  -9   55.19    5.60
  -9   6   9   45.40    5.50
   8  -6  -9  139.99    7.50
  -8   6   9  137.79    7.40
   7  -6  -9   -2.30    2.80
  -7   6   9    5.10    3.10
  -7   6   9   -0.20    2.60
   6  -6  -9   14.90    3.60
  -6   6   9   16.10    5.30
  -6   6   9   11.40    3.00
   5  -6  -9   14.80    3.30
  -5   6   9   12.20    3.00
  -5   6   9   13.80    3.40
   4  -6  -9  243.38    9.60
  -4   6   9  255.57    9.90
  -4   6   9  243.38    9.60
   3  -6  -9    7.70    3.10
  -3   6   9    5.90    3.00
  -3   6   9    8.00    3.00
   2  -6  -9  111.69    5.50
   2  -6  -9  120.29    6.60
  -2   6   9  116.89    6.60
   1  -6  -9   51.29    5.00
   1  -6  -9   51.69    4.20
  -1   6   9   51.19    4.70
   0  -6  -9  167.28    7.70
   0  -6  -9  165.18    8.00
   0   6   9  184.68    8.10
  -1  -6  -9   47.20    4.90
   1   6   9   54.19    5.20
  -2  -6  -9   31.40    5.10
  -2  -6  -9   33.50    4.90
   2   6   9   35.30    4.60
  -3  -6  -9   87.39    6.70
   3   6   9  123.89    6.90
   4   6   9   64.89    6.50
 -10   7   9    5.50    4.30
  -9   7   9    8.70    3.80
   8  -7  -9   25.00    4.30
  -8   7   9   28.10    4.30
   7  -7  -9    2.30    3.40
  -7   7   9    4.50    2.70
  -7   7   9    5.40    3.20
   6  -7  -9  202.98    8.90
  -6   7   9  204.68    8.90
  -6   7   9  206.68    9.00
   5  -7  -9   21.50    4.00
  -5   7   9   29.50    4.60
  -5   7   9   22.50    4.60
   4  -7  -9   78.39    5.60
  -4   7   9   77.99    5.50
  -4   7   9   74.39    5.90
   3  -7  -9    5.50    3.20
  -3   7   9    8.40    3.00
  -3   7   9    5.90    3.20
   2  -7  -9   97.89    5.20
   2  -7  -9  100.49    6.40
  -2   7   9  104.49    6.20
  -2   7   9  110.69    7.20
   1  -7  -9   10.30    2.60
   1  -7  -9    7.10    3.00
  -1   7   9   13.60    3.50
   0  -7  -9  129.29    7.30
   0  -7  -9  124.99    8.60
   0   7   9  122.49    6.80
  -1  -7  -9   20.10    4.40
   1   7   9   16.40    3.90
  -2  -7  -9   27.20    4.60
  -3  -7  -9   20.90    4.50
  -9   8   9   -3.40    4.70
  -8   8   9   21.50    3.90
   7  -8  -9    6.40    3.10
  -7   8   9    2.20    3.20
  -7   8   9   12.20    3.30
  -6   8   9   48.60    5.20
  -6   8   9   38.80    5.40
   5  -8  -9   84.99    6.00
  -5   8   9   74.19    6.40
  -5   8   9   81.09    5.80
   4  -8  -9    1.60    2.60
  -4   8   9    0.10    3.00
  -4   8   9    5.20    3.90
   3  -8  -9   40.70    4.80
  -3   8   9   25.90    4.60
   2  -8  -9    1.40    2.90
  -2   8   9    0.10    3.10
  -2   8   9    7.90    3.40
   1  -8  -9  109.09    8.10
   1  -8  -9   81.99    5.30
  -1   8   9  107.39    6.20
  -1   8   9   91.79    7.40
   0  -8  -9   21.50    4.10
   0  -8  -9   16.10    3.40
  -1  -8  -9  149.49    8.90
   1   8   9  160.98    7.80
  -7   9   9   78.49    6.40
   6  -9  -9  215.28    9.50
  -6   9   9  233.08    9.80
  -6   9   9  203.78    9.70
   5  -9  -9   24.80    4.10
  -5   9   9   21.60    4.30
   4  -9  -9   91.09    6.20
  -4   9   9   91.59    7.20
   3  -9  -9    9.50    3.50
  -3   9   9    0.70    3.00
   2  -9  -9   25.70    4.30
   1  -9  -9   17.50    4.50
  -1   9   9   19.00    4.80
   0   9   9   10.10    4.30
  -6  10   9  115.59    7.80
  -5  10   9    1.10    3.70
  -4  10   9   49.20    6.70
  -3  10   9   22.30    4.70
  -3 -14  10  101.19    9.40
  -2 -14  10   31.00    4.40
  -1 -14  10   29.80    4.30
  -2  14 -10   45.80    5.00
  -3  14 -10   76.99    5.60
  -4 -13  10    0.70    3.60
  -3 -13  10   56.39    5.60
  -2 -13  10   46.10    5.10
  -1 -13  10    2.70    2.60
   0  13 -10   43.00    5.20
   0 -13  10   37.50    4.80
  -1  13 -10    1.00    2.60
   1 -13  10   -1.30    2.20
  -2  13 -10    9.50    3.20
  -3  13 -10    2.40    2.60
  -4  13 -10   21.60    3.50
  -5 -12  10   15.20    4.50
  -4 -12  10    7.10    3.80
  -3 -12  10   81.59    6.30
  -2 -12  10   54.39    5.10
   1  12 -10   32.60    4.50
   0  12 -10   81.39    6.00
   0 -12  10   79.19    5.30
  -1  12 -10   47.90    5.10
   1 -12  10   46.00    4.10
  -2  12 -10   51.89    4.90
   2 -12  10   50.09    4.30
  -3  12 -10   34.80    4.60
   3 -12  10   38.60    3.50
  -4  12 -10   68.09    5.40
  -5  12 -10   11.00    3.00
  -6 -11  10   16.50    4.80
  -5 -11  10   40.30    5.80
  -4 -11  10   -0.80    3.20
  -3 -11  10    7.90    3.20
   2  11 -10   52.29    5.30
  -2 -11  10   55.69    6.10
   1  11 -10   37.60    4.60
  -1 -11  10   34.00    4.20
   0  11 -10  154.88    7.70
   0 -11  10  158.28    7.10
  -1  11 -10    9.40    2.90
   1 -11  10   11.60    2.80
  -2  11 -10  238.98    9.60
  -3  11 -10   66.19    5.20
  -4  11 -10  238.38    9.70
  -5  11 -10  282.97   10.90
  -6  11 -10    3.10    2.60
   7  10 -10   64.49    6.50
  -7 -10  10   57.79    6.60
   6  10 -10   11.90    4.30
  -6 -10  10   13.40    4.30
  -5 -10  10  182.78    9.30
  -4 -10  10  346.07   13.00
  -3 -10  10    4.40    2.90
   2  10 -10  197.38    8.70
  -2 -10  10  206.48    8.70
   1  10 -10  163.78    9.30
  -1 -10  10  165.68    7.50
   0  10 -10    3.90    2.60
   0 -10  10    3.40    2.30
  -1  10 -10   -1.10    2.10
  -2  10 -10    5.60    2.80
  -3  10 -10    1.30    2.40
  -4  10 -10   72.79    5.30
  -5  10 -10   15.10    3.20
  -6  10 -10   35.50    4.30
   6 -10  10   36.40    3.40
  -7  10 -10    2.90    3.00
   7 -10  10    5.20    2.20
  -8  -9  10  154.08    6.90
   7   9 -10  376.06   15.90
  -7  -9  10  326.77   14.40
  -7  -9  10  376.06   11.30
   6   9 -10   11.30    4.40
  -6  -9  10    5.20    3.70
   5   9 -10  700.93   21.20
  -5  -9  10  687.43   21.60
  -4  -9  10  174.98    8.50
   3   9 -10   98.39    6.10
  -3  -9  10  100.59    6.10
   2   9 -10   15.20    3.20
  -2  -9  10   14.20    3.20
   1   9 -10  108.09    5.90
  -1  -9  10  104.39    5.90
   0   9 -10   77.29    5.00
  -1   9 -10  253.07    9.60
  -2   9 -10  277.87   10.30
  -3   9 -10    3.70    2.40
  -4   9 -10  111.89    6.40
  -5   9 -10  111.39    6.50
   5  -9  10  106.49    5.10
  -6   9 -10   78.19    5.80
   6  -9  10   72.29    4.80
  -7   9 -10   19.30    3.80
   7  -9  10   17.10    3.20
   8   8 -10    2.20    3.80
  -8  -8  10    2.00    3.80
   7   8 -10   52.49    5.70
  -7  -8  10   46.00    4.30
  -7  -8  10   40.80    5.90
   6   8 -10   70.89    5.90
  -6  -8  10   61.99    6.20
   5   8 -10   87.39    6.30
  -5  -8  10   94.59    6.50
   4   8 -10   23.50    3.80
   4   8 -10   26.50    4.00
  -4  -8  10   26.50    4.40
   3   8 -10   41.90    4.20
  -3  -8  10   43.90    4.50
   2   8 -10    9.90    2.60
  -2  -8  10   14.60    3.10
   1   8 -10   47.10    4.10
   0   8 -10   34.00    3.70
  -1   8 -10   98.59    5.50
  -2   8 -10    2.10    2.00
  -3   8 -10   82.79    5.40
   3  -8  10   96.59    4.30
  -4   8 -10  104.79    6.50
  -5   8 -10  156.68    7.90
   5  -8  10  153.58    6.50
  -6   8 -10  223.58    9.70
   6  -8  10  205.78    8.40
  -7   8 -10    4.00    3.00
   7  -8  10    1.90    2.60
  -8   8 -10  189.08   11.60
   9   7 -10   26.40    5.70
  -9  -7  10   24.10    4.30
   8   7 -10   16.50    4.20
  -8  -7  10   14.10    3.30
   7   7 -10   12.30    3.70
  -7  -7  10    7.80    4.00
   6   7 -10   30.50    4.50
  -6  -7  10   28.70    4.10
  -6  -7  10   20.70    4.20
   5   7 -10   40.50    4.60
  -5  -7  10   50.99    5.10
  -5  -7  10   41.50    3.50
   4   7 -10   35.20    4.00
   4   7 -10   44.10    4.60
  -4  -7  10   31.80    4.40
   3   7 -10  324.27   10.70
   3   7 -10  333.77   11.50
  -3  -7  10  329.77   11.60
   2   7 -10  715.83   20.70
   1   7 -10   94.79    5.30
   0   7 -10  521.85   15.90
  -1   7 -10    7.30    2.30
  -2   7 -10  376.56   12.50
   2  -7  10  378.96   11.00
  -3   7 -10   90.89    4.10
  -3   7 -10  102.89    5.90
   3  -7  10   85.39    6.00
   3  -7  10  108.69    4.60
  -4   7 -10  236.98    7.80
  -5   7 -10   35.90    3.30
  -5   7 -10   35.00    4.90
   5  -7  10   37.10    3.80
  -6   7 -10   13.70    3.70
   6  -7  10   12.10    2.80
  -7   7 -10   16.20    3.90
   7  -7  10    7.00    2.80
   9   6 -10   83.39    7.00
  -9  -6  10   86.09    7.40
   8   6 -10   30.50    5.20
  -8  -6  10   22.90    4.80
  -8  -6  10   34.70    4.30
   7   6 -10   17.40    3.30
   7   6 -10   15.90    3.80
  -7  -6  10   19.50    3.20
  -7  -6  10   15.40    4.20
   6   6 -10  169.58    7.90
   6   6 -10  180.68    6.40
  -6  -6  10  175.78    8.60
  -6  -6  10  186.88    7.50
   5   6 -10  708.43   20.40
  -5  -6  10  748.13   19.40
  -5  -6  10  659.23   19.30
  -5  -6  10  743.43   21.60
   4   6 -10  267.27    9.70
   4   6 -10  256.27    9.10
   4   6 -10  261.17    7.70
  -4  -6  10  279.07   10.20
  -4  -6  10  247.88    8.10
  -4  -6  10  273.57    8.20
   3   6 -10  418.26   13.50
  -3  -6  10  410.36   11.80
  -3  -6  10  437.36   13.90
  -3  -6  10  432.16   11.80
   2   6 -10 1798.62   45.80
  -2  -6  10 1803.42   43.80
  -2  -6  10 1667.43   43.80
   1   6 -10   83.99    4.70
  -1  -6  10   78.89    3.50
  -1  -6  10   77.79    3.30
   0   6 -10 1002.10   27.30
   0  -6  10 1015.90   25.60
   0  -6  10  974.00   26.10
  -1   6 -10   20.70    3.20
  -1   6 -10   15.80    1.70
   1  -6  10   18.20    1.80
   1  -6  10   19.20    2.30
  -2   6 -10  374.16   12.10
   2  -6  10  362.86   10.70
   2  -6  10  332.67   10.30
  -3   6 -10   29.60    2.60
  -3   6 -10   24.20    3.50
   3  -6  10   24.70    2.90
  -4   6 -10   43.40    3.50
  -5   6 -10   -1.00    2.50
  -5   6 -10    2.70    2.20
   5  -6  10    2.10    2.20
  -6   6 -10    5.20    3.20
   6  -6  10    9.90    2.90
  -7   6 -10   11.10    3.90
   7  -6  10   10.30    3.30
   9   5 -10   -0.40    3.40
   8   5 -10    2.60    3.20
   8   5 -10    5.80    2.60
  -8  -5  10    9.00    3.30
  -8  -5  10    5.30    3.40
   7   5 -10  260.97    8.90
   7   5 -10  253.67   10.20
  -7  -5  10  256.87   10.80
  -7  -5  10  282.07    9.50
   6   5 -10   30.40    4.10
   6   5 -10   30.30    3.00
  -6  -5  10   32.70    3.70
   5   5 -10  736.73   19.20
   5   5 -10  738.03   20.30
   5   5 -10  720.73   20.80
  -5  -5  10  624.94   21.20
  -5  -5  10  743.93   21.50
  -5  -5  10  747.53   19.60
   4   5 -10   22.90    3.20
   4   5 -10   25.30    2.30
   4   5 -10   26.60    3.50
  -4  -5  10   22.50    2.90
  -4  -5  10   31.70    4.00
  -4  -5  10   26.40    2.40
   3   5 -10  596.94   15.70
   3   5 -10  608.44   17.50
  -3  -5  10  561.34   16.00
  -3  -5  10  597.14   16.00
   2   5 -10   21.90    2.90
   2   5 -10   17.50    2.00
  -2  -5  10   19.20    1.90
  -2  -5  10   18.70    2.40
   1   5 -10  550.44   14.80
   1   5 -10  560.04   16.40
  -1  -5  10  569.04   15.10
  -1  -5  10  542.55   15.00
   0   5 -10   60.29    4.00
   0   5 -10   48.00    2.60
   0  -5  10   49.60    2.60
   0  -5  10   48.00    3.00
  -1   5 -10   11.80    1.90
  -1   5 -10   13.10    2.70
   1  -5  10   11.50    2.10
   1  -5  10   11.00    1.60
  -2   5 -10  308.77    9.70
  -2   5 -10  323.47   11.00
   2  -5  10  323.67   10.10
  -3   5 -10   55.29    4.70
  -3   5 -10   58.79    3.70
   3  -5  10   53.89    3.90
  -4   5 -10  664.83   19.80
  -4   5 -10  774.62   24.30
   4  -5  10  689.33   20.60
  -5   5 -10    2.50    2.30
  -5   5 -10    3.50    3.00
   5  -5  10    6.00    2.50
  -6   5 -10   40.70    5.30
  -6   5 -10   47.10    4.30
   6  -5  10   46.10    4.80
   7  -5  10    6.70    3.20
  10   4 -10  194.78    9.60
 -10  -4  10  188.28   10.40
   9   4 -10  277.37   11.30
   9   4 -10  271.47   10.00
  -9  -4  10  268.87   11.90
  -9  -4  10  287.87   10.80
   8   4 -10   85.39    6.20
   8   4 -10   92.99    5.50
  -8  -4  10   82.79    6.60
  -8  -4  10   84.69    5.70
   7   4 -10   79.39    5.50
   7   4 -10   66.49    5.50
  -7  -4  10   81.19    5.10
  -7  -4  10   72.69    5.90
   6   4 -10  378.26   11.50
   6   4 -10  374.16   12.30
  -6  -4  10  392.26   11.90
  -6  -4  10  383.26   13.30
   5   4 -10    7.20    2.40
   5   4 -10    4.70    1.80
   5   4 -10    0.10    2.30
  -5  -4  10    2.50    2.10
  -5  -4  10    7.70    1.80
  -5  -4  10    6.20    2.90
   4   4 -10 3298.57   81.79
   4   4 -10 3183.88   80.29
   4   4 -10 3298.27   80.69
  -4  -4  10 3053.59   81.59
  -4  -4  10 3313.67   80.59
  -4  -4  10 3358.46   82.39
   3   4 -10  279.47    9.50
   3   4 -10  265.37    8.30
  -3  -4  10  278.47    8.60
   2   4 -10 1818.02   46.60
   2   4 -10 1778.32   45.20
  -2  -4  10 1823.42   45.50
   1   4 -10  195.08    7.30
   1   4 -10  173.78    6.10
  -1  -4  10  190.38    6.50
   0   4 -10    3.60    1.40
   0   4 -10    3.50    2.00
   0  -4  10    2.40    1.70
  -1   4 -10   71.29    4.50
  -1   4 -10   69.29    3.60
   1  -4  10   63.29    3.60
   1  -4  10   69.99    3.90
  -2   4 -10    0.50    2.00
  -2   4 -10   -0.80    1.60
   2  -4  10   -2.20    1.60
  -3   4 -10  147.39    7.00
  -3   4 -10  143.89    6.10
   3  -4  10  135.29    6.10
  -4   4 -10   84.29    5.80
  -4   4 -10   82.79    4.90
   4  -4  10   77.29    4.90
  -5   4 -10   60.29    4.80
  -5   4 -10   65.19    5.60
   5  -4  10   60.49    4.70
  -6   4 -10   95.79    5.90
  -6   4 -10   97.89    7.10
   6  -4  10   96.59    6.20
  -7   4 -10   40.90    4.70
  -7   4 -10   38.20    5.50
   7  -4  10   28.70    4.40
  -8   4 -10   19.00    4.70
  10   3 -10    4.80    3.20
  10   3 -10    8.20    4.20
 -10  -3  10    9.00    4.00
 -10  -3  10    8.30    4.20
   9   3 -10    0.50    3.30
   9   3 -10    2.00    2.90
  -9  -3  10   -2.10    3.70
  -9  -3  10    1.70    3.40
   8   3 -10   72.79    5.10
   8   3 -10   71.19    5.70
  -8  -3  10   75.29    5.40
  -8  -3  10   52.79    6.00
   7   3 -10 1036.90   27.80
   7   3 -10 1017.60   28.50
  -7  -3  10 1062.79   31.80
  -7  -3  10 1054.99   28.20
   6   3 -10   42.70    3.60
   6   3 -10   44.60    4.20
  -6  -3  10   41.10    4.70
  -6  -3  10   49.80    4.10
   5   3 -10 1562.54   40.50
   5   3 -10 1591.34   41.50
   5   3 -10 1598.44   40.80
  -5  -3  10 1608.54   40.80
  -5  -3  10 1594.64   42.20
   4   3 -10    3.00    1.90
   4   3 -10    1.70    1.70
  -4  -3  10   -0.10    1.80
   3   3 -10  786.02   21.40
   3   3 -10  824.12   22.40
  -3  -3  10  821.42   21.70
   2   3 -10   22.30    2.80
   2   3 -10   27.70    2.70
  -2  -3  10   22.10    2.60
   1   3 -10  422.36   12.40
   1   3 -10  440.96   13.30
  -1  -3  10  442.26   12.60
   0   3 -10   46.10    3.70
   0   3 -10   44.00    3.00
   0  -3  10   45.10    3.30
  -1   3 -10   74.09    4.00
  -1   3 -10   68.29    4.50
   1  -3  10   69.99    4.00
  -2   3 -10  166.08    7.20
  -2   3 -10  160.08    6.50
   2  -3  10  160.18    6.50
  -3   3 -10  250.37    9.00
  -3   3 -10  251.57    9.80
   3  -3  10  256.47    9.10
  -4   3 -10  241.98    9.10
  -4   3 -10  242.28   10.00
   4  -3  10  238.28    9.10
  -5   3 -10    1.20    2.70
  -5   3 -10    0.30    2.30
   5  -3  10    1.70    2.50
  -6   3 -10   21.30    4.50
  -6   3 -10   28.00    5.00
   6  -3  10   17.60    3.70
  -7   3 -10   18.10    4.60
  -7   3 -10   23.10    3.80
  -7   3 -10   18.80    4.70
   7  -3  10   22.40    4.00
  10   2 -10  591.34   19.70
  10   2 -10  617.24   18.70
 -10  -2  10  623.34   19.20
 -10  -2  10  587.34   22.30
   9   2 -10  292.77   11.80
   9   2 -10  338.07   11.50
  -9  -2  10  350.66   12.10
  -9  -2  10  308.77   12.50
   8   2 -10  540.25   17.20
   8   2 -10  572.64   16.80
  -8  -2  10  560.74   18.20
  -8  -2  10  589.84   17.40
   7   2 -10  943.71   25.70
   7   2 -10  923.31   26.00
  -7  -2  10  947.21   27.10
  -7  -2  10  981.30   26.10
   6   2 -10  484.65   14.30
   6   2 -10  472.65   14.30
  -6  -2  10  488.25   15.50
  -6  -2  10  484.35   14.50
   5   2 -10 1071.99   28.30
   5   2 -10 1061.79   27.70
   5   2 -10 1038.10   27.70
  -5  -2  10 1047.20   29.00
  -5  -2  10 1051.99   28.00
   4   2 -10  311.37    9.70
   4   2 -10  318.67   10.30
  -4  -2  10  310.47    9.90
   3   2 -10  877.71   23.50
   3   2 -10  845.02   22.90
  -3  -2  10  860.01   23.10
   2   2 -10  408.46   12.60
   2   2 -10  408.16   12.10
  -2  -2  10  418.76   12.30
   1   2 -10   23.50    2.90
   1   2 -10   20.00    2.60
  -1  -2  10   32.70    3.40
   0   2 -10  729.63   20.40
   0   2 -10  752.32   21.00
   0  -2  10  759.32   20.60
  -1   2 -10  335.87   10.60
  -1   2 -10  321.27   11.00
   1  -2  10  326.97   10.60
  -2   2 -10   59.59    4.60
  -2   2 -10   55.59    4.00
   2  -2  10   54.99    4.00
  -3   2 -10  243.58    8.90
  -3   2 -10  236.28    9.60
   3  -2  10  236.58    8.90
  -4   2 -10  231.48   10.00
  -4   2 -10  235.08    9.10
   4  -2  10  250.77    9.30
  -5   2 -10   46.40    5.20
  -5   2 -10   62.29    5.00
  -5   2 -10   39.40    5.70
   5  -2  10   52.09    4.90
  -6   2 -10  103.49    6.40
  -6   2 -10   89.59    7.50
  -6   2 -10  101.29    7.20
   6  -2  10   97.39    6.30
  -7   2 -10   24.50    3.80
  -7   2 -10   23.50    5.10
  -7   2 -10   22.70    4.50
   7  -2  10   19.70    4.80
 -11  -1  10   26.60    4.90
  10   1 -10   92.29    6.40
 -10  -1  10   99.69    6.70
 -10  -1  10   98.99    7.20
   9   1 -10   37.80    5.10
  -9  -1  10   54.99    5.30
  -9  -1  10   43.90    5.50
   8   1 -10   -0.30    2.60
  -8  -1  10    3.80    2.90
  -8  -1  10    3.20    3.00
   7   1 -10  177.78    7.30
  -7  -1  10  185.88    7.80
  -7  -1  10  188.88    8.30
   6   1 -10  423.66   13.00
   6   1 -10  418.76   12.90
  -6  -1  10  427.86   13.90
  -6  -1  10  433.26   13.20
   5   1 -10  649.64   18.60
   5   1 -10  649.24   18.20
  -5  -1  10  634.04   18.10
  -5  -1  10  630.34   19.00
   4   1 -10 2456.35   61.39
   4   1 -10 2429.06   61.09
  -4  -1  10 2411.56   61.29
   3   1 -10  125.99    5.40
   3   1 -10  133.19    5.60
  -3  -1  10  127.09    5.60
   2   1 -10 2956.80   74.69
   2   1 -10 3013.80   74.99
  -2  -1  10 3006.00   74.89
   1   1 -10 3830.22   95.59
   1   1 -10 3803.62   95.29
  -1  -1  10 3882.31   95.39
   0   1 -10  214.28    8.10
   0   1 -10  220.48    7.90
   0  -1  10  212.28    7.90
  -1   1 -10 1667.53   42.70
  -1   1 -10 1628.34   43.00
   1  -1  10 1636.24   42.70
  -2   1 -10   26.30    3.60
  -2   1 -10   34.00    3.70
   2  -1  10   24.90    3.40
  -3   1 -10  133.89    6.50
  -4   1 -10   11.30    3.90
  -4   1 -10   14.90    3.60
  -4   1 -10   11.50    3.10
   4  -1  10   14.10    3.20
  -5   1 -10   19.90    3.80
  -5   1 -10   16.90    4.50
  -5   1 -10   23.30    4.00
   5  -1  10   21.30    4.00
  -6   1 -10    2.60    3.70
  -6   1 -10    7.00    3.40
  -7   1 -10   19.40    4.80
  11   0 -10   40.80    5.20
 -11   0  10   45.80    5.80
  10   0 -10  185.88    8.40
 -10   0  10  178.48    8.90
 -10   0  10  164.48    8.80
   9   0 -10   33.00    4.50
  -9   0  10   39.80    5.00
  -9   0  10   36.20    5.10
   8   0 -10   79.29    5.20
  -8   0  10   81.69    5.60
   7   0 -10  157.08    7.00
  -7   0  10  177.88    7.70
  -7   0  10  174.88    7.90
   6   0 -10  236.08    8.40
   6   0 -10  250.57    8.80
  -6   0  10  250.57    9.50
  -6   0  10  252.77    9.10
   5   0 -10   97.29    4.70
   5   0 -10   94.99    4.90
  -5   0  10  103.09    5.20
   4   0 -10  654.03   18.10
   4   0 -10  648.64   18.30
  -4   0  10  646.74   18.40
   3   0 -10  487.95   14.30
   3   0 -10  476.45   14.10
  -3   0  10  486.55   14.40
   2   0 -10   39.80    3.50
   2   0 -10   38.40    3.80
  -2   0  10   39.10    3.60
   1   0 -10  404.86   12.60
   1   0 -10  408.76   12.70
  -1   0  10  412.66   12.70
   0   0 -10    4.10    2.20
   0   0 -10    2.80    1.90
   0   0  10    3.10    2.00
  -1   0 -10    5.60    2.40
  -1   0 -10    8.30    2.60
   1   0  10    6.70    2.30
  -2   0 -10    8.90    2.70
  -2   0 -10    9.90    2.90
   2   0  10    5.50    2.50
  -3   0 -10   47.40    4.60
  -3   0 -10   55.99    4.90
   3   0  10   51.59    4.60
  -4   0 -10   55.59    6.00
  -4   0 -10   53.79    5.40
   4   0  10   59.89    4.90
  -5   0 -10   78.69    5.80
  -5   0 -10   68.99    6.30
  -5   0 -10   73.89    6.80
   5   0  10   79.89    5.90
  -6   0 -10    7.20    3.20
  -6   0 -10    6.40    3.80
  -6   0 -10    4.90    3.40
   6   0  10    0.90    3.10
  11  -1 -10  219.88    9.90
 -11   1  10  211.58   12.10
  10  -1 -10  175.48    8.20
 -10   1  10  174.38    9.00
 -10   1  10  155.78    8.30
   9  -1 -10   75.09    5.70
  -9   1  10   67.59    6.00
  -9   1  10   78.99    6.10
  -8   1  10  186.28    8.30
  -8   1  10  187.68    8.20
   7  -1 -10   83.69    5.20
  -7   1  10   90.09    5.70
  -7   1  10   85.79    5.60
   6  -1 -10   25.60    4.20
   6  -1 -10   31.00    3.80
  -6   1  10   28.50    3.80
  -6   1  10   29.30    3.80
   5  -1 -10  236.08    7.90
   5  -1 -10  227.18    8.50
  -5   1  10  238.98    8.60
   4  -1 -10  467.85   14.10
   4  -1 -10  466.35   13.70
  -4   1  10  469.25   14.30
   3  -1 -10  322.77   10.00
   3  -1 -10  309.07   10.30
  -3   1  10  305.27   10.30
   2  -1 -10  962.40   25.70
   2  -1 -10  942.21   25.80
  -2   1  10  948.31   26.00
   1  -1 -10 1087.59   29.20
   1  -1 -10 1066.09   29.30
  -1   1  10 1105.59   29.40
   0  -1 -10   49.30    4.10
   0  -1 -10   45.80    4.10
   0   1  10   51.69    4.20
  -1  -1 -10    5.40    2.50
  -1  -1 -10    5.50    2.40
   1   1  10    7.20    2.60
  -2  -1 -10   14.10    3.20
  -2  -1 -10    6.00    2.80
   2   1  10    7.70    2.70
  -3  -1 -10   10.10    3.40
  -3  -1 -10   13.90    3.50
  -3  -1 -10   17.10    3.90
   3   1  10   10.00    3.20
  -4  -1 -10   17.60    4.50
  -4  -1 -10   25.10    3.90
   4   1  10   22.90    4.00
  -5  -1 -10    8.50    4.00
  -5  -1 -10    6.50    3.00
   5   1  10    8.90    3.70
  -6  -1 -10   15.10    3.50
   6   1  10    8.00    3.50
  11  -2 -10   28.60    5.60
  10  -2 -10   16.10    4.00
 -10   2  10   14.10    4.40
 -10   2  10   13.50    3.70
   9  -2 -10  126.19    7.10
  -9   2  10  125.29    7.40
  -9   2  10  137.39    7.10
   8  -2 -10    3.50    3.00
  -8   2  10    3.00    2.80
  -8   2  10    5.20    3.10
   7  -2 -10   24.40    3.70
  -7   2  10   27.10    3.90
  -7   2  10   26.20    4.20
   6  -2 -10   40.50    4.30
  -6   2  10   44.20    4.30
  -6   2  10   49.40    4.30
   5  -2 -10   26.90    3.50
   5  -2 -10   19.60    2.50
  -5   2  10   19.90    3.30
   4  -2 -10   48.10    3.30
   4  -2 -10   43.90    4.00
  -4   2  10   45.60    4.10
   3  -2 -10   21.70    3.10
   3  -2 -10   20.80    3.30
  -3   2  10   22.30    3.40
   2  -2 -10  155.18    6.40
   2  -2 -10  155.08    6.80
  -2   2  10  158.08    6.90
   1  -2 -10    6.20    2.30
   1  -2 -10    4.70    2.50
  -1   2  10    5.70    2.40
   0  -2 -10  124.89    6.20
   0  -2 -10  129.19    6.30
   0   2  10  125.79    6.30
  -1  -2 -10   83.49    5.30
  -1  -2 -10   80.49    5.20
   1   2  10   75.49    5.20
  -2  -2 -10   57.69    5.70
  -2  -2 -10   50.99    5.00
   2   2  10   50.19    5.00
  -3  -2 -10   -3.50    2.70
  -3  -2 -10    1.10    3.00
   3   2  10   -2.00    2.50
  -4  -2 -10   89.49    6.40
  -4  -2 -10   96.19    7.50
   4   2  10   96.99    6.40
  -5  -2 -10   12.70    4.10
  -5  -2 -10   14.00    4.50
  10  -3 -10   -6.70    5.40
 -10   3  10   -4.40    3.50
   9  -3 -10   41.20    4.90
  -9   3  10   41.00    5.40
  -9   3  10   33.00    4.80
   8  -3 -10    3.30    2.90
  -8   3  10    1.90    2.80
  -8   3  10    1.40    2.60
   7  -3 -10   23.00    3.80
  -7   3  10   26.90    3.90
  -7   3  10   25.20    4.20
   6  -3 -10   34.90    4.20
  -6   3  10   36.20    4.40
  -6   3  10   39.80    4.00
   5  -3 -10   -1.10    2.40
  -5   3  10   -0.40    2.40
  -5   3  10   -1.50    4.10
   4  -3 -10   18.80    3.30
   4  -3 -10   14.60    2.10
  -4   3  10   18.30    3.30
   3  -3 -10    1.50    2.10
   3  -3 -10   -0.30    2.10
  -3   3  10    0.60    2.10
   2  -3 -10    3.40    2.10
   2  -3 -10    3.50    2.50
  -2   3  10    6.00    2.40
   1  -3 -10   48.40    4.10
   1  -3 -10   45.40    4.30
  -1   3  10   51.89    4.50
   0  -3 -10  387.76   13.10
   0  -3 -10  404.76   13.10
   0   3  10  390.06   13.10
  -1  -3 -10  385.46   13.40
   1   3  10  410.46   14.40
  -2  -3 -10  287.07   11.00
   2   3  10  274.47   10.80
  -3  -3 -10  107.89    7.60
  -3  -3 -10  105.59    6.70
   3   3  10  107.79    6.60
  -4  -3 -10  110.59    7.20
  -4  -3 -10   96.59    9.10
   4   3  10  116.89    7.00
  -5  -3 -10   10.50    3.70
   5   3  10   13.50    3.70
  10  -4 -10   10.40    3.80
 -10   4  10   12.00    4.20
   9  -4 -10    7.00    3.40
  -9   4  10    3.90    3.20
   8  -4 -10   10.00    3.30
  -8   4  10    7.40    3.20
  -8   4  10    4.20    2.60
   7  -4 -10   12.00    3.30
  -7   4  10    9.50    2.90
  -7   4  10   12.20    3.50
   6  -4 -10   26.30    4.10
  -6   4  10   25.20    3.60
  -6   4  10   29.20    4.70
  -5   4  10    6.50    2.80
  -5   4  10    5.10    2.30
   4  -4 -10  195.48    8.20
  -4   4  10  194.58    8.10
  -4   4  10  205.68    8.30
   3  -4 -10   73.09    5.10
   3  -4 -10   68.49    4.70
  -3   4  10   69.29    5.00
   2  -4 -10  241.78    8.40
   2  -4 -10  224.58    9.10
  -2   4  10  222.18    9.10
   1  -4 -10   73.69    4.80
  -1   4  10   64.49    5.10
   0  -4 -10   13.90    3.00
   0  -4 -10   18.50    3.70
   0   4  10   14.40    3.50
  -1  -4 -10  248.58   10.20
  -1  -4 -10  236.98    9.80
   1   4  10  251.27   10.10
  -2  -4 -10   45.20    5.10
   2   4  10   35.40    4.80
  -3  -4 -10  413.66   14.50
  -3  -4 -10  392.76   15.40
   3   4  10  387.56   14.10
  -4  -4 -10  160.58    8.70
  -4  -4 -10  178.18   10.00
   4   4  10  146.99   10.60
 -10   5  10   20.70    4.80
   9  -5 -10   14.20    3.90
  -9   5  10   10.10    3.80
   8  -5 -10    4.10    3.20
  -8   5  10    6.70    3.30
   7  -5 -10   72.99    5.80
  -7   5  10   73.79    6.00
   6  -5 -10  119.39    6.70
  -6   5  10  104.39    6.30
  -6   5  10  126.29    6.80
   5  -5 -10  293.37   10.70
  -5   5  10  274.87   10.20
   4  -5 -10    4.00    2.90
  -4   5  10    6.60    3.20
  -4   5  10    6.30    2.80
   3  -5 -10  172.48    7.80
   3  -5 -10  153.08    6.60
  -3   5  10  168.08    7.70
   2  -5 -10   71.69    4.60
   2  -5 -10   81.29    5.60
  -2   5  10   75.59    5.50
   1  -5 -10   50.89    4.90
   1  -5 -10   51.49    4.30
  -1   5  10   50.39    6.00
   0  -5 -10  521.25   16.70
   0  -5 -10  496.95   16.00
   0   5  10  515.75   16.50
  -1  -5 -10  155.58    7.90
  -1  -5 -10  135.49    7.50
   1   5  10  158.98    8.00
  -2  -5 -10  106.29    7.10
   2   5  10  117.19    6.90
  -3  -5 -10   93.59    7.70
  -3  -5 -10   88.19    6.90
   3   5  10   93.99    6.60
   4   5  10    9.00    3.50
   9  -6 -10    5.10    3.60
  -9   6  10    1.00    7.50
   8  -6 -10   21.10    5.50
  -8   6  10   23.70    4.20
   7  -6 -10   11.40    3.60
  -7   6  10   14.50    3.80
   6  -6 -10   47.50    5.20
  -6   6  10   47.40    5.10
  -6   6  10   45.70    4.80
   5  -6 -10   37.80    4.60
  -5   6  10   43.80    4.90
  -5   6  10   40.80    4.80
   4  -6 -10   80.09    5.70
  -4   6  10   82.79    7.30
  -4   6  10   83.69    6.50
   3  -6 -10    3.80    3.00
  -3   6  10    0.30    2.90
   2  -6 -10  403.26   12.90
   2  -6 -10  417.36   14.30
  -2   6  10  421.56   15.40
   1  -6 -10   61.39    5.50
   1  -6 -10   62.99    4.80
  -1   6  10   67.39    5.40
   0  -6 -10  296.77   11.70
   0  -6 -10  278.27   10.80
   0   6  10  310.77   11.50
  -1  -6 -10  389.56   14.00
  -1  -6 -10  367.26   13.50
   1   6  10  378.56   13.60
  -2  -6 -10    4.80    3.60
   2   6  10    7.20    3.30
   3   6  10  350.06   13.70
  -9   7  10    9.00    3.80
   8  -7 -10   42.60    5.30
  -8   7  10   24.30    4.20
  -7   7  10   42.30    5.20
   6  -7 -10  281.67   11.10
  -6   7  10  266.97   10.80
  -6   7  10  279.87   10.80
   5  -7 -10   29.40    4.30
  -5   7  10   28.60    4.30
   4  -7 -10  137.29    7.40
  -4   7  10  134.39    7.20
  -4   7  10  131.09    7.80
   3  -7 -10  271.57   10.80
  -3   7  10  266.47   10.60
  -3   7  10  256.47   11.30
   2  -7 -10   18.90    4.00
  -2   7  10   17.20    3.40
  -2   7  10   14.00    4.00
   1  -7 -10  393.56   14.00
   1  -7 -10  359.76   12.60
  -1   7  10  413.66   14.00
   0  -7 -10   46.50    5.20
   0  -7 -10   45.50    4.60
   0   7  10   54.09    5.20
  -1  -7 -10  293.77   11.70
  -1  -7 -10  297.87   12.10
   1   7  10  327.17   12.00
  -8   8  10   18.30    7.50
  -7   8  10   29.00    4.50
  -7   8  10   36.00    5.00
   6  -8 -10   13.60    3.60
  -6   8  10   13.70    3.50
   5  -8 -10   25.10    4.20
  -5   8  10   21.80    4.30
   4  -8 -10   13.00    3.30
  -4   8  10    3.10    3.30
  -4   8  10   11.10    3.50
   3  -8 -10  242.18   10.40
  -3   8  10  227.18   10.90
  -3   8  10  262.17   10.20
   2  -8 -10   83.99    6.20
  -2   8  10   90.29    5.90
  -2   8  10   85.49    7.60
   1  -8 -10  362.06   13.40
  -1   8  10  319.87   14.00
  -1   8  10  373.96   12.90
   0  -8 -10  403.76   14.00
   0   8  10  423.76   16.70
  -1  -8 -10    7.60    3.40
  -7   9  10  216.48   10.70
  -6   9  10   24.80    4.70
  -4   9  10   17.10    4.60
  -3   9  10   48.00    6.40
  -2   9  10    1.90    4.00
  -1   9  10   40.00    6.30
  -3 -14  11   -1.30    3.10
  -2 -14  11    3.60    3.00
  -1 -14  11   85.19    5.90
   0 -14  11    6.60    2.90
  -2  14 -11   -2.40    4.60
  -4 -13  11   74.09    6.60
  -3 -13  11    1.50    3.10
  -2 -13  11   -2.60    2.50
  -1 -13  11    2.00    2.70
   0  13 -11   63.89    6.00
   0 -13  11   58.09    5.10
  -1  13 -11   84.79    6.20
   1 -13  11   84.89    5.40
  -2  13 -11   71.09    5.90
  -3  13 -11   99.19    6.40
  -4  13 -11  262.27   10.60
  -5  13 -11  253.67   11.60
  -5 -12  11    0.80    3.70
  -4 -12  11   60.19    6.10
  -3 -12  11   41.30    5.40
  -2 -12  11   -1.30    3.00
   1  12 -11   95.19    6.70
  -1 -12  11   86.09    5.90
   0  12 -11   30.50    4.20
   0 -12  11   25.30    4.00
  -1  12 -11  338.67   12.50
   1 -12  11  319.47   12.90
  -2  12 -11  188.38    8.80
   2 -12  11  188.58    8.00
  -3  12 -11  106.99    6.60
  -4  12 -11  130.79    7.30
  -5  12 -11    3.70    2.80
  -6  12 -11   -6.70    4.10
  -6 -11  11   14.20    4.40
  -5 -11  11  276.47   12.50
  -4 -11  11   55.69    5.90
  -3 -11  11   61.59    5.80
   2  11 -11    1.00    2.80
  -2 -11  11    1.40    2.80
   1  11 -11    1.70    2.60
  -1 -11  11   -0.30    2.50
   0  11 -11   64.29    5.50
   0 -11  11   69.49    5.10
  -1  11 -11   58.59    5.20
  -2  11 -11   72.89    5.60
  -3  11 -11  159.18    7.90
  -4  11 -11  106.29    6.50
  -5  11 -11  256.67   10.50
  -6  11 -11   -2.70    3.10
   7  10 -11   15.70    4.60
   6  10 -11   63.99    6.20
  -5 -10  11   15.80    4.40
  -4 -10  11   10.70    3.80
   3  10 -11    5.00    3.00
  -3 -10  11    2.00    2.80
   2  10 -11   73.79    5.60
  -2 -10  11   79.09    6.30
   1  10 -11   77.19    5.60
  -1 -10  11   79.29    5.60
   0  10 -11   55.69    4.90
  -1  10 -11  389.86   13.40
  -2  10 -11   97.79    6.10
  -3  10 -11    1.20    2.60
  -4  10 -11  206.68    9.20
  -5  10 -11  115.99    6.70
  -6  10 -11    3.20    2.90
  -7  10 -11   -6.20    2.70
  -8  -9  11   23.00    3.50
   7   9 -11   82.29   10.30
  -7  -9  11   76.69    7.20
   6   9 -11   -2.90    3.40
  -6  -9  11    4.50    3.70
   5   9 -11  171.78    8.40
  -5  -9  11  166.78    8.70
  -4  -9  11  122.89    7.30
   3   9 -11   27.90    3.80
  -3  -9  11   31.20    4.50
   2   9 -11   79.49    5.60
  -2  -9  11   89.59    5.80
   1   9 -11   51.29    5.70
  -2   9 -11  261.87   10.10
  -3   9 -11   -1.60    2.20
  -4   9 -11  116.09    6.80
   4  -9  11  122.19    5.20
  -5   9 -11   44.10    4.90
   5  -9  11   48.00    3.80
  -6   9 -11   41.20    5.20
  -7   9 -11  112.59    7.30
   8   8 -11    9.80    4.00
  -8  -8  11    8.10    3.20
  -8  -8  11    9.40    4.50
   7   8 -11   46.20    5.40
  -7  -8  11   37.90    5.50
   6   8 -11  469.15   15.70
  -6  -8  11  464.05   16.40
   5   8 -11   -3.60    3.30
  -5  -8  11   -1.40    2.80
   4   8 -11  469.45   14.90
   4   8 -11  474.85   15.70
  -4  -8  11  497.25   16.10
   3   8 -11   18.90    3.90
  -3  -8  11   17.60    3.60
   2   8 -11  148.99    7.10
  -2  -8  11  146.49    7.20
   1   8 -11    2.90    2.10
   0   8 -11  230.98    9.00
  -1   8 -11    0.50    2.10
  -3   8 -11    5.80    2.80
   3  -8  11    8.40    2.00
  -4   8 -11   26.00    4.10
   4  -8  11   26.80    3.30
  -5   8 -11   22.10    4.10
   5  -8  11   30.20    3.70
  -6   8 -11   85.59    6.60
  -7   8 -11  208.58   10.00
   8   7 -11  274.07   11.20
  -8  -7  11  251.47   11.70
   7   7 -11  219.78    9.80
  -7  -7  11  242.68    8.60
  -7  -7  11  229.38   10.70
   6   7 -11  970.20   27.90
  -6  -7  11  986.60   29.10
  -6  -7  11 1023.00   26.50
   5   7 -11   12.50    3.30
  -5  -7  11   11.20    3.60
  -5  -7  11   15.90    2.60
   4   7 -11  375.96   12.50
  -4  -7  11  393.96   11.30
  -4  -7  11  415.36   15.90
   3   7 -11   30.00    3.90
  -3  -7  11   40.00    4.30
   2   7 -11   32.30    3.80
   1   7 -11  181.98    7.70
   0   7 -11   27.00    3.50
  -1   7 -11   96.29    5.50
   1  -7  11   86.69    3.70
   1  -7  11   97.19    4.00
  -2   7 -11   28.70    3.80
   2  -7  11   29.80    2.70
  -3   7 -11   49.99    3.00
  -3   7 -11   44.00    4.60
   3  -7  11   47.70    3.50
  -4   7 -11   -0.10    2.70
   4  -7  11    1.00    2.00
  -5   7 -11   23.70    3.90
   5  -7  11   22.70    3.40
  -6   7 -11    0.10    2.80
  -7   7 -11   -2.50    3.00
   9   6 -11    7.60    3.80
  -9  -6  11    6.60    4.30
   8   6 -11   16.50    4.20
  -8  -6  11   14.20    4.00
  -8  -6  11   21.20    3.70
   7   6 -11   15.10    3.80
  -7  -6  11   19.40    3.40
  -7  -6  11   13.60    3.90
   6   6 -11   44.10    4.70
  -6  -6  11   40.50    5.10
  -6  -6  11   42.30    4.00
   5   6 -11   52.19    4.40
   5   6 -11   69.89    7.70
   5   6 -11   52.29    3.30
  -5  -6  11   63.49    5.40
  -5  -6  11   53.99    3.90
   4   6 -11  107.99    5.80
   4   6 -11  103.19    4.10
  -4  -6  11  105.09    4.70
  -4  -6  11  102.29    4.40
  -4  -6  11   94.59    6.10
   3   6 -11    0.40    1.80
  -3  -6  11   -0.50    1.00
  -3  -6  11   -1.00    1.50
   2   6 -11    9.50    2.50
  -2  -6  11    7.00    1.50
  -2  -6  11    8.90    1.80
   1   6 -11  118.89    5.90
  -1  -6  11  110.59    4.30
  -1  -6  11  115.69    4.50
   0   6 -11  628.34   18.40
   0   6 -11  596.94   16.40
   0  -6  11  599.64   16.60
   0  -6  11  659.03   16.90
  -1   6 -11   19.10    1.90
  -1   6 -11   17.90    3.00
   1  -6  11   23.60    2.70
   1  -6  11   16.60    1.90
  -2   6 -11  162.88    7.40
  -2   6 -11  166.28    5.90
   2  -6  11  166.98    6.30
  -3   6 -11  105.69    4.70
  -3   6 -11  102.39    6.20
   3  -6  11  112.49    5.90
  -4   6 -11    9.90    3.30
  -4   6 -11   13.00    2.40
   4  -6  11   12.60    2.80
  -5   6 -11    0.90    2.90
  -5   6 -11    3.60    2.30
   5  -6  11    2.30    2.30
  -6   6 -11   11.50    3.60
  -7   6 -11   54.69    6.30
  -9  -5  11   28.30    4.60
  -9  -5  11   21.70    4.80
   8   5 -11  333.57   12.50
  -8  -5  11  329.47   13.40
  -8  -5  11  359.86   11.80
   7   5 -11   84.39    5.90
   7   5 -11   95.59    5.00
  -7  -5  11  108.09    5.60
  -7  -5  11   94.19    6.70
   6   5 -11  610.24   18.50
   6   5 -11  617.74   17.40
  -6  -5  11  656.33   19.90
  -6  -5  11  634.14   18.40
   5   5 -11  281.37    8.90
   5   5 -11  283.27   10.50
   5   5 -11  285.87    9.80
  -5  -5  11  294.37    9.40
  -5  -5  11  293.07   11.10
   4   5 -11   65.39    4.50
   4   5 -11   59.89    3.30
  -4  -5  11   66.79    3.60
  -4  -5  11   62.89    5.10
  -4  -5  11   64.89    3.90
   3   5 -11    1.60    1.40
   3   5 -11    2.70    2.00
  -3  -5  11    3.00    1.70
  -3  -5  11    4.70    1.50
   2   5 -11  124.29    6.00
  -2  -5  11  134.49    5.00
  -2  -5  11  118.59    4.70
   1   5 -11    8.10    1.60
   1   5 -11   11.40    2.50
  -1  -5  11    8.00    1.50
  -1  -5  11    9.00    1.90
   0   5 -11  264.87    8.20
   0   5 -11  266.87    9.70
   0  -5  11  283.17    8.70
   0  -5  11  262.07    8.40
  -1   5 -11   32.70    3.60
  -1   5 -11   36.40    2.70
   1  -5  11   32.40    2.90
  -2   5 -11   13.80    3.00
  -2   5 -11   17.60    2.50
   2  -5  11   13.10    2.40
  -3   5 -11   22.20    3.80
  -3   5 -11   23.20    3.00
  -4   5 -11   84.09    5.90
  -4   5 -11   94.69    6.30
   4  -5  11   86.29    5.30
  -5   5 -11   89.39    6.50
  -5   5 -11   87.99    5.50
   5  -5  11   86.39    5.60
  -6   5 -11  219.08   10.40
  -7   5 -11    0.20    3.80
  10   4 -11   63.99    7.20
   9   4 -11   99.79    6.80
  -9  -4  11   87.19    8.60
   8   4 -11  146.09    6.60
   8   4 -11  128.39    7.20
  -8  -4  11  138.49    8.10
  -8  -4  11  138.29    7.00
   7   4 -11    7.10    2.70
   7   4 -11    6.40    4.00
  -7  -4  11   10.30    3.70
  -7  -4  11    6.50    2.80
   6   4 -11  232.58    8.10
   6   4 -11  230.98    8.70
  -6  -4  11  236.98   10.20
   5   4 -11    0.30    1.80
   5   4 -11    5.40    2.30
   5   4 -11    3.70    2.40
  -5  -4  11    3.10    2.30
  -5  -4  11    2.20    2.50
   4   4 -11  181.08    7.40
   4   4 -11  180.58    6.30
  -4  -4  11  172.88    6.50
  -4  -4  11  184.58    6.70
   3   4 -11  165.38    5.90
   3   4 -11  172.88    7.10
  -3  -4  11  164.08    6.20
   2   4 -11  421.56   12.90
   2   4 -11  397.96   11.40
  -2  -4  11  417.46   11.80
  -2  -4  11  356.56   12.00
   1   4 -11  482.85   13.90
   1   4 -11  502.35   15.20
  -1  -4  11  504.85   14.30
   0   4 -11 1737.93   44.70
   0   4 -11 1809.12   46.00
   0  -4  11 1832.42   45.00
   0  -4  11 1661.53   44.70
  -1   4 -11   12.30    2.30
  -1   4 -11   14.30    2.80
   1  -4  11   11.90    2.40
  -2   4 -11  162.88    7.60
  -2   4 -11  167.58    6.60
   2  -4  11  171.48    6.80
  -3   4 -11  106.39    6.40
   3  -4  11  106.99    5.60
  -4   4 -11   40.80    5.00
  -4   4 -11   38.90    4.10
   4  -4  11   38.10    4.00
  -5   4 -11   -1.60    2.70
  -5   4 -11    6.40    2.40
   5  -4  11    3.00    2.60
  -6   4 -11   58.69    5.60
   6  -4  11   55.29    5.30
  -7   4 -11   65.39    6.70
  10   3 -11   23.60    4.90
  10   3 -11   16.20    5.60
 -10  -3  11   23.70    5.20
   9   3 -11  825.82   25.10
   9   3 -11  895.41   25.40
  -9  -3  11  891.91   25.40
  -9  -3  11  834.32   26.10
   8   3 -11   12.70    3.10
   8   3 -11    9.10    3.50
  -8  -3  11   19.80    3.70
  -8  -3  11    9.50    3.80
   7   3 -11  630.04   19.00
   7   3 -11  645.54   18.50
  -7  -3  11  656.33   18.80
  -7  -3  11  662.33   20.40
   6   3 -11  102.19    5.70
   6   3 -11   90.29    5.50
   6   3 -11   98.69    5.40
  -6  -3  11  103.89    6.30
   5   3 -11    1.50    2.00
   5   3 -11    5.00    2.30
  -5  -3  11    0.10    2.40
  -5  -3  11   -0.90    2.20
   4   3 -11  241.58    8.60
   4   3 -11  217.48    7.70
  -4  -3  11  229.58    8.00
   3   3 -11  604.74   17.40
   3   3 -11  571.44   16.30
  -3  -3  11  596.74   16.70
   2   3 -11  179.88    7.30
   2   3 -11  184.48    6.50
  -2  -3  11  192.38    6.90
  -2  -3  11  175.18    6.80
   1   3 -11   31.70    3.60
   1   3 -11   37.20    2.90
  -1  -3  11   33.60    3.20
   0   3 -11  363.66   12.10
   0   3 -11  362.96   11.20
   0  -3  11  374.66   11.50
  -1   3 -11   90.59    4.70
  -1   3 -11   86.89    5.30
   1  -3  11   80.89    4.60
  -2   3 -11    0.20    2.40
   2  -3  11    1.90    2.00
  -3   3 -11  236.38    9.90
  -3   3 -11  247.38    9.10
   3  -3  11  241.38    9.10
  -4   3 -11   17.50    3.70
  -4   3 -11   14.30    2.90
   4  -3  11   18.60    3.50
  -5   3 -11  336.07   13.10
  -5   3 -11  331.37   11.90
   5  -3  11  330.27   12.00
  -6   3 -11   55.79    4.70
  -6   3 -11   50.09    6.00
   6  -3  11   43.80    5.10
  -7   3 -11   20.60    4.30
  10   2 -11   12.80    4.10
  10   2 -11    9.90    3.90
 -10  -2  11   14.70    4.00
 -10  -2  11    9.50    4.50
   9   2 -11   36.70    5.30
  -9  -2  11   38.40    5.50
  -9  -2  11   38.90    5.00
   8   2 -11  283.17   10.10
   8   2 -11  262.77   10.30
  -8  -2  11  280.47   11.30
  -8  -2  11  278.77   10.40
   7   2 -11   26.80    3.70
   7   2 -11   26.20    4.10
  -7  -2  11   30.80    4.30
  -7  -2  11   38.50    5.00
   6   2 -11  425.06   13.40
   6   2 -11  422.66   13.00
   6   2 -11  421.46   13.00
  -6  -2  11  436.06   14.50
   5   2 -11  945.81   25.70
  -5  -2  11  931.81   26.50
  -5  -2  11  921.31   25.20
   4   2 -11    9.00    2.30
   4   2 -11    6.70    2.20
  -4  -2  11    6.60    2.30
   3   2 -11  136.79    6.00
   3   2 -11  129.09    5.50
  -3  -2  11  127.99    5.60
   2   2 -11    5.50    2.00
   2   2 -11    8.60    2.50
  -2  -2  11    7.00    2.20
   1   2 -11  241.58    8.80
   1   2 -11  237.48    8.20
  -1  -2  11  233.68    8.30
   0   2 -11   33.50    3.90
   0   2 -11   26.10    3.00
   0  -2  11   27.30    3.20
  -1   2 -11    5.00    2.10
  -1   2 -11    3.20    2.20
   1  -2  11    3.70    2.10
  -2   2 -11    1.50    2.00
  -2   2 -11    0.80    2.50
   2  -2  11    1.50    2.20
  -3   2 -11   72.09    5.70
  -3   2 -11   71.79    4.90
   3  -2  11   65.19    4.80
  -4   2 -11   23.20    3.60
  -4   2 -11   22.40    4.20
   4  -2  11   22.10    3.70
  -5   2 -11   11.00    3.60
  -5   2 -11   18.10    3.40
   5  -2  11   18.40    3.70
  -6   2 -11   18.70    3.40
  -6   2 -11    1.60    3.00
   6  -2  11   11.10    3.40
  -7   2 -11   42.80    4.90
  11   1 -11  176.68   10.70
  10   1 -11   38.60    5.50
  10   1 -11   41.50    5.00
 -10  -1  11   40.50    5.40
 -10  -1  11   27.50    5.70
   9   1 -11   93.19    5.90
   9   1 -11   80.79    6.00
  -9  -1  11   94.39    6.30
  -9  -1  11   77.29    6.50
   8   1 -11  190.78    7.90
  -8  -1  11  182.18    8.20
  -8  -1  11  185.78    8.80
   7   1 -11   54.19    4.40
  -7  -1  11   58.89    4.80
   6   1 -11   87.59    5.00
   6   1 -11   85.29    5.00
  -6  -1  11   84.19    5.70
   5   1 -11  197.08    7.40
   5   1 -11  179.58    7.20
  -5  -1  11  180.38    7.40
   4   1 -11   26.50    3.20
   4   1 -11   25.30    3.10
  -4  -1  11   23.40    3.20
   3   1 -11  506.95   15.00
  -3  -1  11  499.15   14.90
   2   1 -11  109.09    5.40
  -2  -1  11  101.39    5.30
   1   1 -11  598.64   17.30
   1   1 -11  577.04   17.00
  -1  -1  11  577.94   17.00
   0   1 -11   11.00    2.50
   0   1 -11    9.70    2.60
   0  -1  11    8.80    2.50
  -1   1 -11   19.20    3.40
  -1   1 -11   23.90    3.40
   1  -1  11   19.30    3.20
  -2   1 -11    2.80    2.50
   2  -1  11    1.40    2.70
  -3   1 -11   -1.00    2.30
  -3   1 -11    2.50    2.20
   3  -1  11    1.20    2.30
  -4   1 -11  143.69    8.10
  -4   1 -11  159.28   11.50
   4  -1  11  154.78    7.60
  -5   1 -11   66.19    6.30
  -5   1 -11   65.99    5.40
   5  -1  11   72.29    5.70
  -6   1 -11   20.60    3.90
  -6   1 -11    8.40    4.60
   6  -1  11   13.30    3.60
 -11   0  11   -1.30    3.60
  10   0 -11   18.80    3.70
 -10   0  11   14.90    4.00
 -10   0  11   21.80    4.50
   9   0 -11   -1.70    2.70
  -9   0  11   -0.80    3.10
  -9   0  11    0.30    3.20
   8   0 -11   41.40    5.10
  -8   0  11   36.10    4.70
  -8   0  11   37.90    4.90
   7   0 -11  299.77   10.60
  -7   0  11  312.47   11.10
  -7   0  11  314.37   11.50
   6   0 -11    0.60    1.90
   6   0 -11    3.20    2.40
  -6   0  11   -0.70    2.60
   5   0 -11  922.91   24.90
   5   0 -11  920.41   25.10
  -5   0  11  908.01   25.20
   4   0 -11  418.46   12.60
   4   0 -11  409.46   12.80
  -4   0  11  398.36   12.90
   3   0 -11    5.60    2.30
   3   0 -11    7.40    2.20
  -3   0  11    6.50    2.40
   2   0 -11  240.78    8.70
   2   0 -11  229.08    8.50
  -2   0  11  239.08    8.70
   1   0 -11   68.99    4.60
   1   0 -11   62.89    4.40
  -1   0  11   65.59    4.50
   0   0 -11   19.60    3.10
   0   0 -11   20.40    3.10
   0   0  11   29.50    3.80
  -1   0 -11   93.99    5.70
  -1   0 -11   90.99    5.40
   1   0  11   88.29    5.30
  -2   0 -11   32.50    4.50
  -2   0 -11   35.30    4.10
   2   0  11   30.60    4.00
  -3   0 -11    5.60    2.80
  -3   0 -11    2.50    3.20
   3   0  11    3.40    2.50
  -4   0 -11   44.40    4.70
  -4   0 -11   37.70    5.00
   4   0  11   27.70    4.00
  -5   0 -11   14.20    4.00
  -5   0 -11   23.20    3.90
   5   0  11   19.10    5.00
  -6   0 -11   37.30    4.60
  11  -1 -11  206.58   12.00
 -11   1  11  183.58    9.30
  10  -1 -11   60.59    5.40
 -10   1  11   48.50    6.10
 -10   1  11   49.10    5.50
   9  -1 -11    1.50    2.90
  -9   1  11    2.30    3.10
  -9   1  11    3.10    3.40
   8  -1 -11    5.20    2.90
  -8   1  11    5.40    3.20
  -8   1  11    3.40    3.10
   7  -1 -11   10.50    3.00
  -7   1  11   14.90    3.40
  -7   1  11   11.60    3.20
   6  -1 -11    0.30    2.40
   6  -1 -11   -1.00    1.80
  -6   1  11    1.50    2.50
  -6   1  11   -0.70    2.30
   5  -1 -11    9.10    2.20
   5  -1 -11    7.90    2.60
  -5   1  11    6.00    2.60
   4  -1 -11  152.48    6.20
   4  -1 -11  144.19    6.60
  -4   1  11  150.18    6.80
   3  -1 -11   32.30    3.60
   3  -1 -11   27.40    3.30
  -3   1  11   29.90    3.60
   2  -1 -11  415.96   12.80
   2  -1 -11  384.16   12.80
  -2   1  11  405.26   13.00
   1  -1 -11    7.30    2.70
   1  -1 -11    8.20    2.40
  -1   1  11    7.60    2.60
   0  -1 -11    3.60    2.50
   0  -1 -11    0.00    2.10
   0   1  11   -1.20    2.00
  -1  -1 -11   28.40    4.10
  -1  -1 -11   28.00    3.90
   1   1  11   26.90    6.00
  -2  -1 -11    7.40    3.20
  -2  -1 -11    6.90    2.80
   2   1  11    9.00    3.00
  -3  -1 -11    2.60    2.70
  -3  -1 -11    2.90    2.80
   3   1  11   -1.90    2.60
  -4  -1 -11  130.09    7.30
  -4  -1 -11  128.89    8.10
   4   1  11  149.49    7.70
  -5  -1 -11  136.49    8.50
  -5  -1 -11  139.49    9.10
   5   1  11  127.09    7.50
  10  -2 -11   -3.80    5.50
 -10   2  11   -1.10    3.20
 -10   2  11   -2.80    3.60
   9  -2 -11   70.99    5.50
  -9   2  11   63.59    5.50
  -9   2  11   62.29    5.80
   8  -2 -11    5.50    3.10
  -8   2  11    5.40    3.30
   7  -2 -11  263.77    9.90
  -7   2  11  254.17   10.00
  -7   2  11  259.47   10.10
   6  -2 -11   18.40    3.70
  -6   2  11   14.00    3.20
  -6   2  11   12.90    3.10
   5  -2 -11  320.47   10.40
   5  -2 -11  332.67   11.20
  -5   2  11  311.87   12.10
   4  -2 -11   23.00    2.90
   4  -2 -11   22.00    3.70
  -4   2  11   20.00    3.40
   3  -2 -11    1.90    2.00
   3  -2 -11    1.90    2.30
  -3   2  11    0.30    2.20
   2  -2 -11  123.49    6.00
   2  -2 -11  121.59    6.30
  -2   2  11  122.19    6.20
   1  -2 -11   39.10    4.20
   1  -2 -11   32.50    3.90
  -1   2  11   38.90    4.20
   0  -2 -11  133.69    6.70
   0  -2 -11  126.99    6.60
  -1  -2 -11   97.89    6.30
   1   2  11  104.59    6.30
  -2  -2 -11  263.47   10.70
  -2  -2 -11  264.77   10.60
   2   2  11  265.17   10.50
  -3  -2 -11  501.55   17.30
  -3  -2 -11  526.15   17.10
   3   2  11  511.55   16.90
  -4  -2 -11   96.99    6.90
  -4  -2 -11   81.49    7.20
   4   2  11   96.89    7.80
  10  -3 -11    8.00    3.60
 -10   3  11   10.40    4.50
 -10   3  11    1.30    3.80
   9  -3 -11    5.80    3.20
  -9   3  11    0.80    3.90
  -9   3  11    1.40    2.70
   8  -3 -11   86.09    5.80
  -8   3  11   84.59    6.20
  -8   3  11   77.99    5.50
   7  -3 -11   40.60    4.80
  -7   3  11   44.10    5.00
  -7   3  11   35.70    4.30
   6  -3 -11  132.79    6.90
  -6   3  11  132.69    6.90
  -6   3  11  136.79    6.60
   5  -3 -11  188.18    9.50
  -5   3  11  176.88    7.30
  -5   3  11  174.48    8.10
   4  -3 -11   50.29    3.70
   4  -3 -11   46.90    4.40
  -4   3  11   50.59    4.80
   3  -3 -11  157.78    7.40
   3  -3 -11  163.48    6.70
  -3   3  11  162.68    7.40
   2  -3 -11  201.18    8.50
   2  -3 -11  200.88    8.00
  -2   3  11  210.38    8.70
   1  -3 -11    3.90    2.30
   0  -3 -11  715.93   21.10
   0  -3 -11  708.03   21.30
   0   3  11  713.63   21.30
  -1  -3 -11   15.90    3.40
  -1  -3 -11   14.30    3.70
   1   3  11   18.60    4.10
  -2  -3 -11   50.19    5.20
  -2  -3 -11   49.40    5.20
   2   3  11   50.79    5.00
  -3  -3 -11    6.00    3.40
  -3  -3 -11    6.30    3.10
   3   3  11   12.90    3.70
  -4  -3 -11   97.99    7.90
  -4  -3 -11  121.39    7.40
   4   3  11  119.29    7.20
   9  -4 -11   47.90    6.20
  -9   4  11   36.20    6.50
   8  -4 -11   12.60    3.50
  -8   4  11   16.40    3.90
  -8   4  11    8.50    3.00
   7  -4 -11  220.98    9.30
  -7   4  11  233.98    9.60
  -7   4  11  216.88    8.70
   6  -4 -11  297.87   11.00
  -6   4  11  277.97   10.80
  -6   4  11  282.77   10.20
   5  -4 -11  287.57   10.70
  -5   4  11  277.07   10.20
  -5   4  11  290.17   10.80
   4  -4 -11   12.10    3.20
  -4   4  11   13.50    3.60
  -4   4  11    8.00    2.90
   3  -4 -11  476.35   15.70
   3  -4 -11  475.75   14.40
  -3   4  11  504.85   17.00
   2  -4 -11   47.70    5.00
   2  -4 -11   50.69    4.20
  -2   4  11   43.60    4.90
   1  -4 -11  425.96   13.90
   1  -4 -11  426.66   14.60
  -1   4  11  435.86   14.60
   0  -4 -11   45.10    4.80
   0  -4 -11   47.20    5.00
   0   4  11   51.89    5.20
  -1  -4 -11  262.87   10.90
  -1  -4 -11  281.97   11.00
   1   4  11  283.67   11.20
  -2  -4 -11  111.99    7.20
  -2  -4 -11  101.49    7.10
   2   4  11  120.19    7.00
  -3  -4 -11  227.18   10.30
  -3  -4 -11  232.98   10.80
   9  -5 -11  206.68    9.60
  -9   5  11  217.98    9.90
  -8   5  11   12.40    3.70
   7  -5 -11   15.80    3.80
  -7   5  11   12.70    3.60
   6  -5 -11   10.40    3.50
  -6   5  11    8.00    3.50
  -6   5  11    4.70    2.70
  -6   5  11    7.30    2.70
   5  -5 -11   87.19    6.00
  -5   5  11   85.69    5.80
  -5   5  11   81.59    6.00
   4  -5 -11   80.29    5.90
  -4   5  11   87.49    6.00
  -4   5  11   85.39    6.00
   3  -5 -11  222.78    9.40
   3  -5 -11  209.18    8.00
  -3   5  11  218.68    9.30
   2  -5 -11  562.94   17.20
   2  -5 -11  598.44   18.70
  -2   5  11  598.54   18.50
   1  -5 -11  145.59    7.00
   1  -5 -11  132.69    7.50
  -1   5  11  142.69    7.60
   0  -5 -11  662.53   21.20
   0  -5 -11  692.73   20.70
   0   5  11  694.73   21.20
  -1  -5 -11   61.69    5.80
  -1  -5 -11   43.80    5.00
   1   5  11   50.09    5.00
  -2  -5 -11   14.70    4.70
  -2  -5 -11   15.10    3.90
   2   5  11   25.50    4.40
   3   5  11   98.39    6.40
  -9   6  11  118.99    7.70
   8  -6 -11   90.19    6.60
  -8   6  11   72.39    9.10
   7  -6 -11  855.51   27.40
  -7   6  11  884.11   25.70
   6  -6 -11    5.90    3.30
  -6   6  11   13.00    3.60
  -6   6  11   -5.30    3.40
   5  -6 -11 1039.60   29.60
  -5   6  11 1042.90   29.60
  -5   6  11 1042.30   29.50
   4  -6 -11   39.70    5.10
  -4   6  11   41.20    4.90
  -4   6  11   26.70    4.40
   3  -6 -11  694.13   21.10
  -3   6  11  656.43   20.70
  -3   6  11  689.93   21.30
   2  -6 -11  281.67   11.40
   2  -6 -11  269.17   10.30
  -2   6  11  279.37   11.20
   1  -6 -11  134.49    7.00
   1  -6 -11  145.39    7.90
  -1   6  11  152.38    8.00
   0  -6 -11  226.88   11.80
   0  -6 -11  222.18    9.50
   0   6  11  229.68   10.00
  -1  -6 -11    1.70    2.60
  -1  -6 -11    7.60    3.40
   1   6  11    7.20    3.30
  -2  -6 -11    1.70    3.10
   2   6  11    4.00    3.40
  -8   7  11   47.60    5.50
   7  -7 -11   53.69    6.80
  -7   7  11   51.99    5.70
   6  -7 -11  116.19    7.00
  -6   7  11   90.49    6.60
  -6   7  11  108.29    6.80
   5  -7 -11   67.59    5.60
  -5   7  11   65.89    5.70
  -5   7  11   65.09    6.10
   4  -7 -11  219.88   11.10
  -4   7  11  206.58    9.90
  -4   7  11  225.08    9.60
   3  -7 -11    5.10    3.60
  -3   7  11    1.50    3.30
  -3   7  11   10.10    3.30
   2  -7 -11  264.17   11.10
  -2   7  11  279.07   10.90
  -2   7  11  259.77   11.80
   1  -7 -11  428.06   15.10
   1  -7 -11  385.56   14.20
  -1   7  11  440.76   14.90
   0  -7 -11   12.60    3.20
   0   7  11   22.10    3.70
  -1  -7 -11  415.76   14.80
  -6   8  11   35.40    4.80
  -5   8  11   23.40    4.50
  -3   8  11   42.90    4.80
  -2   8  11   26.50    4.80
  -5   9  11   11.30    4.30
  -4   9  11   19.40    6.20
  -2 -14  12    3.50    3.60
  -1 -14  12   12.50    3.40
   0  14 -12   33.20    4.80
   0 -14  12   33.50    4.50
  -2  14 -12   89.59    6.70
  -4 -13  12   -1.40    3.40
  -3 -13  12   12.80    4.50
  -2 -13  12   23.00    4.30
   1  13 -12   16.90    4.20
  -1 -13  12    1.10    2.80
   0 -13  12   91.19    6.10
  -1  13 -12   59.69    6.10
   1 -13  12   53.09    4.80
  -2  13 -12   12.70    4.50
   2 -13  12   16.30    3.10
  -3  13 -12    6.90    3.00
  -4  13 -12    8.60    3.20
  -4 -12  12    2.80    4.00
  -3 -12  12  311.17   12.40
   2  12 -12   21.90    4.40
  -2 -12  12   19.00    4.00
   1  12 -12  672.23   21.10
  -1 -12  12  659.03   20.60
   0  12 -12   62.49    5.90
   0 -12  12   51.69    5.40
  -1  12 -12  646.24   20.40
   1 -12  12  644.94   19.80
  -2  12 -12   78.69    6.20
  -3  12 -12  225.38    9.80
  -5  12 -12    9.90    3.20
  -5 -11  12   26.80    5.30
  -4 -11  12    7.20    3.80
   3  11 -12   18.50    4.30
  -3 -11  12   21.60    4.40
   2  11 -12  203.18    9.30
  -2 -11  12  192.08    9.10
   1  11 -12    2.50    2.90
  -1 -11  12   -2.00    2.80
   0  11 -12  434.86   15.40
   0 -11  12  470.05   15.30
  -1  11 -12  267.37   10.80
  -2  11 -12   46.40    5.00
  -3  11 -12   76.69    5.70
  -4  11 -12    6.90    2.80
  -5  11 -12    4.50    2.80
   7  10 -12   18.60    4.80
  -6 -10  12    7.50    4.10
  -5 -10  12   -1.70    3.20
  -4 -10  12   15.60    4.10
   3  10 -12  304.17   11.90
  -3 -10  12  306.87   12.00
   2  10 -12   98.89    6.50
  -2 -10  12  100.49    6.60
   1  10 -12  347.07   12.90
  -1 -10  12  371.16   13.00
   0  10 -12  288.87   11.20
  -1  10 -12   40.00    4.60
  -2  10 -12  250.67   10.30
  -3  10 -12   14.10    3.40
  -4  10 -12   35.10    4.60
  -6  10 -12   99.29    6.80
   6 -10  12  100.79    5.50
  -8  -9  12   39.60    4.90
  -7  -9  12   -2.90    3.40
   6   9 -12    3.80    2.80
  -6  -9  12    3.90    3.70
   5   9 -12   30.40    4.40
  -5  -9  12   23.90    4.70
   4   9 -12   87.09    6.30
  -4  -9  12   95.39    6.60
   3   9 -12    9.50    3.00
  -3  -9  12   12.70    3.40
   2   9 -12   97.09    6.10
  -2  -9  12  108.09    6.40
   1   9 -12    2.00    2.30
   0   9 -12    1.80    2.30
  -1   9 -12    0.60    2.20
  -2   9 -12    1.00    2.30
  -3   9 -12  209.28    9.20
  -4   9 -12   36.80    4.70
   4  -9  12   36.40    3.20
  -5   9 -12  197.98    9.30
   5  -9  12  195.18    7.70
  -6   9 -12  120.19    7.60
   6  -9  12  127.49    6.20
   8   8 -12   73.79    6.20
  -8  -8  12   65.49    5.10
   7   8 -12    2.80    3.00
  -7  -8  12   -0.60    3.50
   6   8 -12   15.60    3.70
  -6  -8  12   10.60    2.80
  -6  -8  12   16.20    4.40
   5   8 -12    3.90    3.50
  -5  -8  12    0.80    3.00
   4   8 -12    3.60    2.70
  -4  -8  12    8.70    3.40
   3   8 -12   33.10    4.30
  -3  -8  12   43.00    5.20
   2   8 -12   26.60    3.70
   1   8 -12    5.40    2.70
   0   8 -12   94.59    5.70
  -1   8 -12   12.10    2.90
  -2   8 -12  168.98    7.80
   2  -8  12  155.58    5.90
  -3   8 -12  276.97   10.90
   3  -8  12  272.77    9.10
  -4   8 -12   61.49    5.50
   4  -8  12   55.89    4.10
  -5   8 -12  192.08    9.30
   5  -8  12  187.48    7.90
  -6   8 -12   34.00    5.00
   6  -8  12   38.50    4.20
   8   7 -12  125.09    8.50
  -8  -7  12  115.69    9.20
  -8  -7  12  100.39    7.70
   7   7 -12   42.10    4.70
  -7  -7  12   40.00    5.70
  -7  -7  12   34.70    4.10
   6   7 -12  103.99    6.00
  -6  -7  12   87.89    5.10
  -6  -7  12   99.89    7.00
   5   7 -12  397.26   13.80
   5   7 -12  393.36   12.90
  -5  -7  12  389.26   14.10
   4   7 -12  285.57   10.90
  -4  -7  12  284.27    8.90
  -4  -7  12  293.37   11.40
   3   7 -12   27.80    3.80
  -3  -7  12   31.20    2.90
   2   7 -12  162.78    8.50
   1   7 -12   90.69    5.50
   0   7 -12  185.08   10.10
  -1   7 -12   19.40    3.40
   1  -7  12   21.70    2.60
  -2   7 -12   84.99    5.50
   2  -7  12   78.99    4.20
  -3   7 -12    3.20    2.50
   3  -7  12    5.00    2.00
  -4   7 -12   -0.80    2.80
   4  -7  12    3.70    2.20
  -5   7 -12   61.49    5.70
   5  -7  12   55.59    4.60
  -6   7 -12   47.60    5.80
   6  -7  12   44.70    4.70
   9   6 -12  123.99    7.60
  -9  -6  12  122.39    8.80
   8   6 -12   24.10    4.30
  -8  -6  12   14.20    4.50
  -8  -6  12   21.40    3.80
   7   6 -12   37.10    4.50
  -7  -6  12   36.60    4.10
  -7  -6  12   38.60    5.30
   6   6 -12    6.80    3.00
  -6  -6  12    8.50    2.60
  -6  -6  12    5.00    3.40
   5   6 -12   52.79    4.90
   5   6 -12   52.39    3.40
   5   6 -12   55.69    4.20
  -5  -6  12   54.79    5.20
   4   6 -12    3.40    1.80
  -4  -6  12    2.40    2.00
  -4  -6  12    2.40    2.60
   3   6 -12   58.49    2.90
   3   6 -12   49.40    4.30
  -3  -6  12   59.29    3.50
   2   6 -12    3.10    1.10
   2   6 -12   -2.00    1.70
  -2  -6  12   -0.10    1.50
  -2  -6  12    1.10    1.10
   1   6 -12   49.90    2.60
   1   6 -12   44.00    4.10
  -1  -6  12   49.20    3.10
  -1  -6  12   42.40    2.60
   0   6 -12   59.39    3.30
   0   6 -12   62.29    4.50
   0  -6  12   51.59    3.00
   0  -6  12   63.79    3.60
  -1   6 -12   10.70    1.70
   1  -6  12    9.90    2.30
  -2   6 -12   18.10    2.10
  -2   6 -12    9.10    2.70
  -3   6 -12    4.20    1.70
  -3   6 -12   -3.40    2.20
   3  -6  12    0.70    1.90
  -4   6 -12    7.50    3.30
   4  -6  12   12.90    2.80
  -5   6 -12   59.19    6.10
   5  -6  12   57.29    4.80
  -6   6 -12  106.29    7.50
   6  -6  12  102.59    6.40
   9   5 -12   13.50    3.80
  -9  -5  12    4.70    3.10
  -9  -5  12    9.00    4.00
   8   5 -12   65.59    5.40
  -8  -5  12   59.29    5.20
  -8  -5  12   61.99    6.20
   7   5 -12   60.69    4.90
  -7  -5  12   53.69    4.60
  -7  -5  12   57.29    5.80
   6   5 -12    7.30    2.30
   6   5 -12    8.00    2.80
  -6  -5  12   11.00    2.80
  -6  -5  12   12.60    3.60
   5   5 -12  101.39    7.10
   5   5 -12   91.39    4.30
  -5  -5  12   99.99    6.40
  -5  -5  12   89.79    6.10
   4   5 -12  538.45   15.20
   4   5 -12  563.94   17.20
  -4  -5  12  553.14   15.70
  -4  -5  12  565.34   17.90
   3   5 -12   65.49    3.30
   3   5 -12   63.59    4.50
  -3  -5  12   60.59    3.70
  -3  -5  12   60.39    3.40
   2   5 -12   27.20    2.40
   2   5 -12   27.50    3.50
  -2  -5  12   23.10    2.20
  -2  -5  12   21.40    2.60
   1   5 -12   90.49    5.20
   1   5 -12   88.29    3.90
  -1  -5  12   89.09    4.30
  -1  -5  12   84.69    3.90
   0   5 -12  102.49    4.30
   0   5 -12  105.99    5.80
   0  -5  12  103.79    4.80
   0  -5  12   80.89    4.20
  -1   5 -12  159.28    6.10
  -1   5 -12  168.68    7.90
   1  -5  12  177.58    6.70
  -2   5 -12   60.19    4.90
  -2   5 -12   55.29    3.80
   2  -5  12   49.99    4.30
  -3   5 -12  386.26   12.50
  -3   5 -12  400.06   13.90
   3  -5  12  401.76   12.90
  -4   5 -12   92.59    6.60
  -4   5 -12   96.69    5.40
   4  -5  12   93.69    5.60
  -5   5 -12  262.87   11.20
   5  -5  12  239.98    9.80
  -6   5 -12   36.80    5.50
   6  -5  12   48.30    5.20
   9   4 -12   11.20    3.30
  -9  -4  12    1.60    3.70
  -9  -4  12    2.60    3.30
   8   4 -12   36.90    6.40
   8   4 -12   40.00    5.10
  -8  -4  12   37.50    5.50
  -8  -4  12   41.90    4.80
   7   4 -12   58.89    4.30
  -7  -4  12   58.19    5.70
  -7  -4  12   55.79    4.70
   6   4 -12   43.10    3.60
   6   4 -12   47.90    7.20
   6   4 -12   41.40    4.00
  -6  -4  12   33.40    4.80
  -6  -4  12   46.00    4.10
   5   4 -12    2.00    2.20
   5   4 -12    1.20    1.80
  -5  -4  12    2.80    2.40
  -5  -4  12   -4.30    2.50
   4   4 -12  153.08    7.00
   4   4 -12  150.48    5.80
  -4  -4  12  159.88    6.30
   3   4 -12    1.60    1.60
   3   4 -12    2.40    2.00
  -3  -4  12    2.20    1.80
  -3  -4  12    2.90    1.70
   2   4 -12    3.50    1.60
   2   4 -12    6.90    2.30
  -2  -4  12    4.70    1.90
  -2  -4  12    6.70    1.70
   1   4 -12   90.39    5.30
   1   4 -12   83.89    4.10
  -1  -4  12   86.19    4.50
   0   4 -12   62.39    3.70
   0   4 -12   63.79    4.70
   0  -4  12   68.89    4.10
  -1   4 -12    4.00    2.00
  -1   4 -12    6.70    2.60
   1  -4  12    6.10    2.20
  -2   4 -12  156.18    7.70
  -2   4 -12  147.69    7.20
   2  -4  12  162.48    6.90
  -3   4 -12    0.10    2.30
  -3   4 -12    4.70    2.80
   3  -4  12    2.60    2.30
  -4   4 -12  116.29    7.40
  -4   4 -12  134.29    6.40
   4  -4  12  123.19    6.50
  -5   4 -12   86.29    7.70
  -6   4 -12   -2.70    3.20
  10   3 -12  275.97   12.10
   9   3 -12   29.60    4.50
  -9  -3  12   15.10    5.40
  -9  -3  12   21.80    4.40
   8   3 -12  290.57   10.80
   8   3 -12  291.27   10.20
  -8  -3  12  297.87   10.90
  -8  -3  12  296.67   12.00
   7   3 -12  276.77    9.60
   7   3 -12  271.37   10.00
  -7  -3  12  277.67   11.40
  -7  -3  12  282.87   10.10
   6   3 -12  293.97   10.60
   6   3 -12  286.97    9.90
  -6  -3  12  303.77   10.40
  -6  -3  12  311.37   11.70
   5   3 -12   74.79    5.00
   5   3 -12   79.69    4.40
  -5  -3  12   80.69    5.70
   4   3 -12  268.47    9.50
   4   3 -12  254.67    8.60
  -4  -3  12  257.17    8.90
   3   3 -12   67.59    3.90
   3   3 -12   72.89    4.60
  -3  -3  12   64.39    4.10
   2   3 -12   10.90    2.20
   2   3 -12   13.40    2.70
  -2  -3  12   11.40    2.40
   1   3 -12    1.30    1.90
   1   3 -12    2.20    1.60
  -1  -3  12    1.50    1.80
   0   3 -12   40.30    4.10
   0   3 -12   29.90    3.20
   0  -3  12   32.10    3.40
  -1   3 -12  301.27   11.30
  -1   3 -12  283.87   10.80
   1  -3  12  308.67   11.10
  -2   3 -12   27.60    4.20
  -2   3 -12   34.30    3.80
   2  -3  12   33.00    3.70
  -3   3 -12  180.38    7.70
  -3   3 -12  169.08    8.40
   3  -3  12  163.38    7.60
  -4   3 -12    3.80    2.40
  -4   3 -12   -4.80    2.30
   4  -3  12   -1.30    2.30
  -5   3 -12   44.10    6.00
   5  -3  12   34.50    5.20
  10   2 -12  143.29    7.90
 -10  -2  12  160.88    9.00
   9   2 -12   69.99    5.60
   9   2 -12   78.99    5.40
  -9  -2  12   76.99    6.20
  -9  -2  12   82.09    6.70
   8   2 -12   30.60    4.30
   8   2 -12   25.10    3.70
  -8  -2  12   19.40    4.20
  -8  -2  12   23.00    4.00
   7   2 -12  296.97   10.40
   7   2 -12  284.47   10.10
  -7  -2  12  301.17   10.70
  -7  -2  12  305.47   11.80
   6   2 -12   24.10    3.60
   6   2 -12   17.10    3.00
   6   2 -12   15.80    3.10
  -6  -2  12   19.50    3.60
  -6  -2  12   15.30    3.60
   5   2 -12  290.37    9.90
   5   2 -12  305.27   10.40
   4   2 -12  413.76   12.90
   4   2 -12  397.56   13.10
  -4  -2  12  385.06   12.40
   3   2 -12   19.80    3.20
   3   2 -12   18.70    3.20
  -3  -2  12   23.30    3.30
   2   2 -12  402.66   12.80
   2   2 -12  369.16   12.70
  -2  -2  12  405.66   12.40
   1   2 -12   78.49    5.10
   1   2 -12   87.09    5.20
  -1  -2  12   90.69    5.10
   0   2 -12   55.69    4.50
   0   2 -12   54.99    4.00
   0  -2  12   52.29    4.10
  -1   2 -12  294.17   10.30
   1  -2  12  291.07   10.40
  -2   2 -12   37.60    4.10
  -2   2 -12   43.50    4.70
   2  -2  12   33.70    3.90
  -3   2 -12  225.28    8.90
  -3   2 -12  205.38    9.30
   3  -2  12  193.68    8.60
  -4   2 -12   59.09    5.70
  -4   2 -12   63.19    6.00
   4  -2  12   65.89    5.30
  -5   2 -12    9.70    3.20
  -5   2 -12    9.20    3.60
   5  -2  12    4.30    2.70
  -6   2 -12   22.20    4.20
  10   1 -12    4.70    3.50
  10   1 -12   -3.10    3.40
 -10  -1  12    2.30    3.80
   9   1 -12   -4.10    2.80
   9   1 -12   -2.70    2.90
  -9  -1  12    2.60    4.30
  -9  -1  12    1.20    3.30
   8   1 -12    1.50    2.50
   8   1 -12   -2.10    2.80
  -8  -1  12    3.60    3.50
  -8  -1  12    0.70    2.70
   7   1 -12   47.50    4.30
  -7  -1  12   50.69    4.90
  -7  -1  12   47.70    5.20
   6   1 -12   29.80    3.80
   6   1 -12   32.60    3.70
  -6  -1  12   36.00    4.30
   5   1 -12  237.78    8.70
   5   1 -12  242.68    8.80
  -5  -1  12  245.28   10.10
   4   1 -12   70.59    4.40
   4   1 -12   56.59    4.20
  -4  -1  12   64.59    4.50
   3   1 -12   20.70    3.00
   3   1 -12   25.00    3.30
  -3  -1  12   21.20    3.30
   2   1 -12   11.20    2.60
   2   1 -12   14.20    2.70
  -2  -1  12   10.70    2.60
   1   1 -12  114.19    6.10
   1   1 -12  119.69    5.80
  -1  -1  12  115.69    5.80
   0   1 -12   15.70    3.00
   0   1 -12   13.30    3.10
   0  -1  12   22.30    5.30
  -1   1 -12   -0.70    2.00
  -1   1 -12    4.50    2.70
   1  -1  12    1.60    2.20
  -2   1 -12    0.70    2.30
  -2   1 -12    1.10    2.40
   2  -1  12    2.00    2.30
  -3   1 -12   21.90    4.00
   3  -1  12   20.80    3.90
  -4   1 -12    2.80    2.90
  -4   1 -12    8.60    3.60
   4  -1  12    4.10    3.00
  -5   1 -12   20.00    4.50
  -5   1 -12   19.10    3.70
   5  -1  12   12.70    3.50
  -6   1 -12   19.90    4.00
  10   0 -12   25.30    4.00
  10   0 -12   15.70    4.10
 -10   0  12   14.30    7.70
   9   0 -12   46.20    4.90
  -9   0  12   42.70    5.20
  -9   0  12   34.30    5.90
   8   0 -12   -0.80    2.40
  -8   0  12    1.00    2.70
   7   0 -12  197.58    8.20
  -7   0  12  202.08    9.10
  -7   0  12  205.88    8.60
   6   0 -12    3.60    2.10
   6   0 -12    2.60    2.50
  -6   0  12    0.80    2.60
  -6   0  12    2.50    2.50
   5   0 -12  132.89    6.40
   5   0 -12  132.09    6.20
  -5   0  12  138.59    6.50
   4   0 -12   45.70    4.10
   4   0 -12   49.40    3.90
  -4   0  12   48.00    5.10
   3   0 -12    8.70    2.50
   3   0 -12    7.80    2.30
  -3   0  12   10.70    2.60
   2   0 -12   -1.20    1.90
   2   0 -12    1.90    2.10
  -2   0  12   -3.40    1.90
   1   0 -12    6.50    2.50
   1   0 -12    6.90    2.60
  -1   0  12    4.10    2.70
   0   0 -12  442.06   14.40
   0   0 -12  425.56   14.00
   0   0  12  448.56   14.30
  -1   0 -12  191.98    8.40
  -1   0 -12  207.28    8.90
   1   0  12  207.48    8.70
  -2   0 -12   80.59    6.00
  -2   0 -12   85.79    8.70
   2   0  12   77.89    5.40
  -3   0 -12  103.39    6.30
  -3   0 -12   87.59    6.60
   3   0  12   90.09    6.10
  -4   0 -12   10.50    3.70
  -4   0 -12    9.50    3.90
  -5   0 -12   15.00    4.30
  10  -1 -12   34.60    7.20
 -10   1  12   39.20    5.50
   9  -1 -12   30.60    4.40
  -9   1  12   38.30    5.10
  -9   1  12   43.80    5.60
   8  -1 -12   88.09    5.70
  -8   1  12   76.99    6.10
  -8   1  12   84.59    6.00
   7  -1 -12    2.30    2.60
  -7   1  12    0.90    2.80
  -7   1  12    2.70    2.90
   6  -1 -12  405.86   12.70
   6  -1 -12  412.76   13.50
  -6   1  12  428.46   14.20
  -6   1  12  416.86   13.70
   5  -1 -12   35.90    3.50
   5  -1 -12   35.30    4.20
  -5   1  12   38.00    4.30
   4  -1 -12  384.86   12.30
   4  -1 -12  377.56   12.80
  -4   1  12  412.26   13.50
   3  -1 -12   42.30    4.00
   3  -1 -12   37.50    4.00
   2  -1 -12  104.99    5.90
   2  -1 -12  113.99    5.90
   1  -1 -12  321.07   11.30
   1  -1 -12  313.27   11.30
  -1   1  12  327.47   11.50
   0  -1 -12   15.10    3.20
   0  -1 -12   18.70    5.40
   0   1  12   17.20    3.40
  -1  -1 -12  186.68    8.70
   1   1  12  194.38    8.50
  -2  -1 -12    5.70    3.10
  -2  -1 -12    3.90    2.90
   2   1  12    8.30    3.30
  -3  -1 -12   12.10    3.10
  -3  -1 -12    7.10    3.30
   3   1  12    8.80    3.30
  -4  -1 -12   90.39    6.60
  -4  -1 -12   72.89    6.80
   4   1  12   76.89    6.40
  10  -2 -12    1.30    3.30
   9  -2 -12    4.70    3.20
  -9   2  12   -1.40    3.40
  -9   2  12   -4.20    3.00
   8  -2 -12   16.10    3.50
  -8   2  12   14.00    3.80
  -8   2  12   15.20    4.10
   7  -2 -12    0.70    2.70
  -7   2  12   -5.00    5.20
  -7   2  12    3.10    3.20
   6  -2 -12   35.20    4.50
   6  -2 -12   30.80    3.30
  -6   2  12   30.40    4.40
  -6   2  12   35.60    4.40
   5  -2 -12   -0.40    1.80
   5  -2 -12    0.10    2.80
  -5   2  12    2.20    2.30
  -5   2  12   -0.70    2.50
   4  -2 -12  101.39    5.20
   4  -2 -12  109.89    6.10
  -4   2  12  100.29    6.00
   3  -2 -12   18.20    3.40
   3  -2 -12   12.80    2.70
  -3   2  12   18.30    3.70
   2  -2 -12  114.29    6.30
   2  -2 -12  109.89    6.00
  -2   2  12  117.19    6.40
   1  -2 -12   31.00    4.20
  -1   2  12   34.10    4.30
   0  -2 -12   20.60    3.80
   0  -2 -12   19.30    3.60
   0   2  12   19.20    3.70
  -1  -2 -12   50.99    5.10
  -1  -2 -12   48.80    4.80
   1   2  12   45.00    5.00
  -2  -2 -12   13.80    3.60
  -2  -2 -12   11.90    3.80
   2   2  12    9.40    3.30
  -3  -2 -12  137.09    7.70
  -3  -2 -12  109.49    9.90
  -4  -2 -12   70.39    5.90
   4   2  12   64.39    7.00
   9  -3 -12   17.10    3.80
  -9   3  12   17.10    4.00
   8  -3 -12   34.10    4.60
  -8   3  12   32.40    4.70
  -8   3  12   31.30    4.20
   7  -3 -12    0.90    2.70
  -7   3  12   -0.40    3.30
  -7   3  12   -0.90    3.10
   6  -3 -12   72.89    5.80
  -6   3  12   67.69    5.40
  -6   3  12   83.89    5.80
   5  -3 -12  252.57    9.90
  -5   3  12  244.88    9.30
  -5   3  12  251.97   10.00
   4  -3 -12    9.00    3.00
   4  -3 -12   10.80    2.50
  -4   3  12   12.90    3.40
   3  -3 -12  695.13   21.30
   3  -3 -12  714.03   20.30
  -3   3  12  730.33   21.40
   2  -3 -12   10.30    3.30
   2  -3 -12   11.00    2.70
  -2   3  12    8.30    3.30
   1  -3 -12  831.12   24.20
   1  -3 -12  834.12   24.50
  -1   3  12  838.02   24.50
   0  -3 -12   10.00    3.30
   0  -3 -12    9.10    3.40
   0   3  12   11.90    3.60
  -1  -3 -12  134.79    7.40
  -1  -3 -12  137.59    7.60
   1   3  12  134.09    7.40
  -2  -3 -12   16.70    3.80
  -2  -3 -12    8.20    3.60
   2   3  12   14.50    4.00
  -3  -3 -12    4.70    3.10
  -3  -3 -12    3.90    3.10
   3   3  12    1.50    2.80
   9  -4 -12   50.09    5.60
  -9   4  12   61.69    6.20
  -8   4  12   -7.20    2.80
   7  -4 -12  224.38    9.40
  -7   4  12  188.68    8.50
  -7   4  12  209.38    9.50
   6  -4 -12   45.20    5.20
  -6   4  12   48.40    5.40
  -6   4  12   44.10    4.70
   5  -4 -12  103.19    6.50
  -5   4  12  115.19    6.80
  -5   4  12   98.39    6.20
   4  -4 -12  174.98    8.30
   4  -4 -12  163.08    6.80
  -4   4  12  176.88    8.30
  -4   4  12  179.58    8.20
   3  -4 -12   33.90    3.70
   3  -4 -12   45.50    5.00
  -3   4  12   41.80    4.70
   2  -4 -12   10.10    3.00
   2  -4 -12   12.40    3.70
  -2   4  12    6.10    3.20
   1  -4 -12    1.10    2.50
   1  -4 -12    6.90    3.20
  -1   4  12   10.20    3.40
   0  -4 -12   83.39    6.20
   0  -4 -12   88.59    6.00
   0   4  12   96.89    6.30
  -1  -4 -12  127.29    7.50
  -1  -4 -12  141.19    8.10
   1   4  12  122.39    7.30
  -2  -4 -12    3.80    3.30
  -2  -4 -12    4.30    3.30
   2   4  12   15.00    3.50
   8  -5 -12  142.49    8.10
  -8   5  12  148.49    8.10
   7  -5 -12  554.74   22.80
  -7   5  12  593.74   18.80
   6  -5 -12  229.08    9.90
  -6   5  12  214.18    8.80
  -6   5  12  229.28    9.90
   5  -5 -12  528.75   17.40
  -5   5  12  533.45   17.40
  -5   5  12  551.54   19.60
   4  -5 -12  535.25   17.20
  -4   5  12  522.55   17.10
  -4   5  12  509.95   17.10
   3  -5 -12   89.09    6.50
  -3   5  12   85.29    6.40
   2  -5 -12  132.49    6.50
   2  -5 -12  118.29    7.50
  -2   5  12  123.79    7.30
   1  -5 -12   -0.90    2.50
   1  -5 -12    6.40    3.20
  -1   5  12    3.70    2.80
   0  -5 -12   -3.80    2.50
   0  -5 -12    2.20    4.10
   0   5  12    8.60    3.20
  -1  -5 -12   21.30    4.30
  -1  -5 -12   21.90    4.50
   1   5  12   26.90    5.60
   2   5  12   50.59    5.50
  -8   6  12   10.70    3.70
   7  -6 -12  480.25   17.30
  -7   6  12  546.45   19.80
   6  -6 -12  274.67   11.60
  -6   6  12  279.17   11.50
   5  -6 -12    5.40    3.50
  -5   6  12    4.90    3.70
  -5   6  12   -0.30    2.70
  -4   6  12  332.27   12.80
  -4   6  12  311.37   12.30
   3  -6 -12  318.67   15.60
  -3   6  12  372.66   13.30
  -3   6  12  376.56   14.00
   2  -6 -12   25.30    4.80
  -2   6  12   26.50    4.60
   1  -6 -12  311.97   11.80
   1  -6 -12  352.86   13.30
  -1   6  12  351.16   13.00
   0  -6 -12   49.20    5.10
  -1  -6 -12  223.28   10.40
   1   6  12  260.57   11.00
  -7   7  12   50.69    5.60
  -6   7  12   78.09    6.20
  -6   7  12   59.89    6.40
  -5   7  12  360.56   13.60
   4  -7 -12    9.90    6.00
  -4   7  12    5.50    3.30
  -4   7  12   18.20    4.00
  -3   7  12  812.22   26.10
  -3   7  12  816.62   25.80
  -2   7  12   11.90    4.10
  -1   7  12  883.61   26.50
  -5   8  12   48.90    6.10
  -4   8  12  197.38   10.40
  -1 -14  13   63.49    5.70
   0 -14  13    0.80    4.30
  -3 -13  13   79.89    6.50
  -2 -13  13   37.90    6.40
   1  13 -13  154.08    8.60
  -1 -13  13  143.39    7.80
   0  13 -13   72.79    6.20
   0 -13  13   60.19    5.40
  -1  13 -13   61.09    5.80
   1 -13  13   53.59    5.00
  -2  13 -13    0.80    2.90
   2 -13  13    4.60    2.70
  -3  13 -13   76.59    7.40
  -4 -12  13  103.99    7.60
   2  12 -13   19.80    4.10
  -2 -12  13   20.50    4.20
  -1 -12  13  253.97   10.60
   0  12 -13   27.60    5.60
   0 -12  13   29.60    4.40
  -1  12 -13    4.50    3.80
   1 -12  13    3.10    2.70
  -2  12 -13    4.30    4.60
  -3  12 -13   17.10    3.70
  -4  12 -13    2.30    3.10
  -5 -11  13  131.49    8.50
  -3 -11  13    9.60    3.70
   2  11 -13  393.66   14.20
  -2 -11  13  369.96   13.90
   1  11 -13  115.69    7.20
  -1 -11  13  121.09    7.30
   0  11 -13   91.89    6.40
   0 -11  13   87.99    6.20
  -1  11 -13  136.79    7.50
  -2  11 -13   42.30    5.00
  -4  11 -13   83.89    6.30
  -6 -10  13   30.10    5.40
  -5 -10  13    1.60    5.70
   4  10 -13    2.70    3.20
  -4 -10  13   -1.10    3.10
   3  10 -13   60.99    5.70
  -3 -10  13   69.59    6.00
   2  10 -13    5.60    3.00
  -2 -10  13    3.40    3.30
   1  10 -13    3.00    2.40
  -1 -10  13    7.60    3.20
   0  10 -13    3.60    2.50
  -1  10 -13  131.39    7.30
  -2  10 -13  179.48    8.60
  -3  10 -13    3.40    2.60
  -4  10 -13  291.97   12.10
  -5  10 -13   12.70    3.60
   7   9 -13   79.99    6.20
   6   9 -13   75.89    5.50
  -6  -9  13   54.09    6.20
  -5  -9  13   28.20    5.00
   4   9 -13    9.30    3.40
  -4  -9  13    3.20    3.30
   3   9 -13   37.00    4.70
  -3  -9  13   41.50    5.20
   2   9 -13    7.70    3.00
  -2  -9  13   10.20    3.20
   1   9 -13  341.27   12.50
   0   9 -13  215.48    9.30
  -1   9 -13  220.38    9.40
  -2   9 -13   87.49    6.00
  -3   9 -13   61.69    5.40
  -4   9 -13   12.30    4.50
   4  -9  13   10.00    2.20
  -5   9 -13    5.80    3.30
   5  -9  13    8.70    2.30
   8   8 -13  137.39    7.70
  -7  -8  13   31.20    5.60
  -7  -8  13   32.90    3.90
   6   8 -13  167.58    7.90
  -6  -8  13  153.98    8.90
  -6  -8  13  161.38    6.40
   5   8 -13   10.30    3.50
   5   8 -13   20.90    5.90
  -5  -8  13   19.20    4.40
   4   8 -13  120.49    7.00
  -4  -8  13  123.69    7.40
   3   8 -13   34.40    4.50
  -3  -8  13   35.20    4.80
   2   8 -13  352.26   12.70
   1   8 -13  118.49    6.70
   0   8 -13  150.38    7.40
  -1   8 -13  128.59    7.00
  -2   8 -13   66.49    5.40
   2  -8  13   55.39    3.60
  -3   8 -13   79.09    6.10
   3  -8  13   86.49    4.60
  -4   8 -13   -2.40    2.60
   4  -8  13   -0.90    2.00
  -5   8 -13   16.70    4.00
   5  -8  13   12.10    2.70
  -8  -7  13   11.00    3.50
   7   7 -13    2.40    2.80
  -7  -7  13    4.60    2.70
  -7  -7  13   -0.70    4.10
   6   7 -13    8.40    2.80
  -6  -7  13    4.70    3.50
  -6  -7  13   10.60    2.70
   5   7 -13    2.90    2.60
  -5  -7  13    2.80    2.30
  -5  -7  13    9.80    3.70
   4   7 -13   86.79    5.90
  -4  -7  13   82.79    6.20
   3   7 -13  264.37   10.30
  -3  -7  13  257.17    8.30
   2   7 -13    1.10    2.20
  -2  -7  13   -0.20    1.50
   1   7 -13  615.64   19.20
  -1  -7  13  632.14   17.00
   0   7 -13   69.69    5.10
   0  -7  13   61.49    3.60
  -1   7 -13   19.10    3.40
   1  -7  13   20.20    3.20
  -2   7 -13   74.89    5.60
   2  -7  13   70.79    4.20
  -3   7 -13    8.70    2.90
   3  -7  13   15.30    2.60
  -4   7 -13  192.38    9.40
   4  -7  13  173.38    7.60
  -5   7 -13   28.00    4.80
   5  -7  13   38.80    4.30
   9   6 -13  199.88   10.30
   8   6 -13  109.99    6.60
  -8  -6  13   93.89    7.30
  -8  -6  13  111.49    6.20
   7   6 -13   81.59    5.50
  -7  -6  13   76.89    6.70
  -7  -6  13   70.89    5.00
   6   6 -13   40.30    4.10
  -6  -6  13   42.60    5.30
  -6  -6  13   49.00    4.10
   5   6 -13    3.80    2.60
  -5  -6  13    3.50    3.20
  -5  -6  13    2.50    2.10
   4   6 -13   79.79    5.50
  -4  -6  13   82.99    6.10
   3   6 -13   29.10    3.90
  -3  -6  13   30.30    3.00
   2   6 -13    1.80    2.20
  -2  -6  13    4.20    1.80
   1   6 -13    2.10    2.20
   1   6 -13    9.00    1.80
  -1  -6  13    9.20    2.20
   0   6 -13   41.70    4.20
   0   6 -13   40.40    2.50
   0  -6  13   35.10    3.20
  -1   6 -13   10.30    2.80
   1  -6  13    4.80    2.10
  -2   6 -13    5.90    3.10
   2  -6  13    2.60    2.00
  -3   6 -13   22.90    4.10
   3  -6  13   20.60    3.20
  -4   6 -13    8.20    3.40
   4  -6  13    5.50    2.70
  -5   6 -13   51.89    6.30
   5  -6  13   60.79    4.80
   9   5 -13   15.60    3.70
   8   5 -13   22.30    3.70
  -8  -5  13   11.80    4.90
   7   5 -13    6.20    2.70
  -7  -5  13    2.20    3.30
  -7  -5  13    0.90    2.70
   6   5 -13   95.59    6.20
   6   5 -13   98.79    5.40
   6   5 -13  101.29    4.80
  -6  -5  13  100.99    5.40
  -6  -5  13   92.79    6.70
   5   5 -13    7.70    2.20
   5   5 -13    2.50    2.40
  -5  -5  13    4.60    3.00
  -5  -5  13    5.90    2.40
   4   5 -13  187.08    8.30
   4   5 -13  199.98    6.80
  -4  -5  13  196.08    9.90
   3   5 -13   61.49    3.20
  -3  -5  13   54.39    3.70
   2   5 -13   37.30    2.70
  -2  -5  13   29.10    3.10
   1   5 -13   78.39    3.70
   1   5 -13   70.99    5.90
  -1  -5  13   66.69    4.10
   0   5 -13   18.20    3.40
   0   5 -13   23.00    2.50
  -1   5 -13  258.07   10.30
  -1   5 -13  259.17    8.80
   1  -5  13  263.17    9.30
  -2   5 -13    9.70    2.20
  -2   5 -13    9.90    3.00
   2  -5  13    6.50    2.30
  -3   5 -13  228.98   10.20
  -3   5 -13  234.88    8.70
   3  -5  13  234.48    9.00
  -4   5 -13   16.10    3.90
   4  -5  13   20.40    3.50
  -5   5 -13   -1.20    3.00
   5  -5  13    1.20    2.40
  -9  -4  13   77.29    6.20
  -9  -4  13   73.89    7.10
   8   4 -13   40.40    4.40
  -8  -4  13   34.70    5.40
  -8  -4  13   34.70    5.50
   7   4 -13    4.30    2.40
   7   4 -13   11.40    3.10
  -7  -4  13    4.80    2.80
  -7  -4  13    4.50    3.60
   6   4 -13   32.90    4.30
  -6  -4  13   37.30    4.00
  -6  -4  13   33.60    4.90
   5   4 -13   89.29    6.20
   5   4 -13   81.59    4.40
  -5  -4  13   77.99    6.10
  -5  -4  13   78.59    4.90
   4   4 -13   67.69    4.90
   4   4 -13   72.19    4.00
  -4  -4  13   68.09    4.60
   3   4 -13  140.69    6.80
   3   4 -13  140.29    5.60
  -3  -4  13  138.29    6.10
   2   4 -13 1152.08   31.40
   2   4 -13 1105.09   29.90
  -2  -4  13 1158.18   30.30
   1   4 -13   -0.60    2.60
   1   4 -13   -2.50    1.70
  -1  -4  13    0.80    2.30
   0   4 -13  695.43   20.90
   0   4 -13  658.53   19.40
   0  -4  13  740.33   20.20
  -1   4 -13    6.50    2.60
   1  -4  13    9.10    2.60
  -2   4 -13  138.19    6.40
  -2   4 -13  133.79    7.40
   2  -4  13  137.49    6.60
  -3   4 -13    3.20    2.50
  -3   4 -13   -0.30    2.80
   3  -4  13   -2.40    2.10
  -4   4 -13  192.88   10.10
   4  -4  13  194.08    9.10
  -5   4 -13   11.30    3.70
  -5   4 -13   11.40    3.40
   5  -4  13    5.80    2.80
   9   3 -13   49.10    4.80
  -9  -3  13   48.20    6.30
  -9  -3  13   38.40    5.10
   8   3 -13   12.90    3.40
   8   3 -13   -2.40    3.30
  -8  -3  13    3.30    3.80
  -8  -3  13    1.00    3.20
   7   3 -13   64.99    7.30
   7   3 -13   53.99    4.40
  -7  -3  13   51.59    5.80
  -7  -3  13   54.99    4.80
   6   3 -13    0.60    3.00
   6   3 -13    6.80    2.50
  -6  -3  13   -2.30    2.30
  -6  -3  13   -1.90    2.60
   5   3 -13  342.67   11.00
   5   3 -13  352.06   12.00
  -5  -3  13  337.17   12.70
  -5  -3  13  346.47   11.30
   4   3 -13  151.98    7.10
   4   3 -13  169.48    7.30
  -4  -3  13  152.48    6.60
   3   3 -13   11.60    2.70
   3   3 -13   13.30    2.50
   2   3 -13   78.49    5.10
   2   3 -13   70.69    4.10
   1   3 -13  108.99    6.00
   0   3 -13   86.89    5.80
   0   3 -13  100.19    5.10
   0  -3  13  100.09    5.40
  -1   3 -13  129.39    6.10
  -1   3 -13  121.39    6.80
   1  -3  13  133.89    6.50
  -2   3 -13   27.70    3.90
  -2   3 -13   29.30    4.50
   2  -3  13   20.20    3.40
  -3   3 -13   99.29    7.00
  -3   3 -13  113.49    6.10
   3  -3  13  102.59    6.20
  -4   3 -13    7.60    5.50
  -4   3 -13   14.30    3.10
   4  -3  13    7.70    3.50
   9   2 -13   -0.10    2.90
   9   2 -13    0.80    3.00
  -9  -2  13   -0.80    3.10
  -9  -2  13    4.20    4.60
   8   2 -13   11.90    3.30
   8   2 -13   12.40    3.00
  -8  -2  13    9.30    3.40
  -8  -2  13    7.70    3.70
   7   2 -13   -1.20    2.40
   7   2 -13   -1.40    2.60
  -7  -2  13   -2.40    3.00
  -7  -2  13    0.40    2.70
   6   2 -13   -1.30    2.30
   6   2 -13    2.60    2.30
  -6  -2  13    1.30    2.60
  -6  -2  13   -1.50    2.70
   5   2 -13    0.70    2.20
   5   2 -13    1.00    2.00
  -5  -2  13    0.10    2.20
   4   2 -13    6.30    2.50
   4   2 -13   10.70    2.60
  -4  -2  13   10.40    2.80
   3   2 -13  109.79    5.50
   3   2 -13  111.59    6.00
  -3  -2  13  119.29    5.90
   2   2 -13  109.19    5.40
   2   2 -13  107.99    6.00
  -2  -2  13  106.99    6.10
   1   2 -13   91.49    5.70
   1   2 -13   81.99    4.90
  -1  -2  13   84.09    5.20
   0   2 -13   63.29    4.60
   0   2 -13   70.99    5.20
   0  -2  13   62.79    4.70
  -1   2 -13    4.10    3.00
  -1   2 -13    5.50    2.60
   1  -2  13    1.90    2.40
  -2   2 -13  265.77   11.20
  -2   2 -13  291.47   10.60
   2  -2  13  283.17   10.70
  -3   2 -13   52.89    5.60
   3  -2  13   45.90    4.60
  -4   2 -13  480.25   15.90
  -4   2 -13  461.85   17.00
  -5   2 -13  221.18    9.60
  10   1 -13   26.30    5.80
  10   1 -13   25.40    5.10
 -10  -1  13   19.80    4.80
   9   1 -13   39.00    4.70
   9   1 -13   45.40    4.90
  -9  -1  13   41.70    5.20
  -9  -1  13   41.70    6.40
   8   1 -13    2.50    2.60
   8   1 -13   -2.90    2.80
  -8  -1  13    3.10    3.30
  -8  -1  13    0.90    2.90
   7   1 -13  124.69    6.20
   7   1 -13  124.29    6.30
  -7  -1  13  130.19    6.80
  -7  -1  13  129.79    7.60
   6   1 -13   -1.20    2.00
   6   1 -13    0.10    2.10
  -6  -1  13    1.10    2.40
  -6  -1  13   -1.50    2.80
   5   1 -13   30.30    3.70
   5   1 -13   22.60    3.30
  -5  -1  13   29.90    3.90
   4   1 -13  178.98    7.60
   4   1 -13  168.48    7.30
  -4  -1  13  184.28    7.70
   3   1 -13  217.58    8.50
   3   1 -13  195.98    8.00
  -3  -1  13  203.98    8.30
   2   1 -13  222.88    8.80
   2   1 -13  211.58    8.40
  -2  -1  13  213.08    8.60
   1   1 -13  155.38    7.70
   1   1 -13  142.29    6.70
  -1  -1  13  144.99    7.00
   0   1 -13   20.80    3.60
   0   1 -13   25.10    3.60
   0  -1  13   25.70    3.80
  -1   1 -13    0.50    2.50
  -1   1 -13    4.20    2.40
   1  -1  13    4.30    2.60
  -2   1 -13   61.09    5.60
   2  -1  13   48.90    4.80
  -3   1 -13   82.69    6.70
  -3   1 -13   83.89    6.10
   3  -1  13   72.79    5.60
  -4   1 -13    3.90    3.40
  -4   1 -13    2.90    2.90
   4  -1  13    1.50    3.10
  -5   1 -13   93.79    6.50
  10   0 -13   29.40    4.70
  10   0 -13   23.80    5.00
 -10   0  13   26.40    5.00
   9   0 -13   45.60    4.70
  -9   0  13   39.20    5.40
  -9   0  13   39.30    5.10
   8   0 -13  119.69    6.50
  -8   0  13  118.39    7.30
  -8   0  13  108.59    7.70
   7   0 -13   50.59    4.60
  -7   0  13   54.59    5.50
  -7   0  13   46.40    5.00
   6   0 -13  108.19    5.70
   6   0 -13  106.29    6.10
  -6   0  13  113.89    6.90
  -6   0  13  111.99    6.40
   5   0 -13   38.60    3.80
   5   0 -13   41.10    4.20
  -5   0  13   35.60    4.20
   4   0 -13   48.40    4.20
   4   0 -13   51.99    4.40
  -4   0  13   55.49    4.70
   3   0 -13   79.19    4.90
   3   0 -13   64.69    4.80
  -3   0  13   65.29    4.90
   2   0 -13   39.60    4.40
   2   0 -13   47.10    4.40
  -2   0  13   43.60    4.40
   1   0 -13    2.00    2.20
  -1   0  13    5.00    2.70
   0   0 -13  136.19    7.30
   0   0 -13  132.59    6.70
   0   0  13  131.69    6.90
  -1   0 -13  101.49    6.80
  -1   0 -13   84.49    6.30
   1   0  13   92.99    6.10
  -2   0 -13   -1.60    2.70
  -2   0 -13   -0.80    2.60
   2   0  13    1.00    2.50
  -3   0 -13  357.36   13.00
  -3   0 -13  343.67   14.90
   3   0  13  323.57   13.00
  10  -1 -13   30.40    4.60
 -10   1  13   29.40    5.20
   9  -1 -13    6.10    3.40
  -9   1  13    2.40    3.30
  -9   1  13    3.70    3.30
   8  -1 -13   99.29    6.20
  -8   1  13   99.79    6.90
   7  -1 -13    9.10    3.10
  -7   1  13    7.40    3.30
  -7   1  13    5.60    3.20
   6  -1 -13  243.48    9.40
   6  -1 -13  223.08    8.30
  -6   1  13  232.38    9.80
  -6   1  13  215.08    9.30
   5  -1 -13  132.49    8.30
   5  -1 -13  132.29    6.10
  -5   1  13  127.69    6.80
   4  -1 -13   28.20    3.50
   4  -1 -13   25.10    3.80
  -4   1  13   28.60    4.20
   3  -1 -13  127.69    6.70
   3  -1 -13  136.99    6.60
  -3   1  13  132.19    6.80
   2  -1 -13  176.98    8.10
   2  -1 -13  196.08    8.20
  -2   1  13  197.78    8.50
   1  -1 -13   11.60    3.10
  -1   1  13    9.20    3.00
   0  -1 -13    6.00    2.80
   0  -1 -13    7.20    2.90
   0   1  13    4.70    2.70
  -1  -1 -13   14.90    3.70
  -1  -1 -13   14.80    3.50
   1   1  13    8.30    3.10
  -2  -1 -13    3.70    3.20
  -2  -1 -13    7.20    3.00
   2   1  13    2.80    3.10
  -3  -1 -13   60.39    5.40
  -3  -1 -13   55.99    6.30
   3   1  13   49.50    5.30
  -4  -1 -13   80.99    6.30
   9  -2 -13  142.39    7.60
  -9   2  13  120.39    7.40
   8  -2 -13    8.00    3.20
  -8   2  13    4.30    3.50
  -8   2  13    7.90    3.70
   7  -2 -13  148.09    7.40
  -7   2  13  152.68    7.90
  -7   2  13  134.59    7.50
   6  -2 -13  109.29    6.40
   6  -2 -13   97.29    5.20
  -6   2  13  100.09    6.60
  -6   2  13  106.79    6.50
   5  -2 -13   67.39    4.40
   5  -2 -13   73.19    5.50
  -5   2  13   72.39    5.50
   4  -2 -13   56.99    4.30
   4  -2 -13   62.09    5.20
  -4   2  13   57.49    5.10
   3  -2 -13   38.60    4.20
   3  -2 -13   40.10    4.60
  -3   2  13   40.00    4.50
   2  -2 -13   17.30    3.30
   2  -2 -13   24.50    4.00
  -2   2  13   25.00    4.30
   1  -2 -13   19.50    3.60
   1  -2 -13   24.80    3.90
  -1   2  13   23.70    4.30
   0  -2 -13  137.39    7.60
   0  -2 -13  146.29    7.70
   0   2  13  165.48    8.00
  -1  -2 -13  267.27   11.40
  -1  -2 -13  291.47   11.30
   1   2  13  293.27   11.40
  -2  -2 -13    4.00    2.80
  -2  -2 -13    0.60    5.40
   2   2  13    8.60    3.40
  -3  -2 -13  197.88    9.50
   9  -3 -13    6.90    3.50
  -8   3  13   16.90    4.10
  -8   3  13   18.50    4.10
   7  -3 -13    4.50    3.20
  -7   3  13   -2.10    2.80
  -7   3  13    7.90    3.50
   6  -3 -13  218.68    9.50
  -6   3  13  227.78    9.50
  -6   3  13  209.18    9.50
   5  -3 -13  145.29    7.50
  -5   3  13  142.19    7.00
  -5   3  13  135.69    7.40
   4  -3 -13   10.50    3.40
   4  -3 -13   13.10    2.60
  -4   3  13   13.80    3.60
   3  -3 -13  124.09    6.20
   3  -3 -13  107.29    6.70
  -3   3  13  113.59    6.70
   2  -3 -13    5.60    2.80
   2  -3 -13   -0.50    4.10
  -2   3  13    3.90    3.10
   1  -3 -13    5.00    2.80
   1  -3 -13   -2.40    2.40
  -1   3  13    3.00    2.80
   0  -3 -13    9.30    3.30
   0  -3 -13    7.60    3.00
   0   3  13   12.70    3.60
  -1  -3 -13   18.80    3.90
  -1  -3 -13   19.50    4.40
  -2  -3 -13  122.49    8.00
  -2  -3 -13  132.29    7.60
   2   3  13  153.98    8.10
   8  -4 -13  613.94   19.90
  -8   4  13  639.14   20.20
   7  -4 -13   16.70    5.90
  -7   4  13   15.60    4.80
   6  -4 -13  352.06   13.10
  -6   4  13  362.36   12.60
  -6   4  13  342.37   13.20
  -6   4  13  364.86   12.60
   5  -4 -13   11.20    3.50
  -5   4  13    9.90    3.40
   4  -4 -13   32.90    4.60
  -4   4  13   25.30    4.40
  -4   4  13   22.80    4.20
   3  -4 -13    1.40    2.90
   3  -4 -13    2.10    2.50
  -3   4  13   -1.20    3.00
   2  -4 -13  268.47   10.90
   2  -4 -13  244.68    9.80
  -2   4  13  257.87   10.70
   1  -4 -13    2.80    3.30
   1  -4 -13   -1.70    2.40
  -1   4  13    6.30    3.10
   0  -4 -13  187.68    8.90
   0  -4 -13  217.08   10.10
  -1  -4 -13   39.50    5.20
  -1  -4 -13   58.39    5.60
   1   4  13   54.09    5.50
   7  -5 -13  747.93   23.80
  -7   5  13  759.62   23.30
   6  -5 -13    4.50    3.50
  -6   5  13   -3.40    3.40
  -6   5  13    7.30    4.40
   5  -5 -13  632.84   22.50
  -5   5  13  686.53   20.60
  -5   5  13  696.53   21.90
  -4   5  13  129.99    7.90
  -4   5  13  147.59    8.00
   3  -5 -13  285.37   13.60
  -3   5  13  297.47   11.80
   2  -5 -13  207.78    9.80
   2  -5 -13  195.28    8.70
  -2   5  13  226.48   10.40
   1  -5 -13   64.59    5.90
  -1   5  13   66.89    6.40
   0   5  13   47.60    5.30
  -6   6  13   19.20    4.00
  -5   6  13  346.37   13.00
  -5   6  13  360.16   13.60
   4  -6 -13   64.89    7.70
  -4   6  13   52.29    6.20
  -4   6  13   59.29    5.90
  -3   6  13  145.29    7.90
  -3   6  13  129.09    9.90
  -2   6  13  219.38    9.70
  -1   6  13   14.90    4.10
  -5   7  13  108.49    7.30
  -4   7  13   58.29    6.20
  -2 -13  14   17.40    4.10
  -1 -13  14    9.00    3.70
   0 -13  14    0.20    3.10
   2 -13  14   10.30    3.20
  -3 -12  14   29.50    4.90
   2  12 -14   18.90    4.20
  -2 -12  14   20.10    4.40
   1  12 -14    3.80    3.10
  -1 -12  14    4.80    3.40
   0  12 -14   91.09    6.70
   0 -12  14   91.99    6.40
  -1  12 -14  117.79    7.30
   1 -12  14  118.69    6.90
  -2  12 -14   10.30    3.50
  -4 -11  14   22.10    4.80
   3  11 -14  249.58   10.90
   2  11 -14   95.89    6.80
  -2 -11  14   91.39    6.80
   1  11 -14   29.40    7.40
  -1 -11  14   39.30    4.90
  -1  11 -14   56.49    5.70
  -2  11 -14   52.49    5.20
  -3  11 -14   64.39    5.80
  -5 -10  14    6.90    4.00
   4  10 -14   28.20    4.60
   3  10 -14    4.90    3.10
  -3 -10  14   12.40    3.60
   2  10 -14   31.30    4.50
  -2 -10  14   29.10    4.60
   1  10 -14    1.40    2.60
   0  10 -14   -1.70    2.20
  -1  10 -14   17.80    3.50
  -3  10 -14    1.80    2.60
   7   9 -14   53.39    5.10
   6   9 -14   63.99    5.40
  -6  -9  14   52.89    6.50
  -5  -9  14  139.19   10.10
   4   9 -14    7.00    3.20
  -4  -9  14   10.30    3.70
   3   9 -14  237.48   10.50
  -3  -9  14  257.67   10.90
   2   9 -14   -1.40    2.30
   1   9 -14  447.36   15.40
   0   9 -14   66.59    5.40
  -1   9 -14   63.69    5.30
  -2   9 -14   38.80    4.70
  -3   9 -14   17.20    3.80
  -4   9 -14    2.90    2.80
   4  -9  14    2.50    1.80
   8   8 -14   18.90    4.70
   7   8 -14   46.60    4.70
  -6  -8  14  108.09    7.80
  -6  -8  14  115.69    5.40
   5   8 -14   15.60    3.70
  -5  -8  14   17.00    4.50
   4   8 -14  456.45   15.90
  -4  -8  14  477.65   16.60
   3   8 -14  112.29    6.80
  -3  -8  14  119.99    7.30
   2   8 -14    0.90    2.20
   1   8 -14  127.29    7.10
   0   8 -14  473.35   15.90
  -1   8 -14  158.88    7.90
   1  -8  14  153.78    6.10
  -2   8 -14  105.19    6.80
   2  -8  14  101.79    5.00
   3  -8  14  365.06   11.80
  -4   8 -14    5.80    3.10
   4  -8  14    2.50    2.20
   8   7 -14   20.60    3.70
   7   7 -14   39.20    4.30
  -7  -7  14   22.80    5.10
  -6  -7  14   83.39    8.40
  -6  -7  14   81.89    4.90
   5   7 -14   72.79    5.90
  -5  -7  14   67.29    4.30
  -5  -7  14   72.89    6.40
   4   7 -14   91.79    6.20
  -4  -7  14   93.39    6.70
  -4  -7  14   93.69    4.80
   3   7 -14  205.98    9.10
  -3  -7  14  205.28    7.20
   2   7 -14  178.78    8.30
  -2  -7  14  180.98    6.50
   1   7 -14  548.15   17.70
  -1  -7  14  550.74   15.50
   0   7 -14    6.60    2.80
   0  -7  14    7.40    1.90
  -1   7 -14  215.68    9.50
   1  -7  14  223.68    7.90
  -2   7 -14  109.19    6.80
   2  -7  14  102.99    5.30
  -3   7 -14  107.89    8.40
   3  -7  14   98.89    5.50
  -4   7 -14  186.58    9.60
   8   6 -14   13.50    3.00
  -8  -6  14   -2.40    2.80
   7   6 -14  109.89    6.00
  -7  -6  14  102.59    7.50
  -7  -6  14  102.69    6.00
   6   6 -14   62.69    5.70
  -6  -6  14   60.19    6.10
  -6  -6  14   66.39    4.60
   5   6 -14  171.68    8.30
  -5  -6  14  175.48    9.00
  -5  -6  14  169.68    6.90
   4   6 -14  157.88    7.90
  -4  -6  14  171.98    6.70
  -4  -6  14  171.68    8.70
   3   6 -14   43.00    4.40
  -3  -6  14   39.40    3.40
   2   6 -14   30.60    4.00
  -2  -6  14   34.60    3.20
   1   6 -14  252.97   10.20
  -1  -6  14  262.47    8.70
   0   6 -14  289.17   11.20
   0  -6  14  294.67    9.80
  -1   6 -14   11.30    3.20
   1  -6  14   15.60    2.70
  -2   6 -14   71.79    5.60
   2  -6  14   69.99    4.70
  -3   6 -14    2.50    2.70
   3  -6  14    2.40    2.20
  -4   6 -14   50.49    5.80
   4  -6  14   54.49    4.60
   9   5 -14   48.20    4.70
   8   5 -14   21.60    3.50
  -8  -5  14   14.00    3.50
  -8  -5  14   11.20    4.20
  -7  -5  14    7.10    2.90
  -7  -5  14    6.20    3.60
   6   5 -14   62.59    5.40
  -6  -5  14   64.69    6.00
  -6  -5  14   65.39    4.70
   5   5 -14  150.98    7.60
   5   5 -14  152.58    6.40
  -5  -5  14  149.49    8.20
  -5  -5  14  150.88    6.60
   4   5 -14    9.40    2.70
   4   5 -14   11.20    2.30
  -4  -5  14   10.60    2.50
   3   5 -14   85.79    5.70
   3   5 -14   89.39    5.50
  -3  -5  14   85.49    4.60
   2   5 -14   22.90    3.70
   2   5 -14   23.30    2.50
  -2  -5  14   22.90    2.90
   1   5 -14    3.00    2.20
   1   5 -14    4.50    1.70
  -1  -5  14    3.70    2.10
   0   5 -14  125.19    6.80
   0   5 -14  120.59    5.20
   0  -5  14  123.69    5.90
  -1   5 -14    7.50    1.90
  -1   5 -14   -1.60    2.50
   1  -5  14    4.70    2.40
  -2   5 -14  195.38    9.40
   2  -5  14  216.08    8.50
  -3   5 -14   21.50    4.60
   3  -5  14   18.30    3.40
  -4   5 -14   49.30    5.90
   4  -5  14   60.39    4.90
   8   4 -14   51.89    4.50
  -8  -4  14   34.20    5.90
  -8  -4  14   41.10    4.90
  -7  -4  14    6.10    3.60
  -7  -4  14   11.30    3.20
   6   4 -14  155.78    7.20
   6   4 -14  150.68    7.60
  -6  -4  14  154.08    7.10
  -6  -4  14  157.28    8.60
   5   4 -14  113.49    6.50
  -5  -4  14  114.39    7.20
  -5  -4  14  111.09    5.70
   4   4 -14   53.99    3.90
   4   4 -14   58.49    4.80
  -4  -4  14   56.29    4.20
   3   4 -14   49.90    3.60
   3   4 -14   48.10    4.50
  -3  -4  14   44.00    4.00
   2   4 -14   69.09    5.20
   2   4 -14   65.89    4.00
  -2  -4  14   56.59    4.30
   1   4 -14  196.28    7.40
   1   4 -14  198.58    8.80
  -1  -4  14  200.28    7.90
   0   4 -14   72.19    4.50
   0   4 -14   73.49    5.70
   0  -4  14   80.89    5.10
  -1   4 -14   29.90    4.20
  -1   4 -14   32.80    3.60
   1  -4  14   31.00    3.80
  -2   4 -14   33.20    4.80
  -2   4 -14   42.60    3.90
   2  -4  14   35.20    4.30
  -3   4 -14   76.39    5.80
  -4   4 -14   60.19    6.30
   4  -4  14   65.59    5.20
  -9  -3  14    6.60    5.40
   8   3 -14   48.00    4.50
  -8  -3  14   35.80    4.60
   7   3 -14   54.79    4.20
  -7  -3  14   44.20    5.90
  -7  -3  14   55.79    5.00
   6   3 -14  185.68    8.40
   6   3 -14  183.78    7.50
  -6  -3  14  194.28    9.50
  -6  -3  14  183.58    8.00
   5   3 -14   48.90    4.00
   5   3 -14   51.99    4.60
  -5  -3  14   49.60    4.40
   4   3 -14  208.08    7.90
   4   3 -14  221.78    8.90
  -4  -3  14  203.58    8.20
   3   3 -14  121.49    6.50
   3   3 -14  124.19    5.70
  -3  -3  14  118.69    6.00
   2   3 -14  243.68    9.90
   2   3 -14  239.88    8.80
  -2  -3  14  263.57    9.40
   1   3 -14  391.86   12.90
   1   3 -14  418.56   14.10
  -1  -3  14  414.16   13.40
   0   3 -14  412.06   14.30
   0   3 -14  410.56   13.20
   0  -3  14  407.06   13.50
  -1   3 -14  800.72   24.20
  -1   3 -14  791.42   23.00
   1  -3  14  817.62   23.40
  -2   3 -14    3.80    2.20
  -2   3 -14   -1.40    2.70
   2  -3  14    4.20    2.70
  -3   3 -14  152.48    9.20
  -3   3 -14  163.08    9.10
   3  -3  14  161.08    8.00
  -4   3 -14  140.39    7.50
  -9  -2  14    3.80    3.60
   8   2 -14   47.80    4.60
   8   2 -14   67.19    5.00
  -8  -2  14   67.39    5.50
  -8  -2  14   58.79    6.40
   7   2 -14   16.60    3.10
  -7  -2  14   20.10    3.90
  -7  -2  14   12.60    3.70
   6   2 -14  251.57    9.20
   6   2 -14  247.18    9.60
  -6  -2  14  244.28    9.60
  -6  -2  14  248.38   10.80
   5   2 -14   70.59    4.70
   5   2 -14   68.69    5.00
  -5  -2  14   67.99    4.90
   4   2 -14  172.28    7.10
   4   2 -14  164.38    8.70
  -4  -2  14  167.88    7.30
   3   2 -14    4.00    2.30
   3   2 -14    3.10    2.50
  -3  -2  14    0.50    2.10
   2   2 -14  176.48    7.40
   2   2 -14  183.18    8.10
  -2  -2  14  171.68    7.70
   1   2 -14   78.29    5.70
   1   2 -14   80.49    4.90
  -1  -2  14   78.29    5.30
   0   2 -14  102.59    5.80
   0   2 -14   98.69    6.50
   0  -2  14  101.69    6.10
  -1   2 -14   97.59    5.70
  -1   2 -14   95.69    6.70
   1  -2  14   89.99    5.90
  -2   2 -14    5.30    4.60
  -2   2 -14   -1.10    2.90
   2  -2  14    2.20    2.80
  -3   2 -14   57.09    6.20
  -3   2 -14   65.29    5.20
   3  -2  14   51.19    5.10
  -4   2 -14   85.49    8.80
   9   1 -14    3.50    3.30
  -9  -1  14   -0.10    3.30
   8   1 -14   37.90    4.30
   8   1 -14   32.00    4.20
  -8  -1  14   37.30    4.90
  -8  -1  14   33.00    5.10
   7   1 -14   86.59    5.40
  -7  -1  14   85.39    6.50
  -7  -1  14   79.09    5.90
   6   1 -14    3.60    2.60
  -6  -1  14   -0.20    2.40
  -6  -1  14    3.80    3.20
   5   1 -14   74.19    5.60
   5   1 -14   72.89    4.90
  -5  -1  14   65.89    5.00
   4   1 -14    3.70    2.30
   4   1 -14    0.30    2.40
  -4  -1  14   -0.80    2.30
   3   1 -14    8.40    2.60
   3   1 -14    9.00    3.00
  -3  -1  14    3.40    2.40
   2   1 -14   74.89    5.50
   2   1 -14   77.39    4.90
  -2  -1  14   69.79    5.10
   1   1 -14   35.80    3.90
   1   1 -14   26.50    3.80
  -1  -1  14   29.90    4.20
   0   1 -14  460.75   15.80
   0   1 -14  471.05   15.20
   0  -1  14  471.65   15.40
  -1   1 -14   64.39    5.80
  -1   1 -14   61.19    5.00
   1  -1  14   56.89    5.30
  -2   1 -14  183.58    8.50
  -2   1 -14  186.58    9.90
  -3   1 -14   10.30    3.00
  -3   1 -14    5.00    3.80
   3  -1  14    1.10    2.90
  -4   1 -14  141.09    7.70
   9   0 -14   69.59    5.60
  -9   0  14   71.69    6.40
   8   0 -14   34.30    4.40
  -8   0  14   24.50    4.10
  -8   0  14   23.50    4.60
   7   0 -14   54.79    4.90
  -7   0  14   48.80    5.50
  -7   0  14   45.40    5.30
   6   0 -14  567.44   17.00
   6   0 -14  560.94   17.30
  -6   0  14  548.15   17.50
  -6   0  14  558.84   18.40
   5   0 -14   45.50    4.20
  -5   0  14   36.00    4.60
   4   0 -14  231.58    8.90
   4   0 -14  228.38    9.00
  -4   0  14  202.68    9.10
   3   0 -14   64.69    6.40
   3   0 -14   66.29    5.00
  -3   0  14   55.19    5.00
   2   0 -14   -1.80    2.10
   2   0 -14    1.70    2.60
  -2   0  14    0.30    2.40
   1   0 -14    6.50    2.90
  -1   0  14   11.70    3.20
   0   0 -14   80.09    5.70
   0   0 -14   74.59    6.00
   0   0  14   75.19    5.80
  -1   0 -14  622.44   19.80
  -1   0 -14  583.24   19.00
   1   0  14  611.94   19.30
  -2   0 -14   24.90    4.80
  -2   0 -14   38.70    4.50
   2   0  14   33.80    4.90
   9  -1 -14    6.80    2.90
  -9   1  14   -8.00    3.10
   8  -1 -14   27.60    4.00
  -8   1  14   27.10    4.50
  -8   1  14   18.40    4.30
   7  -1 -14   46.40    4.80
  -7   1  14   36.20    5.20
   6  -1 -14   29.20    3.70
   6  -1 -14   37.50    4.60
  -6   1  14   28.30    4.40
  -6   1  14   45.80    5.20
   5  -1 -14   23.10    4.10
   5  -1 -14   26.70    3.40
  -5   1  14   22.20    4.20
   4  -1 -14    0.80    2.20
   4  -1 -14    1.60    2.60
  -4   1  14    2.70    2.80
   3  -1 -14   50.19    4.80
   3  -1 -14   46.70    4.60
  -3   1  14   46.40    4.80
   2  -1 -14  389.06   13.60
   2  -1 -14  398.56   13.60
  -2   1  14  383.46   13.60
   1  -1 -14   85.09    6.00
   1  -1 -14   87.09    5.90
  -1   1  14   80.89    6.00
   0  -1 -14  926.21   27.70
   0  -1 -14  963.40   27.60
   0   1  14  954.50   27.60
  -1  -1 -14   52.69    5.60
  -1  -1 -14   51.29    5.00
   1   1  14   42.50    5.50
  -2  -1 -14  179.28    9.70
  -2  -1 -14  229.88   11.60
   2   1  14  202.78    9.90
  -3  -1 -14  170.48   10.20
   9  -2 -14  283.57   13.30
   8  -2 -14  130.29    8.30
  -8   2  14  120.89    7.40
  -8   2  14  133.39    9.30
   7  -2 -14  287.17   11.30
  -7   2  14  287.37   11.60
  -7   2  14  312.07   12.00
   6  -2 -14  718.03   21.60
  -6   2  14  734.33   22.60
  -6   2  14  702.63   22.00
   5  -2 -14    2.70    2.80
   5  -2 -14    1.40    2.00
  -5   2  14   -1.10    2.30
  -5   2  14   -5.80    2.60
   4  -2 -14  152.18    7.00
   4  -2 -14  153.48    7.80
  -4   2  14  153.68    7.90
   3  -2 -14   41.50    4.50
   3  -2 -14   25.80    4.30
  -3   2  14   38.70    4.90
   2  -2 -14   12.90    3.60
   2  -2 -14    4.30    2.60
  -2   2  14    9.50    3.40
   1  -2 -14    8.60    2.80
   1  -2 -14    6.00    2.60
  -1   2  14    3.00    3.00
   0  -2 -14   -4.20    2.70
   0  -2 -14    8.20    2.90
  -1  -2 -14   23.60    4.30
   1   2  14   28.00    4.60
  -2  -2 -14   14.30    3.40
   8  -3 -14   20.80    4.00
   7  -3 -14   16.30    4.30
  -7   3  14   15.30    3.70
  -7   3  14   15.10    3.50
   6  -3 -14   48.80    5.20
  -6   3  14   41.90    5.60
  -6   3  14   39.20    5.10
   5  -3 -14   45.20    4.90
  -5   3  14   38.00    5.70
   4  -3 -14   13.00    3.70
   4  -3 -14    5.60    2.40
  -4   3  14   10.70    3.60
   3  -3 -14   83.59    6.10
   3  -3 -14   91.49    5.70
  -3   3  14   83.89    6.20
   2  -3 -14    3.30    2.60
   2  -3 -14    5.10    3.00
  -2   3  14    3.00    3.10
   1  -3 -14   80.59    5.90
   1  -3 -14   72.09    5.50
  -1   3  14   68.29    6.60
   0  -3 -14    2.10    3.10
   0  -3 -14    7.70    3.10
   0   3  14    3.00    2.90
  -1  -3 -14   39.60    5.30
  -1  -3 -14   51.29    8.70
   7  -4 -14   15.70    4.30
   6  -4 -14   57.09    5.60
  -6   4  14   61.09    5.80
  -6   4  14   50.99    5.50
   5  -4 -14   51.19    5.40
  -5   4  14   47.40    5.90
  -5   4  14   53.79    5.60
   4  -4 -14   37.90    6.00
  -4   4  14   45.50    5.70
  -4   4  14   32.20    4.60
   3  -4 -14   27.00    6.20
   3  -4 -14   40.30    5.10
  -3   4  14   48.50    5.30
   2  -4 -14   47.60    4.80
   2  -4 -14   65.79    5.90
  -2   4  14   58.79    5.70
   1  -4 -14  118.89    7.00
   1  -4 -14  133.19    7.80
  -1   4  14  133.69    7.90
   0  -4 -14   75.59    6.20
  -5   5  14   16.10    3.50
  -5   5  14   13.50    4.20
  -4   5  14   14.10    4.00
  -4   5  14   16.60    3.80
  -3   5  14   17.80    3.90
  -2   5  14   93.39    8.40
   1  -5 -14    9.80    3.80
  -4   6  14    4.50    3.60
  -2 -12  15   30.50    5.20
  -1 -12  15   -7.00    2.90
   0 -12  15   16.50    3.70
  -3 -11  15   14.90    4.30
   2  11 -15   59.49    5.80
  -2 -11  15   44.40    5.80
   1  11 -15   69.39    5.80
  -1 -11  15   69.29    6.20
   0  11 -15   22.80    4.00
  -1  11 -15  251.57   11.50
   4  10 -15   89.19    7.00
  -4 -10  15   90.09    7.30
   3  10 -15   10.20    3.20
  -3 -10  15    5.10    3.70
   2  10 -15   94.49    6.60
   1  10 -15   88.59    6.30
   0  10 -15    0.90    2.70
  -1  10 -15    2.40    2.90
  -2  10 -15    0.60    2.50
   5   9 -15   77.19    6.70
  -5  -9  15   68.39    6.70
   4   9 -15  441.96   15.90
  -4  -9  15  449.95   16.80
  -3  -9  15   78.39    6.80
   2   9 -15   51.59    5.40
   1   9 -15  255.97   10.80
   0   9 -15   60.39    6.50
  -1   9 -15   66.99    5.70
  -2   9 -15   29.40    4.30
   3  -9  15    4.90    2.00
  -7  -8  15   81.99    5.10
  -6  -8  15   19.40    3.60
  -6  -8  15   12.40    4.20
   5   8 -15  235.18   10.60
  -5  -8  15  235.48    8.10
  -5  -8  15  237.88   11.20
   4   8 -15   45.10    5.20
  -4  -8  15   39.50    5.60
   3   8 -15  128.49    7.40
  -3  -8  15  141.79    8.20
   2   8 -15   42.60    4.80
   1   8 -15   50.29    5.10
   0   8 -15   20.90    3.80
   0  -8  15   27.10    2.70
  -1   8 -15  231.28   12.00
   1  -8  15  228.78    8.00
  -2   8 -15  185.18    9.20
   2  -8  15  186.28    7.20
  -3   8 -15   46.70    5.70
   3  -8  15   54.39    4.10
   8   7 -15   82.89    5.60
  -7  -7  15   68.79    5.00
   6   7 -15    2.40    3.20
  -6  -7  15    7.00    2.70
  -6  -7  15   -1.50    3.30
   5   7 -15  155.48    8.30
  -5  -7  15  166.78    6.70
   4   7 -15  191.28    9.20
  -4  -7  15  198.18    7.30
  -4  -7  15  194.38    9.70
   3   7 -15    6.40    3.00
  -3  -7  15    9.70    2.20
   2   7 -15   93.69    6.20
  -2  -7  15   91.19    4.50
   1   7 -15    7.60    2.60
  -1  -7  15    4.50    1.90
   0   7 -15   92.19    6.20
   0  -7  15   92.49    4.70
  -1   7 -15    4.30    2.80
   1  -7  15    3.50    2.10
  -2   7 -15   71.19    6.00
   2  -7  15   68.89    4.60
  -3   7 -15   14.90    3.80
   3  -7  15   13.90    2.70
  -7  -6  15   65.29    6.60
  -7  -6  15   67.69    5.10
   6   6 -15    7.30    3.30
  -6  -6  15   10.70    4.20
  -6  -6  15   12.50    2.90
   5   6 -15   84.59    6.20
  -5  -6  15   88.49    5.10
  -5  -6  15   79.19    6.70
   4   6 -15  134.59    7.30
  -4  -6  15  127.49    5.80
   3   6 -15   12.70    3.10
  -3  -6  15   18.10    2.60
   2   6 -15  274.37   11.00
  -2  -6  15  285.97    9.50
   1   6 -15   60.29    5.20
  -1  -6  15   55.89    4.00
   0   6 -15  102.39    6.50
   0  -6  15  106.49    5.40
  -1   6 -15   46.80    5.10
   1  -6  15   59.59    4.30
  -2   6 -15  214.68   10.20
   2  -6  15  214.28    8.80
  -3   6 -15   26.50    4.30
   3  -6  15   31.40    4.00
   8   5 -15   40.40    4.20
  -7  -5  15   56.19    6.20
  -7  -5  15   56.49    4.90
   6   5 -15   21.50    4.10
  -6  -5  15   22.50    3.50
  -6  -5  15   20.30    5.50
   5   5 -15   28.30    4.10
  -5  -5  15   34.90    5.10
  -5  -5  15   34.20    4.10
   4   5 -15   85.39    6.00
  -4  -5  15   87.59    5.00
   3   5 -15   46.00    4.70
  -3  -5  15   51.89    4.00
   2   5 -15  120.19    6.80
  -2  -5  15  117.99    5.80
   1   5 -15   68.59    5.40
  -1  -5  15   71.69    4.70
   0   5 -15  220.38    9.80
   0  -5  15  226.28    8.70
  -1   5 -15   17.60    3.80
   1  -5  15   28.70    3.70
  -2   5 -15   25.10    4.30
  -3   5 -15    3.90    3.20
   3  -5  15    6.60    2.90
  -8  -4  15    3.10    4.80
  -7  -4  15    7.50    4.00
  -7  -4  15   15.10    3.40
   6   4 -15   11.70    3.20
  -6  -4  15    9.20    3.00
  -6  -4  15    4.90    3.50
   5   4 -15  105.09    6.50
  -5  -4  15  110.49    7.40
  -5  -4  15  103.99    5.70
   4   4 -15  152.08    6.20
   4   4 -15  148.79    7.50
  -4  -4  15  142.99    6.70
   3   4 -15  402.66   12.50
   3   4 -15  405.66   14.10
  -3  -4  15  411.56   13.20
   2   4 -15   72.39    5.60
   2   4 -15   78.39    4.50
  -2  -4  15   73.89    4.90
   1   4 -15  129.29    5.80
   1   4 -15  121.99    7.10
  -1  -4  15  121.99    6.10
   0   4 -15   31.70    3.30
   0   4 -15   23.60    3.90
   0  -4  15   18.30    3.30
  -1   4 -15   44.30    5.20
   1  -4  15   41.90    4.30
  -2   4 -15   18.50    4.00
   2  -4  15   23.40    3.80
  -3   4 -15   -1.50    3.30
   3  -4  15    6.50    2.90
   9   3 -15   99.49    6.60
  -8  -3  15  266.07   12.10
  -7  -3  15   94.39    6.20
   6   3 -15  174.28    7.40
   6   3 -15  177.38    8.20
  -6  -3  15  167.08    7.90
  -6  -3  15  183.88    9.40
   5   3 -15   85.19    5.00
   5   3 -15   80.19    5.60
  -5  -3  15   76.79    5.40
   4   3 -15  104.29    6.20
   4   3 -15  106.29    5.60
  -4  -3  15  100.99    5.80
   3   3 -15  253.17   10.30
   3   3 -15  257.97    9.30
  -3  -3  15  258.97    9.70
   2   3 -15    3.00    2.70
   2   3 -15    4.90    2.20
  -2  -3  15    2.10    2.40
   1   3 -15   48.60    4.20
   1   3 -15   43.60    4.90
  -1  -3  15   45.90    4.40
   0   3 -15   12.50    3.30
   0  -3  15   19.30    3.60
  -1   3 -15    4.30    2.90
  -1   3 -15   13.20    3.30
   1  -3  15    3.70    2.60
  -2   3 -15  103.69    7.40
   2  -3  15  117.99    6.80
  -3   3 -15   61.59    7.30
   9   2 -15   -3.40    4.50
  -8  -2  15    0.40    3.60
   7   2 -15   74.79    5.80
  -7  -2  15   91.49    6.10
  -7  -2  15   90.99   11.50
   6   2 -15  102.89    6.20
   6   2 -15  111.39    5.80
  -6  -2  15   98.19    6.20
  -6  -2  15  110.39    7.30
   5   2 -15   48.10    4.60
   5   2 -15   55.69    4.30
  -5  -2  15   46.00    4.70
   4   2 -15   18.00    3.10
   4   2 -15   14.20    3.20
  -4  -2  15   16.10    3.30
   3   2 -15   -0.20    2.30
   3   2 -15    1.70    2.20
  -3  -2  15   -0.50    2.10
   2   2 -15   16.60    2.80
   2   2 -15   16.70    3.50
  -2  -2  15   18.10    3.30
   1   2 -15   19.00    3.00
   1   2 -15   14.20    3.30
  -1  -2  15   17.60    3.60
   0   2 -15  106.69    5.90
   0   2 -15  116.49    7.20
   0  -2  15  102.39    6.40
  -1   2 -15    0.80    3.10
  -1   2 -15    7.20    2.60
   1  -2  15   10.00    4.00
  -2   2 -15  634.54   21.30
  -2   2 -15  664.03   20.20
   2  -2  15  651.63   20.50
  -8  -1  15   83.59    7.10
   7   1 -15   63.19    4.80
   7   1 -15   47.50    4.90
  -7  -1  15   50.79    5.20
  -7  -1  15   49.30    5.80
   6   1 -15    1.10    2.60
   6   1 -15    5.60    2.30
  -6  -1  15    0.20    2.90
   5   1 -15   -0.80    2.30
  -5  -1  15    5.60    2.80
   4   1 -15   59.09    5.00
   4   1 -15   68.19    4.80
  -4  -1  15   57.39    5.00
   3   1 -15  225.98    9.00
   3   1 -15  216.38    9.40
  -3  -1  15  225.88    9.30
   2   1 -15  411.66   14.00
   2   1 -15  416.26   14.30
  -2  -1  15  396.46   13.90
   1   1 -15  754.42   24.20
   1   1 -15  820.72   24.10
  -1  -1  15  798.92   23.60
   0   1 -15  812.52   24.30
   0   1 -15  817.82   25.20
   0  -1  15  857.71   26.70
  -1   1 -15  285.97   12.30
  -1   1 -15  282.17   11.00
   1  -1  15  283.87   11.30
  -2   1 -15  417.26   14.30
  -2   1 -15  407.76   16.00
  -3   1 -15   41.10    4.80
   8   0 -15   12.60    3.30
  -8   0  15    7.70    3.80
   7   0 -15  143.79    7.00
  -7   0  15  127.09    7.40
  -7   0  15  125.39    8.10
   6   0 -15   14.30    3.10
   6   0 -15    2.00    2.40
  -6   0  15    2.80    3.20
  -6   0  15    4.60    3.20
   5   0 -15  137.49    7.00
   5   0 -15  153.08    7.30
  -5   0  15  143.39    7.50
   4   0 -15  196.38    8.60
   4   0 -15  199.08    8.60
  -4   0  15  191.68    8.90
   3   0 -15  460.75   15.00
   3   0 -15  432.16   14.70
  -3   0  15  433.86   15.00
   2   0 -15  219.98    9.60
   2   0 -15  209.88    9.20
  -2   0  15  218.68    9.50
   1   0 -15  817.42   24.40
   1   0 -15  782.92   23.90
  -1   0  15  824.72   24.80
   0   0 -15   21.20    3.80
   0   0 -15   22.30    4.10
   0   0  15   19.50    3.90
  -1   0 -15  203.28    9.00
  -1   0 -15  197.08    9.90
   1   0  15  193.48    9.20
  -2   0 -15   20.60    3.80
   8  -1 -15   82.09    5.60
  -8   1  15   54.79    6.30
   7  -1 -15   36.70    4.50
  -7   1  15   27.40    4.60
   6  -1 -15   64.49    5.00
   6  -1 -15   37.90    5.70
  -6   1  15   63.79    5.60
  -6   1  15   52.29    5.60
   5  -1 -15  133.69    6.70
   5  -1 -15  153.38    7.60
  -5   1  15  149.39   11.20
   4  -1 -15  512.55   16.50
   4  -1 -15  489.35   16.00
  -4   1  15  507.65   18.70
   3  -1 -15  393.86   13.90
   3  -1 -15  404.46   13.70
  -3   1  15  390.46   14.50
   2  -1 -15  639.54   20.00
   2  -1 -15  641.24   19.90
   1  -1 -15  311.97   11.90
   1  -1 -15  314.47   11.90
  -1   1  15  300.87   12.00
   0  -1 -15  418.16   14.60
   0   1  15  407.76   14.80
  -1  -1 -15    9.50    3.70
  -1  -1 -15   17.80    3.30
   8  -2 -15   17.20    4.90
  -8   2  15   10.40    4.50
   7  -2 -15  140.69    7.50
  -7   2  15  130.59    8.50
   6  -2 -15   11.60    3.30
  -6   2  15    7.50    3.50
  -6   2  15    5.70    3.70
   5  -2 -15   16.20    3.60
  -5   2  15   10.90    3.80
   4  -2 -15   50.29    4.50
   4  -2 -15   56.89    5.10
  -4   2  15   44.70    5.50
   3  -2 -15   39.40    4.70
   3  -2 -15   55.29    4.80
  -3   2  15   37.70    4.90
   2  -2 -15   14.70    3.30
   2  -2 -15   10.80    3.00
  -2   2  15   11.80    3.80
   1  -2 -15   94.79    6.40
  -1   2  15   88.99    6.50
   0  -2 -15   28.50    4.40
   0  -2 -15   41.80    4.50
   6  -3 -15   13.30    3.50
  -6   3  15    6.50    3.50
   5  -3 -15   10.20    3.20
  -5   3  15    3.50    3.10
   4  -3 -15   57.99    5.20
  -4   3  15   56.49    5.40
   3  -3 -15   34.60    4.40
   3  -3 -15   37.10    4.60
  -3   3  15   37.30    4.50
   2  -3 -15   41.10    4.80
  -2   3  15   28.00    5.00
   1  -3 -15    2.50    3.00
   1  -3 -15   11.50    3.70
  -4   4  15   57.59    5.90
  -2 -10  16    9.60    3.50
   4   9 -16    6.50    4.20
  -4  -9  16    4.00    4.10
   3   9 -16  354.26   13.80
  -3  -9  16  370.96   14.30
   2   9 -16  216.28   10.10
   1   9 -16  165.58    8.60
   0   9 -16  306.97   12.40
  -6  -8  16   73.19    4.60
   5   8 -16    4.40    3.10
   4   8 -16   73.49    6.20
  -4  -8  16   69.79    6.50
   3   8 -16    7.00    3.00
   2   8 -16  155.48    8.20
  -2  -8  16  152.88    5.90
   1   8 -16   60.09    5.60
  -1  -8  16   58.29    3.50
   0   8 -16   12.70    3.20
   0  -8  16   22.70    2.70
  -1   8 -16    3.40    2.70
   2  -8  16    4.40    1.90
   6   7 -16    4.70    3.50
  -6  -7  16   -1.10    2.30
   5   7 -16   15.00    3.80
  -5  -7  16   16.90    4.60
  -5  -7  16   19.60    3.80
   4   7 -16    5.80    3.20
  -4  -7  16    6.20    2.40
  -4  -7  16    1.40    3.20
   3   7 -16   93.69    9.80
  -3  -7  16   80.39    4.50
   2   7 -16   48.40    6.30
  -2  -7  16   37.30    3.30
  -1  -7  16   81.79    4.60
   0   7 -16  270.57   11.30
   0  -7  16  272.37    9.50
  -1   7 -16   35.40    4.80
   2  -7  16  206.08    8.30
   6   6 -16  127.99    7.70
  -6  -6  16  125.39    6.30
  -6  -6  16  123.69    8.30
  -5  -6  16    0.90    2.90
  -5  -6  16    0.10    2.90
   4   6 -16  257.47   10.90
  -4  -6  16  255.67    9.10
   3   6 -16    7.80    2.80
  -3  -6  16    3.20    2.10
   2   6 -16  143.79    7.70
  -2  -6  16  143.59    6.40
   1   6 -16   -2.30    2.20
  -1  -6  16    1.30    2.00
   0   6 -16    5.10    2.90
   0  -6  16    4.50    2.00
  -1   6 -16   54.19    5.70
   1  -6  16   65.29    4.70
   2  -6  16    6.20    2.60
  -6  -5  16   61.09    6.50
  -6  -5  16   74.19    5.30
   5   5 -16  480.45   16.40
  -5  -5  16  474.75   17.70
   4   5 -16   11.80    3.30
  -4  -5  16   14.90    3.00
   3   5 -16   34.80    4.60
  -3  -5  16   38.50    3.90
   2   5 -16   10.70    3.30
  -2  -5  16    7.00    2.50
   1   5 -16    5.60    2.80
  -1  -5  16    2.90    2.10
   0  -5  16   24.40    4.50
  -1   5 -16    3.20    2.80
   1  -5  16    6.70    2.70
  -7  -4  16  142.69   13.80
   6   4 -16    5.40    3.20
  -6  -4  16    9.50    3.90
  -6  -4  16   13.40    3.20
   5   4 -16   98.49    6.60
   4   4 -16   48.20    4.90
  -4  -4  16   44.60    4.40
   3   4 -16   18.50    3.70
  -3  -4  16   21.70    3.50
   2   4 -16  231.68   10.10
  -2  -4  16  231.18    9.10
   1   4 -16  155.18    8.00
  -1  -4  16  144.29    7.20
   0   4 -16  285.67   13.90
   0  -4  16  300.97   12.30
  -1   4 -16  226.08   10.60
   1  -4  16  233.28    9.50
   7   3 -16   76.09    6.20
  -7  -3  16   80.69    7.00
   6   3 -16  276.57   11.00
  -6  -3  16  282.07   12.30
  -6  -3  16  271.37   10.60
   5   3 -16   10.00    3.20
  -5  -3  16   14.60    4.20
   4   3 -16  322.77   12.40
   4   3 -16  352.96   12.90
  -4  -3  16  340.87   12.30
   3   3 -16   15.20    2.80
   3   3 -16    8.30    3.10
  -3  -3  16   11.30    3.10
   2   3 -16  295.57   10.50
   2   3 -16  318.87   12.10
  -2  -3  16  296.97   11.10
   1   3 -16  144.69    8.00
   0   3 -16  122.39    7.80
   0  -3  16  116.89    6.80
  -1   3 -16  148.89   10.20
  -1   3 -16  112.89    7.80
   1  -3  16  127.49    7.10
   7   2 -16   -3.40    2.60
  -7  -2  16    4.20    4.00
   6   2 -16   18.80    3.50
   6   2 -16   20.20    3.80
  -6  -2  16   18.00    3.50
  -6  -2  16   21.20    4.50
   5   2 -16   99.19    6.30
  -5  -2  16  106.39    6.30
   4   2 -16   93.69    6.30
   3   2 -16  192.38    9.10
   3   2 -16  220.98   10.00
   2   2 -16  212.98   10.50
   2   2 -16  206.48    9.50
   1   2 -16    9.70    3.30
  -1  -2  16   16.20    3.60
   0   2 -16  128.29    6.40
   0   2 -16   99.39    7.30
   0  -2  16  116.79    6.90
  -1   2 -16   19.80    4.60
   7   1 -16    4.10    3.00
  -7  -1  16    9.40    3.90
   6   1 -16  117.29    6.80
   6   1 -16  130.29    7.70
  -6  -1  16  125.79    7.10
  -6  -1  16  129.39    8.20
   5   1 -16  556.04   17.90
   5   1 -16  570.04   17.60
  -5  -1  16  565.94   18.00
   4   1 -16   47.50    4.30
   4   1 -16   39.90    4.80
  -4  -1  16   31.60    4.40
   3   1 -16  715.23   21.60
   3   1 -16  692.63   20.80
  -3  -1  16  676.73   21.20
   2   1 -16  140.89    6.90
   2   1 -16  127.69    7.50
  -2  -1  16  126.09    7.30
   1   1 -16  108.49    6.20
  -1  -1  16   97.49    6.50
   0   1 -16   20.90    4.10
   0  -1  16   28.10    5.10
  -1   1 -16   56.39    4.90
   7   0 -16  100.29    6.00
  -7   0  16   71.79    6.80
   6   0 -16  743.73   22.00
   6   0 -16  708.83   21.60
  -6   0  16  743.43   23.50
   5   0 -16   65.09    5.40
   5   0 -16   91.69    5.60
  -5   0  16   70.99    6.00
   4   0 -16  412.06   14.00
   4   0 -16  398.66   13.90
  -4   0  16  396.26   14.30
   3   0 -16   23.90    3.80
   3   0 -16   20.30    3.60
  -3   0  16   27.00    4.30
   2   0 -16  130.89    6.90
   2   0 -16  124.29    7.40
  -2   0  16  127.79    7.30
   1   0 -16   13.10    2.80
   1   0 -16    5.30    3.20
  -1   0  16    0.60    3.10
   0   0 -16   36.70    4.10
  -1   0 -16  252.37   10.40
   7  -1 -16   93.79    6.20
  -7   1  16   76.29    6.80
  -6   1  16    4.90    3.40
   5  -1 -16  538.15   16.80
   5  -1 -16  471.75   16.20
   4  -1 -16  131.29    6.90
   4  -1 -16  138.89    7.20
  -4   1  16  129.69    8.00
   3  -1 -16  134.99    7.20
   3  -1 -16  141.19    7.40
  -3   1  16  108.69    7.30
   2  -1 -16   61.39    8.20
   2  -1 -16   70.89    5.80
   1  -1 -16   32.80    4.70
   6  -2 -16  141.79    7.50
  -6   2  16  118.69    7.90
   5  -2 -16   16.00    3.50
   4  -2 -16   12.80    3.30
   3  -2 -16   10.00    3.20
   3  -2 -16   10.40    3.00
   2  -2 -16   16.80    3.50
   2  -2 -16    3.50    2.90
   1  -2 -16    6.90    5.30
  -5  -8  17  144.89    6.10
  -4  -8  17  104.39    5.10
  -1  -8  17   76.29    4.40
   0  -8  17    5.10    1.90
  -5  -7  17   42.10    4.00
   4   7 -17    9.20    3.50
  -4  -7  17   14.40    2.90
   3   7 -17   19.60    4.00
  -3  -7  17   26.70    3.50
   2   7 -17   41.30    5.10
  -2  -7  17   47.60    4.20
   1   7 -17   66.29    6.00
  -1  -7  17   66.49    4.40
   0  -7  17  221.78    8.30
   5   6 -17   85.59    6.50
  -5  -6  17   91.79    5.50
   4   6 -17    1.30    2.50
  -4  -6  17    2.40    2.20
   3   6 -17    1.00    2.40
  -3  -6  17    4.90    2.10
   2   6 -17   36.80    4.70
  -2  -6  17   39.10    3.80
   1   6 -17    2.10    2.50
  -1  -6  17    8.10    2.30
   0  -6  17    3.90    2.20
   6   5 -17   18.90    4.30
   5   5 -17   45.60    5.30
  -5  -5  17   55.79    4.80
   4   5 -17   54.39    5.40
  -4  -5  17   61.09    4.80
   3   5 -17   93.09    6.60
  -3  -5  17  109.69    5.90
   2   5 -17    7.20    2.80
  -2  -5  17    6.90    2.70
   1   5 -17   56.89    5.40
  -1  -5  17   56.29    4.60
   0  -5  17   -1.00    4.20
   6   4 -17   25.10    4.20
   5   4 -17    2.50    2.80
  -5  -4  17   10.60    2.80
  -5  -4  17    3.20    3.80
   4   4 -17  142.69    8.10
  -4  -4  17  142.59    6.90
   3   4 -17    5.80    2.90
  -3  -4  17    7.70    2.70
   2   4 -17   78.89    6.10
  -2  -4  17   74.89    5.20
   1   4 -17   14.00    3.80
  -1  -4  17   15.80    3.30
   7   3 -17  454.65   15.80
   6   3 -17  340.77   12.80
   5   3 -17   74.79    7.60
  -4  -3  17  163.48    7.90
   3   3 -17   17.10    4.20
  -3  -3  17   13.40    3.40
   2   3 -17   14.30    3.60
  -2  -3  17   17.20    3.60
   1   3 -17    2.80    2.80
   7   2 -17  345.07   12.90
   6   2 -17  392.26   16.50
   3   2 -17  207.08   11.80
   3   2 -17  175.08    9.30
  -3  -2  17  174.98    9.90
   2   2 -17   12.30    3.30
   1   2 -17  222.88   10.80
   1   2 -17  190.88    9.70
   6   1 -17   43.10    6.90
   5   1 -17    1.40    3.20
   3   1 -17   69.49    5.70
   2   1 -17  154.88    8.20
   0   1 -17  272.37   12.70
   6   0 -17  310.97   13.30
   5   0 -17   23.80    4.30
   4   0 -17   55.79    5.70
   3   0 -17   53.99    5.40
   3   0 -17   75.79    6.70
   2   0 -17   11.70    3.30
   1   0 -17  123.69    8.00
   4  -1 -17   11.80    3.70
   3  -1 -17  241.28   10.40
   3  -1 -17  269.27   10.80
   0   0   0    0.00    0.00

_computing_structure_solution     'SHELXT 2014/5 (Sheldrick, 2014)'
;
_shelx_hkl_checksum              24935
loop_
_space_group_symop_operation_xyz
'x, y, z'
'-x, -y, -z'
loop_
_atom_site_label
_atom_site_type_symbol
_atom_site_fract_x
_atom_site_fract_y
_atom_site_fract_z
_atom_site_U_iso_or_equiv
_atom_site_adp_type
_atom_site_occupancy
_atom_site_site_symmetry_order
_atom_site_calc_flag
_atom_site_refinement_flags_posn
_atom_site_refinement_flags_adp
O1 O 0.34947(9) 0.43051(7) 0.81296(6) 0.01485(13) Uani 1 1 d . .
O2 O 0.63893(11) 0.18944(9) 0.54068(7) 0.02643(17) Uani 1 1 d . .
O3 O 0.68968(10) 0.31629(9) 0.75455(7) 0.02277(16) Uani 1 1 d . .
O4 O 0.18943(12) 0.07047(9) 0.20457(7) 0.02662(17) Uani 1 1 d . .
O5 O 0.22665(11) 0.30796(8) 0.21303(7) 0.02180(15) Uani 1 1 d . .
C1 C 0.36330(13) 0.21772(10) 0.62156(8) 0.01458(16) Uani 1 1 d . .
C2 C 0.23965(14) 0.15465(10) 0.47658(9) 0.01854(18) Uani 1 1 d . .
H2A H 0.2833 0.0681 0.4281 0.022 Uiso 1 1 calc R U
H2B H 0.1041 0.1173 0.4710 0.022 Uiso 1 1 calc R U
C3 C 0.24720(13) 0.26675(10) 0.41003(8) 0.01631(17) Uani 1 1 d . .
C4 C 0.26573(13) 0.41326(10) 0.47728(8) 0.01548(17) Uani 1 1 d . .
H4 H 0.2639 0.4827 0.4343 0.019 Uiso 1 1 calc R U
C5 C 0.28865(12) 0.46214(10) 0.61726(8) 0.01396(16) Uani 1 1 d . .
C6 C 0.32877(12) 0.36863(10) 0.68161(8) 0.01386(16) Uani 1 1 d . .
C7 C 0.32014(12) 0.57254(9) 0.83316(8) 0.01424(16) Uani 1 1 d . .
C8 C 0.28412(12) 0.59924(10) 0.71616(8) 0.01411(16) Uani 1 1 d . .
C9 C 0.25440(13) 0.73904(10) 0.71937(9) 0.01730(17) Uani 1 1 d . .
H9 H 0.2302 0.7616 0.6421 0.021 Uiso 1 1 calc R U
C10 C 0.26133(14) 0.84380(10) 0.83910(9) 0.01911(18) Uani 1 1 d . .
H10 H 0.2424 0.9395 0.8431 0.023 Uiso 1 1 calc R U
C11 C 0.29553(13) 0.81224(10) 0.95420(9) 0.01847(18) Uani 1 1 d . .
H11 H 0.2984 0.8865 1.0341 0.022 Uiso 1 1 calc R U
C12 C 0.32533(13) 0.67407(10) 0.95316(9) 0.01667(17) Uani 1 1 d . .
H12 H 0.3479 0.6508 1.0301 0.020 Uiso 1 1 calc R U
C13 C 0.31408(14) 0.11182(10) 0.69145(9) 0.01885(18) Uani 1 1 d . .
H13A H 0.3923 0.1564 0.7841 0.028 Uiso 1 1 calc R U
H13B H 0.3414 0.0154 0.6496 0.028 Uiso 1 1 calc R U
H13C H 0.1772 0.0962 0.6852 0.028 Uiso 1 1 calc R U
C14 C 0.57743(13) 0.23796(10) 0.63097(9) 0.01536(17) Uani 1 1 d . .
C15 C 0.89438(15) 0.33639(15) 0.77581(11) 0.0300(2) Uani 1 1 d . .
H15A H 0.9256 0.2387 0.7564 0.045 Uiso 1 1 calc R U
H15B H 0.9638 0.4006 0.8676 0.045 Uiso 1 1 calc R U
H15C H 0.9327 0.3835 0.7179 0.045 Uiso 1 1 calc R U
C16 C 0.21848(13) 0.20343(11) 0.26691(9) 0.01863(18) Uani 1 1 d . .
C17 C 0.20432(15) 0.25035(14) 0.07407(9) 0.0266(2) Uani 1 1 d . .
H17A H 0.3034 0.1963 0.0582 0.040 Uiso 1 1 calc R U
H17B H 0.2179 0.3338 0.0434 0.040 Uiso 1 1 calc R U
H17C H 0.0764 0.1820 0.0263 0.040 Uiso 1 1 calc R U
loop_
_atom_site_aniso_label
_atom_site_aniso_U_11
_atom_site_aniso_U_22
_atom_site_aniso_U_33
_atom_site_aniso_U_23
_atom_site_aniso_U_13
_atom_site_aniso_U_12
O1 0.0191(3) 0.0125(3) 0.0126(3) 0.0034(2) 0.0056(2) 0.0045(2)
O2 0.0276(4) 0.0326(4) 0.0190(3) 0.0047(3) 0.0122(3) 0.0099(3)
O3 0.0152(3) 0.0331(4) 0.0155(3) 0.0040(3) 0.0048(2) 0.0046(3)
O4 0.0330(4) 0.0228(4) 0.0174(3) -0.0007(3) 0.0058(3) 0.0089(3)
O5 0.0243(3) 0.0266(4) 0.0131(3) 0.0055(3) 0.0061(3) 0.0060(3)
C1 0.0173(4) 0.0114(4) 0.0140(4) 0.0033(3) 0.0048(3) 0.0034(3)
C2 0.0223(4) 0.0130(4) 0.0152(4) 0.0019(3) 0.0023(3) 0.0026(3)
C3 0.0166(4) 0.0169(4) 0.0127(4) 0.0029(3) 0.0032(3) 0.0044(3)
C4 0.0165(4) 0.0160(4) 0.0134(4) 0.0048(3) 0.0044(3) 0.0044(3)
C5 0.0152(4) 0.0123(4) 0.0130(4) 0.0030(3) 0.0045(3) 0.0030(3)
C6 0.0143(4) 0.0129(4) 0.0125(4) 0.0026(3) 0.0043(3) 0.0025(3)
C7 0.0149(4) 0.0121(4) 0.0153(4) 0.0038(3) 0.0057(3) 0.0032(3)
C8 0.0147(4) 0.0126(4) 0.0139(4) 0.0032(3) 0.0052(3) 0.0028(3)
C9 0.0203(4) 0.0147(4) 0.0184(4) 0.0064(3) 0.0078(3) 0.0051(3)
C10 0.0222(4) 0.0129(4) 0.0222(4) 0.0041(3) 0.0095(3) 0.0053(3)
C11 0.0193(4) 0.0157(4) 0.0181(4) 0.0014(3) 0.0088(3) 0.0038(3)
C12 0.0173(4) 0.0169(4) 0.0147(4) 0.0034(3) 0.0069(3) 0.0032(3)
C13 0.0237(4) 0.0134(4) 0.0199(4) 0.0065(3) 0.0084(3) 0.0026(3)
C14 0.0199(4) 0.0130(4) 0.0150(4) 0.0062(3) 0.0063(3) 0.0058(3)
C15 0.0152(4) 0.0480(7) 0.0250(5) 0.0117(5) 0.0060(4) 0.0068(4)
C16 0.0164(4) 0.0222(4) 0.0143(4) 0.0031(3) 0.0038(3) 0.0059(3)
C17 0.0237(5) 0.0400(6) 0.0136(4) 0.0067(4) 0.0069(4) 0.0058(4)
loop_
_atom_type_symbol
_atom_type_description
_atom_type_scat_dispersion_real
_atom_type_scat_dispersion_imag
_atom_type_scat_source
C C 0.0033 0.0016 'International Tables Vol C Tables 4.2.6.8 and 6.1.1.4'
H H 0.0000 0.0000 'International Tables Vol C Tables 4.2.6.8 and 6.1.1.4'
O O 0.0106 0.0060 'International Tables Vol C Tables 4.2.6.8 and 6.1.1.4'
loop_
_geom_angle_atom_site_label_1
_geom_angle_atom_site_label_2
_geom_angle_atom_site_label_3
_geom_angle
C6 O1 C7 104.94(7)
C14 O3 C15 115.80(8)
C16 O5 C17 114.61(8)
C6 C1 C14 108.41(7)
C6 C1 C2 106.30(7)
C14 C1 C2 109.77(7)
C6 C1 C13 112.66(7)
C14 C1 C13 108.25(7)
C2 C1 C13 111.39(7)
C3 C2 C1 114.14(7)
C3 C2 H2A 108.7
C1 C2 H2A 108.7
C3 C2 H2B 108.7
C1 C2 H2B 108.7
H2A C2 H2B 107.6
C4 C3 C16 123.15(9)
C4 C3 C2 120.93(8)
C16 C3 C2 115.76(8)
C3 C4 C5 118.32(8)
C3 C4 H4 120.8
C5 C4 H4 120.8
C6 C5 C8 105.70(7)
C6 C5 C4 119.67(8)
C8 C5 C4 134.60(8)
C5 C6 O1 113.17(7)
C5 C6 C1 125.05(8)
O1 C6 C1 121.61(7)
C12 C7 O1 124.36(8)
C12 C7 C8 124.67(8)
O1 C7 C8 110.97(7)
C7 C8 C9 118.51(8)
C7 C8 C5 105.21(7)
C9 C8 C5 136.28(8)
C10 C9 C8 117.96(8)
C10 C9 H9 121.0
C8 C9 H9 121.0
C9 C10 C11 121.89(9)
C9 C10 H10 119.1
C11 C10 H10 119.1
C12 C11 C10 121.07(8)
C12 C11 H11 119.5
C10 C11 H11 119.5
C7 C12 C11 115.88(8)
C7 C12 H12 122.1
C11 C12 H12 122.1
C1 C13 H13A 109.5
C1 C13 H13B 109.5
H13A C13 H13B 109.5
C1 C13 H13C 109.5
H13A C13 H13C 109.5
H13B C13 H13C 109.5
O2 C14 O3 123.55(9)
O2 C14 C1 125.34(9)
O3 C14 C1 111.10(7)
O3 C15 H15A 109.5
O3 C15 H15B 109.5
H15A C15 H15B 109.5
O3 C15 H15C 109.5
H15A C15 H15C 109.5
H15B C15 H15C 109.5
O4 C16 O5 123.46(9)
O4 C16 C3 123.35(9)
O5 C16 C3 113.19(8)
O5 C17 H17A 109.5
O5 C17 H17B 109.5
H17A C17 H17B 109.5
O5 C17 H17C 109.5
H17A C17 H17C 109.5
H17B C17 H17C 109.5
loop_
_geom_bond_atom_site_label_1
_geom_bond_atom_site_label_2
_geom_bond_distance
O1 C6 1.3693(10)
O1 C7 1.3847(10)
O2 C14 1.2011(11)
O3 C14 1.3372(11)
O3 C15 1.4431(12)
O4 C16 1.2133(12)
O5 C16 1.3434(12)
O5 C17 1.4443(11)
C1 C6 1.4942(12)
C1 C14 1.5350(12)
C1 C2 1.5367(12)
C1 C13 1.5370(12)
C2 C3 1.5119(13)
C2 H2A 0.9900
C2 H2B 0.9900
C3 C4 1.3493(12)
C3 C16 1.4808(12)
C4 C5 1.4552(11)
C4 H4 0.9500
C5 C6 1.3590(12)
C5 C8 1.4486(11)
C7 C12 1.3838(12)
C7 C8 1.3992(12)
C8 C9 1.3999(12)
C9 C10 1.3903(12)
C9 H9 0.9500
C10 C11 1.4039(14)
C10 H10 0.9500
C11 C12 1.3908(13)
C11 H11 0.9500
C12 H12 0.9500
C13 H13A 0.9800
C13 H13B 0.9800
C13 H13C 0.9800
C15 H15A 0.9800
C15 H15B 0.9800
C15 H15C 0.9800
C17 H17A 0.9800
C17 H17B 0.9800
C17 H17C 0.9800
loop_
_geom_torsion_atom_site_label_1
_geom_torsion_atom_site_label_2
_geom_torsion_atom_site_label_3
_geom_torsion_atom_site_label_4
_geom_torsion
C6 C1 C2 C3 43.81(10)
C14 C1 C2 C3 -73.24(10)
C13 C1 C2 C3 166.88(8)
C1 C2 C3 C4 -33.71(12)
C1 C2 C3 C16 150.68(8)
C16 C3 C4 C5 178.52(8)
C2 C3 C4 C5 3.24(13)
C3 C4 C5 C6 12.90(13)
C3 C4 C5 C8 -169.16(9)
C8 C5 C6 O1 0.50(10)
C4 C5 C6 O1 178.98(7)
C8 C5 C6 C1 -174.89(8)
C4 C5 C6 C1 3.59(13)
C7 O1 C6 C5 0.13(10)
C7 O1 C6 C1 175.70(8)
C14 C1 C6 C5 86.41(10)
C2 C1 C6 C5 -31.54(11)
C13 C1 C6 C5 -153.81(9)
C14 C1 C6 O1 -88.62(9)
C2 C1 C6 O1 153.43(8)
C13 C1 C6 O1 31.16(11)
C6 O1 C7 C12 179.08(8)
C6 O1 C7 C8 -0.75(9)
C12 C7 C8 C9 1.24(13)
O1 C7 C8 C9 -178.93(8)
C12 C7 C8 C5 -178.78(8)
O1 C7 C8 C5 1.05(9)
C6 C5 C8 C7 -0.92(9)
C4 C5 C8 C7 -179.06(9)
C6 C5 C8 C9 179.05(10)
C4 C5 C8 C9 0.91(18)
C7 C8 C9 C10 -0.35(13)
C5 C8 C9 C10 179.69(9)
C8 C9 C10 C11 -0.44(14)
C9 C10 C11 C12 0.42(14)
O1 C7 C12 C11 178.95(8)
C8 C7 C12 C11 -1.24(13)
C10 C11 C12 C7 0.39(13)
C15 O3 C14 O2 -1.94(14)
C15 O3 C14 C1 177.36(8)
C6 C1 C14 O2 -127.22(10)
C2 C1 C14 O2 -11.50(13)
C13 C1 C14 O2 110.28(10)
C6 C1 C14 O3 53.49(10)
C2 C1 C14 O3 169.22(7)
C13 C1 C14 O3 -69.01(9)
C17 O5 C16 O4 -1.98(13)
C17 O5 C16 C3 178.42(8)
C4 C3 C16 O4 -175.10(9)
C2 C3 C16 O4 0.40(14)
C4 C3 C16 O5 4.50(13)
C2 C3 C16 O5 180.00(8)
