#------------------------------------------------------------------------------
#$Date: 2019-11-04 15:15:32 +0200 (Mon, 04 Nov 2019) $
#$Revision: 223119 $
#$URL: file:///home/coder/svn-repositories/cod/cif/4/03/46/4034642.cif $
#------------------------------------------------------------------------------
#
# This file is available in the Crystallography Open Database (COD),
# http://www.crystallography.net/
#
# All data on this site have been placed in the public domain by the
# contributors.
#
data_4034642
loop_
_publ_author_name
'Golushko, Andrei A.'
'Khoroshilova, Olesya V.'
'Vasilyev, Aleksander V.'
_publ_section_title
;
 Synthesis of 1,2,4-Oxadiazoles by Tandem Reaction of Nitroalkenes with
 Arenes and Nitriles in the Superacid TfOH.
;
_journal_issue                   11
_journal_name_full               'The Journal of organic chemistry'
_journal_page_first              7495
_journal_page_last               7500
_journal_paper_doi               10.1021/acs.joc.9b00812
_journal_volume                  84
_journal_year                    2019
_chemical_formula_moiety         'C18 H17 F N2 O'
_chemical_formula_sum            'C18 H17 F N2 O'
_chemical_formula_weight         296.33
_space_group_crystal_system      triclinic
_space_group_IT_number           2
_space_group_name_Hall           '-P 1'
_space_group_name_H-M_alt        'P -1'
_atom_sites_solution_hydrogens   geom
_atom_sites_solution_primary     dual
_audit_creation_date             2018-10-25
_audit_creation_method
;
Olex2 1.2-ac3
(compiled 2017.01.05 svn.r3372 for Rigaku Oxford Diffraction, GUI svn.r5289)
;
_cell_angle_alpha                90.884(4)
_cell_angle_beta                 103.956(4)
_cell_angle_gamma                95.264(4)
_cell_formula_units_Z            2
_cell_length_a                   7.5047(3)
_cell_length_b                   9.2211(4)
_cell_length_c                   11.4499(6)
_cell_measurement_reflns_used    4475
_cell_measurement_temperature    114(2)
_cell_measurement_theta_max      72.1620
_cell_measurement_theta_min      3.9530
_cell_volume                     765.14(6)
_computing_cell_refinement       'CrysAlisPro 1.171.39.46e (Rigaku OD, 2018)'
_computing_data_collection       'CrysAlisPro 1.171.39.46e (Rigaku OD, 2018)'
_computing_data_reduction        'CrysAlisPro 1.171.39.46e (Rigaku OD, 2018)'
_computing_molecular_graphics    'Olex2 (Dolomanov et al., 2009)'
_computing_publication_material  'Olex2 (Dolomanov et al., 2009)'
_computing_structure_refinement  'ShelXL (Sheldrick, 2015)'
_computing_structure_solution    'ShelXT (Sheldrick, 2015)'
_diffrn_ambient_environment      N~2~
_diffrn_ambient_temperature      114(2)
_diffrn_detector                 'CCD plate'
_diffrn_detector_type            HyPix3000
_diffrn_measured_fraction_theta_full 0.999
_diffrn_measured_fraction_theta_max 0.986
_diffrn_measurement_details
;
List of Runs (angles in degrees, time in seconds):

  # Type    Start    End  Width  t~exp~   \w     \q     \k     \f   Frames
--------------------------------------------------------------------------
  1  \w    -13.00  37.00   0.50    0.53    --   38.95 -79.00 139.00  100
  2  \w     82.00 110.00   0.50    2.12    --  104.29  79.00 -96.00   56
  3  \w    118.00 152.00   0.50    2.12    --  104.29  79.00 -96.00   68
  4  \w     60.00 129.00   0.50    2.12    --  104.29 -79.00 139.00  138
  5  \w    -48.00 -16.00   0.50    0.53    --  -38.95 -65.00-120.00   64
  6  \w    -51.00 -22.00   0.50    0.53    --  -38.95  32.00-120.00   58
  7  \w    -35.00   6.00   0.50    0.53    --  -38.95 104.00   0.00   82
  8  \w   -100.00 -57.00   0.50    0.53    --  -38.95 -65.00-120.00   86
  9  \w    -77.00 -40.00   0.50    0.53    --  -38.95 104.00   0.00   74
 10  \w    -41.00  27.00   0.50    0.53    --  -38.95  79.00 -96.00  136
 11  \w     -2.00  24.00   0.50    0.53    --  -38.95  32.00-120.00   52
 12  \w   -101.00 -23.00   0.50    0.53    --  -38.95 -43.00  30.00  156
 13  \w    -58.00 -21.00   0.50    0.53    --  -38.95  54.00  30.00   74
 14  \w     41.00  97.00   0.50    0.53    --   38.95-138.00 -90.00  112
 15  \w     11.00  38.00   0.50    0.53    --   38.95-138.00 -90.00   54
 16  \w     67.00 105.00   0.50    0.53    --   38.95  43.00   0.00   76
 17  \w    -31.00   5.00   0.50    0.53    --   38.95 -89.00 120.00   72
 18  \w     27.00  52.00   0.50    0.53    --   38.95  43.00   0.00   50
 19  \w      1.00  51.00   0.50    0.53    --   38.95 -65.00  60.00  100
 20  \w     83.00 108.00   0.50    0.53    --   38.95  32.00 -60.00   50
 21  \w     14.00  39.00   0.50    0.53    --   38.95 -32.00 -60.00   50
 22  \w    -26.00  11.00   0.50    0.53    --   38.95 -43.00 120.00   74
 23  \w     13.00  54.00   0.50    0.53    --   38.95 -89.00 120.00   82
 24  \w     49.00  79.00   0.50    0.53    --   38.95  32.00 -60.00   60
 25  \w    -22.00   8.00   0.50    0.53    --   38.95 -32.00 -60.00   60
 26  \w     28.00  58.00   0.50    0.53    --   38.95 -54.00 120.00   60
 27  \w     11.00  37.00   0.50    0.53    --   38.95 -54.00   0.00   52
 28  \w     40.00 117.00   0.50    2.12    --  104.29-133.00 -30.00  154
 29  \w     82.00 157.00   0.50    2.12    --  104.29  61.00 -60.00  150
 30  \w     47.00 103.00   0.50    2.12    --  104.29 -53.00-120.00  112
 31  \w     67.00 110.00   0.50    2.12    --  104.29-111.00   0.00   86
 32  \w     45.00 124.00   0.50    2.12    --  104.29 -53.00 120.00  158
 33  \w     91.00 155.00   0.50    2.12    --  104.29  30.00-150.00  128
 34  \w     93.00 119.00   0.50    2.12    --  104.29  15.00   0.00   52
 35  \w    115.00 149.00   0.50    2.12    --  104.29  37.00  90.00   68
 36  \w     87.00 117.00   0.50    2.12    --  104.29 -30.00  30.00   60
 37  \w     66.00 105.00   0.50    2.12    --  104.29 -37.00 120.00   78
 38  \w     95.00 154.00   0.50    2.12    --  104.29  37.00 -30.00  118
 39  \w     82.00 107.00   0.50    2.12    --  104.29  93.00   0.00   50
 40  \w     35.00  77.00   0.50    2.12    --  104.29-111.00  90.00   84
 41  \w     35.00  68.00   0.50    2.12    --  104.29 -30.00  30.00   66
 42  \w     69.00 121.00   0.50    2.12    --  104.29-133.00 150.00  104
 43  \w     76.00 105.00   0.50    2.12    --  104.29 -86.00   0.00   58
 44  \w     38.00  64.00   0.50    2.12    --  104.29 -37.00 120.00   52
 45  \w     41.00 103.00   0.50    2.12    --  104.29 -30.00 -90.00  124
 46  \w     55.00  91.00   0.50    2.12    --  104.29-111.00 -30.00   72
 47  \w     39.00  73.00   0.50    2.12    --  104.29 -86.00   0.00   68
 48  \w     80.00 111.00   0.50    2.12    --  104.29-111.00-180.00   62
 49  \w     37.00  69.00   0.50    2.12    --  104.29-111.00-180.00   64
 50  \w     35.00  86.00   0.50    2.12    --  104.29-111.00 150.00  102
 51  \w    132.00 157.00   0.50    2.12    --  104.29  93.00   0.00   50
 52  \w     83.00 109.00   0.50    2.12    --  104.29-111.00 -90.00   52
 53  \w     85.00 121.00   0.50    2.12    --  104.29  53.00 -90.00   72
 54  \w    129.00 155.00   0.50    2.12    --  104.29  15.00   0.00   52
 55  \w    118.00 144.00   0.50    2.12    --  104.29  45.00   0.00   52
 56  \w     78.00 117.00   0.50    2.12    --  104.29 133.00-180.00   78
 57  \w     80.00 157.00   0.50    2.12    --  104.29 111.00-150.00  154
 58  \w    108.00 152.00   0.50    2.12    --  104.29 133.00 150.00   88
 59  \w     57.00  83.00   0.50    0.53    --   38.95  54.00 150.00   52
 60  \w    -39.00 -14.00   0.50    0.53    --    4.00 112.00 -98.86   50
 61  \w    -16.00  10.00   0.50    0.53    --   20.00 106.00 -27.58   52
 62  \w     -8.00  17.00   0.50    0.53    --   28.00 100.00-157.66   50
 63  \w     -1.00  24.00   0.50    0.53    --   32.00  92.00  60.01   50
 64  \w     -1.00  24.00   0.50    0.53    --   32.00  94.00 166.70   50
 65  \w      6.00  31.00   0.50    0.53    --   36.00  86.00-100.43   50
 66  \w      6.00  31.00   0.50    0.53    --   36.00  87.00 100.27   50
 67  \w      5.00  30.00   0.50    0.53    --   36.00  88.00 -24.17   50
 68  \w     11.00  36.00   0.50    0.53    --   40.00  84.00  34.47   50
 69  \w     16.00  41.00   0.50    0.53    --   44.00  82.00  56.70   50
 70  \w     16.00  41.00   0.50    0.53    --   44.00  80.00  89.97   50
 71  \w     16.00  41.00   0.50    0.53    --   44.00  81.00-171.93   50
 72  \w     16.00  41.00   0.50    0.53    --   44.00  82.00 133.16   50
 73  \w     17.00  42.00   0.50    0.53    --   44.00  79.00 -19.76   50
 74  \w     16.00  41.00   0.50    0.53    --   44.00  82.00 -83.99   50
 75  \w     16.00  41.00   0.50    0.53    --   44.00  82.00-129.09   50
 76  \w     28.00  67.00   0.50    0.53    --   48.00  71.00  44.87   78
 77  \w     26.00  52.00   0.50    0.53    --   52.00  77.00-161.73   52
 78  \w     26.00  51.00   0.50    0.53    --   52.00  76.00 161.90   50
 79  \w     85.00 111.00   0.50    0.53    --   56.00  77.00  44.15   52
 80  \w     32.00  79.00   0.50    0.53    --   56.00  77.00  44.15   94
 81  \w     32.00  63.00   0.50    0.53    --   56.00  69.00 -39.42   62
 82  \w     35.00 110.00   0.50    0.53    --   60.00  70.00 139.57  150
 83  \w    100.00 126.00   0.50    0.53    --   60.00  77.00  94.94   52
 84  \w     33.00  83.00   0.50    0.53    --   60.00  77.00  -6.97  100
 85  \w     70.00  96.00   0.50    0.53    --   60.00  64.00-166.07   52
 86  \w     39.00  65.00   0.50    0.53    --   60.00  64.00-166.07   52
 87  \w     35.00  75.00   0.50    0.53    --   60.00  76.00 -90.87   80
 88  \w     37.00  63.00   0.50    0.53    --   60.00  69.00-140.27   52
 89  \w     35.00  75.00   0.50    0.53    --   60.00  77.00  94.94   80
 90  \w     42.00  67.00   0.50    0.53    --   64.00  59.00-103.48   50
 91  \w     80.00 123.00   0.50    0.53    --   64.00  60.00-142.80   86
 92  \w     43.00  69.00   0.50    0.53    --   64.00  60.00-142.80   52
 93  \w     41.00  80.00   0.50    0.53    --   64.00  77.00 -44.19   78
 94  \w     55.00 111.00   0.50    2.12    --   80.00  73.00  88.75  112
 95  \w     58.00  84.00   0.50    2.12    --   84.00  76.00-126.20   52
 96  \w     68.00 106.00   0.50    2.12    --   92.00  68.00-171.76   76
 97  \w     80.00  96.00   0.50    2.12    --  104.29  77.00 -60.00   32
;
_diffrn_measurement_device       'four-circle diffractometer'
_diffrn_measurement_device_type
'SuperNova, Single source at offset/far, HyPix3000'
_diffrn_measurement_method       '\w scans'
_diffrn_orient_matrix_type
'CrysAlisPro convention (1999,Acta A55,543-557)'
_diffrn_orient_matrix_UB_11      0.0286982000
_diffrn_orient_matrix_UB_12      -0.0832870000
_diffrn_orient_matrix_UB_13      -0.1106522000
_diffrn_orient_matrix_UB_21      -0.2095822000
_diffrn_orient_matrix_UB_22      -0.0419815000
_diffrn_orient_matrix_UB_23      -0.0422830000
_diffrn_orient_matrix_UB_31      -0.0207517000
_diffrn_orient_matrix_UB_32      0.1396163000
_diffrn_orient_matrix_UB_33      -0.0722394000
_diffrn_radiation_monochromator  mirror
_diffrn_radiation_probe          x-ray
_diffrn_radiation_type           CuK\a
_diffrn_radiation_wavelength     1.54184
_diffrn_reflns_av_R_equivalents  0.0292
_diffrn_reflns_av_unetI/netI     0.0312
_diffrn_reflns_Laue_measured_fraction_full 0.999
_diffrn_reflns_Laue_measured_fraction_max 0.986
_diffrn_reflns_limit_h_max       9
_diffrn_reflns_limit_h_min       -9
_diffrn_reflns_limit_k_max       11
_diffrn_reflns_limit_k_min       -10
_diffrn_reflns_limit_l_max       14
_diffrn_reflns_limit_l_min       -14
_diffrn_reflns_number            9305
_diffrn_reflns_point_group_measured_fraction_full 0.999
_diffrn_reflns_point_group_measured_fraction_max 0.986
_diffrn_reflns_theta_full        67.684
_diffrn_reflns_theta_max         72.520
_diffrn_reflns_theta_min         3.981
_diffrn_source                   'micro-focus sealed X-ray tube'
_diffrn_source_type              'SuperNova (Cu) X-ray Source'
_exptl_absorpt_coefficient_mu    0.726
_exptl_absorpt_correction_T_max  1.00000
_exptl_absorpt_correction_T_min  0.91261
_exptl_absorpt_correction_type   multi-scan
_exptl_absorpt_process_details
;
CrysAlisPro 1.171.39.46e (Rigaku Oxford Diffraction, 2018)
Empirical absorption correction using spherical harmonics,
 implemented in SCALE3 ABSPACK scaling algorithm.
;
_exptl_crystal_colour            'clear colourless'
_exptl_crystal_colour_lustre     clear
_exptl_crystal_colour_primary    colourless
_exptl_crystal_density_diffrn    1.286
_exptl_crystal_description       plate
_exptl_crystal_F_000             312
_exptl_crystal_size_max          0.17
_exptl_crystal_size_mid          0.12
_exptl_crystal_size_min          0.1
_refine_diff_density_max         0.235
_refine_diff_density_min         -0.264
_refine_diff_density_rms         0.040
_refine_ls_extinction_method     none
_refine_ls_goodness_of_fit_ref   1.070
_refine_ls_hydrogen_treatment    constr
_refine_ls_matrix_type           full
_refine_ls_number_parameters     202
_refine_ls_number_reflns         2990
_refine_ls_number_restraints     0
_refine_ls_restrained_S_all      1.070
_refine_ls_R_factor_all          0.0497
_refine_ls_R_factor_gt           0.0411
_refine_ls_shift/su_max          0.001
_refine_ls_shift/su_mean         0.000
_refine_ls_structure_factor_coef Fsqd
_refine_ls_weighting_details
'w=1/[\s^2^(Fo^2^)+(0.0531P)^2^+0.2111P] where P=(Fo^2^+2Fc^2^)/3'
_refine_ls_weighting_scheme      calc
_refine_ls_wR_factor_gt          0.1097
_refine_ls_wR_factor_ref         0.1156
_reflns_Friedel_coverage         0.000
_reflns_number_gt                2488
_reflns_number_total             2990
_reflns_threshold_expression     'I > 2\s(I)'
_cod_data_source_file            jo9b00812_si_005.cif
_cod_data_source_block           9827-10660_ca263
_cod_database_code               4034642
_shelx_shelxl_version_number     2014/7
_chemical_oxdiff_formula         'C17 F N2 O'
_shelx_space_group_comment
;
The symmetry employed for this shelxl refinement is uniquely defined
by the following loop, which should always be used as a source of
symmetry information in preference to the above space-group names.
They are only intended as comments.
;
_diffrn_oxdiff_ac3_digest_frames
;
018a3a8329d960e9738ef92793e58bd39c000270d6d
;
_diffrn_oxdiff_ac3_digest_hkl
;
01d9f97a38fe4ca6efd7efcae1c5d4f7fffafa
;
_reflns_odcompleteness_completeness 99.66
_reflns_odcompleteness_iscentric 1
_reflns_odcompleteness_theta     70.93
_olex2_refinement_description
;
1. Fixed Uiso
 At 1.2 times of:
  All C(H) groups
 At 1.5 times of:
  All C(H,H,H) groups
2.a Ternary CH refined with riding coordinates:
 C4(H4)
2.b Aromatic/amide H refined with riding coordinates:
 C7(H7), C6(H6), C12(H12), C10(H10), C9(H9), C15(H15), C14(H14)
2.c Idealised Me refined as rotating group:
 C18(H18A,H18B,H18C), C3(H3A,H3B,H3C), C17(H17A,H17B,H17C)
;
_shelx_res_file
;
    9827-10660_ca263.res created by SHELXL-2014/7

TITL 9827-10660_ca263_a.res in P-1
REM Old TITL 9827-10660_CA263 in P-1
REM SHELXT solution in P-1
REM R1 0.116, Rweak 0.004, Alpha 0.028, Orientation as input
REM Formula found by SHELXT: C18 N2 O F1
CELL 1.54184 7.504745 9.22106 11.449888 90.8837 103.9559 95.2641
ZERR 2 0.000329 0.000415 0.00055 0.0038 0.0039 0.0036
LATT 1
SFAC C H F N O
UNIT 36 34 2 4 2

L.S. 4
PLAN  5
TEMP -159(2)
BOND $H
LIST 6
fmap 2
acta
REM <olex2.extras>
REM <HklSrc "%.\\9827-10660_CA263.hkl">
REM </olex2.extras>

WGHT    0.053100    0.211100
FVAR       5.25037
F1    3    0.844715   -0.100665    0.688619    11.00000    0.03663    0.04072 =
         0.05373   -0.00691    0.00977    0.01358
O1    5    0.008541    0.354773    0.423416    11.00000    0.03172    0.03501 =
         0.02611    0.00304    0.00227    0.00353
N2    4    0.290351    0.353077    0.537636    11.00000    0.02897    0.02981 =
         0.02601    0.00158    0.00681    0.00334
N1    4   -0.005576    0.263419    0.520298    11.00000    0.03124    0.03171 =
         0.02660    0.00159    0.00366    0.00128
C5    1    0.385660    0.107843    0.698110    11.00000    0.03032    0.02465 =
         0.02239    0.00223    0.00731    0.00179
C4    1    0.213924    0.184636    0.696679    11.00000    0.02754    0.02412 =
         0.02444    0.00032    0.00607   -0.00063
AFIX  13
H4    2    0.110522    0.106709    0.692636    11.00000   -1.20000
AFIX   0
C1    1    0.164336    0.268161    0.583421    11.00000    0.02844    0.02455 =
         0.02460   -0.00364    0.00582    0.00248
C11   1    0.227380    0.280053    0.809756    11.00000    0.02436    0.02869 =
         0.02452   -0.00083    0.00578    0.00337
C7    1    0.716636    0.103120    0.749819    11.00000    0.02759    0.03081 =
         0.03253    0.00035    0.00596    0.00186
AFIX  43
H7    2    0.836641    0.147439    0.787214    11.00000   -1.20000
AFIX   0
C6    1    0.560966    0.172224    0.752533    11.00000    0.03170    0.02434 =
         0.02765   -0.00073    0.00721    0.00161
AFIX  43
H6    2    0.574760    0.265201    0.792350    11.00000   -1.20000
AFIX   0
C8    1    0.692248   -0.031449    0.691416    11.00000    0.03353    0.03126 =
         0.03231    0.00070    0.00979    0.01061
C12   1    0.235949    0.431228    0.805242    11.00000    0.03010    0.02883 =
         0.02502    0.00033    0.00447    0.00330
AFIX  43
H12   2    0.238890    0.475386    0.731227    11.00000   -1.20000
AFIX   0
C16   1    0.226405    0.213279    0.918844    11.00000    0.03045    0.03174 =
         0.02806    0.00213    0.00727    0.00338
C2    1    0.188106    0.401563    0.441575    11.00000    0.03094    0.02913 =
         0.02691   -0.00151    0.00751    0.00539
C13   1    0.240373    0.520248    0.906121    11.00000    0.03478    0.03082 =
         0.02995   -0.00388    0.00559    0.00545
C10   1    0.367491   -0.028097    0.639812    11.00000    0.03320    0.02787 =
         0.03348   -0.00494    0.00423    0.00059
AFIX  43
H10   2    0.247961   -0.072996    0.602005    11.00000   -1.20000
AFIX   0
C9    1    0.521320   -0.099143    0.636035    11.00000    0.04115    0.02764 =
         0.03773   -0.00676    0.00724    0.00484
AFIX  43
H9    2    0.508728   -0.192030    0.596241    11.00000   -1.20000
AFIX   0
C15   1    0.230604    0.303155    1.019189    11.00000    0.04689    0.04144 =
         0.02579    0.00289    0.01059    0.00747
AFIX  43
H15   2    0.229499    0.260065    1.093875    11.00000   -1.20000
AFIX   0
C14   1    0.236324    0.453131    1.012585    11.00000    0.04863    0.03894 =
         0.02777   -0.00645    0.00950    0.00686
AFIX  43
H14   2    0.237483    0.510790    1.082292    11.00000   -1.20000
AFIX   0
C18   1    0.223306    0.050816    0.930898    11.00000    0.04375    0.03374 =
         0.03146    0.00732    0.01069    0.00575
AFIX 137
H18A  2    0.118570    0.002270    0.870478    11.00000   -1.50000
H18B  2    0.210920    0.025837    1.011637    11.00000   -1.50000
H18C  2    0.338411    0.018559    0.918428    11.00000   -1.50000
AFIX   0
C3    1    0.243687    0.496326    0.350868    11.00000    0.04060    0.04131 =
         0.03070    0.00768    0.00878    0.00678
AFIX 137
H3A   2    0.217829    0.442106    0.273373    11.00000   -1.50000
H3B   2    0.375994    0.527651    0.377103    11.00000   -1.50000
H3C   2    0.174078    0.582030    0.342010    11.00000   -1.50000
AFIX   0
C17   1    0.248836    0.683439    0.898007    11.00000    0.05409    0.03191 =
         0.03852   -0.00639    0.00865    0.00632
AFIX 137
H17A  2    0.372860    0.726914    0.938640    11.00000   -1.50000
H17B  2    0.158425    0.720661    0.936910    11.00000   -1.50000
H17C  2    0.220731    0.708966    0.813189    11.00000   -1.50000
AFIX   0
HKLF 4

REM  9827-10660_ca263_a.res in P-1
REM R1 =  0.0411 for    2488 Fo > 4sig(Fo)  and  0.0497 for all    2990 data
REM    202 parameters refined using      0 restraints

END

WGHT      0.0531      0.2111

REM Highest difference peak  0.235,  deepest hole -0.264,  1-sigma level  0.040
Q1    1   0.1420  0.5159  0.2856  11.00000  0.05    0.24
Q2    1   0.1305  0.7116  0.8467  11.00000  0.05    0.22
Q3    1   0.3376  0.7123  0.8400  11.00000  0.05    0.21
Q4    1   0.2913  0.5759  0.3841  11.00000  0.05    0.19
Q5    1   0.3490  0.4532  0.3221  11.00000  0.05    0.19
;
_shelx_res_checksum              82750
_shelx_hkl_file
;
   0   0   1 16288.4 645.025  68
   0   0  -1 15943.3 634.892  60
   0   0  -1 16223.4 646.450  21
   0   0   1 16369.1 645.410  12
   0   0   2 293.563 34.8117  12
   0   0   2 254.479 33.4614  16
   0   0  -2 282.840 22.6030  17
   0   0   2 388.446 38.9137  68
   0   0  -2 294.672 23.5437  60
   0   0  -2 258.939 36.4093  21
   0   0  -3 36660.9 1539.91  21
   0   0   3 37833.4 1537.04  68
   0   0   3 37866.0 1537.49  84
   0   0   3 39849.3 1540.01  12
   0   0   3 38306.9 1533.87  16
   0   0  -3 38365.0 1537.77   7
   0   0   4 277.748 50.9755  16
   0   0   4 312.455 50.6810  68
   0   0   4 389.173 51.7164  63
   0   0   4 414.663 57.9148  12
   0   0  -4 414.305 60.9339  21
   0   0   4 299.818 52.7235  84
   0   0  -4 350.213 58.7313   7
   0   0   5 6637.24 331.166  84
   0   0  -5 6346.27 336.454  21
   0   0   5 6314.39 329.270  76
   0   0  -5 6225.45 327.500   7
   0   0   5 6385.65 328.646  68
   0   0   5 6251.36 322.825  16
   0   0   5 6170.57 325.710  12
   0   0   5 6380.11 314.450  63
   0   0  -6 394.880 73.4459   7
   0   0   6 414.821 72.5206  84
   0   0   6 440.976 77.1058  68
   0   0   6 569.970 86.6571  12
   0   0   6 351.572 69.5194  69
   0   0  -6 416.427 77.1125  21
   0   0   6 503.880 79.5391  76
   0   0   6 355.349 75.2684  80
   0   0   7 84.0791 50.2910  76
   0   0   7 28.5329 51.1997  80
   0   0  -7-14.1622 49.2120   7
   0   0   7 67.9127 50.2457  84
   0   0   8 6388.61 403.575  76
   0   0  -8 6769.61 412.602   7
   0   0  -8 6800.52 325.868  45
   0   0   8 7040.26 407.053  84
   0   0   8 6794.93 411.982  80
   0   0   9 3253.46 276.882  80
   0   0  -9 3310.46 279.869   7
   0   0  -9 3423.29 199.214  45
   0   0  -9 3370.21 295.736  27
   0   0   9 3918.58 293.025  76
   0   0 -10 2331.61 159.963  45
   0   0 -10 2612.94 144.752  58
   0   0  10 2390.40 237.053  76
   0   0 -11 1829.50 111.064  58
   0   0 -11 1543.88 124.660  45
   0   0 -12 458.115 61.4665  45
   0   0 -12 465.453 52.9569  58
   0   0  13 146.747 30.6058  39
   0   0 -13 165.352 31.3734  58
   0   1 -13 855.862 61.2749  58
   0   1 -12 1055.96 77.0176  58
   0   1 -11 2490.80 141.673  58
   0  -1  10 2679.84 264.568  76
   0  -1  10 2857.53 265.919  80
   0   1 -10 3045.64 162.936  58
   0   1  -9 1887.05 114.583  58
   0   1  -9 1684.56 117.313  47
   0   1  -9 2002.94 218.189  27
   0  -1   9 1619.12 189.873  76
   0   1  -9 1716.28 195.478   7
   0  -1   9 2125.72 216.552  80
   0  -1   8 1374.43 160.875  76
   0   1  -8 1250.63 163.132  27
   0   1  -8 1449.04 164.837   7
   0  -1   8 1129.48 145.491  69
   0  -1   8 1462.68 170.724  80
   0  -1   7 2786.84 212.703  84
   0  -1   7 2933.19 222.413  68
   0  -1   7 2875.47 220.104  69
   0  -1   7 3061.63 225.756  76
   0   1  -7 2709.66 216.587   7
   0  -1   6 1787.71 161.537  68
   0   1  -6 2381.38 176.882   7
   0  -1   6 2269.63 176.048  76
   0  -1   6 2077.88 164.549  84
   0  -1   6 2157.33 163.031  63
   0   1  -6 2088.39 169.290  21
   0  -1   5 56734.4 2312.91  68
   0  -1   5 59192.6 2308.92  84
   0   1  -5 55212.2 2315.54  21
   0   1  -5 57295.9 2312.12   7
   0  -1   5 55814.9 2303.11  63
   0  -1   4 5871.78 285.332  84
   0   1  -4 5558.57 285.814   7
   0   1  -4 5807.09 288.286  21
   0  -1   4 5942.62 290.293  68
   0  -1   4 5740.77 280.201  12
   0  -1   4 5303.77 272.720  73
   0  -1   3 128573. 5112.13  12
   0   1  -3 133857. 5120.70  21
   0  -1   3 129398. 5113.49  67
   0   1  -3 127964. 5121.26   7
   0  -1   3 130161. 5112.38  73
   0  -1   2 107031. 4134.81  67
   0   1  -2 106812. 4140.88  14
   0   1  -2 106996. 4141.04   7
   0   1  -2 103911. 4129.24  23
   0   1  -2 105578. 4111.80  26
   0  -1   2 104633. 4127.76  18
   0   1  -2 105375. 4135.90  21
   0  -1   2 104927. 4131.98  12
   0  -1   2 103229. 4131.05  60
   0  -1   2 103631. 4137.11  61
   0   1  -1 38408.3 1494.00  14
   0   1  -1 38240.3 1485.35  26
   0   1  -1 37616.1 1477.83   6
   0   1  -1 37050.2 1484.35  21
   0   1  -1 37255.5 1489.51  19
   0  -1   1 38082.0 1491.43  60
   0   1  -1 36360.0 1488.77  10
   0   1  -1 37866.2 1492.96  23
   0   1  -1 38639.6 1489.51  27
   0  -1   0 298.611 24.1967   5
   0   1   0 287.860 28.4158  10
   0  -1   0 274.734 24.8963  64
   0   1   0 289.609 28.3399   1
   0  -1   0 325.295 27.7774  62
   0   1   0 228.525 23.0234  11
   0   1   0 325.956 27.9520  15
   0   1   0 314.320 29.0121  26
   0   1   0 313.575 29.0456  23
   0   1   1 9579.70 396.840  12
   0   1   1 9542.93 395.656  16
   0   1   1 8986.29 394.893  26
   0   1   1 9938.00 389.627  10
   0  -1  -1 9650.23 392.137  75
   0  -1  -1 9302.98 389.746  21
   0  -1  -1 9239.01 392.660   8
   0  -1  -2 57521.0 2338.81   8
   0   1   2 59910.8 2342.96  16
   0   1   2 58043.7 2345.14  12
   0  -1  -2 60037.5 2340.68  21
   0   1   2 59557.6 2335.07  76
   0   1   2 60670.6 2327.52  69
   0   1   2 56002.7 2333.29  26
   0  -1  -2 59638.7 2329.50  75
   0  -1  -3 6233.27 293.768  85
   0   1   3 5995.27 276.176  69
   0  -1  -3 6184.03 292.799  21
   0   1   3 5989.28 290.121  16
   0  -1  -3 5830.36 282.468  88
   0   1   3 6108.30 295.432  12
   0   1   3 6758.52 297.168  84
   0   1   3 6345.00 287.646  80
   0   1   3 6217.66 287.388  11
   0   1   3 5881.57 267.014  63
   0  -1  -3 6278.98 291.938   8
   0   1   3 5756.78 284.041  76
   0  -1  -4 6842.08 335.518  85
   0   1   4 6339.76 322.460  11
   0   1   4 6853.97 319.424  69
   0   1   4 6717.13 334.130  16
   0   1   4 6880.10 330.739  80
   0   1   4 7264.61 343.122  12
   0   1   4 6637.30 334.171  84
   0   1   4 6718.84 328.459  76
   0  -1  -4 7048.09 340.423  21
   0  -1  -5 2519.07 180.577  85
   0   1   5 2493.99 177.780  16
   0   1   5 2656.53 178.684  76
   0   1   5 2646.50 186.256  12
   0  -1  -5 3141.45 196.450  21
   0   1   5 2943.79 187.438  84
   0   1   5 2859.50 182.983  80
   0  -1  -6-11.5828 38.8799   7
   0  -1  -6-12.7837 39.7275  21
   0   1   6-12.5067 43.4543  12
   0   1   6 11.3170 37.9877  16
   0   1   6 44.9061 37.6840  80
   0   1   6 11.7843 42.2869  84
   0   1   6 44.3930 43.3985  76
   0   1   7-27.8272 46.7058  80
   0   1   7-29.0131 45.0843  84
   0   1   7-13.8424 41.1895  76
   0   1   7 15.4724 39.2632  12
   0  -1  -7-14.4447 44.8922   7
   0  -1  -8 1860.82 188.110   7
   0   1   8 1715.18 179.351  76
   0   1   8 1835.79 183.299  84
   0   1   8 1835.31 189.638  12
   0  -1  -8 1661.81 120.460  45
   0  -1  -9 4210.10 345.304  27
   0  -1  -9 4326.62 237.104  45
   0  -1 -10 4383.81 242.569  45
   0  -1 -11 1716.26 107.184  58
   0  -1 -11 1484.11 122.433  45
   0  -1 -12 3019.96 149.842  58
   0  -1 -12 2521.89 162.403  45
   0   1  12 2893.48 155.646  39
   0   1  13 2689.52 140.403  39
   0  -1 -13 2928.42 137.283  58
   0   2 -13 51.7175 25.3856  58
   0   2 -12 386.178 53.8865  47
   0   2 -12 559.062 54.6858  58
   0   2 -11 3175.15 178.793  47
   0   2 -11 3462.20 176.601  58
   0   2 -10 4273.09 220.026  58
   0  -2  10 4930.23 366.809  80
   0   2 -10 4470.08 229.153  47
   0   2  -9 1367.32 103.749  47
   0  -2   9 1591.60 188.718  80
   0  -2   9 1131.56 160.265  69
   0   2  -9 1276.65 94.1304  58
   0  -2   9 1568.98 186.850  76
   0  -2   8 1438.02 172.177  76
   0   2  -8 1278.61 170.061  27
   0  -2   8 1714.07 180.106  68
   0  -2   8 1670.47 179.252  69
   0   2  -8 1543.22 98.4237  58
   0   2  -8 1408.88 103.625  47
   0  -2   7 2009.86 183.869  76
   0  -2   7 1552.49 161.071  63
   0   2  -7 1888.22 185.070  27
   0   2  -7 1844.28 175.373   7
   0  -2   7 1709.56 173.476  68
   0   2  -6 6748.94 386.892  27
   0   2  -6 6989.16 384.217   7
   0  -2   6 7012.64 386.945  68
   0  -2   6 7174.53 383.635  63
   0   2  -5 35211.8 1454.94   7
   0  -2   5 34702.6 1454.74  68
   0  -2   5 35102.3 1443.38  84
   0   2  -5 33403.5 1452.49  27
   0  -2   4 21567.6 898.212  73
   0   2  -4 21338.1 910.725  27
   0   2  -4 20924.7 913.694   7
   0  -2   4 21988.8 903.853  67
   0  -2   4 20726.8 907.581  61
   0  -2   3 29155.0 1198.70  67
   0   2  -3 30039.8 1208.28  14
   0   2  -3 29213.3 1196.00  23
   0  -2   3 29392.4 1204.64  61
   0   2  -3 28637.4 1203.22  27
   0  -2   3 29570.1 1197.37  60
   0   2  -2 41237.0 1695.74  27
   0   2  -2 40313.5 1705.19  14
   0  -2   2 43577.9 1701.76  60
   0   2  -2 41580.9 1696.67  19
   0   2  -2 44051.5 1705.81  23
   0   2  -2 41383.0 1704.80   9
   0   2  -2 42320.8 1694.09  13
   0   2  -2 44308.4 1687.88  26
   0   2  -1 1826.69 110.106  23
   0   2  -1 1740.84 105.207  14
   0   2  -1 1798.79 102.548  26
   0   2  -1 1608.35 92.5636  13
   0   2  -1 1750.02 104.600   9
   0   2  -1 1813.77 107.519  10
   0  -2   1 1741.70 103.568  60
   0   2   0 1302.06 85.9225  26
   0   2   0 1204.24 83.1992  10
   0  -2   0 1078.61 78.9205  71
   0   2   0 1233.02 84.1521  15
   0  -2   0 1214.06 74.4149  78
   0  -2   0 1231.03 83.5661  62
   0  -2   0 1112.73 77.4068  60
   0  -2   0 1254.88 79.6315  64
   0  -2   0 1273.93 70.4966  72
   0  -2   0 1207.76 77.3594   5
   0   2   0 1045.32 74.8148  11
   0  -2  -1 10768.2 446.864  77
   0   2   1 9701.25 448.040  26
   0   2   1 10353.5 445.355  11
   0   2   1 9744.45 444.133  15
   0  -2  -1 10195.6 436.691   8
   0  -2  -1 10712.6 445.539  71
   0   2   1 10309.0 440.132  10
   0  -2  -2 90.1251 31.2711  86
   0   2   2 69.9496 35.2161  26
   0   2   2 32.3435 34.2716  12
   0   2   2 65.4002 34.9910  11
   0  -2  -2 37.8074 30.3638   8
   0  -2  -2 42.9971 29.8107  92
   0  -2  -2 22.3212 24.1389  75
   0  -2  -2 98.1379 27.7901  21
   0  -2  -2 74.6017 33.5410  88
   0  -2  -2 75.4670 32.1591  77
   0  -2  -3 60962.0 2396.30  88
   0  -2  -3 57831.5 2390.97  21
   0  -2  -3 59507.2 2394.08   8
   0   2   3 59861.8 2405.42  12
   0  -2  -3 60103.8 2398.27  92
   0   2   3 57239.9 2381.92  76
   0  -2  -3 61560.2 2385.51  82
   0   2   3 58263.2 2392.69  26
   0   2   3 59618.8 2400.82  16
   0   2   3 63087.1 2402.95  11
   0  -2  -3 59336.0 2381.40  75
   0   2   4 1370.95 116.971  16
   0  -2  -4 1281.63 110.159  92
   0  -2  -4 1281.43 111.604  21
   0   2   4 1469.20 110.780  76
   0  -2  -4 1388.10 116.088   8
   0   2   4 1236.64 115.558  12
   0  -2  -4 1188.09 111.786  85
   0   2   4 1418.62 117.597  11
   0  -2  -4 1477.10 113.421  88
   0   2   5 15507.7 724.729  12
   0  -2  -5 16092.3 721.030  85
   0   2   5 16424.7 721.319  84
   0  -2  -5 15875.8 717.365  21
   0   2   5 14622.1 707.409  11
   0   2   5 15747.2 720.337  16
   0  -2  -6 143.655 48.5357  85
   0  -2  -6 109.216 26.3126  96
   0   2   6 157.064 58.8888  12
   0  -2  -7 12112.3 592.599   7
   0  -2  -7 11104.4 484.113  96
   0   2   7 11876.6 607.123  12
   0   2   8 2703.11 245.891  12
   0  -2  -8 2366.06 220.443   7
   0  -2  -8 2469.30 156.990  45
   0  -2  -9-23.0644 40.8123  45
   0  -2 -10 356.972 66.3104  45
   0  -2 -11 132.444 49.0745  45
   0   2  11 65.3552 36.0693  39
   0  -2 -12-10.7311 28.5228  58
   0  -2 -12 5.90241 33.9055  45
   0   2  12-13.0307 26.7150  39
   0  -2 -13 582.381 45.0005  58
   0   2  13 503.948 44.7842  39
   0   3 -13 116.023 24.8207  58
   0   3 -12-20.1074 37.6643  47
   0   3 -12 14.0833 29.6290  58
   0   3 -11 4.48170 34.5883  58
   0   3 -11-30.9812 45.3874  47
   0   3 -10 149.617 49.9400  47
   0  -3  10 23.5192 55.9618  80
   0   3 -10 114.186 41.4909  58
   0  -3   9 68.0331 57.5788  80
   0   3  -9 34.4829 44.4001  47
   0  -3   9 65.4978 61.9705  76
   0  -3   9-22.3156 56.6607  69
   0   3  -9 93.7930 38.1523  58
   0   3  -8 1883.52 115.761  58
   0   3  -8 1583.47 186.598   9
   0  -3   8 1842.41 198.759  68
   0   3  -8 1860.71 122.872  47
   0  -3   8 1841.21 194.786  76
   0  -3   8 2256.60 216.089  69
   0   3  -7 3672.78 284.443   9
   0  -3   7 3948.45 291.192  68
   0  -3   7 4649.81 304.015  63
   0  -3   6 1354.63 145.949  68
   0  -3   6 1453.56 153.149  63
   0   3  -6 1322.68 145.623   9
   0  -3   5 2314.22 172.718  61
   0   3  -5 2164.15 173.297   9
   0   3  -4 2670.42 182.634   9
   0  -3   4 2732.69 182.964  61
   0   3  -4 2790.37 185.116  14
   0  -3   4 2755.36 176.778  67
   0   3  -3-15.0922 37.6935   9
   0  -3   3 21.4944 28.7480  60
   0   3  -3 68.4346 41.4946  14
   0  -3   3-7.45670 27.5844  61
   0  -3   2 415.089 57.6695  60
   0   3  -2 416.737 60.1153  14
   0   3  -2 433.502 61.9265   9
   0  -3   1 581.410 65.7984  60
   0  -3   1 694.323 63.0708   5
   0   3  -1 650.889 68.1537   9
   0   3  -1 615.460 66.6730  26
   0   3  -1 624.280 67.9082  14
   0  -3   1 745.728 74.7561  62
   0  -3   1 706.724 66.4140  64
   0   3   0 1164.24 86.3335  11
   0  -3   0 1242.86 88.8720  64
   0  -3   0 1137.28 86.3888  60
   0  -3   0 977.040 78.6168  78
   0  -3   0 1183.66 96.9609  62
   0  -3   0 1048.48 84.3643   5
   0   3   0 1199.84 94.2179  10
   0   3   0 1081.76 93.4235  26
   0  -3   0 1084.43 87.0574  71
   0  -3  -1 27115.4 1115.87  60
   0  -3  -1 28844.1 1135.71  71
   0  -3  -1 26498.1 1122.33   8
   0   3   1 26960.9 1138.65  15
   0  -3  -1 27623.0 1132.60  86
   0  -3  -1 26426.8 1139.84  77
   0   3   1 27439.6 1145.35  26
   0   3   1 28540.6 1137.89  11
   0   3   2 138307. 5564.52  26
   0  -3  -2 142999. 5561.75  92
   0  -3  -2 143754. 5561.86  77
   0   3   2 144601. 5562.16  15
   0   3   2 135991. 5559.84  11
   0  -3  -2 136708. 5557.48  86
   0  -3  -2 143471. 5553.60  75
   0  -3  -2 138687. 5547.04   8
   0  -3  -3 47270.7 1880.50  75
   0   3   3 44928.9 1892.46  26
   0  -3  -3 46809.2 1892.54  88
   0   3   3 49158.9 1900.15  12
   0  -3  -3 45665.7 1892.54  92
   0  -3  -3 44474.4 1879.18   8
   0   3   3 45246.9 1894.99  11
   0   3   4 66.3723 43.3180  12
   0  -3  -4 50.4996 37.4292  92
   0  -3  -4 74.1837 48.5317  85
   0  -3  -4 94.0131 42.2325   8
   0   3   4 63.9519 43.8785  11
   0  -3  -4 29.4377 35.2872  88
   0  -3  -5 8139.71 425.174  92
   0  -3  -5 8384.66 436.469  85
   0   3   5 7980.52 437.413  12
   0   3   5 7744.37 429.671  11
   0  -3  -6 678.146 57.5216  96
   0  -3  -6 891.833 115.993  85
   0   3   6 708.250 111.077  12
   0   3   6 700.811 106.784  11
   0   3   7 30.2406 27.8745  54
   0  -3  -7 8.68983 22.7310  96
   0  -3  -7 6.27405 35.1511  45
   0  -3  -7-5.87562 31.1856  33
   0  -3  -8 408.588 51.3372  96
   0   3   8 413.957 55.1784  39
   0   3   8 480.713 57.3743  54
   0  -3  -8 427.072 59.5231  33
   0  -3  -8 394.395 61.5782  45
   0  -3  -9 892.426 91.9620  45
   0   3   9 1089.38 87.4902  54
   0   3   9 736.577 79.2075  55
   0  -3  -9 1066.61 94.1567  33
   0   3   9 962.844 84.1152  39
   0   3  10 284.844 48.1155  55
   0  -3 -10 253.895 57.7442  45
   0   3  10 215.082 46.2019  39
   0  -3 -11 34.1286 41.0768  45
   0   3  11-5.06794 29.1123  39
   0  -3 -12 505.186 48.8056  58
   0  -3 -12 445.424 55.9985  45
   0   3  12 480.968 49.3783  39
   0  -3 -13 484.089 38.4900  58
   0   4 -13 89.3977 21.9835  43
   0   4 -12 662.258 56.2632  58
   0   4 -12 621.465 60.7273  47
   0   4 -11 1029.64 78.8204  58
   0   4 -11 954.214 84.1215  47
   0   4 -10 1793.53 115.668  58
   0   4 -10 1801.51 123.360  47
   0   4  -9 1144.69 90.2501  58
   0   4  -9 1152.92 99.3246  47
   0  -4   9 1385.32 181.606  80
   0   4  -8 1195.98 89.4852  58
   0   4  -8 1373.69 94.3501  52
   0  -4   8 1374.16 179.141  69
   0   4  -8 1091.16 95.6354  47
   0  -4   8 990.629 148.676  76
   0   4  -8 991.079 86.9748  31
   0  -4   8 1244.69 168.387  68
   0  -4   7 9219.50 498.834  63
   0   4  -7 7811.01 362.930  58
   0   4  -7 8325.97 372.988  47
   0   4  -7 7388.81 468.537   9
   0   4  -7 8589.65 371.457  46
   0  -4   7 8360.73 487.638  68
   0   4  -7 8227.24 364.616  52
   0  -4   6 2024.35 192.745  68
   0  -4   6 1980.24 190.183  63
   0   4  -6 2196.88 195.920   9
   0  -4   5 3055.45 228.598  61
   0   4  -5 3430.87 236.270   9
   0   4  -4 661.078 94.4498  14
   0  -4   4 619.350 87.0367  61
   0   4  -4 664.630 91.0779   9
   0   4  -3 2092.57 157.211  14
   0   4  -3 2064.91 157.111   9
   0  -4   3 1925.06 156.190  60
   0  -4   2 2193.59 155.081  64
   0  -4   2 2183.04 160.685  60
   0  -4   2 2223.80 160.719  62
   0   4  -2 2349.89 160.382   9
   0   4  -2 2322.59 161.180  14
   0  -4   1 68181.2 2720.17  71
   0  -4   1 65554.7 2720.29  64
   0  -4   1 67641.6 2720.62  60
   0   4  -1 67073.4 2723.24  14
   0  -4   1 68470.1 2730.33  62
   0   4  -1 68699.8 2729.16  26
   0  -4   0 529.984 67.2826  64
   0  -4   0 460.452 65.2753  60
   0   4   0 543.898 76.2897  26
   0  -4   0 395.871 66.7655  86
   0   4   0 444.742 71.4767  14
   0  -4   0 519.844 68.3570  71
   0  -4   0 434.754 72.6443  62
   0  -4   0 519.631 71.4985  77
   0   4   1 27.9973 32.4268  15
   0  -4  -1 8.11874 31.7491  86
   0   4   1 109.645 57.2569  26
   0  -4  -1-8.60077 37.0047  71
   0  -4  -1-17.8304 32.9776  77
   0   4   1 25.1637 38.3702  11
   0  -4  -2 14327.5 650.911  86
   0  -4  -2 14344.3 659.637  88
   0   4   2 14804.0 659.601  11
   0  -4  -2 14724.3 657.970  77
   0   4   2 14101.0 661.083  15
   0  -4  -2 13732.5 647.479  75
   0   4   2 13990.8 664.719  26
   0  -4  -2 14087.3 658.112  92
   0  -4  -3 267.491 62.7134  75
   0  -4  -3 280.516 65.7123  88
   0   4   3 103.880 46.9773  15
   0   4   3 273.886 66.3252  26
   0  -4  -3 189.942 57.2492  92
   0   4   3 218.834 59.8793  11
   0  -4  -3 188.218 50.5687   8
   0  -4  -4 19619.4 863.166  85
   0   4   4 20153.4 871.795  11
   0  -4  -4 18170.7 852.109  88
   0   4   4 18245.0 856.114  15
   0  -4  -4 18463.2 855.254  92
   0  -4  -4 17870.7 835.702   8
   0  -4  -5 3929.55 268.376  92
   0   4   5 3843.43 272.263  11
   0  -4  -5 3965.16 276.129  85
   0  -4  -5 3893.50 188.214  96
   0  -4  -5 3884.89 264.277  88
   0  -4  -6 526.227 51.9606  96
   0  -4  -6 386.777 55.1917  33
   0   4   6 471.898 64.0509  38
   0   4   6 416.629 51.0943  54
   0   4   6 422.926 96.1831  11
   0  -4  -7 3996.36 200.044  96
   0  -4  -7 4040.67 305.588  85
   0   4   7 3888.39 206.629  55
   0   4   7 3950.34 205.636  54
   0  -4  -7 3867.21 212.263  33
   0   4   7 3930.24 205.248  39
   0   4   8 865.740 81.7092  39
   0   4   8 889.128 82.6952  54
   0  -4  -8 959.368 77.6312  96
   0   4   8 946.655 84.2707  55
   0  -4  -8 921.565 88.4862  33
   0   4   9-5.90780 33.1005  39
   0   4   9-30.0124 34.9001  54
   0   4   9-6.05259 34.7700  55
   0  -4  -9 13.9173 35.3160  33
   0   4  10 179.593 41.1000  39
   0  -4 -10 68.8001 35.3348  33
   0   4  10 82.0115 32.4838  54
   0  -4 -10 169.101 46.6706  45
   0   4  10 132.388 37.6368  55
   0   4  11 4.41456 26.5674  55
   0  -4 -11-40.6278 34.1433  45
   0   4  11 4.43801 26.4101  39
   0  -4 -12 313.827 36.6634  58
   0   5 -12 61.7845 28.3088  43
   0   5 -11 151.492 43.4455  47
   0   5 -10 136.939 42.3419  31
   0   5 -10 191.682 50.3932  47
   0   5 -10 133.733 41.3907  58
   0   5  -9 2636.67 152.863  47
   0   5  -9 2408.59 143.083  31
   0   5  -9 2256.29 139.447  58
   0   5  -8 1120.50 90.7693  58
   0   5  -8 1128.01 90.8801  52
   0   5  -8 1333.80 98.6092  46
   0   5  -8 1295.07 98.4390  31
   0   5  -8 1241.75 102.195  47
   0   5  -7 347.023 50.5870  52
   0   5  -7 328.440 54.4997  46
   0   5  -7 285.659 54.3976  31
   0   5  -7 369.193 59.8305  47
   0   5  -7 342.941 51.1939  58
   0   5  -6 4479.02 222.251  52
   0  -5   6 5343.30 344.252  63
   0   5  -6 4463.21 219.025  28
   0   5  -6 4570.36 326.021   9
   0   5  -6 4697.54 226.489  42
   0   5  -6 4920.85 226.411  58
   0   5  -6 4613.66 226.832  31
   0   5  -6 4693.54 230.740  46
   0   5  -5 63.6167 51.5012   9
   0  -5   4 7455.59 417.669  61
   0   5  -4 7213.27 411.003  14
   0   5  -4 7373.55 411.179   9
   0  -5   3 18003.1 814.682  62
   0   5  -3 17795.7 806.053   9
   0   5  -3 16706.3 801.377  14
   0   5  -2 140.108 50.5194  14
   0  -5   2 135.998 52.2996  62
   0  -5   1 95.7739 50.4716  62
   0   5  -1 78.9643 49.6758  14
   0  -5   1 104.301 40.9062  64
   0  -5   1 73.7455 44.4400  71
   0   5  -1 47.2323 46.2803  26
   0   5   0 16079.8 747.765  26
   0   5   0 15899.9 734.938  14
   0  -5   0 16047.7 732.388  71
   0  -5   0 15990.3 740.071  62
   0  -5   0 15846.8 736.410  77
   0  -5  -1 668.144 95.7514  77
   0   5   1 711.543 98.1361  14
   0  -5  -1 674.809 97.2494  75
   0   5   1 470.574 87.7760  26
   0  -5  -1 595.853 85.5488  86
   0   5   2 5076.16 314.732  15
   0  -5  -2 4756.15 311.772  88
   0  -5  -2 5272.86 306.046  86
   0  -5  -2 5345.11 316.235  75
   0  -5  -2 4958.40 310.907  92
   0  -5  -2 5675.98 322.429  77
   0   5   2 5026.45 320.689  26
   0  -5  -3 101.109 50.4138  88
   0  -5  -3 144.305 56.6438  75
   0  -5  -3 213.595 60.1083  92
   0   5   3 74.3272 46.4446  15
   0   5   4 4077.45 298.870  15
   0  -5  -4 4558.06 305.668  88
   0  -5  -4 4374.65 300.640  92
   0  -5  -4 4703.58 215.769  96
   0  -5  -4 4372.15 309.569  85
   0  -5  -5 2198.66 204.508  85
   0  -5  -5 2246.01 123.714  96
   0   5   5 2032.84 125.306  39
   0   5   5 2178.08 127.874  54
   0  -5  -5 2073.41 196.859  88
   0   5   5 2051.56 131.765  44
   0  -5  -5 2461.24 211.788  92
   0   5   5 2081.36 129.145  55
   0  -5  -5 1961.13 131.190  33
   0   5   5 2206.79 210.320  15
   0   5   6 80.7442 35.5467  39
   0  -5  -6 60.5078 54.3204  85
   0   5   6 78.6982 34.2654  55
   0  -5  -6 58.9113 38.1123  33
   0   5   6 41.9750 46.1650  15
   0   5   6 82.1586 33.7501  54
   0  -5  -6 14.5134 28.5353  96
   0  -5  -7-21.9453 48.2238  85
   0  -5  -7 5.24257 29.3726  96
   0  -5  -7-21.1404 37.9310  33
   0   5   7-5.76492 31.4597  39
   0   5   7-6.03460 34.2400  55
   0   5   7-17.7629 32.3112  54
   0   5   8 206.717 45.6831  54
   0  -5  -8 231.492 43.3975  96
   0  -5  -8 144.160 46.4183  33
   0   5   8 246.450 49.4665  55
   0   5   8 199.819 43.2530  39
   0   5   9 3348.12 185.573  55
   0   5   9 3344.99 185.137  54
   0  -5  -9 3405.98 193.769  33
   0   5   9 3452.76 184.136  39
   0  -5 -10 793.581 74.8116  33
   0   5  10 697.408 67.8784  55
   0   5  11 307.855 40.7230  55
   0  -5 -11 327.343 44.1894  33
   0  -5 -12 18.7878 17.5306  58
   0   6 -11 19.6053 27.0786  31
   0   6 -11 32.7712 29.1712  43
   0   6 -10-11.8246 33.9181  31
   0   6  -9-4.77584 41.5381  31
   0   6  -9 15.2517 41.5499  47
   0   6  -8 2724.85 159.911  31
   0   6  -8 2960.17 165.474  46
   0   6  -8 2817.44 157.215  52
   0   6  -7 108.033 40.8874  52
   0   6  -7 147.917 49.0193  31
   0   6  -7 118.296 44.3066  46
   0   6  -7 125.811 45.1664  42
   0   6  -7 114.593 39.4245  28
   0   6  -6 705.055 73.7423  46
   0   6  -6 612.863 70.3170  42
   0   6  -6 617.170 64.9392  52
   0   6  -6 612.377 63.4383  28
   0   6  -6 632.215 69.1949  31
   0   6  -5 1087.35 80.9609  28
   0   6  -5 1282.27 94.0428  46
   0   6  -5 1172.55 95.4314  48
   0   6  -5 1034.47 82.0555  50
   0   6  -5 1139.27 88.9139  31
   0   6  -5 1039.27 86.4479  42
   0   6  -4 14181.3 607.642  28
   0   6  -4 14683.3 614.968  42
   0   6  -4 15508.4 619.201  46
   0   6  -4 15322.6 735.901  14
   0   6  -4 13917.9 610.959  50
   0  -6   3 811.435 122.444  62
   0   6  -3 781.301 116.829  14
   0   6  -2 3710.90 264.884  14
   0  -6   2 3803.63 277.396  62
   0  -6   1 2477.99 212.446  75
   0   6  -1 2474.59 206.695  14
   0  -6   1 2883.61 229.190  62
   0   6   0 414.794 86.7504  14
   0  -6   0 219.552 65.1603  77
   0  -6   0 371.852 84.0408  75
   0  -6   0 183.610 60.3313  71
   0  -6  -1-14.9464 40.2243  92
   0   6   1 92.2818 53.4369  14
   0  -6  -1-15.5216 44.0319  77
   0  -6  -1 15.9381 42.8931  88
   0  -6  -1-15.7920 42.4999  75
   0  -6  -2 7839.53 457.847  92
   0  -6  -2 7900.92 463.712  88
   0   6   2 7953.10 460.017  14
   0  -6  -2 8938.21 475.021  77
   0  -6  -2 8394.59 465.997  75
   0  -6  -2 8229.32 454.214  86
   0  -6  -3 3924.55 282.115  75
   0   6   3 4096.49 205.942  32
   0   6   3 3685.54 200.892  44
   0  -6  -3 3596.74 281.249  88
   0  -6  -3 3512.60 275.157  92
   0   6   3 3487.22 281.327  15
   0  -6  -3 3868.61 188.623  96
   0   6   4 6082.38 302.821  44
   0   6   4 6367.19 302.880  32
   0  -6  -4 6316.04 288.635  96
   0  -6  -4 6399.41 406.091  92
   0  -6  -4 6746.84 414.638  88
   0   6   4 5691.74 398.586  15
   0  -6  -4 6145.55 399.835  85
   0  -6  -5 20.4469 45.1027  88
   0  -6  -5 103.573 61.7578  85
   0   6   5 84.3286 36.5813  55
   0   6   5 96.3304 40.5202  44
   0  -6  -5 123.030 30.8397  96
   0  -6  -5 123.640 43.4726  33
   0   6   5 221.319 79.5142  15
   0   6   6 634.461 75.8992  44
   0   6   6 742.316 72.8479  54
   0  -6  -6 843.937 82.8278  33
   0   6   6 795.263 75.7875  55
   0  -6  -6 851.759 71.9813  96
   0  -6  -6 800.499 135.712  85
   0  -6  -7-22.9532 61.7735  85
   0  -6  -7-22.0861 52.4213  91
   0  -6  -7-21.5650 29.4205  96
   0  -6  -7-7.15213 37.4131  33
   0   6   7 24.4017 32.8371  55
   0   6   7-5.92170 29.5793  54
   0  -6  -8 68.8776 40.0491  33
   0   6   8 5.84915 32.7752  55
   0  -6  -8 5.18480 28.2999  96
   0   6   9 1525.05 107.491  55
   0  -6  -9 1831.10 119.504  33
   0  -6 -10 471.480 54.4656  33
   0  -6 -11 313.291 36.7413  33
   0   7 -11 462.216 38.6730  31
   0   7 -10 1548.01 92.1396  31
   0   7  -9-8.17943 35.3820  31
   0   7  -8 216.825 45.4007  52
   0   7  -8 103.040 35.5973  28
   0   7  -8 133.574 44.1758  31
   0   7  -8 121.237 40.2321  42
   0   7  -7 51.2017 45.0139  31
   0   7  -7-9.56169 36.4039  52
   0   7  -7 40.2056 38.5318  42
   0   7  -7 33.1072 38.3539  46
   0   7  -7 30.8911 35.4213  28
   0   7  -6 1773.97 117.570  46
   0   7  -6 1757.77 114.943  42
   0   7  -6 1623.24 111.757  31
   0   7  -6 1566.59 104.379  28
   0   7  -6 1459.43 105.492  52
   0   7  -6 1631.36 118.014  48
   0   7  -5 2566.53 148.907  31
   0   7  -5 2573.41 152.299  46
   0   7  -5 2465.38 156.660  48
   0   7  -5 2683.91 151.385  42
   0   7  -5 2561.51 144.002  28
   0   7  -4 1403.02 97.1375  28
   0   7  -4 1591.80 106.660  42
   0   7  -4 1616.78 115.483  48
   0   7  -4 1432.39 176.023  14
   0   7  -3 135.940 67.5919  14
   0  -7   3 60.3548 51.2043  65
   0   7  -3 95.0601 34.2179  28
   0   7  -3 131.301 41.4122  42
   0   7  -2 131.337 65.3823  14
   0  -7   2 277.907 79.7970  65
   0  -7   2 115.366 62.3955  75
   0   7  -2 123.300 38.3243  50
   0   7  -2 107.379 36.7188   4
   0   7  -1 1502.19 103.090   4
   0   7  -1 1418.55 169.364  14
   0  -7   1 1705.03 183.757  75
   0  -7   1 1603.61 186.123  65
   0   7   0 222.987 72.8368  14
   0  -7   0 136.565 67.9701  75
   0   7   0 102.499 36.1939   4
   0  -7   0 131.437 63.2269  88
   0  -7   0 135.016 67.2038  65
   0   7   1 423.468 61.2763  32
   0  -7  -1 565.869 107.524  92
   0   7   1 381.119 92.0960  14
   0  -7  -1 514.052 103.927  65
   0   7   1 442.524 55.1335   4
   0  -7  -1 376.125 93.8841  75
   0  -7  -1 458.664 98.5125  77
   0  -7  -1 470.671 99.4690  88
   0   7   2 1516.22 105.767   4
   0   7   2 1674.93 118.391  44
   0   7   2 1436.60 175.461  14
   0  -7  -2 1718.90 192.625  75
   0  -7  -2 1620.42 181.735  92
   0  -7  -2 1642.87 188.197  88
   0   7   2 1998.88 127.049  32
   0  -7  -3 3029.74 261.238  92
   0  -7  -3 2663.21 255.806  88
   0   7   3 2902.58 264.741  14
   0   7   3 3023.02 177.574  44
   0   7   3 3171.65 181.380  32
   0  -7  -4 1475.82 99.4895  96
   0   7   4 1335.19 110.990  44
   0  -7  -4 1353.02 176.901  92
   0  -7  -4 1294.38 172.533  85
   0  -7  -4 1691.23 194.902  88
   0   7   4 1710.55 120.629  32
   0   7   5 3045.04 175.973  32
   0  -7  -5 2786.04 261.488  85
   0   7   5 2684.78 171.872  44
   0  -7  -5 2997.34 162.362  96
   0   7   6 1267.53 101.121  55
   0  -7  -6 1316.46 173.356  85
   0  -7  -6 1397.40 97.7352  96
   0  -7  -6 1321.39 105.777  33
   0  -7  -7 581.632 116.634  91
   0  -7  -7 680.087 72.2017  33
   0   7   7 564.421 91.7317  37
   0  -7  -7 549.017 58.9312  96
   0  -7  -8 52.6219 34.8526  33
   0  -7  -9 52.3377 32.5702  33
   0  -7 -10 252.193 35.7723  33
   0   8 -10 530.934 42.5149  31
   0   8  -9 693.445 58.1349  31
   0   8  -8 62.9813 34.2927  42
   0   8  -8 65.6134 30.7079  28
   0   8  -7 268.165 53.5078  48
   0   8  -7 156.820 39.4064  52
   0   8  -7 195.516 45.3992  42
   0   8  -7 196.094 44.3750  31
   0   8  -7 199.747 38.1302  28
   0   8  -6 683.039 63.4977  28
   0   8  -6 559.330 66.7687  42
   0   8  -6 494.678 58.7455  52
   0   8  -6 710.317 69.5354  31
   0   8  -6 808.937 80.3787  48
   0   8  -5-10.2024 37.7395  42
   0   8  -5 11.4400 48.9519  48
   0   8  -5-4.50552 32.0849  28
   0   8  -5-37.3326 38.5990  52
   0   8  -4 72.0888 36.1642  28
   0   8  -4 23.5154 49.7623  48
   0   8  -4-15.2456 37.0488  42
   0   8  -3 369.206 70.7606  48
   0   8  -3 537.445 58.0175  28
   0   8  -3 417.491 59.9121  42
   0   8  -3 445.283 58.3127   4
   0   8  -2 32.5048 36.3902   4
   0   8  -1 9079.13 405.540   4
   0  -8   1 8490.55 541.246  75
   0  -8   0-22.9416 50.4792  75
   0   8   0 136.842 42.8870   4
   0   8   1 2644.79 156.254   4
   0  -8  -1 2289.46 240.673  88
   0  -8  -2 228.832 82.4350  88
   0  -8  -2 279.140 82.0474  92
   0   8   2 266.199 54.1848  32
   0   8   2 115.000 39.6278   4
   0  -8  -3-22.1848 52.6567  92
   0   8   3-21.0885 43.2346  32
   0  -8  -3 23.2673 51.1296  88
   0   8   4 1119.21 100.072  32
   0  -8  -4 1079.29 164.039  90
   0   8   5 422.985 85.7176  37
   0  -8  -5 374.967 49.4209  96
   0   8   5 442.512 62.9480  32
   0  -8  -6 497.440 53.1793  96
   0   8   6 687.578 97.3028  37
   0  -8  -7 28.6411 22.9664  96
   0   8   7 85.0197 56.0644  37
   0   8   8-6.52050 40.5261  37
   0  -8  -8 8.32914 25.6128  33
   0  -8  -9 522.557 46.4657  33
   0   9  -8 164.178 31.0668  31
   0   9  -7 17.9283 28.5157  52
   0   9  -7-3.47796 34.3378  48
   0   9  -7 64.8148 30.0379  28
   0   9  -6 294.862 43.2264  28
   0   9  -6 285.024 41.7021  52
   0   9  -6 242.063 50.3540  48
   0   9  -5 898.471 82.8362  48
   0   9  -5 697.865 64.6758  52
   0   9  -5 867.030 73.0550  42
   0   9  -5 807.661 66.5117  28
   0   9  -4 458.268 56.5509  42
   0   9  -4 428.573 51.8109  28
   0   9  -4 499.042 68.8301  48
   0   9  -3 14.7440 30.8702   4
   0   9  -3 27.3374 47.0503  48
   0   9  -2 245.912 47.8514   4
   0   9  -2 228.591 56.6528  48
   0   9  -1 1626.87 111.882   4
   0   9   0-10.7154 34.9926   4
   0   9   1 171.736 42.9953   4
   0   9   1 185.254 49.3465  32
   0  -9  -1 110.597 59.8601  88
   0   9   2 225.993 51.0349  32
   0   9   2 151.572 38.5686   4
   0  -9  -2 136.405 70.9631  90
   0   9   3 2674.29 189.380  37
   0   9   3 2585.71 157.494  32
   0  -9  -3 2388.30 242.723  90
   0   9   4 477.423 62.4586  32
   0   9   4 531.426 84.7734  37
   0   9   5 52.2629 50.0349  37
   0   9   5-5.34472 32.8718  32
   0   9   6 14.9646 46.5073  37
   0   9   7 268.648 51.5991  37
   0  10  -5 377.086 50.7226  48
   0  10  -5 439.328 42.9136  28
   0  10  -4 332.464 52.8252  48
   0  10  -3 757.138 63.0976   4
   0  10  -3 769.029 72.1682  48
   0  10  -2 4677.98 228.368  48
   0  10  -2 4817.07 226.470   4
   0  10  -1 973.319 75.2186   4
   0  10   0 547.433 56.6320   4
   0  10   1 269.359 48.7462  32
   0  10   1 311.771 43.6416   4
   0  10   2 112.770 38.8031  32
   0  10   2 140.697 31.9131   4
   0 -10  -3 1649.22 98.3401  95
   0  10   3 1598.41 106.574  32
   0  10   4 6.37526 40.8735  37
   0  10   4 68.7251 31.1064  32
   0  10   5 493.734 61.8071  37
   0  10   5 427.829 45.9296  32
   0  10   6 91.9277 31.5663  37
   0  11  -3 189.702 32.2459  48
   0  11  -2 610.142 47.2980   4
   0  11  -1 151.601 28.1441   4
   0  11   0 1189.77 72.5561   4
   0  11   1 2769.94 132.583   4
   0  11   2 68.4861 24.1620  32
  -1  11   3 711.994 53.5998  32
  -1  11   2 831.359 59.4972  32
  -1  11   2 751.147 52.8039   4
  -1  11   1 174.585 29.7051   4
  -1  11   0 57.7180 23.1075   4
  -1  11  -1 110.263 25.6660   4
  -1  11  -2 342.843 41.0224  48
  -1  11  -2 375.303 36.6640   4
  -1  11  -3 68.9651 27.6176  48
  -1  10   6 285.577 49.1511  37
  -1  10   6 169.359 28.5598  32
  -1  10   5 89.7261 42.6715  37
  -1  10   5 56.9762 27.8046  32
  -1  10   4 40.5548 29.4489  32
  -1  10   4 6.71439 42.6055  37
  -1  10   3 14.9924 31.3873  32
  -1  10   2 1178.42 82.3669   4
  -1  10   2 1250.63 93.3909  32
  -1  10   1 3289.55 173.043  32
  -1  10   1 2915.13 159.432   4
  -1  10   0 485.890 56.2641   4
  -1  10  -1 21.7322 39.7906  48
  -1  10  -1 47.5766 30.5868   4
  -1  10  -2 150.487 34.5909   4
  -1  10  -2 174.999 47.8249  48
  -1  10  -3 100.903 45.5860  48
  -1  10  -4 758.317 68.5517  48
  -1  10  -5 1753.57 102.675  48
  -1  10  -6 335.636 40.1943  48
  -1   9   8 904.362 74.3470  37
   1  -9  -7 448.109 43.3604  96
  -1   9   7 515.155 71.0636  37
   1  -9  -6 216.346 35.2871  96
  -1   9   6 248.757 60.7452  37
  -1   9   6 168.427 38.8212  32
   1  -9  -5 12.6843 22.1319  96
  -1   9   5 44.5211 34.9563  32
  -1   9   5 18.1810 53.4817  37
  -1   9   4 1039.64 92.0184  32
   1  -9  -4 1104.69 81.4603  96
   1  -9  -3 1272.86 167.458  92
  -1   9   3 1351.07 106.770  32
   1  -9  -2-84.7376 53.7619  92
   1  -9  -2-45.2973 60.9619  88
  -1   9   2 20.0721 29.8784   4
  -1   9   2 65.8872 43.0426  32
  -1   9   1 389.673 56.5220   4
  -1   9   1 632.798 70.8849  32
   1  -9  -1 518.026 115.863  88
  -1   9   0 676.777 70.6540   4
  -1   9  -1 48.0000 35.8522   4
  -1   9  -2-15.4279 32.2990   4
  -1   9  -3 104.206 48.1266  48
  -1   9  -4 19.4470 29.4094  28
  -1   9  -4 31.1743 45.9113  48
  -1   9  -4 13.0946 33.9189  42
  -1   9  -5 4.16753 34.8946  42
  -1   9  -5 66.5784 33.2056  28
  -1   9  -5 18.7443 43.2992  48
  -1   9  -6 743.232 69.2096  48
  -1   9  -6 842.367 68.3230  42
  -1   9  -7 55.8536 31.1979  42
   1  -8  -9 1886.49 107.188  33
   1  -8  -8 893.099 67.2226  96
  -1   8   8 1084.67 98.9305  37
   1  -8  -8 886.490 74.5025  33
   1  -8  -7 1050.43 79.0645  96
  -1   8   7 1125.91 114.528  37
   1  -8  -7 1092.91 88.4676  33
  -1   8   6 4364.42 236.439  44
   1  -8  -6 4803.74 228.510  96
   1  -8  -5 245.193 82.8447  85
  -1   8   5 231.245 53.6303  44
  -1   8   5 222.750 51.5407  32
   1  -8  -5 155.693 72.3966  88
   1  -8  -5 155.377 74.9453  92
   1  -8  -5 210.208 41.9306  96
   1  -8  -4 413.238 103.564  88
  -1   8   4 564.849 73.8819  44
   1  -8  -4 682.374 64.6573  96
   1  -8  -4 623.618 123.759  85
   1  -8  -4 631.205 126.833  92
  -1   8   4 595.867 75.6165  32
   1  -8  -3 2034.14 124.706  96
  -1   8   3 2002.17 136.094  44
   1  -8  -3 2074.55 227.040  88
   1  -8  -3 1650.38 200.617  92
  -1   8   3 2169.11 142.403  32
  -1   8   2 95.2945 45.8952  32
   1  -8  -2 129.903 67.4171  92
   1  -8  -2 91.2519 61.5445  88
  -1   8   2 120.889 38.5445   4
   1  -8  -1 2328.41 244.177  88
   1  -8  -1 2229.17 228.390  92
   1  -8  -1 2723.58 255.636  77
   1  -8  -1 2214.95 235.036  75
  -1   8   1 2837.79 160.930  32
  -1   8   1 2297.43 143.929   4
  -1   8   0 877.911 76.6004   4
   1  -8   0 590.287 125.791  75
   1  -8   0 871.440 142.725  77
   1  -8   0 677.644 126.046  88
  -1   8   0 723.847 71.7642  49
   1  -8   1 3779.62 321.076  75
  -1   8  -1 3817.04 198.198  50
  -1   8  -1 4124.96 208.860   4
  -1   8  -2 701.881 70.2767  50
  -1   8  -2 646.638 69.9793   4
  -1   8  -3 2998.59 163.757  50
  -1   8  -3 2887.83 162.314  42
  -1   8  -3 3003.87 159.121  28
  -1   8  -4 58.4148 34.5192  28
  -1   8  -4 70.8814 40.1802  42
  -1   8  -4 98.4185 53.0144  48
  -1   8  -4 35.8668 34.7806  50
  -1   8  -5 1125.54 92.1851  42
  -1   8  -5 1209.25 88.3337  28
  -1   8  -5 1401.52 105.735  48
  -1   8  -5 1243.51 95.7975  31
  -1   8  -6 286.247 56.4587  48
  -1   8  -6 329.867 55.0298  31
  -1   8  -6 297.186 53.9025  42
  -1   8  -6 405.655 50.5396  28
  -1   8  -7 72.8207 38.3092  31
  -1   8  -7 51.0960 36.3164  42
  -1   8  -8 7.19208 31.2860  31
  -1   8  -8 31.0467 29.8531  42
  -1   8  -9 1989.80 104.856  31
  -1   8  -9 1941.67 101.690  42
   1  -7 -10 3.94077 25.4930  33
   1  -7  -9 980.882 82.3483  33
  -1   7   9 1029.07 76.4424  55
  -1   7   8 419.293 55.0199  55
  -1   7   8 581.155 58.3396  54
   1  -7  -8 498.835 55.0431  96
   1  -7  -8 507.063 64.0251  33
   1  -7  -7 340.608 57.1427  33
   1  -7  -7 254.958 43.5814  96
  -1   7   7 311.759 55.2761  44
   1  -7  -6 37.4216 27.1968  96
   1  -7  -6 45.7193 54.2902  85
   1  -7  -6 69.3329 42.2279  33
  -1   7   6 60.7127 44.0979  44
  -1   7   5 2961.29 172.797  32
   1  -7  -5 2506.54 250.881  85
   1  -7  -5 2707.52 254.552  92
   1  -7  -5 2288.13 241.654  88
  -1   7   5 2903.38 173.006  44
   1  -7  -5 2946.97 160.689  96
  -1   7   4 21965.4 892.716  32
  -1   7   4 21016.7 889.996  44
   1  -7  -4 20827.6 1025.14  88
   1  -7  -4 20444.9 873.597  96
   1  -7  -4 21195.0 1026.71  92
  -1   7   3 1050.65 89.8958  32
  -1   7   3 811.345 132.161  14
  -1   7   3 534.550 120.643  26
   1  -7  -3 731.880 127.320  88
   1  -7  -3 775.421 129.726  92
  -1   7   3 867.211 84.7405  44
   1  -7  -3 898.654 137.452  86
   1  -7  -2 427.111 98.8962  75
   1  -7  -2 601.354 111.762  92
   1  -7  -2 546.736 115.095  88
   1  -7  -2 349.539 92.4580  86
  -1   7   2 618.337 70.4429  32
  -1   7   2 580.694 121.775  26
  -1   7   2 415.201 99.1801  14
   1  -7  -2 403.235 100.953  77
  -1   7   1 470.789 110.355  26
  -1   7   1 509.647 99.9180  14
  -1   7   1 553.968 67.6970  32
   1  -7  -1 387.079 93.9455  77
   1  -7  -1 541.377 108.709  75
  -1   7   0 483.181 101.906  14
   1  -7   0 377.190 92.9219  77
  -1   7   0 533.175 58.7322  49
   1  -7   0 371.202 91.5043  71
  -1   7  -1 1694.88 105.001  50
  -1   7  -1 1682.05 180.179  14
   1  -7   1 1709.86 182.264  77
   1  -7   1 1366.85 172.747  71
  -1   7  -1 1597.23 106.879  49
  -1   7  -2 46.1184 30.7495  50
  -1   7  -2 50.0142 35.1010  49
  -1   7  -2 74.4823 52.8622  14
  -1   7  -3 289.867 50.2992  42
  -1   7  -3 213.333 78.5294  14
  -1   7  -3 276.932 44.8522  28
  -1   7  -3 274.523 46.9450  50
  -1   7  -4 24.5238 36.8409  31
  -1   7  -4 31.1127 34.0974  28
  -1   7  -4 75.7520 42.5231  42
  -1   7  -4 29.7961 32.4642  50
  -1   7  -5 832.630 76.7049  50
  -1   7  -5 859.896 79.2704  42
  -1   7  -5 897.967 82.2417  31
  -1   7  -5 860.631 74.8107  28
  -1   7  -5 719.994 82.5476  48
  -1   7  -6 8892.52 397.695  52
  -1   7  -6 8825.56 396.559  28
  -1   7  -6 9116.85 405.333  31
  -1   7  -6 9173.56 405.148  42
  -1   7  -7 750.689 70.2433  52
  -1   7  -7 632.765 68.4272  42
  -1   7  -7 664.440 64.7759  28
  -1   7  -7 648.201 71.7477  31
  -1   7  -8 202.249 42.6444  42
  -1   7  -8 141.116 43.3543  31
  -1   7  -9 48.3839 34.7349  31
  -1   7  -9 36.1375 29.7553  43
  -1   7 -10 5.28615 25.3171  31
  -1   7 -10 7.95484 24.2595  43
  -1   6  11 139.270 29.1282  55
   1  -6 -11 228.029 35.5763  33
  -1   6  10 107.080 33.4802  55
   1  -6 -10 94.4314 35.4384  33
  -1   6   9 307.776 49.6703  54
   1  -6  -9 327.796 47.0381  96
   1  -6  -9 359.309 56.5087  33
  -1   6   9 387.118 53.2023  55
   1  -6  -8 20.9802 27.8458  96
  -1   6   8 11.5539 27.9173  54
   1  -6  -8 22.3755 66.5770  85
   1  -6  -8 14.1245 34.7078  33
  -1   6   8 29.3389 35.7085  55
  -1   6   7 5.81910 29.0753  54
   1  -6  -7-22.5830 57.3057  85
  -1   6   7-38.9862 39.5416  44
   1  -6  -7-7.17691 35.8552  33
  -1   6   7-23.7333 32.3859  55
   1  -6  -7-26.7144 29.1651  96
  -1   6   6 295.125 50.5062  55
  -1   6   6 272.954 51.2780  44
   1  -6  -6 282.201 85.5536  85
   1  -6  -6 288.445 83.3452  92
   1  -6  -6 253.188 43.0649  96
   1  -6  -5 12353.4 677.021  92
  -1   6   5 13226.3 577.651  38
   1  -6  -5 12905.4 692.989  85
  -1   6   5 13566.9 572.540  44
   1  -6  -5 12192.1 673.495  88
   1  -6  -5 12755.4 555.027  96
  -1   6   4 243.064 80.7864  26
  -1   6   4 410.032 63.7495  38
  -1   6   4 422.453 60.0454  44
  -1   6   4 532.526 63.4540  32
  -1   6   4 357.331 89.0980  15
   1  -6  -4 494.389 101.175  88
   1  -6  -4 312.084 82.2328  92
  -1   6   3 5693.78 276.221  32
   1  -6  -3 5531.09 361.573  77
   1  -6  -3 5079.14 353.720  92
  -1   6   3 5472.65 353.798  14
   1  -6  -3 5147.64 348.484  86
  -1   6   3 5691.88 376.842  26
  -1   6   3 6172.27 279.947  44
   1  -6  -3 5631.55 364.060  88
   1  -6  -2 1788.76 176.375  75
  -1   6   2 2050.79 185.026  14
   1  -6  -2 1940.47 176.341  86
  -1   6   2 1807.06 187.720  26
   1  -6  -2 1542.81 168.615  77
   1  -6  -1 627.383 102.974  71
   1  -6  -1 577.975 104.057  77
  -1   6   1 651.433 113.643  26
   1  -6  -1 685.516 103.098  86
  -1   6   1 641.861 103.540  14
   1  -6   0 194.708 63.4721  71
   1  -6   0 273.026 72.3972  77
  -1   6   0 128.671 53.4179  14
  -1   6   0 130.516 67.4925  26
   1  -6   0 312.909 74.6509  62
   1  -6   1 787.782 113.994  62
   1  -6   1 618.297 100.154  64
   1  -6   1 509.814 93.0389  71
  -1   6  -1 490.744 88.8304  14
   1  -6   2 15.3472 45.6622  71
   1  -6   2 16.8055 42.6411  62
  -1   6  -2 15.1659 43.0228  14
   1  -6   2-15.8539 40.2265  64
  -1   6  -3 1771.89 110.607  42
   1  -6   3 1687.97 179.033  64
  -1   6  -3 1360.58 160.017  14
  -1   6  -3 1990.40 112.911  31
   1  -6   3 1995.20 197.830  62
  -1   6  -3 1762.65 110.228  49
  -1   6  -3 1743.08 108.006  50
  -1   6  -3 1859.29 106.661  28
  -1   6  -4 8462.00 387.527  42
  -1   6  -4 8604.68 381.811  28
   1  -6   4 8265.00 498.452  64
  -1   6  -4 8657.64 385.685  50
  -1   6  -4 9213.97 389.544  31
  -1   6  -4 9001.92 391.572  46
  -1   6  -4 8679.00 497.719  14
  -1   6  -5 250.405 50.0116  42
  -1   6  -5 262.686 55.7327  40
  -1   6  -5 218.186 43.3331  28
  -1   6  -5 299.353 46.3509  50
  -1   6  -5 281.020 50.5798  46
  -1   6  -5 227.259 43.3423  52
  -1   6  -5 229.707 49.2086  31
  -1   6  -6 19049.6 784.425  31
  -1   6  -6 18515.0 777.262  52
  -1   6  -6 18719.3 781.893  40
  -1   6  -6 18326.6 774.935  28
  -1   6  -6 18943.4 783.768  42
  -1   6  -7 763.137 71.9187  52
  -1   6  -7 691.188 68.6626  28
  -1   6  -7 816.837 80.7735  40
  -1   6  -7 819.396 75.5320  42
  -1   6  -7 760.106 76.3079  31
  -1   6  -8 2082.16 128.555  31
  -1   6  -8 1983.31 128.334  40
  -1   6  -8 2115.73 126.861  42
  -1   6  -9 251.110 45.7119  31
  -1   6  -9 235.801 47.5187  43
  -1   6 -10 68.0480 33.7393  31
  -1   6 -10 3.74905 31.7564  43
  -1   6 -11-2.62126 24.8859  43
  -1   5  12 198.640 29.3870  55
  -1   5  11 4.24588 27.2009  55
   1  -5 -11-4.64010 28.8389  33
  -1   5  10 860.611 76.7026  55
   1  -5 -10 790.415 78.0316  33
  -1   5  10 818.495 75.1943  54
  -1   5   9 1339.42 103.972  55
   1  -5  -9 1314.31 94.2933  96
  -1   5   9 1471.76 105.656  54
   1  -5  -9 1427.33 110.141  33
   1  -5  -8 460.827 106.149  85
  -1   5   8 536.183 64.4636  54
  -1   5   8 548.872 64.4844  55
   1  -5  -8 471.378 67.5495  33
   1  -5  -8 509.035 56.8462  96
  -1   5   8 597.811 77.3128  38
   1  -5  -7 446.854 62.8157  33
  -1   5   7 373.173 52.9430  54
   1  -5  -7 417.676 50.7915  96
  -1   5   7 412.963 66.4669  38
   1  -5  -7 397.641 97.0623  85
  -1   5   7 419.239 56.8384  55
  -1   5   6 5479.06 264.537  54
   1  -5  -6 4644.03 341.516  92
  -1   5   6 5329.60 277.313  38
  -1   5   6 5980.36 274.499  44
   1  -5  -6 5351.62 258.356  96
   1  -5  -6 5793.07 375.319  85
  -1   5   5 13146.3 674.969  15
  -1   5   5 13502.1 578.524  38
   1  -5  -5 12618.1 671.467  85
   1  -5  -5 13336.1 558.376  96
   1  -5  -5 12321.3 659.086  92
   1  -5  -4 14968.5 714.710  88
   1  -5  -4 14808.6 710.821  86
  -1   5   4 13812.8 707.298  15
  -1   5   4 15526.7 728.695  26
   1  -5  -4 13726.0 703.345  92
   1  -5  -3 10575.2 546.527  86
  -1   5   3 11519.3 570.976  26
  -1   5   3 10582.0 550.490  15
   1  -5  -3 11134.2 557.096  77
  -1   5   2 1249.04 140.776  26
   1  -5  -2 1042.82 120.852  77
   1  -5  -2 924.535 114.110  71
   1  -5  -2 954.652 118.022  86
   1  -5  -1 13266.6 613.579  71
  -1   5   1 12976.7 625.199  26
   1  -5  -1 12031.4 591.679  78
  -1   5   1 12076.4 597.444  14
   1  -5  -1 12547.2 609.527  77
   1  -5  -1 13594.0 616.281  62
  -1   5   0 3800.09 254.057  26
  -1   5   0 3653.93 237.573  14
   1  -5   0 3671.60 245.974  71
   1  -5   0 4498.94 260.914  62
   1  -5   0 3458.72 229.548  78
   1  -5   0 3991.62 249.107  64
  -1   5  -1 3719.15 244.247  14
   1  -5   1 4095.20 260.590  62
  -1   5  -1 3892.88 255.005  26
   1  -5   1 4108.54 256.603  64
   1  -5   2 37.8171 40.7830  64
  -1   5  -2 11.8690 39.8498  14
  -1   5  -3 4361.55 281.076  14
  -1   5  -4 8786.74 474.959  14
  -1   5  -5 298.956 44.4805  58
  -1   5  -5 268.991 47.2666  42
  -1   5  -5 308.577 42.5612  28
  -1   5  -5 251.805 41.0251  52
   1  -5   5 199.945 69.3198  66
  -1   5  -5 265.482 46.9927  46
  -1   5  -5 266.232 50.3605  47
  -1   5  -5 261.531 49.3709  31
   1  -5   5 277.946 76.9526  63
  -1   5  -5 288.078 48.7954  40
  -1   5  -6 925.275 80.0159  31
  -1   5  -6 1052.00 83.9061  46
  -1   5  -6 877.535 74.7036  52
  -1   5  -6 871.058 76.7403  42
  -1   5  -6 849.864 74.2831  58
  -1   5  -6 981.955 82.5958  40
  -1   5  -6 980.683 85.7533  47
  -1   5  -6 960.792 73.3405  28
   1  -5   6 1093.08 147.487  66
  -1   5  -7 152.001 38.3462  28
   1  -5   7 124.500 76.9818  70
  -1   5  -7 159.654 42.5015  58
  -1   5  -7 164.181 43.9437  42
  -1   5  -7 152.856 49.6182  40
  -1   5  -7 186.990 53.6474  47
  -1   5  -7 160.561 45.6258  52
  -1   5  -7 121.310 42.2304  31
  -1   5  -8 738.127 77.9596  40
  -1   5  -8 867.283 84.8742  47
  -1   5  -8 959.670 81.2076  31
  -1   5  -8 734.214 73.6889  58
  -1   5  -9 772.089 75.0958  58
  -1   5  -9 894.526 86.3124  47
  -1   5 -10 216.875 42.3479  58
  -1   5 -11 82.6160 32.4007  43
  -1   5 -12 117.746 25.1665  43
  -1   4  12 130.002 29.7700  55
  -1   4  11 44.5649 31.4796  55
  -1   4  11 62.6294 31.2353  54
   1  -4 -10 370.865 58.0591  33
  -1   4  10 412.313 56.3420  54
  -1   4  10 420.115 57.0870  55
  -1   4   9 1438.19 104.223  54
   1  -4  -9 1270.15 92.0292  96
   1  -4  -9 1211.35 103.420  33
  -1   4   8 70.1807 34.1042  54
  -1   4   8 82.8048 50.7383  38
   1  -4  -8 59.1568 29.4541  96
   1  -4  -8 94.5604 43.3521  33
   1  -4  -8 40.5398 48.1825  85
  -1   4   7 51.7854 39.8191  38
   1  -4  -7 4.51331 24.3070  96
   1  -4  -7 55.4298 52.4212  85
   1  -4  -6 1909.19 178.306  85
   1  -4  -6 1674.72 103.227  96
  -1   4   6 1589.75 165.674  15
   1  -4  -5 6750.54 361.434  92
  -1   4   5 5909.87 350.630  15
   1  -4  -5 5847.33 268.576  96
  -1   4   4 3848.28 267.880  26
   1  -4  -4 4529.22 275.011  86
   1  -4  -4 4829.76 276.848  88
   1  -4  -4 4332.98 267.878  92
  -1   4   4 4074.89 269.963  15
   1  -4  -3 1821.36 148.465  86
   1  -4  -3 1568.61 143.184  77
  -1   4   3 2062.06 162.410  26
  -1   4   3 1910.01 152.283  15
  -1   4   2 137.144 52.9646  26
   1  -4  -2 168.483 49.2544  86
   1  -4  -2 172.667 50.4634  77
   1  -4  -2 104.102 42.7866  71
  -1   4   2 121.772 43.9919  15
   1  -4  -1 8344.47 403.207  62
  -1   4   1 7868.22 405.218   1
  -1   4   1 9056.33 423.745  26
   1  -4  -1 8203.84 397.326  78
  -1   4   1 7908.12 396.553  14
   1  -4  -1 7919.50 401.585  71
  -1   4   0 335.082 65.2551  23
   1  -4   0 341.716 57.9864  72
  -1   4   0 347.443 61.5403   6
  -1   4   0 397.634 73.3191  26
  -1   4   0 550.164 77.2985   1
   1  -4   0 414.193 64.5701  62
   1  -4   0 307.587 58.7393  78
   1  -4   0 308.815 60.8961  64
  -1   4   0 490.650 69.6293  14
   1  -4   1 1516.73 127.598  64
   1  -4   1 1551.88 120.758  72
  -1   4  -1 1598.80 133.557  23
  -1   4  -1 1327.64 123.937   1
  -1   4  -1 1391.59 120.107  14
  -1   4  -1 1590.34 128.097  26
  -1   4  -2 5931.46 323.812   9
  -1   4  -2 6592.50 345.691  19
   1  -4   2 6562.08 332.573  66
   1  -4   2 6719.73 342.614  60
  -1   4  -2 6242.31 334.960  14
  -1   4  -2 6868.89 352.099  23
  -1   4  -3 287.935 66.0232  23
  -1   4  -3 481.529 71.8602   9
  -1   4  -3 340.113 66.9921  14
   1  -4   3 406.630 67.7414  63
   1  -4   4 2177.00 177.250  63
  -1   4  -4 2374.34 178.096   9
   1  -4   5 85.7385 55.9222  63
  -1   4  -5 13.4897 46.9223   9
   1  -4   5 85.0373 49.2933  69
  -1   4  -6 485.619 56.6732  46
  -1   4  -6 464.165 55.4463  31
   1  -4   6 510.384 101.539  63
  -1   4  -6 391.398 48.8548  52
  -1   4  -6 514.682 96.1571   9
  -1   4  -6 439.605 54.7979  40
   1  -4   6 357.027 85.2800  69
  -1   4  -6 412.330 58.4877  47
  -1   4  -6 449.458 51.5390  58
  -1   4  -7 2787.88 168.039  47
   1  -4   7 3519.11 273.407  80
   1  -4   7 2662.94 248.285  68
  -1   4  -7 3212.04 163.207  52
   1  -4   7 2922.26 260.109  69
  -1   4  -7 3383.49 166.705  58
  -1   4  -7 2960.78 163.318  31
  -1   4  -7 2649.16 243.644   9
  -1   4  -7 2910.70 162.863  40
  -1   4  -8 1139.60 97.5525  47
   1  -4   8 984.209 155.568  69
   1  -4   8 1216.41 169.150  70
   1  -4   8 1156.68 162.994  80
  -1   4  -8 1023.60 85.2403  58
  -1   4  -8 941.731 86.1532  40
   1  -4   9 9126.15 549.125  80
  -1   4  -9 9020.68 398.410  58
  -1   4  -9 8656.26 404.540  47
  -1   4 -10 80.1469 48.2917  47
  -1   4 -10 91.8978 37.7076  58
  -1   4 -11 1031.65 76.1466  58
  -1   4 -12-13.5073 25.6524  43
   1  -3 -13 83.4656 29.8484  45
  -1   3  12 64.3100 27.5268  39
  -1   3  12 28.8395 26.2039  55
   1  -3 -12 33.6857 26.4135  58
   1  -3 -12 96.6924 38.5697  45
  -1   3  11-10.6925 30.3341  55
   1  -3 -11 42.2134 41.3880  45
  -1   3  11 10.2332 29.0311  39
  -1   3  10 40.5650 32.8951  54
   1  -3 -10 45.8049 39.9464  45
  -1   3  10 5.65720 31.3013  39
   1  -3  -9 51.6932 46.3797  45
  -1   3   9 5.85352 31.5164  54
   1  -3  -8 407.836 61.9705  45
   1  -3  -8 392.990 56.9831  33
   1  -3  -7 1303.74 87.2017  96
  -1   3   7 1523.95 162.381  16
   1  -3  -7 1403.96 155.821  85
   1  -3  -6 2611.45 208.557  85
  -1   3   6 2648.27 216.169  16
   1  -3  -6 2904.80 143.565  96
  -1   3   5 5075.54 299.910  16
   1  -3  -5 4868.62 294.859  85
   1  -3  -5 5001.38 285.908  82
   1  -3  -4 24422.4 1015.87  82
  -1   3   4 23374.2 1028.07  16
   1  -3  -4 24200.8 1023.94  92
  -1   3   4 24007.5 1028.23  26
   1  -3  -4 22879.4 1022.84  86
  -1   3   3 3148.41 194.273  16
   1  -3  -3 3352.39 191.756  82
   1  -3  -3 3165.79 196.766  86
  -1   3   3 3230.23 195.450  15
   1  -3  -3 3493.94 201.564  77
  -1   3   3 3206.89 202.368  26
   1  -3  -2 8981.72 399.626  82
  -1   3   2 8384.38 397.130  16
  -1   3   2 8619.20 403.193   1
   1  -3  -2 8601.51 397.131  59
   1  -3  -2 8282.62 400.125  78
   1  -3  -2 9272.93 401.672  62
   1  -3  -2 9136.92 411.422  71
  -1   3   2 7899.54 398.815  15
   1  -3  -2 8783.71 407.551  77
  -1   3   1 29884.2 1255.70   1
   1  -3  -1 30188.0 1248.64  78
   1  -3  -1 32822.4 1254.40  62
   1  -3  -1 29568.6 1242.88  59
   1  -3  -1 29583.2 1244.04  82
   1  -3  -1 32425.8 1259.25  71
  -1   3   1 29897.1 1250.06  15
  -1   3   1 29679.4 1254.13  23
   1  -3  -1 30371.8 1252.52  64
   1  -3   0 26473.3 1051.58  66
  -1   3   0 25174.1 1058.79  14
   1  -3   0 25292.8 1058.59  72
  -1   3   0 25535.6 1070.84  23
   1  -3   0 25451.4 1066.17  64
  -1   3   0 26060.3 1063.94   6
  -1   3   0 25446.0 1069.64   1
   1  -3   1 743.790 69.9249  66
  -1   3  -1 701.021 77.4448   1
   1  -3   1 709.615 64.2197  63
   1  -3   1 689.439 66.0659  70
  -1   3  -1 609.406 74.8475  23
  -1   3  -1 670.237 69.5257  14
  -1   3  -1 653.123 65.9039   9
  -1   3  -1 690.592 76.6921  19
   1  -3   2 2673.99 158.628  63
  -1   3  -2 2879.83 166.308  14
  -1   3  -2 2507.86 165.746  23
  -1   3  -2 2675.17 162.264   1
  -1   3  -2 2569.37 165.953  19
  -1   3  -2 2310.85 151.630   9
  -1   3  -3 6452.93 338.076  19
   1  -3   3 6810.24 332.701  60
  -1   3  -3 6580.60 332.070   9
   1  -3   3 6732.96 337.452  63
   1  -3   3 6678.02 330.531  61
   1  -3   3 6868.45 335.199  68
  -1   3  -3 6181.71 334.336  14
  -1   3  -3 6619.08 337.943  23
   1  -3   4 1502.15 133.933  63
   1  -3   4 1479.77 127.816  68
  -1   3  -4 1524.34 131.006   9
   1  -3   5 2662.49 192.344  76
   1  -3   5 2603.38 200.744  69
  -1   3  -5 2464.25 200.981  27
   1  -3   5 2390.05 192.971  63
   1  -3   5 2654.24 196.793  68
   1  -3   6 1254.55 144.751  69
   1  -3   6 1204.85 141.866  63
   1  -3   6 1210.85 146.318  68
   1  -3   6 1381.45 146.916  76
   1  -3   7 5516.16 370.089  80
   1  -3   7 6124.23 376.371  76
  -1   3  -7 5421.04 259.604  58
  -1   3  -7 5431.79 261.434  40
  -1   3  -7 5153.25 356.638   9
   1  -3   7 5882.93 378.776  69
   1  -3   7 5549.60 368.529  68
  -1   3  -7 5833.99 270.006  47
   1  -3   7 6163.02 380.056  63
   1  -3   8 6906.84 442.857  69
  -1   3  -8 6225.42 305.950  47
   1  -3   8 6960.54 442.505  80
  -1   3  -8 5945.43 414.438   9
   1  -3   8 6760.81 426.746  76
  -1   3  -8 6579.44 300.956  58
  -1   3  -9 2103.25 128.424  58
   1  -3   9 1952.66 222.745  80
   1  -3   9 1949.92 221.383  76
  -1   3  -9 2120.71 136.399  47
  -1   3 -10 4.82626 34.0952  58
  -1   3 -10 32.8389 44.7341  47
  -1   3 -11 823.078 77.0042  47
  -1   3 -11 809.686 70.5780  58
  -1   3 -12 54.7501 27.5053  58
  -1   2  13 358.722 39.3721  39
   1  -2 -13 363.262 48.5860  45
   1  -2 -13 413.680 40.1804  58
   1  -2 -12 563.053 54.1233  58
   1  -2 -12 386.822 58.1939  45
  -1   2  12 464.018 52.2128  39
   1  -2 -11 1980.66 139.481  45
   1  -2 -10 3683.03 213.280  45
   1  -2  -9 2251.14 150.244  45
  -1   2   8 2326.61 213.153  84
   1  -2  -8 2097.71 210.453  21
  -1   2   8 2281.94 212.023  16
   1  -2  -8 2357.64 146.973  45
   1  -2  -7 1057.21 132.526  21
  -1   2   7 1279.00 142.190  84
  -1   2   7 1069.07 135.146  16
  -1   2   6 1090.28 122.288  84
  -1   2   6 1283.98 130.802  16
   1  -2  -6 1239.39 128.862  21
   1  -2  -6 1201.04 124.746  85
   1  -2  -5 42804.6 1770.04  21
  -1   2   5 44342.2 1774.79  16
   1  -2  -5 42051.1 1761.20  85
   1  -2  -5 41756.8 1757.64  82
  -1   2   5 42546.9 1767.59  84
  -1   2   4 36480.5 1466.61  16
   1  -2  -4 35549.4 1456.48  82
  -1   2   4 34108.2 1458.55  84
   1  -2  -3 104058. 4109.37  25
  -1   2   3 104959. 4118.11  16
   1  -2  -3 109350. 4116.49  86
  -1   2   3 101880. 4116.75  84
   1  -2  -3 104735. 4112.64  82
   1  -2  -3 98487.8 4108.82  77
  -1   2   2 121397. 4660.82  16
   1  -2  -2 118905. 4661.17  82
   1  -2  -2 120102. 4661.43  77
  -1   2   2 115986. 4656.43   1
   1  -2  -2 119783. 4660.96  59
   1  -2  -2 117453. 4651.90  25
  -1   2   2 115069. 4649.89  23
   1  -2  -2 119745. 4660.10  71
  -1   2   2 119371. 4669.04  22
   1  -2  -2 115931. 4647.32  62
   1  -2  -1 89595.2 3497.20  82
  -1   2   1 84419.9 3487.12  16
   1  -2  -1 89317.8 3496.75  78
   1  -2  -1 91192.0 3498.39  64
  -1   2   1 87307.4 3492.29  15
  -1   2   1 88621.2 3499.76   1
  -1   2   1 90483.6 3504.11  22
  -1   2   1 88672.8 3497.03  23
   1  -2   0 23062.6 916.657  63
   1  -2   0 23030.9 921.712  70
  -1   2   0 21077.5 924.244  14
  -1   2   0 22431.5 916.326   9
   1  -2   0 24079.3 933.198  72
  -1   2   0 22239.9 935.289  23
  -1   2   0 22575.7 932.978  22
  -1   2   0 23626.0 935.330   6
  -1   2   0 22872.0 936.515   1
   1  -2   0 23413.9 927.259  66
  -1   2   0 22217.0 937.513  19
  -1   2  -1 4721.39 218.040   9
  -1   2  -1 4563.19 224.564  14
  -1   2  -1 4764.24 235.199  19
   1  -2   1 4462.39 215.253  68
   1  -2   1 4846.49 228.374  66
   1  -2   1 5075.34 225.551  63
  -1   2  -1 4755.07 233.928  23
  -1   2  -1 4860.37 230.151   1
  -1   2  -1 4368.99 219.950  22
   1  -2   2 858.845 74.4742  63
  -1   2  -2 735.496 74.4625  23
  -1   2  -2 820.648 78.2676  19
  -1   2  -2 904.562 72.9268   1
  -1   2  -2 691.577 71.0144  14
   1  -2   2 692.419 67.0163  68
   1  -2   2 934.922 70.6379  61
   1  -2   3 265.340 46.8588  61
  -1   2  -3 324.181 62.2070  27
   1  -2   3 375.636 62.1965  63
  -1   2  -3 284.690 50.1353   7
  -1   2  -3 290.219 53.4122  23
   1  -2   3 289.817 52.5565  68
   1  -2   3 279.726 51.4799  12
  -1   2  -3 271.455 55.3035  19
  -1   2  -4 730.056 85.7626   7
   1  -2   4 882.997 95.6553  68
  -1   2  -4 789.259 96.4961  27
  -1   2  -4 668.742 86.7506  19
   1  -2   4 876.601 95.4806  69
   1  -2   4 762.942 86.7355  76
   1  -2   4 809.095 90.2797  63
   1  -2   5 25749.2 1122.61  63
   1  -2   5 26384.4 1128.90  69
   1  -2   5 25355.4 1120.00  76
  -1   2  -5 25642.9 1119.01   7
  -1   2  -5 26145.0 1139.28  27
   1  -2   5 26424.8 1128.83  68
   1  -2   6 14.1737 45.8454  69
  -1   2  -6 15.4828 43.9230  27
  -1   2  -6 119.724 57.2324   7
   1  -2   6-14.0374 50.3719  68
   1  -2   6-26.7332 56.2432  63
   1  -2   6-27.3200 53.4154  76
   1  -2   7 808.459 125.536  80
  -1   2  -7 1017.09 140.179  27
   1  -2   7 890.906 128.248  69
   1  -2   7 836.924 121.848  76
  -1   2  -7 764.754 118.701   7
   1  -2   7 819.092 120.772  63
   1  -2   8 2811.25 245.779  80
  -1   2  -8 2449.44 241.699  27
  -1   2  -8 2213.73 138.061  47
  -1   2  -8 2350.73 224.205   7
   1  -2   8 2346.46 229.094  69
  -1   2  -8 2283.88 132.703  58
   1  -2   8 2258.15 221.073  76
  -1   2  -9 252.679 55.4755  47
  -1   2  -9 252.252 46.8765  58
   1  -2   9 114.674 82.8476  80
   1  -2   9 336.660 101.120  69
   1  -2   9 267.945 90.0854  76
  -1   2 -10 240.928 45.5529  58
   1  -2  10 258.222 99.2316  80
  -1   2 -11 135.028 38.8425  58
  -1   2 -12 348.796 43.3729  58
  -1   2 -13 1352.17 74.4519  58
   1  -1 -13 2864.30 138.373  58
   1  -1 -13 2500.66 151.314  45
  -1   1  13 2968.35 145.237  39
   1  -1 -12 1073.39 96.4070  45
   1  -1 -12 1300.98 86.2447  58
   1  -1 -11 2060.24 124.299  58
   1  -1 -11 2069.99 143.781  45
  -1   1  10 279.072 86.5081  84
   1  -1 -10 183.039 52.7393  45
  -1   1   9 118.201 71.1093  84
   1  -1  -9 240.302 53.2268  45
  -1   1   8 32288.0 1358.25  84
  -1   1   8 30617.6 1347.26  16
   1  -1  -8 32369.8 1248.80  45
   1  -1  -8 28213.2 1229.07  30
   1  -1  -8 30196.4 1363.68  21
  -1   1   7 3016.33 221.076  16
   1  -1  -7 2756.20 219.605  21
  -1   1   7 2778.06 213.271  84
   1  -1  -7 2666.80 206.121   7
  -1   1   6 1850.43 159.179  84
   1  -1  -6 2093.56 158.242   7
  -1   1   6 1956.03 163.568  12
  -1   1   6 2122.07 164.688  16
  -1   1   6 2044.87 154.122  76
   1  -1  -6 1693.09 158.069  21
   1  -1  -5 4978.08 282.608  21
   1  -1  -5 4991.05 270.630   7
  -1   1   5 5258.13 283.607  12
  -1   1   5 4825.55 278.016  84
  -1   1   5 5335.65 285.900  16
   1  -1  -4 282.808 46.5413   7
  -1   1   4 230.360 50.8610  16
  -1   1   4 298.868 46.0140  68
   1  -1  -4 383.850 51.9904  85
  -1   1   4 355.322 58.2904  84
  -1   1   4 388.981 53.4860  93
   1  -1  -4 363.412 55.4200  82
  -1   1   4 281.518 52.4912  12
   1  -1  -3 3906.48 201.382  86
   1  -1  -3 4194.96 200.751  83
  -1   1   3 3983.82 203.631  22
  -1   1   3 4284.50 194.960  68
  -1   1   3 4330.06 214.248  16
   1  -1  -3 3911.11 208.404  82
  -1   1   3 4142.00 211.008  84
  -1   1   3 4050.36 207.051  93
   1  -1  -3 4295.57 214.166  25
   1  -1  -2 36665.4 1447.80  59
  -1   1   2 34254.6 1445.32  22
  -1   1   2 35505.9 1437.28   1
   1  -1  -2 36758.9 1437.69  77
   1  -1  -2 35746.1 1437.63  71
  -1   1   2 37350.4 1428.00  23
  -1   1   2 35875.3 1425.86  68
   1  -1  -2 35428.6 1446.08  25
   1  -1  -1 4857.44 213.412  78
   1  -1  -1 4765.79 209.666  64
  -1   1   1 4384.12 203.075  15
  -1   1   1 5238.67 222.393   6
  -1   1   1 4776.83 218.322  22
  -1   1   0 22973.1 923.004  19
  -1   1   0 22469.3 900.972  18
  -1   1   0 22076.1 914.491  20
  -1   1   0 23203.7 900.477   9
   1  -1   0 23273.3 917.200  70
  -1   1   0 23551.4 908.881  14
  -1   1   0 23016.1 921.897  17
   1  -1   0 22547.3 918.028  66
  -1   1   0 21483.6 921.101   6
   1  -1   1 1075.19 71.6933  69
   1  -1   1 870.289 65.0791  68
  -1   1  -1 922.089 57.5366  20
  -1   1  -1 1025.38 76.7509  19
   1  -1   1 968.265 70.0478  66
   1  -1   1 1101.63 71.5645  63
  -1   1  -1 926.853 70.7598  17
   1  -1   1 1008.39 71.4172  70
  -1   1  -1 1157.32 68.6245  14
  -1   1  -1 1074.23 63.3031   7
   1  -1   1 976.637 65.7721  76
  -1   1  -1 1030.23 69.3472   1
   1  -1   1 960.177 56.7171  61
   1  -1   2 288.074 46.1359  12
   1  -1   2 242.720 43.5569  68
  -1   1  -2 362.031 55.5911  27
   1  -1   2 281.305 46.0333  69
   1  -1   2 270.772 45.1701  63
  -1   1  -2 274.419 43.7638  17
  -1   1  -2 332.763 42.0451   7
   1  -1   2 258.253 44.4439  76
  -1   1  -2 292.323 39.1832   1
   1  -1   3 9828.38 453.249  76
   1  -1   3 10290.1 454.163  69
   1  -1   3 9624.87 448.602  68
  -1   1  -3 10379.2 441.341  17
  -1   1  -3 10448.4 448.665   7
   1  -1   3 10077.0 452.677  12
  -1   1  -3 9615.18 445.728  91
   1  -1   3 9582.21 446.156  63
  -1   1  -3 9501.30 456.168  27
   1  -1   4 14058.0 630.042  68
   1  -1   4 14483.0 631.162  76
  -1   1  -4 13097.7 635.201  27
   1  -1   4 13494.8 622.799  63
   1  -1   4 14475.2 634.595  69
   1  -1   4 14373.0 636.107  80
  -1   1  -4 14099.1 626.728   7
   1  -1   4 14178.9 628.776  12
   1  -1   5 52.8446 45.8118  69
   1  -1   5 168.196 51.9533  76
   1  -1   5 121.638 51.8472  80
   1  -1   5 173.140 52.7816  12
   1  -1   5 223.347 58.7035  63
  -1   1  -5 272.644 69.1426  27
  -1   1  -5 101.337 46.6890   7
   1  -1   6 11894.3 604.135  76
  -1   1  -6 11721.1 618.906  27
   1  -1   6 12612.7 610.743  69
   1  -1   6 11542.5 592.483  63
   1  -1   6 13482.5 624.569  80
  -1   1  -6 12867.4 609.624   7
   1  -1   6 12796.2 606.904  12
   1  -1   7 896.819 128.506  80
  -1   1  -7 918.680 133.710  27
  -1   1  -7 995.302 128.730   7
   1  -1   7 1107.32 138.678  76
   1  -1   7 767.420 120.297  69
   1  -1   8 2922.37 263.765  76
   1  -1   8 3659.84 286.215  69
  -1   1  -8 3445.45 178.704  58
  -1   1  -8 3390.24 292.126  27
  -1   1  -8 3563.99 281.438   7
   1  -1   8 4056.07 298.222  80
   1  -1   9 268.571 92.4911  80
   1  -1   9 287.857 93.6487  76
  -1   1  -9 225.366 45.8078  58
   1  -1  10 7012.57 474.455  80
  -1   1 -10 7515.65 339.410  58
  -1   1 -11 1782.88 112.032  58
  -1   1 -12 3.45491 27.3728  58
  -1   1 -13 13.0497 22.8468  58
   1  -1  13 20.0508 19.3530  39
   1   0 -13 20.4735 25.8636  58
   1   0 -13 38.3296 31.3091  45
   1   0 -12 872.230 70.4876  58
   1   0 -12 864.866 84.6940  45
   1   0 -11 2178.47 129.814  58
  -1   0  11 2085.07 218.505  84
   1   0 -11 2255.94 149.881  45
  -1   0  10 14604.6 741.214  84
   1   0 -10 14269.0 616.425  45
   1   0 -10 13388.5 587.211  58
  -1   0   9 14235.1 727.005  76
  -1   0   9 14253.7 728.980  84
   1   0  -9 14871.4 626.406  45
   1   0  -9 13619.5 608.579  30
  -1   0   8 65.2914 62.1370  84
  -1   0   8 47.1096 44.5645  80
   1   0  -8-15.7413 44.6726   7
   1   0  -8 53.5946 48.0948  21
  -1   0   8 46.9181 54.3512  76
  -1   0   7 7142.29 385.374  76
   1   0  -7 7165.36 395.376  21
  -1   0   7 6191.65 364.314  68
  -1   0   7 6625.10 373.914  16
  -1   0   7 6752.73 379.636  84
   1   0  -7 6481.62 372.854   7
   1   0  -6 23.1765 42.8947  21
  -1   0   6 41.1066 34.5349  16
  -1   0   6 32.4188 42.2887  84
   1   0  -6 91.0248 48.0387   7
  -1   0   6 38.9493 41.0058  68
  -1   0   5 238.220 58.2724  84
  -1   0   5 122.187 46.4533  16
   1   0  -5 194.081 50.9647   7
  -1   0   5 208.439 51.6264  12
  -1   0   4 7084.42 328.265  12
   1   0  -4 6739.26 332.230  25
   1   0  -4 6740.49 323.080   7
  -1   0   4 6662.00 331.277  84
  -1   0   4 6977.20 323.001  93
   1   0  -3 105146. 4055.60  25
  -1   0   3 104617. 4053.21  84
   1   0  -3 102421. 4051.21  82
  -1   0   3 98838.0 4044.57  12
  -1   0   3 103595. 4050.50  18
   1   0  -3 100648. 4042.88   7
  -1   0   3 101778. 4046.24  81
   1   0  -3 103610. 4048.50  83
  -1   0   3 103642. 4048.88  73
  -1   0   2 3185.21 157.533  73
  -1   0   2 3487.41 163.655  18
  -1   0   2 3274.50 153.581   6
   1   0  -2 3128.43 157.949  61
   1   0  -2 3311.84 151.606   7
  -1   0   2 3446.55 160.226  20
  -1   0   2 3116.32 158.006  67
  -1   0   2 3206.00 158.577  81
  -1   0   1 25733.3 1003.91  73
  -1   0   1 25883.4 997.343  19
  -1   0   1 24694.4 1001.97  67
   1   0  -1 25960.4 995.708   9
  -1   0   1 24602.0 991.567  64
   1   0  -1 24731.1 1006.25  13
   1   0  -1 24989.7 999.100  61
  -1   0   0 4515.46 190.650   5
  -1   0   0 4488.13 198.049  24
   1   0   0 4262.87 187.912  72
   1   0   1 1275.03 78.8393  70
  -1   0  -1 1414.05 76.6043   8
   1   0   1 1342.48 76.2386  66
   1   0   1 1442.03 85.0687  12
   1   0   1 1382.72 84.5377  76
  -1   0  -1 1241.49 82.6628  27
   1   0   2 158909. 6321.11  80
  -1   0  -2 157271. 6307.53  17
   1   0   2 162986. 6317.52  76
   1   0   2 155829. 6317.21  69
   1   0   2 163021. 6320.89  12
  -1   0  -2 164168. 6319.38  27
  -1   0  -2 163146. 6308.88   8
   1   0   3 8105.30 362.923  69
  -1   0  -3 7687.77 361.403  91
   1   0   3 7917.51 363.641  76
  -1   0  -3 7238.84 344.301  17
   1   0   3 8038.53 367.403  80
  -1   0  -3 7240.74 363.764  27
   1   0   3 7834.06 365.234  12
   1   0   4 1037.08 100.427  12
   1   0   4 1042.62 100.993  80
   1   0   4 1103.92 99.3697  69
  -1   0  -4 1039.96 98.0710  91
   1   0   4 1014.51 100.913  76
  -1   0  -4 953.804 96.9028   7
   1   0   5 31.4386 35.2176  76
   1   0   5 42.6596 41.7385  12
   1   0   5 43.5404 42.5987  80
   1   0   5 49.9235 42.0478  69
  -1   0  -5 34.7526 49.8679  27
  -1   0  -5 81.0056 54.5287   7
   1   0   6 462.261 83.6476  69
  -1   0  -6 497.102 92.7184  27
   1   0   6 412.158 79.4616  12
   1   0   6 551.245 90.0147  76
  -1   0  -6 499.153 84.0390   7
   1   0   6 433.918 86.2674  80
  -1   0  -7 918.243 134.906  27
   1   0   7 1245.72 145.577  76
   1   0   7 1062.24 139.405  12
  -1   0  -7 1314.68 147.003   7
   1   0   7 1243.80 140.713  69
   1   0   7 1189.27 144.595  80
  -1   0  -8 13589.2 703.463  27
   1   0   8 13144.8 678.545  76
  -1   0  -8 14034.2 686.624   7
  -1   0  -8 11852.1 561.637  45
   1   0   8 12946.2 678.352  80
   1   0   9 7847.25 485.810  76
   1   0   9 7761.15 479.714  80
  -1   0  -9 7275.45 364.300  45
  -1   0 -10 1399.99 121.126  45
   1   0  10 1705.47 200.062  80
  -1   0 -10 1749.02 108.608  58
  -1   0 -11 13.3008 33.2771  58
  -1   0 -11-27.5302 41.4184  45
   1   0  12 222.869 37.8536  39
  -1   0 -12 223.610 38.6636  58
  -1   0 -13 740.616 50.4352  58
   1   0  13 659.113 50.0396  39
  -1  -1  14 234.734 28.7651  39
   1   1 -13 289.142 37.4899  58
   1   1 -12-23.0107 39.8317  47
   1   1 -12-36.0899 33.7667  58
   1   1 -11 331.123 59.7014  47
   1   1 -11 342.035 50.4053  58
  -1  -1  10 43.0106 57.9178  80
  -1  -1  10 43.0925 58.0281  76
   1   1 -10 76.7122 33.6647  58
  -1  -1  10 20.8081 61.9491  84
   1   1  -9 5111.74 241.545  58
  -1  -1   9 5087.70 352.469  76
  -1  -1   9 5098.95 351.253  84
  -1  -1   9 4942.07 354.446  80
   1   1  -9 4953.29 249.583  30
  -1  -1   8 12064.1 594.869  76
   1   1  -8 10902.3 478.162  30
  -1  -1   8 11164.5 580.107  68
  -1  -1   8 11057.5 581.594  84
   1   1  -8 10896.9 586.773  21
   1   1  -8 10516.9 574.319   7
   1   1  -7 6986.13 393.205  21
  -1  -1   7 6672.63 383.973  84
  -1  -1   7 7129.29 387.438  68
   1   1  -7 6387.76 377.838   7
  -1  -1   6 14841.4 676.012  68
   1   1  -6 15311.7 685.203  21
   1   1  -6 13669.3 667.264   7
  -1  -1   6 14551.4 675.941  84
  -1  -1   5 479.854 70.1695  84
   1   1  -5 371.547 67.4344   7
  -1  -1   5 413.120 64.2537  73
   1   1  -4 6169.93 299.998   7
  -1  -1   4 6012.45 297.671  18
  -1  -1   4 5906.68 297.289  73
  -1  -1   4 6089.32 294.519  93
   1   1  -4 6064.10 288.950  60
   1   1  -4 6344.64 303.287  25
  -1  -1   4 6292.00 301.053  67
  -1  -1   4 5984.64 292.419  81
  -1  -1   3 98374.6 3916.69  73
  -1  -1   3 97965.2 3915.90  67
   1   1  -3 99031.6 3911.01  60
  -1  -1   3 100411. 3916.39  61
  -1  -1   3 100286. 3915.09  18
   1   1  -3 98360.3 3897.93  10
   1   1  -3 99840.4 3917.27  25
  -1  -1   3 98159.0 3906.01  74
  -1  -1   3 99836.9 3913.70  81
  -1  -1   2 629.612 54.7018  74
   1   1  -2 525.655 55.2777  13
   1   1  -2 551.593 51.5181  10
  -1  -1   2 537.122 42.3180  75
  -1  -1   2 685.385 52.3109  65
  -1  -1   2 523.177 52.8172  61
   1   1  -2 484.507 45.7275  14
  -1  -1   2 488.789 46.9478  24
  -1  -1   2 548.749 41.6391  62
   1   1  -2 441.763 48.8431   9
  -1  -1   1 77349.5 3037.38  65
   1   1  -1 78128.1 3037.02  13
  -1  -1   1 77935.6 3037.33  74
   1   1  -1 76707.6 3031.83   9
  -1  -1   1 74452.8 3033.00  75
   1   1  -1 77882.4 3025.03  14
   1   1  -1 76332.9 3036.54  10
  -1  -1   1 76969.5 3012.87  64
   1   1   0 236868. 9414.03  12
   1   1   0 238941. 9423.17  10
   1   1   0 242114. 9416.57  15
  -1  -1   0 247694. 9426.08   5
  -1  -1   0 240215. 9421.16  74
  -1  -1   0 240356. 9423.39  65
   1   1   1 669.550 61.7673  80
   1   1   1 641.281 57.4386  10
   1   1   1 726.021 59.8617  12
  -1  -1  -1 741.740 55.4215  27
  -1  -1  -1 747.645 53.7726  74
   1   1   2 15886.3 682.962  76
   1   1   2 15417.6 681.662  80
   1   1   2 15690.8 659.705  10
  -1  -1  -2 15988.8 687.026  85
   1   1   2 17136.4 686.328  12
   1   1   2 16391.5 662.175  70
  -1  -1  -2 16457.2 679.953   8
   1   1   3 4930.37 261.138  12
   1   1   3 5149.41 260.569  80
   1   1   3 4715.47 256.410  76
  -1  -1  -3 4885.50 258.857  91
  -1  -1  -3 5143.82 255.753   8
   1   1   4 1305.30 116.937  76
   1   1   4 1577.62 128.552  80
   1   1   4 1347.12 122.352  12
  -1  -1  -4 1447.52 118.275   8
  -1  -1  -4 1524.88 123.907  91
   1   1   4 1534.91 118.889  84
   1   1   5 12004.5 575.136  80
   1   1   5 11518.1 568.496  76
   1   1   5 11768.8 563.595  84
  -1  -1  -5 11658.2 566.902  91
   1   1   5 13000.6 585.927  12
   1   1   6 3144.91 228.112  76
   1   1   6 2939.97 225.158  80
  -1  -1  -6 3428.05 233.948   7
   1   1   6 3162.33 234.124  12
  -1  -1  -7 342.698 83.0760   7
   1   1   7 443.005 93.3121  80
   1   1   7 491.711 97.1626  12
   1   1   7 443.871 91.1330  76
  -1  -1  -7 362.135 93.2783  27
   1   1   8 6843.83 403.850  80
   1   1   8 6298.04 395.884  76
  -1  -1  -8 5407.40 294.743  45
  -1  -1  -8 5784.01 387.001   7
  -1  -1  -8 6015.49 409.535  27
   1   1   8 6245.04 405.826  12
   1   1   9 1616.16 190.238  76
  -1  -1  -9 1532.21 123.595  45
  -1  -1 -10 3057.56 188.737  45
  -1  -1 -11 173.195 41.3578  58
  -1  -1 -11 42.0691 41.4957  45
   1   1  11 130.776 36.9319  39
   1   1  12 167.989 34.0183  39
  -1  -1 -12 144.956 33.6003  58
   1   1  13 729.273 51.4125  39
  -1  -1 -13 752.441 49.7878  58
   1   2 -13 26.2830 31.7593  47
   1   2 -12 452.254 51.6101  58
   1   2 -12 444.648 60.3233  47
   1   2 -11 2528.95 146.840  58
   1   2 -11 2849.52 159.124  47
  -1  -2  10 3267.11 285.954  76
   1   2 -10 2967.35 172.584  47
   1   2 -10 2973.89 163.219  58
  -1  -2  10 2960.82 277.442  80
  -1  -2   9 40.0682 59.6280  69
  -1  -2   9 40.9679 55.1500  76
  -1  -2   9 114.946 64.3233  84
  -1  -2   9 122.523 66.0685  68
   1   2  -9 4.56625 34.7943  58
   1   2  -9 20.3456 57.7385   9
   1   2  -9 103.026 64.0520  13
  -1  -2   8 2876.04 236.915  84
   1   2  -8 2853.77 154.619  58
  -1  -2   8 3191.18 249.815  68
   1   2  -8 3252.89 255.815  13
   1   2  -8 3111.97 250.637   9
   1   2  -7 6126.19 364.255  13
  -1  -2   7 6015.85 364.569  68
  -1  -2   7 6103.59 361.211  84
   1   2  -6 12164.9 600.247  13
  -1  -2   6 12454.9 592.681  73
  -1  -2   6 13147.4 612.615  84
   1   2  -5 38171.6 1572.00   9
  -1  -2   5 37794.7 1562.59  73
  -1  -2   5 37350.4 1565.07  67
   1   2  -5 37693.8 1570.47  13
  -1  -2   4 57469.6 2324.47  61
  -1  -2   4 56783.8 2320.10  67
  -1  -2   4 56451.0 2312.89  18
   1   2  -4 58431.5 2315.09  60
  -1  -2   4 56145.7 2318.19  73
   1   2  -4 57403.0 2321.84   9
   1   2  -4 60918.7 2325.04  13
  -1  -2   4 56541.0 2311.49  81
  -1  -2   3 89718.0 3605.29  74
  -1  -2   3 93635.3 3614.92  61
   1   2  -3 91368.8 3610.91  60
   1   2  -3 89607.3 3611.98   9
   1   2  -3 89348.2 3598.91  25
   1   2  -3 91808.1 3612.60  13
  -1  -2   3 90400.7 3603.72  65
   1   2  -3 90871.4 3606.81  14
   1   2  -3 92200.2 3598.57  10
   1   2  -2 315.122 49.3424  13
  -1  -2   2 294.997 43.9302  65
   1   2  -2 205.701 46.3143  60
   1   2  -2 282.640 46.9776  10
  -1  -2   2 212.901 37.2736  75
  -1  -2   2 219.116 36.3770  24
   1   2  -2 222.478 42.0958  14
   1   2  -2 310.131 38.7446  25
   1   2  -2 239.955 47.0924   9
  -1  -2   2 279.303 41.1508  62
  -1  -2   1 31240.1 1311.27  71
   1   2  -1 32135.5 1323.85  14
  -1  -2   1 31864.5 1324.44  62
  -1  -2   1 33969.9 1310.23  64
   1   2  -1 33211.6 1331.35  10
   1   2  -1 34545.5 1329.53  60
  -1  -2   1 33252.9 1332.69  65
  -1  -2   1 32881.8 1328.60  75
  -1  -2   0 5193.68 247.187  77
   1   2   0 4973.57 248.549  79
  -1  -2   0 5666.98 255.942  65
  -1  -2   0 4821.53 253.770  88
   1   2   0 5396.00 244.065  60
   1   2   0 5490.94 252.401  15
  -1  -2   0 5500.08 259.166   5
   1   2   0 5277.02 233.997  12
   1   2   0 5152.14 252.186  10
  -1  -2   0 5424.20 256.452  75
  -1  -2  -1 8259.68 357.692  85
   1   2   1 7615.08 350.487  10
  -1  -2  -1 7707.34 360.443  75
  -1  -2  -1 7769.27 351.631  65
   1   2   1 7423.48 352.164  79
   1   2   1 8005.56 350.284  12
  -1  -2  -1 7890.47 360.801  92
  -1  -2  -1 7736.86 361.354  88
  -1  -2  -2 2681.20 155.651  85
  -1  -2  -2 2440.95 147.361   8
   1   2   2 2505.99 148.514  12
   1   2   2 2220.79 144.052  80
   1   2   2 2399.06 136.559  10
  -1  -2  -2 2329.67 150.948  92
  -1  -2  -2 2308.08 133.702  65
  -1  -2  -2 2133.59 147.740  88
   1   2   3 171.581 46.0791  12
  -1  -2  -3 85.2034 44.2648   8
  -1  -2  -3 111.420 41.4170  90
   1   2   3 144.652 41.8799  80
  -1  -2  -3 176.621 46.8107  85
  -1  -2  -4 1745.03 150.675  85
   1   2   4 1940.45 153.948  12
   1   2   4 2172.05 155.070  80
  -1  -2  -4 1986.18 150.940   8
   1   2   5 31830.5 1427.38  76
  -1  -2  -5 33901.5 1439.09  91
   1   2   5 35115.5 1452.02  12
   1   2   5 34011.0 1437.47  11
   1   2   5 33955.8 1435.52  80
   1   2   6 1214.66 141.679  12
   1   2   6 986.676 121.362  76
   1   2   7 403.490 96.6825  12
  -1  -2  -7 294.365 80.0700   7
  -1  -2  -7 291.321 46.7614  33
  -1  -2  -7 286.019 55.6143  45
  -1  -2  -8 906.269 92.5948  45
  -1  -2  -8 946.657 141.663   7
   1   2   8 1296.74 169.745  12
   1   2   9 3658.01 200.040  39
  -1  -2  -9 3586.10 212.486  45
   1   2  10 5911.68 281.815  39
  -1  -2 -10 5432.55 293.476  45
   1   2  11 404.778 53.6691  39
  -1  -2 -11 324.433 59.9153  45
  -1  -2 -12 759.936 56.8136  58
   1   2  12 596.067 55.3976  39
   1   3 -13 261.626 40.4768  47
   1   3 -12 307.971 42.7602  58
   1   3 -12 286.694 48.7309  47
   1   3 -11 550.244 58.9057  58
   1   3 -11 501.817 67.8090  47
  -1  -3  10 163.288 84.1504  80
   1   3 -10 273.214 60.0839  47
   1   3 -10 211.335 44.3681  58
   1   3  -9 9619.76 432.425  58
   1   3  -9 9857.78 442.917  47
  -1  -3   8 14319.4 713.584  84
  -1  -3   8 14515.4 726.812  63
   1   3  -8 13738.0 720.355   9
   1   3  -8 13434.0 588.930  58
   1   3  -8 14336.3 591.330  52
  -1  -3   8 14752.6 736.177  68
  -1  -3   7 2635.29 224.036  68
   1   3  -7 2106.00 203.796   9
  -1  -3   7 2756.95 217.350  84
   1   3  -6 57101.2 2389.16   9
   1   3  -6 58044.9 2385.20  13
  -1  -3   6 56510.7 2375.58  73
  -1  -3   6 59346.0 2388.68  67
   1   3  -5 30202.2 1300.44   9
  -1  -3   5 30556.6 1297.01  67
  -1  -3   5 31022.7 1303.29  61
   1   3  -5 29871.6 1293.36  13
  -1  -3   5 30514.5 1291.79  73
   1   3  -4 140.271 54.6109   9
   1   3  -4 94.1454 41.6670  14
  -1  -3   4 161.138 47.1103  67
   1   3  -4 171.110 47.5923  13
  -1  -3   4 112.002 43.8116  61
   1   3  -3 9575.43 432.902  10
   1   3  -3 8955.38 434.185  13
   1   3  -3 9666.60 445.176   9
   1   3  -3 9160.82 436.527  14
  -1  -3   3 9370.81 435.623  65
  -1  -3   2-12.8465 29.9412  75
   1   3  -2-14.2781 36.2283   9
  -1  -3   2 14.2176 28.5196  65
   1   3  -2-13.2733 39.4918  10
   1   3  -2-6.48820 31.8800  14
  -1  -3   2 25.9839 24.0272  62
  -1  -3   1 642.725 72.2517  75
  -1  -3   1 575.710 69.8832   5
  -1  -3   1 632.024 71.4417  62
  -1  -3   1 609.645 72.0884  65
   1   3  -1 717.498 75.9279  10
   1   3  -1 729.105 73.8370  14
  -1  -3   0 68.3779 31.5762  77
  -1  -3   0 81.9136 36.7683  65
   1   3   0 13.1481 39.5862  10
  -1  -3   0 58.4673 34.0961   5
  -1  -3   0 6.83621 28.1383  88
  -1  -3   0 25.2442 25.9824  92
  -1  -3   0 28.3939 27.7926  75
   1   3   0 34.2103 30.7215  15
   1   3   1 45.0095 33.7247  15
  -1  -3  -1 54.6391 37.7769  88
   1   3   1 75.8399 34.5616  79
   1   3   1 99.2017 44.8494  10
  -1  -3  -1 129.036 38.1152  65
  -1  -3  -1 84.5800 41.4490  75
  -1  -3  -1 7.45566 26.8501  92
   1   3   2 1284.55 105.032  10
  -1  -3  -2 1389.57 106.420  65
  -1  -3  -2 1435.59 115.415   8
   1   3   2 1370.56 113.281  12
  -1  -3  -2 1251.13 110.926  85
  -1  -3  -2 1306.52 117.042  92
   1   3   2 1355.98 116.672  15
  -1  -3  -2 1374.64 118.533  88
  -1  -3  -3 2326.04 171.798   8
  -1  -3  -3 2530.98 179.467  88
   1   3   3 2567.34 175.715  12
  -1  -3  -3 2503.93 178.860  85
  -1  -3  -4 2370.31 187.981  85
  -1  -3  -4 2426.76 184.653   8
   1   3   4 2544.01 190.256  12
   1   3   4 2608.75 193.260  11
   1   3   5 369.509 77.5042  11
  -1  -3  -5 321.956 74.1502  85
  -1  -3  -5 291.761 38.2172  96
  -1  -3  -5 418.541 80.3945   8
  -1  -3  -5 285.834 75.7897  91
   1   3   5 341.700 76.4154  12
  -1  -3  -6 147.261 62.3795  91
   1   3   6 132.029 62.9162  11
   1   3   6 197.456 77.3121  12
  -1  -3  -6 63.1982 26.9691  96
  -1  -3  -7 1715.54 121.765  33
   1   3   7 1782.10 116.647  55
   1   3   7 1764.91 116.232  54
   1   3   7 1777.76 117.711  39
   1   3   7 1946.45 205.586  12
  -1  -3  -7 1802.11 128.817  45
   1   3   8 35.6441 35.3650  39
  -1  -3  -8 54.9431 37.9929  33
   1   3   8 34.5984 33.1385  54
  -1  -3  -8-23.2505 41.1443  45
  -1  -3  -9 4057.62 207.579  33
   1   3   9 3708.77 197.123  39
   1   3  10 1739.11 113.658  39
  -1  -3 -10 1497.43 120.915  45
   1   3  11 1322.05 91.4450  39
  -1  -3 -12 5842.18 244.540  58
   1   3  12 5271.58 247.936  39
   1   4 -13 15.1726 25.0634  47
   1   4 -12 383.815 52.2487  47
   1   4 -11 4284.36 212.419  58
   1   4 -11 4514.99 222.708  47
  -1  -4  10 769.639 139.102  80
   1   4 -10 535.058 65.1145  31
   1   4 -10 576.067 64.1124  58
   1   4 -10 626.508 74.1660  47
   1   4  -9 45.8619 46.1952  47
   1   4  -9 9.58582 33.8510  58
  -1  -4   8 5753.33 386.894  68
   1   4  -8 5322.52 249.060  52
   1   4  -8 5178.90 256.512  47
   1   4  -8 5119.41 252.414  46
   1   4  -8 5005.28 246.743  58
   1   4  -7 1072.94 145.801   9
   1   4  -7 922.284 79.6694  46
   1   4  -7 1217.62 80.1576  58
   1   4  -7 967.617 76.3054  52
   1   4  -7 934.411 82.6236  47
   1   4  -6 1304.37 148.416   9
  -1  -4   6 1285.88 143.500  67
   1   4  -5 2628.75 212.681   9
  -1  -4   5 3102.68 226.289  61
  -1  -4   5 3143.79 221.711  67
   1   4  -4 1832.97 159.207   9
  -1  -4   4 2002.31 166.364  61
   1   4  -4 1807.17 152.183  14
   1   4  -3 7543.53 362.329  10
   1   4  -3 6157.35 354.000   9
  -1  -4   3 6818.40 357.449  65
   1   4  -3 6830.09 357.631  14
  -1  -4   2 1669.69 134.978  75
  -1  -4   2 1775.31 137.929  62
   1   4  -2 1881.20 140.497  14
  -1  -4   2 1600.41 136.947   5
   1   4  -2 1608.41 134.035  10
  -1  -4   2 1652.78 136.638  65
  -1  -4   1 5132.77 281.104  65
  -1  -4   1 5194.36 280.735  75
  -1  -4   1 5045.21 278.211   5
   1   4  -1 4614.81 269.382  14
   1   4  -1 5049.44 279.597  10
  -1  -4   0 802.696 91.2041  77
  -1  -4   0 994.872 100.007  65
  -1  -4   0 998.102 103.619  88
  -1  -4   0 1127.42 107.398   5
  -1  -4   0 884.755 98.5679  75
   1   4   0 1091.00 108.631  10
   1   4   1 10663.3 506.568  11
   1   4   1 10366.6 501.678  10
  -1  -4  -1 10461.6 500.554  65
   1   4   1 10436.6 510.445  15
  -1  -4  -1 10734.8 510.180  88
  -1  -4  -1 10352.3 510.028  75
  -1  -4  -1 10500.6 506.397  92
   1   4   2 919.055 106.513  11
  -1  -4  -2 885.531 103.398  85
  -1  -4  -2 893.243 105.433  92
  -1  -4  -2 897.112 104.666  75
  -1  -4  -2 746.179 95.6827   8
  -1  -4  -2 797.497 100.566  88
   1   4   2 721.283 91.5300  10
   1   4   2 974.270 108.451  15
   1   4   3 605.915 92.9649  11
  -1  -4  -3 536.248 83.2846   8
   1   4   3 725.339 97.6191  15
  -1  -4  -3 541.367 88.9673  85
  -1  -4  -3 455.481 82.1776  88
  -1  -4  -3 575.232 87.0905  92
   1   4   4 29.9550 46.5553  11
  -1  -4  -4 43.4658 43.1201  85
  -1  -4  -4 24.7405 23.3224  96
  -1  -4  -4 13.6759 38.8100  90
  -1  -4  -4 26.9026 41.8140   8
   1   4   4 29.9138 44.5130  15
   1   4   5 34.5189 51.5295  11
  -1  -4  -5 127.133 30.4160  96
  -1  -4  -5 109.472 50.7637   8
  -1  -4  -5 203.170 72.9659  85
   1   4   5 85.4783 55.4605  12
  -1  -4  -6 1694.95 121.402  33
  -1  -4  -6 1758.73 186.664  91
   1   4   6 1635.64 184.116  11
   1   4   6 1817.03 118.008  55
   1   4   6 1774.05 116.690  39
  -1  -4  -6 1987.32 114.507  96
   1   4   6 1754.91 116.507  54
   1   4   7 7887.82 379.137  39
  -1  -4  -7 8368.17 390.877  33
  -1  -4  -7 8206.55 496.149  91
  -1  -4  -7 8235.53 373.232  96
   1   4   7 8454.64 381.519  54
   1   4   7 8444.00 382.521  55
   1   4   8 1001.11 90.5510  39
   1   4   8 1126.85 93.6525  55
  -1  -4  -9 20.4617 35.6775  33
   1   4   9-11.4301 30.7614  55
   1   4   9-5.87371 29.8074  39
  -1  -4  -9-14.9428 39.6524  45
   1   4  10 86.7290 34.9246  39
  -1  -4 -10 28.9609 33.7466  33
  -1  -4 -11 125.538 32.4450  33
  -1  -4 -12 84.5253 20.2210  58
   1   5 -12 669.918 57.9330  47
   1   5 -11 599.112 63.4849  47
   1   5 -11 525.138 56.5194  31
   1   5 -10 421.819 60.3007  47
   1   5 -10 423.027 57.2380  31
   1   5  -9 882.822 80.0890  58
   1   5  -9 1181.90 87.4231  52
   1   5  -9 1026.49 88.6181  31
   1   5  -9 948.106 90.2195  47
   1   5  -9 1016.82 87.4638  46
   1   5  -8 460.359 57.7281  58
   1   5  -8 505.416 59.7649  52
   1   5  -8 497.118 63.8926  46
   1   5  -7 107.703 36.8450  58
   1   5  -7 144.329 69.2967   9
   1   5  -7 64.8765 35.6923  52
   1   5  -7 74.0753 38.7214  46
  -1  -5   7 124.413 76.7764  68
   1   5  -6 18.4189 52.2555   9
   1   5  -6 33.8266 42.4799  48
  -1  -5   6 34.3068 40.7185  67
   1   5  -6 9.85727 32.1955  46
   1   5  -6 15.1691 26.5793  28
   1   5  -6 8.72696 33.4517  42
   1   5  -5 2274.20 209.015   9
   1   5  -5 2358.59 206.270  14
  -1  -5   5 2896.67 222.181  67
   1   5  -4 3994.87 270.573   9
  -1  -5   4 3552.05 263.471  61
   1   5  -4 3765.95 257.558  14
  -1  -5   3 26.5502 41.2718  65
   1   5  -3 37.8016 45.2315  14
  -1  -5   2 13845.3 673.681  65
   1   5  -2 13952.0 669.127  10
  -1  -5   2 14660.5 674.174  75
   1   5  -2 14026.5 668.138  14
   1   5  -1 32809.0 1409.25  14
   1   5  -1 32989.5 1419.72  10
  -1  -5   1 32852.0 1420.14  75
  -1  -5   1 33829.4 1422.07  65
   1   5   0 7049.77 380.784  10
  -1  -5   0 6577.39 374.668  65
  -1  -5   0 6968.17 381.072  88
   1   5   0 6840.57 375.843  14
  -1  -5   0 6808.49 381.174  75
   1   5   1 451.920 87.5961  10
  -1  -5  -1 435.304 80.4743   8
  -1  -5  -1 548.664 88.6434  65
  -1  -5  -1 407.072 81.0733  75
  -1  -5  -1 452.852 83.4952  92
  -1  -5  -1 643.529 98.7517  88
  -1  -5  -2 5862.84 345.685  75
  -1  -5  -2 5623.14 331.660   8
  -1  -5  -2 5704.68 345.563  88
   1   5   2 5805.43 347.105  15
   1   5   2 5534.22 341.878  11
  -1  -5  -2 5107.17 329.269  92
   1   5   3-32.0173 43.0831  11
  -1  -5  -3-15.7593 39.9865  92
  -1  -5  -3 28.3878 42.2308   8
  -1  -5  -3 14.9371 42.3738  85
   1   5   3-16.4566 41.7557  15
  -1  -5  -3 16.2024 41.1108  88
   1   5   4-18.1716 39.9299  11
  -1  -5  -4 51.3523 43.4324  85
   1   5   4 11.1252 35.2852  44
   1   5   4-18.3974 43.6652  15
  -1  -5  -4-12.3197 20.1777  96
   1   5   4 20.1037 27.0519  55
  -1  -5  -4-17.0288 48.3076  90
  -1  -5  -4 15.9525 42.9319   8
  -1  -5  -5-19.4066 49.2807  85
   1   5   5 21.8403 29.4554  39
  -1  -5  -5 100.360 37.3774  33
   1   5   5 61.5279 58.2147  15
  -1  -5  -5 71.9165 51.0418   8
   1   5   5 21.3287 27.9619  54
   1   5   5 61.0134 48.3113  11
  -1  -5  -5 83.2698 31.1187  96
   1   5   5 82.8111 36.4474  55
   1   5   6 521.467 114.488  15
  -1  -5  -6 453.520 54.7743  96
   1   5   6 386.641 57.7097  55
  -1  -5  -6 491.663 109.779  91
   1   5   6 418.529 55.5382  54
  -1  -5  -6 583.614 70.3566  33
   1   5   6 346.792 53.3063  39
   1   5   7 721.741 74.4520  55
  -1  -5  -7 731.488 67.4237  96
   1   5   7 597.931 71.0528  39
  -1  -5  -7 573.820 116.790  91
  -1  -5  -7 713.396 79.1355  33
   1   5   8 35.7818 33.0283  39
   1   5   8 66.0740 40.0031  55
  -1  -5  -8 42.5113 38.7043  33
  -1  -5  -9 1283.12 100.491  33
   1   5   9 1144.47 91.1452  55
  -1  -5 -10 602.392 62.3921  33
  -1  -5 -11 33.7155 23.6590  33
   1   6 -12 11.2733 20.1605  31
   1   6 -11 496.880 50.4812  31
   1   6 -10 919.576 77.5285  31
   1   6  -9 14.6956 38.5888  31
   1   6  -9-5.13836 34.8325  46
   1   6  -8 659.266 72.8724  31
   1   6  -8 708.129 70.2225  52
   1   6  -8 706.624 73.7324  46
   1   6  -7 1405.91 107.744  48
   1   6  -7 1322.94 92.7204  28
   1   6  -7 1434.01 104.620  31
   1   6  -7 1368.97 99.7901  42
   1   6  -7 1377.58 99.3651  52
   1   6  -7 1502.13 107.078  46
   1   6  -6 16450.4 716.347  31
   1   6  -6 17714.0 719.608  42
   1   6  -6 16889.3 722.939  48
   1   6  -6 17516.4 724.269  46
   1   6  -6 16939.9 710.810  28
   1   6  -5 12145.0 651.496  14
   1   6  -5 12401.7 536.290  42
   1   6  -5 12531.0 542.018  48
   1   6  -5 12708.3 540.571  46
   1   6  -5 12495.2 529.842  28
  -1  -6   5 12352.0 658.484  67
   1   6  -4 11917.5 607.475  14
   1   6  -4 11353.9 497.138  48
   1   6  -4 11539.8 486.746  28
   1   6  -4 11277.7 492.105  42
   1   6  -3 5737.95 358.726  14
  -1  -6   3 6248.68 377.243  65
   1   6  -3 5578.05 265.559  42
   1   6  -3 5598.53 270.798  48
   1   6  -3 5900.80 261.874  28
  -1  -6   2 1036.15 135.450  65
  -1  -6   2 1104.29 138.689  75
   1   6  -2 1047.39 131.796  14
  -1  -6   1 212.391 69.5103  75
   1   6  -1 229.879 70.8531  14
  -1  -6   1 394.506 86.5969  65
  -1  -6   0 1906.40 186.313  75
   1   6   0 2056.01 187.134  14
  -1  -6   0 1771.07 178.959  65
  -1  -6   0 2020.36 190.147  88
   1   6   1 1038.24 138.528  14
  -1  -6  -1 1097.49 137.457  65
  -1  -6  -1 935.668 132.859  75
  -1  -6  -1 1186.02 144.497  88
   1   6   2 719.534 73.2192  32
   1   6   2 494.308 63.6228  44
  -1  -6  -2 620.217 114.696  88
  -1  -6  -2 760.606 115.389  92
   1   6   3 1608.45 184.402  11
  -1  -6  -3 1472.80 171.466  88
   1   6   3 1515.29 109.032  32
   1   6   3 1211.02 161.155  15
   1   6   3 1314.71 104.101  44
   1   6   4 4292.79 329.783  11
  -1  -6  -4 3692.27 301.715  85
   1   6   4 4543.25 230.548  32
   1   6   4 4316.17 332.811  15
  -1  -6  -4 4052.93 315.399  90
  -1  -6  -5 9188.29 553.492  85
  -1  -6  -5 8976.67 419.981  96
   1   6   5 9550.88 432.693  55
  -1  -6  -6-5.26753 25.8838  96
   1   6   6 11.1132 56.3962  37
  -1  -6  -6-6.99780 34.9534  33
   1   6   6-12.3599 32.3276  55
  -1  -6  -6-22.9416 65.0817  91
  -1  -6  -7 847.911 84.0004  33
   1   6   7 924.935 84.4290  55
  -1  -6  -7 627.779 123.404  91
  -1  -6  -8 134.475 43.3069  33
  -1  -6  -9 10.7028 30.7419  33
  -1  -6 -10 282.206 41.5736  33
   1   7 -11 139.061 28.4028  31
   1   7 -10 191.685 36.9539  31
   1   7  -9 3530.72 165.415  52
   1   7  -9 2840.87 161.357  31
   1   7  -8 161.080 44.7567  31
   1   7  -8 166.749 41.6435  52
   1   7  -8 139.175 44.2573  46
   1   7  -8 130.769 38.2399  28
   1   7  -8 157.221 41.8997  42
   1   7  -7 1453.27 108.858  48
   1   7  -7 1429.07 104.412  31
   1   7  -7 1311.96 99.1358  52
   1   7  -7 1589.48 99.6920  28
   1   7  -7 1484.65 104.346  42
   1   7  -7 1473.77 106.559  46
   1   7  -6 207.085 56.7398  48
   1   7  -6 222.744 44.7909  28
   1   7  -6 222.007 49.4696  52
   1   7  -6 265.810 51.8954  46
   1   7  -6 208.004 49.9269  42
   1   7  -5 3191.63 175.446  46
   1   7  -5 3104.51 166.562  28
   1   7  -5 3263.63 181.680  48
   1   7  -5 3132.26 174.087  42
   1   7  -4 1854.24 125.846  48
   1   7  -4 1817.97 111.157  28
   1   7  -4 1738.38 116.347  42
   1   7  -3 179.680 41.1974   4
  -1  -7   3 240.255 84.5588  74
  -1  -7   3 251.693 86.5331  65
   1   7  -3 208.253 41.2397  28
   1   7  -3 174.884 70.1081  14
   1   7  -3 173.888 53.8970  48
   1   7  -3 152.564 45.0433  42
  -1  -7   2 1295.33 163.161  75
  -1  -7   2 1222.16 159.750  65
   1   7  -2 1040.01 85.2795   4
   1   7  -2 1122.73 151.547  14
   1   7  -2 952.063 87.1603  48
  -1  -7   1 5846.44 375.140  75
  -1  -7   1 5196.64 364.100  65
   1   7  -1 4965.63 246.278   4
   1   7  -1 4317.63 331.899  14
   1   7  -1 5114.40 244.306  51
  -1  -7   0 83.2293 59.2224  75
   1   7   0 173.535 34.9276  51
  -1  -7   0 202.380 79.2825  65
   1   7   0 55.6658 34.6102   4
   1   7   0 135.277 65.0446  14
   1   7   0 143.878 44.4481  32
   1   7   1 32.7214 35.7133  32
   1   7   1 4.93915 28.7187  51
   1   7   1 5.02665 29.5732   4
   1   7   1 60.1684 59.6743  14
  -1  -7  -1-20.3391 48.2760  88
   1   7   2 382.709 83.0353  37
   1   7   2 285.088 54.4598  32
   1   7   2 204.125 42.8272  51
  -1  -7  -2 257.673 84.4023  88
   1   7   3 8342.00 401.726  32
  -1  -7  -3 7778.21 511.066  90
   1   7   4 2260.98 148.918  32
   1   7   4 2384.85 183.790  37
  -1  -7  -4 2039.93 226.195  90
   1   7   5 6759.83 336.544  32
  -1  -7  -5 6174.04 447.921  91
   1   7   6 10.7866 55.6011  37
  -1  -7  -6 39.5151 26.2450  96
  -1  -7  -6 22.5637 57.2653  91
  -1  -7  -7 53.5425 37.7685  33
   1   7   7 9.51142 54.6561  37
  -1  -7  -8 233.683 44.1838  33
  -1  -7  -9 1010.99 74.2655  33
   1   8 -10 1298.23 73.4839  31
   1   8  -9 36.1319 30.2075  31
   1   8  -9 7.46136 23.4111  28
   1   8  -8 22.1755 31.8098  31
   1   8  -8 3.29754 27.1218  28
   1   8  -8 36.5976 31.4988  52
   1   8  -7 498.954 56.8815  52
   1   8  -7 601.474 70.1982  48
   1   8  -7 575.905 62.6693  42
   1   8  -7 584.344 63.8157  46
   1   8  -7 662.668 58.4303  28
   1   8  -6 1181.46 88.0606  52
   1   8  -6 1315.11 94.1314  42
   1   8  -6 1046.80 95.1235  48
   1   8  -6 1128.92 92.0029  46
   1   8  -6 1268.24 86.4738  28
   1   8  -5 1048.56 96.8865  48
   1   8  -5 1101.10 85.1149  28
   1   8  -4 785.984 75.8967  42
   1   8  -4 604.804 77.5850  48
   1   8  -4 760.292 68.8299  28
   1   8  -3 212.161 44.8458  42
   1   8  -3 122.616 41.2566   4
   1   8  -3 108.862 50.1576  48
   1   8  -3 139.801 38.0203  28
   1   8  -2 2906.20 164.788   4
   1   8  -1 493.984 61.9845   4
   1   8   0 130.055 46.8701  32
   1   8   0 72.1721 30.8364  51
   1   8   0 55.1877 35.4949   4
  -1  -8   0 113.320 73.3731  90
   1   8   1 1887.23 123.342  51
   1   8   1 2171.11 141.829  32
   1   8   1 2142.98 130.310   4
  -1  -8  -1 2148.99 233.842  90
  -1  -8  -1 1982.78 220.727  88
   1   8   2 156.763 38.2799  51
   1   8   2 273.689 58.2981  32
   1   8   2 295.318 78.2582  37
  -1  -8  -2 142.078 73.9863  90
   1   8   3 1170.31 123.712  37
   1   8   3 918.962 90.7112  32
  -1  -8  -3 1055.41 163.219  90
   1   8   3 903.205 78.4674  51
   1   8   4 21.9291 59.0327  37
   1   8   4 54.8335 42.1765  32
  -1  -8  -4 67.5117 53.4298  90
   1   8   4 40.2973 28.9673  51
  -1  -8  -4 19.8250 28.5031  95
  -1  -8  -4 22.3055 56.6132  91
   1   8   5 23.5440 31.6232  51
   1   8   5-10.3378 60.1075  37
   1   8   5 37.4913 35.0173  32
   1   8   6 82.3143 55.0503  37
   1   8   6 16.6811 26.4772  51
   1   8   7 258.756 59.1602  37
   1   8   7 198.555 34.2424  51
   1   8   8 2337.47 116.196  51
   1   9  -8 1089.62 61.4511  52
   1   9  -8 578.257 50.1475  28
   1   9  -7 171.675 33.5164  52
   1   9  -7 187.316 32.1711  28
   1   9  -6 225.965 40.7619  52
   1   9  -6 229.262 37.1288  28
   1   9  -6 165.578 47.9536  48
   1   9  -5 295.222 43.4238  28
   1   9  -5 315.100 55.6967  48
   1   9  -4 86.9693 49.0817  48
   1   9  -4 66.0832 32.4616  28
   1   9  -3 352.558 51.4664   4
   1   9  -3 243.310 56.9735  48
   1   9  -2 418.194 56.4215   4
   1   9  -1 562.744 63.9359   4
   1   9   0 20.7823 34.5753   4
   1   9   1 631.275 66.0311   4
   1   9   1 737.961 77.8188  32
  -1  -9  -1 711.195 133.395  90
   1   9   2 580.265 70.1792  32
   1   9   3 210.792 50.6422  32
  -1  -9  -3 115.279 31.4074  95
   1   9   3 112.678 59.2026  37
   1   9   4 26.4606 52.4874  37
  -1  -9  -4 8.17815 24.0593  95
   1   9   4 16.9373 34.7253  32
   1   9   5 54.7653 50.1226  37
   1   9   5-4.78986 30.3856  32
   1   9   6 223.435 52.5858  37
   1   9   7-4.52514 28.9905  37
   1  10  -6 98.7578 24.9556  52
   1  10  -6 97.6264 24.3849  28
   1  10  -5 710.063 53.5152  52
   1  10  -5 689.628 53.0533  28
   1  10  -4 490.110 47.0015  52
   1  10  -4 546.695 58.6132  48
   1  10  -3 443.631 48.3993   4
   1  10  -2 582.254 58.2614   4
   1  10  -1-12.2272 28.7934   4
  -1 -10   0 136.178 31.6586  95
   1  10   0 95.7656 33.7028   4
  -1 -10  -1 90.5621 28.9437  95
   1  10   1 7.41560 25.1480   4
   1  10   1 9.76822 30.0675  32
  -1 -10  -2 225.443 34.8389  95
   1  10   2 241.644 42.8255  32
   1  10   3 181.447 38.6261  32
   1  10   4 311.592 40.8774  32
   1  10   4 338.245 53.7354  37
   1  10   5 90.1339 22.8162  32
   1  10   5 65.8561 32.3973  37
   1  11  -2 2682.64 127.123   4
   1  11  -1 521.196 42.2988   4
   1  11   0 6.73121 17.7786   4
  -2  11   3 240.166 31.1489  32
  -2  11   2 1035.93 63.0174   4
  -2  11   1 15.0608 20.0229   4
  -2  11   0 633.912 49.6550   4
  -2  11  -1 68.0654 22.5857   4
  -2  11  -1 54.8164 28.5553  48
  -2  11  -2 506.339 45.4202  48
  -2  10   6-9.81738 32.9533  37
  -2  10   6-2.91957 20.6238  32
  -2  10   5-23.6685 36.0034  37
  -2  10   5 22.7227 25.8761  32
   2 -10  -5 11.8155 18.9275  96
  -2  10   4-4.41032 28.2595  32
   2 -10  -4 23.1980 20.8174  96
  -2  10   3 19.2869 32.3776  32
  -2  10   2 159.094 36.7375   4
  -2  10   2 113.748 39.0487  32
  -2  10   1 943.377 73.9818   4
  -2  10   0 1710.59 106.050   4
  -2  10  -1 69.2075 31.4740   4
  -2  10  -1 17.2130 40.1635  48
  -2  10  -2 2519.16 135.375   4
  -2  10  -2 2540.52 140.961  48
  -2  10  -3-23.2986 38.9568  48
  -2  10  -4 657.688 62.3664  48
  -2  10  -5 415.840 45.1467  48
  -2  10  -5 395.691 39.5377  42
  -2   9   8 103.375 40.1912  37
   2  -9  -7-3.32596 20.4551  96
  -2   9   7 40.1331 43.2697  37
  -2   9   6 14.0816 31.7973  32
   2  -9  -6 19.6544 23.6643  96
  -2   9   6 14.5076 31.8855  44
  -2   9   5 211.018 45.9517  44
  -2   9   5 252.679 47.6603  32
   2  -9  -5 170.620 34.6647  96
  -2   9   4 282.747 54.5891  32
  -2   9   4 234.378 49.6335  44
   2  -9  -4 247.011 41.9195  96
   2  -9  -3 319.388 88.3003  92
   2  -9  -3 341.815 47.1605  96
  -2   9   3 351.958 57.8420  32
  -2   9   3 226.918 43.5369   4
  -2   9   2 37.9956 38.5472  32
  -2   9   2 29.9835 32.9636   4
   2  -9  -2 21.3341 42.8108  92
  -2   9   1 1025.16 86.3290   4
  -2   9   1 1043.70 91.7113  32
   2  -9  -1 859.293 147.345  88
   2  -9   0 155.977 77.8936  88
  -2   9   0 247.187 48.1888   4
  -2   9  -1 4076.30 200.671   4
  -2   9  -1 3561.68 189.201  50
  -2   9  -2 323.530 49.3591  50
  -2   9  -2 454.734 57.0848   4
  -2   9  -4 11010.2 472.263  42
  -2   9  -4 11063.1 480.539  48
  -2   9  -5 2771.09 151.433  48
  -2   9  -5 2820.11 147.224  42
  -2   9  -6 66.4338 31.7817  42
  -2   9  -7 532.103 47.7808  42
   2  -8  -9 740.134 61.7911  33
   2  -8  -8 463.332 48.5562  96
   2  -8  -8 550.588 59.1926  33
   2  -8  -7 103.603 37.2992  33
   2  -8  -7 72.1709 28.4114  96
  -2   8   7 5.51647 35.4100  44
  -2   8   6 804.232 83.6220  44
  -2   8   6 1054.96 88.3457  32
   2  -8  -6 977.780 77.6015  96
   2  -8  -6 685.408 124.490  92
   2  -8  -5 3634.19 317.434  85
  -2   8   5 4386.98 226.762  32
  -2   8   5 4359.04 227.235  44
   2  -8  -5 4349.99 215.809  96
   2  -8  -5 3431.13 308.989  92
   2  -8  -4 26.5626 26.5357  96
  -2   8   4 6.69920 38.0095  32
  -2   8   4-19.8367 37.5162  44
   2  -8  -4-22.4609 49.3559  92
   2  -8  -4 45.1974 53.6374  88
   2  -8  -3 46.5623 59.1491  77
  -2   8   3 90.8785 40.8746  44
   2  -8  -3 67.1147 63.5359  92
  -2   8   3 74.4788 45.1469  32
   2  -8  -3 114.824 68.3934  88
   2  -8  -3 65.3290 67.7390  86
   2  -8  -2 69.6439 62.5186  77
   2  -8  -2 21.3106 54.1212  86
  -2   8   2 40.2979 38.6482  32
   2  -8  -2 92.0932 62.0041  88
   2  -8  -2 154.008 71.1992  92
   2  -8  -1 2114.75 227.697  77
  -2   8   1 2343.12 142.030  32
  -2   8   1 1831.68 124.065  49
   2  -8   0 4102.86 329.279  77
  -2   8   0 4073.12 211.061  49
   2  -8   1 1458.01 189.292  77
  -2   8  -1 1529.05 103.302  50
  -2   8  -1 1486.91 106.541  49
  -2   8  -2 8735.62 389.463  50
  -2   8  -2 8621.84 393.463  49
  -2   8  -3 219.075 45.1348  50
  -2   8  -3 220.886 44.9554  28
  -2   8  -4-19.9801 33.8361  50
  -2   8  -4-14.8530 39.4815  31
  -2   8  -4-4.96646 36.7448  42
  -2   8  -5 232.291 50.3828  31
  -2   8  -5 299.090 48.5339  50
  -2   8  -5 189.152 49.1602  42
  -2   8  -6 1553.23 106.073  31
  -2   8  -6 1609.89 104.735  42
  -2   8  -7 31.0719 33.7841  31
  -2   8  -7-3.82378 31.2543  42
  -2   8  -8 29.3190 27.8583  42
   2  -7 -10 691.140 61.3046  33
  -2   7  10 603.986 51.9232  55
  -2   7   9 260.568 37.9851  54
   2  -7  -9 158.158 41.9945  33
   2  -7  -9 191.090 34.2595  96
   2  -7  -8 1243.63 104.353  33
  -2   7   8 1473.73 104.564  44
   2  -7  -8 1414.17 94.4220  96
   2  -7  -7 13120.9 587.744  33
   2  -7  -7 13046.7 719.317  85
   2  -7  -7 13665.7 573.310  96
  -2   7   7 13159.2 583.172  44
   2  -7  -6 1206.99 171.884  85
   2  -7  -6 1441.96 99.2791  96
  -2   7   6 1394.50 109.473  44
   2  -7  -6 1184.41 162.308  92
  -2   7   5 9999.98 427.989  32
   2  -7  -5 9169.96 411.461  96
  -2   7   5 9253.12 426.920  44
   2  -7  -4 1592.44 190.328  88
  -2   7   4 1448.86 112.893  32
   2  -7  -4 1476.85 182.495  86
  -2   7   4 1691.38 120.425  44
   2  -7  -4 1382.72 175.743  92
   2  -7  -3 382.894 98.4061  86
   2  -7  -3 338.941 92.2608  77
  -2   7   3 401.819 63.5310  32
  -2   7   3 304.305 99.5335  26
   2  -7  -2 1833.45 203.802  77
   2  -7  -2 1718.11 192.676  86
  -2   7   2 2129.36 226.213  26
  -2   7   1 855.100 74.1429  49
   2  -7  -1 842.759 134.907  71
  -2   7   1 962.118 150.249  26
   2  -7  -1 657.046 118.629  86
   2  -7  -1 766.979 131.981  77
   2  -7   0 120.529 67.6358  77
   2  -7   0 220.459 74.3189  71
  -2   7   0 93.9986 38.0305  49
   2  -7   0 239.344 75.8725  86
   2  -7   1 20.2679 44.5375  71
  -2   7  -1 18.2037 30.2787  50
  -2   7  -1-10.0961 32.6569  49
   2  -7   2 372.381 97.7013  71
  -2   7  -2 430.226 55.1486  50
  -2   7  -2 385.225 52.8572  49
   2  -7   3 466.225 107.557  71
  -2   7  -3 497.327 62.8871  31
  -2   7  -3 509.604 60.4515  50
  -2   7  -3 456.185 60.6084  49
  -2   7  -3 437.660 58.8117  42
  -2   7  -3 554.755 59.2348  28
  -2   7  -4 1418.89 104.214  31
  -2   7  -4 1421.61 100.245  50
  -2   7  -4 1293.93 100.984  42
  -2   7  -4 1554.65 99.5911  28
  -2   7  -5 4361.20 224.689  31
  -2   7  -5 4387.42 219.552  50
  -2   7  -5 4394.99 217.469  28
  -2   7  -5 4451.65 224.161  42
  -2   7  -6 1608.19 108.494  31
  -2   7  -6 1294.92 101.449  43
  -2   7  -6 1405.55 103.406  42
  -2   7  -7 192.419 44.2012  43
  -2   7  -7 99.6917 45.7034  31
  -2   7  -7 186.427 44.2981  42
  -2   7  -8 1731.38 103.371  42
  -2   7  -8 1563.27 102.500  31
  -2   7  -8 1630.69 104.113  43
  -2   7  -9 1771.81 101.670  43
  -2   7 -10 1006.47 62.3523  43
  -2   6  11 429.540 45.2543  55
  -2   6  11 409.757 43.5360  54
   2  -6 -10 1452.29 101.682  33
  -2   6  10 1434.17 95.5160  55
  -2   6  10 1316.66 91.6008  54
  -2   6   9 68.9853 34.1206  54
  -2   6   9 116.379 38.9525  55
   2  -6  -9 51.8297 36.8729  33
   2  -6  -9 69.6730 29.0150  96
   2  -6  -8 217.920 85.7528  85
  -2   6   8 189.310 55.8701  38
  -2   6   8 238.231 46.5152  55
   2  -6  -8 289.880 55.0363  33
   2  -6  -8 245.552 45.2874  96
  -2   6   8 273.234 47.2292  54
  -2   6   7 261.551 46.7615  54
  -2   6   7 267.455 58.7792  38
  -2   6   7 220.647 50.8652  44
   2  -6  -7 287.701 46.1206  96
  -2   6   6 223.352 59.2101  38
   2  -6  -6 128.563 64.0531  85
  -2   6   6 213.559 48.6210  44
   2  -6  -6 102.274 36.0714  96
   2  -6  -6 219.817 80.4100  92
  -2   6   5 332.979 61.1741  36
  -2   6   5 323.928 60.1962  38
  -2   6   5 257.435 85.0340   6
  -2   6   5 381.206 48.8396  29
  -2   6   5 342.685 56.1811  32
   2  -6  -5 366.690 89.2851  92
   2  -6  -4 7878.35 485.040  77
  -2   6   4 8532.30 380.305  29
  -2   6   4 9142.83 522.307  26
  -2   6   4 8704.52 521.520   6
   2  -6  -4 8456.83 493.265  92
   2  -6  -4 9341.34 509.361  86
   2  -6  -3 5028.12 336.406  77
  -2   6   3 5039.14 237.135  29
  -2   6   3 5117.10 352.620  26
  -2   6   3 4769.95 343.634   6
   2  -6  -3 4790.02 329.641  86
   2  -6  -2 2178.29 191.676  77
   2  -6  -2 1658.44 175.522  71
  -2   6   2 1637.72 180.379  26
  -2   6   2 1913.81 188.512   6
   2  -6  -2 1305.21 159.976  86
   2  -6  -1 385.018 78.3811  78
   2  -6  -1 197.462 71.8007  71
  -2   6   1 374.860 88.5230  26
   2  -6   0 263.917 71.6166  71
   2  -6   0 294.609 76.9000  64
   2  -6   0 294.811 78.3422  62
   2  -6   0 177.473 61.5580  78
  -2   6   0 240.391 76.0751  26
   2  -6   1 1922.96 178.873  78
   2  -6   1 1666.88 178.283  64
   2  -6   1 2007.31 194.152  62
  -2   6  -2 537.733 59.4718  31
   2  -6   2 549.592 106.066  62
   2  -6   2 487.657 99.4850  64
  -2   6  -2 690.153 61.2959  50
  -2   6  -2 438.397 56.0806  49
   2  -6   3 834.407 133.320  64
  -2   6  -3 948.941 78.9233  31
  -2   6  -3 1145.57 80.5977  50
  -2   6  -3 1127.65 139.850  14
  -2   6  -3 886.106 75.1554  49
  -2   6  -3 947.293 81.1364  40
  -2   6  -3 893.827 77.0534  42
  -2   6  -3 974.672 74.4722  28
  -2   6  -4 8376.63 369.174  31
  -2   6  -4 8189.57 367.683  43
  -2   6  -4 8067.66 368.045  40
  -2   6  -4 8282.73 366.085  50
  -2   6  -4 8365.32 363.623  28
  -2   6  -4 7797.92 367.587  42
  -2   6  -5 10910.0 462.355  43
   2  -6   5 9513.76 581.608  72
  -2   6  -5 10064.0 458.846  42
  -2   6  -5 10562.2 460.307  31
  -2   6  -5 10509.5 455.412  50
  -2   6  -5 10380.2 452.928  28
  -2   6  -5 10523.4 459.936  40
  -2   6  -6 13959.8 587.137  42
  -2   6  -6 13759.2 586.488  31
  -2   6  -6 13426.1 585.294  40
  -2   6  -6 13387.7 585.476  43
  -2   6  -7 903.027 82.3249  31
  -2   6  -7 767.224 81.1325  40
  -2   6  -7 1041.22 83.1064  42
  -2   6  -7 856.194 82.0732  43
  -2   6  -8 565.229 65.6447  31
  -2   6  -8 681.500 71.1311  43
  -2   6  -8 688.424 65.5999  42
  -2   6  -8 590.601 68.5605  40
  -2   6  -9 644.489 62.8021  43
  -2   6 -10 12.5547 27.4479  43
  -2   5  12 2084.66 111.608  55
  -2   5  11 161.262 35.8351  54
  -2   5  11 123.646 34.7505  55
   2  -5 -10-24.4040 33.2924  33
  -2   5  10-16.1857 33.8805  55
  -2   5  10 37.5200 32.9653  54
   2  -5  -9 5051.39 275.474  33
  -2   5   9 5455.23 272.175  55
  -2   5   9 6008.40 286.960  38
  -2   5   9 5589.25 272.694  54
  -2   5   8 226.062 47.4234  54
  -2   5   8 199.166 54.6793  38
   2  -5  -8 166.096 38.5105  96
   2  -5  -7-20.1931 44.3920  85
   2  -5  -7 34.0613 27.6396  96
  -2   5   7 92.9973 45.8487  38
  -2   5   6 1665.47 128.227  36
   2  -5  -6 1914.03 114.119  96
   2  -5  -6 1576.66 187.059  85
  -2   5   6 1969.25 211.910   6
  -2   5   6 2046.87 134.671  38
  -2   5   5 7041.45 444.444   6
  -2   5   5 6942.73 336.576  36
   2  -5  -5 6946.17 419.645  86
  -2   5   5 7655.71 344.620  38
   2  -5  -5 6991.23 416.848  92
  -2   5   5 7230.58 321.538  29
   2  -5  -4 13788.7 713.786  77
  -2   5   4 15186.5 749.380   6
   2  -5  -4 14882.8 723.468  86
  -2   5   4 15804.5 744.390  26
  -2   5   3 11778.0 588.099  26
   2  -5  -3 11801.9 569.676  77
   2  -5  -3 10446.6 558.033  71
  -2   5   3 10806.9 559.517   1
  -2   5   3 11029.3 582.708   6
   2  -5  -3 11105.4 567.903  86
   2  -5  -2 3583.43 247.453  78
   2  -5  -2 3776.14 258.223  77
   2  -5  -2 4106.42 266.431  71
  -2   5   2 4184.28 268.785   1
  -2   5   2 3838.47 267.421   6
  -2   5   2 3936.35 273.132  26
   2  -5  -1 25.8614 40.1937  71
   2  -5  -1-11.9916 37.2761  62
  -2   5   1 26.0979 49.6726  23
  -2   5   1 39.6683 54.3656   1
  -2   5   1 66.6762 46.3408   6
   2  -5  -1 35.9756 41.6744  78
  -2   5   0 8053.03 435.424  23
   2  -5   0 7572.19 417.615  78
   2  -5   0 8316.76 431.834  64
   2  -5   0 8500.94 435.480  62
  -2   5   0 7974.20 433.186   1
   2  -5   0 7644.42 416.366  72
  -2   5  -1 8972.74 460.403   1
   2  -5   1 8575.90 457.200  64
   2  -5   1 8289.16 442.739  72
  -2   5  -1 8472.80 460.778  23
  -2   5  -1 8265.83 433.802  14
  -2   5  -2 10487.2 502.092   1
   2  -5   2 9120.57 494.650  64
   2  -5   2 9099.77 484.479  72
  -2   5  -2 8364.05 466.710  14
  -2   5  -2 9530.46 503.083  23
   2  -5   3 9179.79 487.194  66
  -2   5  -3 9879.99 511.941  23
  -2   5  -3 9076.66 480.070  14
  -2   5  -3 8351.18 489.684  19
  -2   5  -4 6901.91 304.536  57
   2  -5   4 6834.20 407.102  66
  -2   5  -4 6896.98 303.869  50
  -2   5  -4 6641.37 300.557  28
  -2   5  -4 6766.50 306.248  31
  -2   5  -4 6443.24 304.005  40
   2  -5   5 161.207 68.3499  70
  -2   5  -5 131.391 36.5559  57
   2  -5   5 94.3208 56.3414  66
  -2   5  -5 129.998 41.9391  31
  -2   5  -5 126.666 36.4345  28
  -2   5  -5 89.2867 40.7334  42
  -2   5  -5 162.485 44.1522  40
   2  -5   6 40.3840 62.7536  70
  -2   5  -6 27.4299 31.5125  58
  -2   5  -6-4.62266 30.4848  57
  -2   5  -6 29.5884 39.5770  31
  -2   5  -6 64.5142 39.3267  42
  -2   5  -6-10.0330 43.6391  40
  -2   5  -7 44.8494 39.0783  42
  -2   5  -7 81.5149 39.9943  58
  -2   5  -7 105.326 43.2521  31
  -2   5  -7 67.7987 49.8168  40
  -2   5  -8 1154.27 90.2579  58
  -2   5  -8 1241.55 96.9399  40
  -2   5  -9 834.241 71.5223  58
  -2   5  -9 847.809 77.3702  43
  -2   5  -9 629.837 70.4938  40
  -2   5 -10 193.423 43.2821  43
  -2   5 -10 303.041 46.5555  40
  -2   5 -11 301.511 37.4820  43
  -2   4  13 28.8875 17.8435  55
  -2   4  12 160.870 33.5779  55
  -2   4  12 104.318 28.5994  54
  -2   4  11 289.960 47.8335  54
  -2   4  11 308.647 49.5693  55
  -2   4  10 1542.39 108.708  54
  -2   4   9 421.714 64.5684  38
   2  -4  -9 290.233 55.1419  33
  -2   4   8 14.0863 48.1215  38
  -2   4   7 698.238 118.681  16
  -2   4   7 802.999 83.4753  38
   2  -4  -6 7093.42 396.490  82
  -2   4   6 6747.53 405.701  16
  -2   4   6 6537.32 415.443   6
   2  -4  -6 6833.73 306.366  96
   2  -4  -5 10864.5 516.588  82
  -2   4   5 9965.57 516.221  16
  -2   4   5 9824.93 537.426   6
   2  -4  -5 9156.14 505.516  86
   2  -4  -4 16003.3 772.327  82
   2  -4  -4 17639.3 785.220  77
  -2   4   4 16212.1 792.709  26
  -2   4   4 18258.4 816.140   6
   2  -4  -4 17853.7 792.687  86
   2  -4  -3 12569.3 609.711  86
   2  -4  -3 12554.0 606.138  77
  -2   4   3 12923.6 606.215   1
   2  -4  -3 12042.7 602.047  71
   2  -4  -3 13001.9 606.512  59
   2  -4  -3 13534.0 609.956  82
  -2   4   3 13886.5 636.673   6
   2  -4  -2 8309.48 428.161  78
   2  -4  -2 8899.59 432.879  82
   2  -4  -2 8707.32 432.263  59
  -2   4   2 8831.06 438.880   1
  -2   4   2 8094.12 440.958   6
  -2   4   2 9021.37 434.212  23
   2  -4  -2 8783.82 435.404  71
   2  -4  -1 14519.2 662.162  82
   2  -4  -1 14025.2 659.064  78
  -2   4   1 14787.8 667.460  23
   2  -4  -1 15760.6 671.521  64
   2  -4  -1 14181.4 656.409  62
   2  -4  -1 13554.4 655.716  59
  -2   4   1 14717.4 669.713  22
  -2   4   1 14960.9 670.816   1
  -2   4   1 14462.4 672.548   6
  -2   4   0 11733.5 565.543  22
  -2   4   0 12446.3 572.968   1
  -2   4   0 12051.3 567.135   6
   2  -4   0 12045.5 567.127  64
   2  -4   0 11638.2 561.420  82
   2  -4   0 11772.4 560.728  72
  -2   4   0 12702.3 575.925  23
   2  -4   1 37.6720 34.8480  66
  -2   4  -1-11.4685 46.0202  19
   2  -4   1 105.544 50.9964  64
  -2   4  -1 31.3420 44.9572   1
  -2   4  -1 11.2108 42.6788  23
  -2   4  -1 8.61877 31.8932  14
   2  -4   1 20.4533 38.9343  72
  -2   4  -2 3520.37 238.180  23
   2  -4   2 3440.99 224.380  66
  -2   4  -2 3733.59 231.879   1
  -2   4  -2 3433.97 237.928  19
  -2   4  -2 3614.71 222.266  14
   2  -4   3 340.189 73.3081  70
   2  -4   3 340.888 68.0975  63
  -2   4  -3 190.681 68.1752  19
   2  -4   3 383.317 74.7205  66
  -2   4  -3 483.706 87.9423  23
   2  -4   4 97.0735 54.2807  70
  -2   4  -4 107.218 56.7051  19
   2  -4   4 27.3824 38.9154  63
   2  -4   4 57.4021 46.4798  66
   2  -4   5 1858.01 182.278  70
  -2   4  -5 1722.00 111.949  47
   2  -4   5 1664.51 175.171  66
  -2   4  -5 1548.38 104.254  40
  -2   4  -6 33.9150 29.9742  57
  -2   4  -6 57.5376 42.7695  47
   2  -4   6 18.8303 50.6939  70
   2  -4   6 19.1099 48.5058  66
  -2   4  -6 14.0490 40.0968  40
   2  -4   6 75.7313 61.2517  69
   2  -4   7 84.6268 71.0412  70
   2  -4   7 86.2639 64.1951  69
  -2   4  -7 69.8178 37.8621  58
  -2   4  -7 39.6604 44.6437  47
  -2   4  -7 15.2047 43.8903  40
  -2   4  -8 1182.16 91.3840  58
  -2   4  -8 1175.45 100.717  47
  -2   4  -8 1240.03 96.9578  40
  -2   4  -9 1120.78 86.7099  58
  -2   4  -9 1137.41 90.8128  40
  -2   4 -10 34.4060 36.2140  43
  -2   4 -10 35.5688 31.5366  58
  -2   4 -10 24.5192 38.9898  40
  -2   4 -11 1586.47 92.6691  58
  -2   4 -11 1569.21 93.3085  43
  -2   3  13 89.4038 24.6038  55
   2  -3 -13 89.1914 31.0561  45
  -2   3  12 1825.63 110.509  55
   2  -3 -12 1672.01 116.750  45
  -2   3  11 90.0500 34.1066  54
   2  -3 -11 83.5546 42.9581  45
  -2   3  10 82.3204 34.3140  54
   2  -3 -10 66.4492 43.5339  45
   2  -3  -9 28.6495 41.6551  45
  -2   3   8 52.3524 44.3305  38
  -2   3   8-5.62900 37.4600  34
  -2   3   8 59.4296 61.5671  16
  -2   3   7 290.100 76.9620  16
  -2   3   7 180.877 43.5071  34
   2  -3  -6 252.339 64.9695  82
  -2   3   6 272.805 67.7055  16
  -2   3   5 1215.06 123.858  16
  -2   3   5 1134.35 130.056   6
   2  -3  -5 1191.91 121.769  82
   2  -3  -5 950.109 107.959  86
   2  -3  -4 78.5126 40.6906  82
  -2   3   4 86.8756 40.9593  16
  -2   3   4 281.661 64.2576   6
   2  -3  -4 236.771 59.1001  86
   2  -3  -3 6892.06 349.791  77
   2  -3  -3 6720.80 346.353  71
   2  -3  -3 7699.01 362.193  59
  -2   3   3 6719.26 359.779  22
  -2   3   3 6936.61 346.262  16
   2  -3  -3 6793.30 351.810  82
  -2   3   3 7312.84 370.301   6
  -2   3   3 6753.86 347.248   1
  -2   3   2 3376.69 203.795  23
   2  -3  -2 3248.21 204.069  71
   2  -3  -2 3683.26 214.219  59
   2  -3  -2 3614.36 209.439  78
  -2   3   2 4045.50 228.522   6
   2  -3  -2 3691.59 212.687  82
  -2   3   2 3565.57 212.575   1
  -2   3   2 3993.92 223.431  22
  -2   3   1 1530.28 124.250   1
  -2   3   1 1450.13 120.685  22
   2  -3  -1 1604.87 119.990  78
   2  -3  -1 1377.57 111.353  64
   2  -3  -1 1541.45 119.159  82
  -2   3   1 1475.03 122.968   6
  -2   3   1 1572.85 119.016  23
   2  -3  -1 1469.24 116.986  72
  -2   3   0 828.702 93.9768  19
  -2   3   0 782.940 89.7854  23
   2  -3   0 910.785 87.2380  64
   2  -3   0 759.848 81.3113  72
  -2   3   0 746.241 88.2122   1
  -2   3   0 789.765 87.8555  22
  -2   3   0 991.522 94.5111   6
  -2   3  -1 1377.97 123.446  23
   2  -3   1 1637.39 118.989  70
   2  -3   1 1297.86 113.619  66
  -2   3  -1 1365.99 122.236  19
  -2   3  -1 1356.08 106.785  14
  -2   3  -1 1661.45 125.564   1
  -2   3  -2 28.8611 42.2990  23
   2  -3   2 8.64189 36.3853  70
  -2   3  -2 16.4385 39.0375   1
  -2   3  -2 51.6975 42.5247  19
   2  -3   2 27.0279 37.0593  66
  -2   3  -2 68.0125 36.5299  14
  -2   3  -3 1195.95 122.966  23
   2  -3   3 1253.47 118.536  69
  -2   3  -3 1161.43 127.370  19
   2  -3   3 1227.48 119.257  70
   2  -3   3 1333.18 124.635  66
   2  -3   4 2184.29 180.429  69
   2  -3   4 2234.97 179.090  66
   2  -3   4 2352.94 185.811  70
  -2   3  -4 2451.82 197.533  19
   2  -3   5 44.7212 51.9520  69
  -2   3  -5 80.0447 62.7312  19
   2  -3   5 145.546 57.0574  66
   2  -3   5 161.299 60.4176  70
   2  -3   6 34.5073 46.5147  70
   2  -3   6 154.936 61.8342  80
   2  -3   6 142.595 65.9848  69
  -2   3  -6 33.3572 38.3340  47
   2  -3   6 68.1242 55.1547  66
  -2   3  -6 87.3529 41.7406  40
   2  -3   7-40.2439 59.8685  80
   2  -3   7 19.8002 53.2871  70
   2  -3   7 20.7038 49.1396  69
   2  -3   7 19.5420 49.5846  66
  -2   3  -7 4.44344 33.8235  58
  -2   3  -7-31.7238 42.6882  47
  -2   3  -7 4.85832 41.5757  40
   2  -3   8 111.857 75.1026  80
   2  -3   8 87.2149 73.1977  70
  -2   3  -8 23.9192 34.0887  58
  -2   3  -8 16.7961 42.3413  47
  -2   3  -8 25.7397 43.5876  40
  -2   3  -9 514.639 61.4127  58
  -2   3  -9 585.156 68.8443  40
  -2   3  -9 581.466 68.3059  47
  -2   3 -10 311.783 48.9249  58
  -2   3 -10 525.823 61.1523  40
  -2   3 -11 227.091 38.5688  58
  -2   3 -12 4.27812 19.6636  58
   2  -2 -13-19.0394 31.3865  45
   2  -2 -12 83.3450 43.9211  45
   2  -2 -11 192.174 52.7445  45
   2  -2 -10 317.350 59.6082  45
  -2   2   9 2877.59 255.349  84
   2  -2  -9 3133.58 274.406  21
  -2   2   9 2834.23 255.898  16
   2  -2  -9 2903.16 178.155  45
   2  -2  -8 227.565 78.1716  21
  -2   2   8 88.8642 42.5960  34
   2  -2  -8 213.962 45.8353  30
   2  -2  -8 112.811 41.3349  45
  -2   2   8 165.157 71.9881  16
  -2   2   8 177.757 69.7468  84
   2  -2  -7 1286.81 146.540  21
  -2   2   7 848.932 120.860  16
  -2   2   7 1002.24 128.515  84
  -2   2   6 417.194 82.8269  84
   2  -2  -6 340.100 71.9919  82
  -2   2   6 332.950 73.9931  16
  -2   2   5 968.988 105.617  84
  -2   2   5 1110.44 114.567  16
   2  -2  -5 1111.23 115.213  25
  -2   2   5 897.110 107.096   6
   2  -2  -5 1003.00 106.706  82
  -2   2   4 28588.9 1165.00  84
   2  -2  -4 27450.4 1168.40  82
  -2   2   4 27659.2 1172.76  16
  -2   2   4 27621.5 1176.75   6
   2  -2  -4 27021.1 1169.49  25
  -2   2   4 27815.5 1169.42  22
   2  -2  -3 591.850 72.8212  59
   2  -2  -3 549.769 71.0033  82
  -2   2   3 508.978 74.6089  22
   2  -2  -3 555.923 62.6738  71
  -2   2   3 587.026 68.9576  16
  -2   2   3 465.651 65.1344   1
  -2   2   3 581.796 72.2017   6
   2  -2  -3 560.434 69.4149  25
   2  -2  -2 46361.6 1824.43  78
   2  -2  -2 44311.8 1819.23  71
   2  -2  -2 44816.3 1831.34  59
  -2   2   2 44718.8 1826.74   1
  -2   2   2 44034.2 1815.02  23
  -2   2   2 46018.0 1838.27   6
  -2   2   2 45783.8 1837.35  22
   2  -2  -2 45556.1 1832.53  82
   2  -2  -1 17899.4 758.803  89
  -2   2   1 19266.9 774.552  19
   2  -2  -1 18146.1 764.767  72
   2  -2  -1 17971.5 756.078  64
  -2   2   1 17718.4 769.069   1
   2  -2  -1 18043.2 768.531  82
  -2   2   1 18362.4 776.500   6
  -2   2   1 17127.1 771.097  22
  -2   2   0 6799.98 322.475  19
   2  -2   0 6781.66 313.202  72
  -2   2   0 6273.78 314.907   1
   2  -2   0 6449.27 309.261  89
  -2   2   0 6175.17 314.299  22
   2  -2   1 158.145 41.8600  66
  -2   2  -1 160.399 52.1170  19
  -2   2  -1 169.926 46.3020   1
  -2   2  -1 162.803 34.7378  14
   2  -2   1 160.755 45.1284  70
   2  -2   2 5263.41 270.558  69
   2  -2   2 4805.58 264.916  66
  -2   2  -2 5205.42 259.693   1
  -2   2  -2 5003.76 280.201  19
   2  -2   2 5100.02 269.327  70
   2  -2   3 809.545 90.3515  80
  -2   2  -3 895.712 105.907  19
   2  -2   3 766.788 91.7137  70
   2  -2   3 725.176 89.1759  69
   2  -2   3 761.648 92.8818  12
   2  -2   3 858.343 92.5166  66
   2  -2   4 11643.4 578.092  76
   2  -2   4 11806.3 585.362  70
  -2   2  -4 12875.5 607.644  19
   2  -2   4 12629.5 595.195  69
   2  -2   4 12187.9 583.626  66
   2  -2   4 13450.7 600.598  12
   2  -2   4 12294.7 588.287  80
   2  -2   5 288.300 75.6842  80
   2  -2   5 257.371 67.1858  76
   2  -2   5 264.267 71.9325  70
   2  -2   5 209.154 64.6853  69
  -2   2  -5 515.954 93.9481  19
   2  -2   5 267.156 63.4304  66
   2  -2   5 257.630 66.3854  12
   2  -2   6 50.1139 49.7035  80
   2  -2   6 15.8694 49.3181  76
   2  -2   6-15.7259 52.7875  70
   2  -2   6-16.7947 52.1932  69
  -2   2  -6 89.1931 69.7558  19
   2  -2   6 30.2025 44.9334  66
  -2   2  -7 528.187 57.0133  56
   2  -2   7 513.383 113.666  80
   2  -2   7 378.080 91.7709  76
   2  -2   7 493.961 101.663  70
  -2   2  -8 233.187 53.7741  40
   2  -2   8 222.953 82.9431  80
   2  -2   8 108.307 73.2501  76
   2  -2   8 143.306 71.6824  70
  -2   2  -8 318.663 48.5689  58
  -2   2  -9 777.801 70.7312  58
  -2   2  -9 673.588 75.7295  40
   2  -2   9 729.115 136.445  80
  -2   2 -10 262.241 44.9115  58
  -2   2 -10 276.191 53.7467  40
  -2   2 -11 39.4487 29.3499  58
  -2   2 -12 12.0646 21.8662  58
   2  -1 -14 21.2662 20.5927  45
   2  -1 -13 106.520 37.7523  45
   2  -1 -12 106.248 43.9711  45
  -2   1  11 10813.2 628.095  84
   2  -1 -11 11500.7 516.680  45
   2  -1 -10 554.988 75.7928  45
  -2   1  10 301.813 92.4169  84
  -2   1   9 9627.42 557.191  84
   2  -1  -9 10037.9 580.048  21
  -2   1   9 9074.04 552.354  16
   2  -1  -9 9864.87 444.623  30
   2  -1  -9 10507.2 461.026  45
   2  -1  -8 440.322 96.5455  21
   2  -1  -8 430.229 55.6577  30
  -2   1   8 581.461 104.754  16
  -2   1   8 541.244 102.527  84
   2  -1  -8 596.591 69.0366  45
   2  -1  -7-15.3053 45.5410  21
  -2   1   7-14.3381 46.3794  16
  -2   1   7-14.0774 39.9389  84
  -2   1   6-22.8924 38.4209  84
   2  -1  -6 45.0942 42.9077  82
  -2   1   6-23.6093 38.1827  16
  -2   1   6-10.3571 40.5001  93
   2  -1  -5-9.21854 35.1021  82
  -2   1   5 78.7120 52.0532  93
   2  -1  -5 39.8306 39.9632  25
  -2   1   5 45.6151 39.2642  84
  -2   1   4 13771.8 590.350  84
   2  -1  -4 12177.0 579.379  83
   2  -1  -4 13917.9 596.478  82
  -2   1   4 12778.4 586.251  93
  -2   1   4 13242.9 590.303   6
  -2   1   4 13292.6 584.810  22
   2  -1  -4 13699.5 602.826  25
  -2   1   3 2341.51 143.609  84
  -2   1   3 2572.93 154.217  22
   2  -1  -3 2521.67 153.898  59
  -2   1   3 2798.75 158.449   6
   2  -1  -3 2295.00 149.172  82
  -2   1   3 2725.72 156.404  93
   2  -1  -2 2109.00 128.548  82
   2  -1  -2 1938.42 119.222  78
  -2   1   2 2219.52 134.086  20
  -2   1   2 2093.15 125.249  18
  -2   1   2 2083.50 117.804  17
   2  -1  -2 1975.22 127.086  59
  -2   1   2 2139.72 126.876  93
   2  -1  -2 1958.46 116.869  13
  -2   1   2 2238.00 135.565   6
   2  -1  -1 786.269 71.7931  82
  -2   1   1 836.871 76.4313  20
   2  -1  -1 973.065 63.5294  64
  -2   1   1 895.747 68.1941  18
  -2   1   1 829.639 71.0635  17
   2  -1  -1 918.153 75.7518  89
  -2   1   1 919.441 76.0036  19
  -2   1   0 71567.6 2884.18  19
  -2   1   0 73477.7 2877.00  20
   2  -1   0 70398.0 2874.39  72
  -2   1   0 74092.1 2884.97  17
   2  -1   0 73077.2 2881.97  89
   2  -1   1 7562.80 358.918  66
   2  -1   1 7836.82 362.626  70
  -2   1  -1 7905.59 372.810  19
  -2   1  -1 7526.60 366.352  17
   2  -1   1 7947.56 358.843  80
   2  -1   1 8110.18 365.843  89
   2  -1   2-7.45498 32.0737  12
   2  -1   2-6.37574 30.2656  76
   2  -1   2 19.2611 28.7986  66
  -2   1  -2 7.02806 31.5242  17
   2  -1   2 13.5776 31.6456  80
   2  -1   2 6.78878 32.7966  70
  -2   1  -3 3176.85 198.041  17
   2  -1   3 3466.97 204.421  76
   2  -1   3 3252.73 200.376  70
   2  -1   3 3279.64 196.824  66
  -2   1  -3 3676.81 198.616   7
   2  -1   3 3282.94 209.251  80
   2  -1   3 3345.58 210.054  12
  -2   1  -3 3422.19 213.055  27
   2  -1   4 16105.8 752.383  80
   2  -1   4 16195.7 738.184  70
   2  -1   4 16405.9 745.049  76
   2  -1   4 16177.6 746.919  69
   2  -1   4 16278.2 731.572  66
  -2   1  -4 16745.9 733.582   7
  -2   1  -4 15555.6 753.676  27
   2  -1   4 18122.6 760.782  12
   2  -1   5 20610.7 937.527  76
   2  -1   5 20146.2 924.733  70
  -2   1  -5 21634.3 930.356   7
  -2   1  -5 19716.4 949.011  27
   2  -1   5 22106.5 948.368  12
   2  -1   5 20186.2 938.941  80
   2  -1   6 426.907 94.9879  80
   2  -1   6 587.508 103.403  76
   2  -1   6 487.507 91.0267  70
  -2   1  -6 346.578 78.8540   7
  -2   1  -6 412.234 96.9147  27
   2  -1   6 732.106 108.441  12
   2  -1   7 524.985 110.420  80
   2  -1   7 606.116 112.948  76
  -2   1  -7 660.165 61.4474  56
   2  -1   7 692.153 115.343  12
  -2   1  -7 897.049 144.299  27
  -2   1  -7 557.264 104.314   7
  -2   1  -8 860.229 71.9168  58
   2  -1   8 629.698 122.589  76
  -2   1  -8 828.055 71.7267  56
   2  -1   8 706.347 136.505  80
  -2   1  -8 808.849 145.928  27
  -2   1  -9 28.7831 33.9022  58
   2  -1   9 23.4688 86.8116  80
  -2   1 -10 112.567 34.4134  58
  -2   1 -10 28.0692 42.7039  40
  -2   1 -11 92.2588 28.5132  58
  -2   1 -12 88.7595 26.1688  58
   2   0 -14 734.359 55.3562  45
   2   0 -13 1452.30 101.094  45
   2   0 -12 33.0373 39.2652  47
   2   0 -12-6.51972 36.5273  45
  -2   0  11 1654.67 196.766  84
   2   0 -11 1610.38 126.455  45
  -2   0  10 2559.60 240.882  84
   2   0 -10 2233.82 146.408  30
   2   0 -10 2500.14 159.004  45
   2   0  -9 967.975 151.140  21
   2   0  -9 1142.23 94.7143  30
  -2   0   9 1449.40 170.952  84
   2   0  -9 1426.24 172.284  13
   2   0  -9 1208.90 103.574  45
  -2   0   8 4133.81 288.746  84
   2   0  -8 4073.71 296.284  21
  -2   0   8 3205.69 263.711  16
   2   0  -8 3822.29 199.138  30
   2   0  -8 4157.25 212.514  45
  -2   0   7 8801.92 454.794  84
   2   0  -7 8242.07 456.123  21
  -2   0   7 7822.42 445.336  16
  -2   0   7 8311.58 433.258  93
  -2   0   6 5037.22 282.307  84
   2   0  -6 4234.43 273.890  25
  -2   0   6 4404.57 263.442  93
  -2   0   5 1266.72 111.743  93
  -2   0   5 1293.62 119.202  84
   2   0  -5 1211.74 111.822  82
   2   0  -5 1403.10 123.201  25
  -2   0   4 1077.52 96.7657  84
  -2   0   4 1112.52 96.8516  81
  -2   0   4 1077.66 94.9611  73
  -2   0   4 1170.22 102.610  18
   2   0  -4 980.415 93.0875  83
   2   0  -4 1025.15 94.2029  13
  -2   0   4 990.062 92.4339  93
   2   0  -4 1036.50 92.5483  82
   2   0  -4 1020.90 99.8390  25
   2   0  -3 4637.81 232.359  82
  -2   0   3 4692.69 236.996  20
  -2   0   3 4425.38 229.148  73
   2   0  -3 4522.92 237.771  13
   2   0  -3 4723.86 238.551  83
  -2   0   3 5080.79 244.241  18
  -2   0   3 4465.39 234.015  93
  -2   0   3 4471.14 234.462  81
  -2   0   2 12145.1 521.220  87
   2   0  -2 12164.9 515.532  59
  -2   0   2 11998.2 523.540  20
  -2   0   2 12407.8 520.146  81
   2   0  -2 11668.8 512.853  82
  -2   0   2 12241.5 509.116  67
  -2   0   2 12193.0 511.901  73
   2   0  -2 11445.8 519.057  13
   2   0  -1 72485.0 2864.03  79
  -2   0   1 72240.4 2853.99  19
  -2   0   1 73737.5 2877.30  24
  -2   0   1 72106.5 2844.74  67
  -2   0   1 71156.4 2869.16  87
   2   0  -1 71656.9 2868.93  89
  -2   0   1 72699.4 2859.72  81
   2   0   0 218848. 8507.86  79
  -2   0   0 218970. 8508.72  87
  -2   0   0 208227. 8499.34   5
   2   0   0 219670. 8492.41  72
  -2   0   0 214921. 8514.71  24
   2   0   0 220294. 8508.73  89
   2   0   1 62104.0 2478.51  80
  -2   0  -1 62917.5 2459.80   8
  -2   0  -1 61706.2 2465.69  87
  -2   0  -1 61347.0 2481.47  91
  -2   0  -1 61824.2 2476.53  24
   2   0   1 61467.6 2472.87  89
  -2   0  -2 10855.4 484.844  24
  -2   0  -2 10844.9 498.269  91
   2   0   2 10505.9 482.986  70
   2   0   2 10461.5 475.457  66
   2   0   2 11436.4 500.007  80
  -2   0  -2 10465.7 491.775  17
   2   0   2 11702.6 500.077  12
  -2   0  -2 10235.8 491.910  27
  -2   0  -2 11182.4 476.726   8
   2   0   3 11494.9 515.429  80
   2   0   3 10927.4 506.414  76
   2   0   3 10487.8 493.307  70
  -2   0  -3 10251.6 508.126  27
  -2   0  -3 10559.3 509.611  91
  -2   0  -3 10209.9 496.842  17
  -2   0  -3 11326.2 491.199   8
   2   0   3 11114.5 514.941  12
   2   0   4 2220.24 169.259  76
   2   0   4 2013.01 166.817  80
  -2   0  -4 2021.27 156.819   7
  -2   0  -4 2553.37 178.610  91
   2   0   4 2386.78 163.005  70
   2   0   4 2567.18 179.960  12
  -2   0  -4 1952.17 164.726  27
   2   0   5 5904.05 348.476  76
   2   0   5 5867.90 350.931  80
  -2   0  -5 6153.30 342.468   7
   2   0   5 6421.81 360.561  12
  -2   0  -5 5977.57 357.976  27
  -2   0  -5 5872.24 347.691  91
   2   0   6 885.637 120.467  76
  -2   0  -6 890.257 133.539  27
  -2   0  -6 895.657 117.571   7
   2   0   6 781.966 119.998  12
   2   0   6 920.119 130.451  80
   2   0   7 2284.16 222.440  80
   2   0   7 2638.23 229.288  76
  -2   0  -7 2285.89 128.312  56
  -2   0  -7 2496.55 220.194   7
  -2   0  -7 2346.66 232.694  27
  -2   0  -7 2052.90 144.846  45
   2   0   7 2301.04 220.198  12
   2   0   8 5203.90 379.423  76
  -2   0  -8 5467.12 255.010  56
  -2   0  -8 4891.20 275.679  45
  -2   0  -8 5940.22 411.554  27
   2   0   8 6013.46 396.407  80
  -2   0  -9 2970.77 155.724  58
  -2   0  -9 2608.83 149.548  56
  -2   0  -9 2559.35 172.242  45
   2   0   9 3218.24 280.775  80
  -2   0 -10 1988.87 119.521  58
  -2   0 -11 4743.47 221.929  58
  -2   0 -12 62.7349 25.4866  58
  -2  -1  14 397.975 35.3907  39
   2   1 -13 1580.76 98.9069  47
   2   1 -12 1634.34 108.462  47
   2   1 -12 1461.47 110.721  45
  -2  -1  11 3817.40 315.553  84
   2   1 -11 4020.00 220.134  45
  -2  -1  10 767.450 132.543  84
   2   1 -10 642.368 73.3819  30
   2   1 -10 747.723 81.9195  45
  -2  -1   9 3285.88 272.725  84
   2   1  -9 3283.69 282.052  21
   2   1  -9 3410.17 184.515  30
   2   1  -9 3185.65 277.352  13
   2   1  -9 3414.78 193.998  45
  -2  -1   8 5715.14 362.715  84
   2   1  -8 5262.20 358.183  21
   2   1  -8 5570.87 267.237  30
   2   1  -8 5613.50 367.186  13
   2   1  -8 5793.81 279.936  45
  -2  -1   7 2172.38 184.716  84
   2   1  -7 1897.08 176.558  21
  -2  -1   7 1919.20 169.430  68
   2   1  -7 1537.01 169.619  13
  -2  -1   6 20785.6 941.273  84
   2   1  -6 21171.8 938.224  25
   2   1  -6 21544.6 944.910  13
  -2  -1   6 20016.8 918.714  81
  -2  -1   6 21927.2 929.693  93
  -2  -1   5 2031.51 149.821  73
   2   1  -5 1953.97 150.655  25
  -2  -1   5 1975.51 149.830  18
   2   1  -5 1900.44 149.887  13
  -2  -1   5 1948.27 146.430  93
  -2  -1   5 1853.51 142.578  81
  -2  -1   4 2345.81 152.972  67
   2   1  -4 2060.43 141.005   9
  -2  -1   4 2120.01 152.344  18
  -2  -1   4 2433.46 154.537  81
   2   1  -4 2389.35 157.414  83
   2   1  -4 2308.21 157.521  13
  -2  -1   4 2392.62 154.672  73
   2   1  -4 2414.51 158.853  25
  -2  -1   3 3037.60 171.373  81
  -2  -1   3 2883.40 165.122  87
  -2  -1   3 2709.04 161.631  67
  -2  -1   3 2530.93 156.998  61
  -2  -1   3 2939.29 166.795  73
   2   1  -3 2798.24 162.517  10
   2   1  -3 2972.47 158.710   9
   2   1  -3 2970.45 172.688  13
  -2  -1   3 2896.16 163.626  20
   2   1  -3 2744.74 167.015  83
  -2  -1   2 132.731 36.1531  24
   2   1  -2 60.5650 40.9524  10
  -2  -1   2 167.167 32.8071  61
   2   1  -2 123.472 32.0456   9
  -2  -1   2 56.8076 34.4503  87
   2   1  -2 109.833 39.0398  13
   2   1  -2 94.4650 37.0162  83
   2   1  -1 26827.3 1109.36  10
  -2  -1   1 27101.1 1109.34  87
  -2  -1   1 25664.8 1105.85   5
  -2  -1   1 28493.9 1118.69  24
  -2  -1   0 476.568 57.4426   5
   2   1   0 347.328 56.5602  10
   2   1   0 416.083 49.3630  12
   2   1   0 374.573 47.8617  89
   2   1   0 389.509 53.5826  79
  -2  -1   0 509.435 59.7204  87
   2   1   1 5813.89 294.368  10
  -2  -1  -1 6114.65 307.060  91
   2   1   1 6459.92 303.761  12
  -2  -1  -1 6604.31 299.870  87
  -2  -1  -2 29994.6 1223.34   8
  -2  -1  -2 30212.3 1241.05  91
   2   1   2 30193.1 1234.38  12
  -2  -1  -2 28817.3 1222.81  27
   2   1   2 28768.9 1235.43  80
   2   1   3 3478.78 226.540  80
  -2  -1  -3 3575.08 213.747   8
  -2  -1  -3 4003.55 235.649  91
  -2  -1  -3 3522.78 219.729  27
   2   1   3 4097.76 233.925  12
   2   1   4 34.8472 40.3904  12
  -2  -1  -4 59.5529 37.8115   8
  -2  -1  -4 81.8200 48.0787  91
  -2  -1  -4 88.7119 50.7498  27
   2   1   4-11.7088 43.3387  80
   2   1   5 8383.65 436.495  12
  -2  -1  -5 7680.71 426.496  27
   2   1   5 7291.13 421.888  80
  -2  -1  -5 7431.65 423.003  91
  -2  -1  -6 1389.64 151.052   7
   2   1   6 1661.41 167.498  80
  -2  -1  -6 1156.12 150.995  27
  -2  -1  -6 1138.42 142.038  91
   2   1   6 1389.85 156.427  12
  -2  -1  -7 2924.22 154.632  56
  -2  -1  -7 3359.64 261.984   7
   2   1   7 3175.58 265.938  12
  -2  -1  -7 2693.18 175.051  45
   2   1   7 3001.27 253.737  80
  -2  -1  -8 1408.59 94.0648  56
   2   1   8 1605.19 188.752  80
  -2  -1  -8 1123.50 110.020  45
   2   1   9 9782.64 430.123  39
   2   1   9 9852.45 572.505  80
  -2  -1  -9 8997.86 445.361  45
   2   1  10 340.992 50.9106  39
  -2  -1 -10 328.785 48.6458  58
   2   1  11 4717.59 224.608  39
  -2  -1 -11 4640.76 217.363  58
  -2  -1 -12 994.131 62.5263  58
   2   2 -13 74.0552 34.3401  47
   2   2 -12-9.57117 39.1133  47
   2   2 -11 22.5439 38.5837  30
   2   2 -11 72.6736 49.4529  47
  -2  -2  10 557.392 118.599  84
  -2  -2  10 614.521 125.970  76
   2   2 -10 798.839 79.4056  30
  -2  -2   9 259.373 86.8398  84
   2   2  -9 365.079 55.3556  30
   2   2  -9 343.542 99.0921  13
  -2  -2   8 1753.67 187.374  68
   2   2  -8 2171.01 126.973  30
   2   2  -8 1805.27 198.515  13
  -2  -2   8 2056.57 200.134  84
   2   2  -7 78.5847 56.4199  13
  -2  -2   7 15.0862 44.9139  84
  -2  -2   7 42.1420 43.6823  73
  -2  -2   6 524.118 87.3018  73
  -2  -2   6 628.910 89.5378  81
   2   2  -6 637.213 89.4172   9
   2   2  -6 511.836 87.2418  13
  -2  -2   6 694.586 92.0084  93
  -2  -2   5 6008.15 350.511  67
   2   2  -5 7122.45 358.238   9
  -2  -2   5 7588.89 365.988  18
  -2  -2   5 6871.11 359.197  73
   2   2  -5 6731.99 364.260  13
  -2  -2   5 6624.58 351.541  81
  -2  -2   4 4067.80 231.545  81
  -2  -2   4 3910.71 231.865  67
   2   2  -4 4252.26 231.256   9
  -2  -2   4 3848.00 231.558  18
  -2  -2   4 4137.48 230.461  61
   2   2  -4 3749.25 235.145  13
   2   2  -3 81.6570 41.0420  83
  -2  -2   3 22.3395 36.0787  74
  -2  -2   3 39.4605 28.4284  61
   2   2  -3 33.8766 32.2794   9
   2   2  -3 47.1810 39.9994  13
  -2  -2   3 71.2741 37.3838  87
   2   2  -2 1613.77 121.315  60
   2   2  -2 1641.71 113.257  83
   2   2  -2 1713.82 124.090  10
  -2  -2   2 1548.18 119.406  87
  -2  -2   2 1855.28 128.018  74
  -2  -2   2 1630.28 120.701  24
  -2  -2   1 19477.7 833.858  87
  -2  -2   1 19228.8 834.987   5
   2   2  -1 19667.4 833.632  10
  -2  -2   1 19966.2 835.558  90
  -2  -2   1 19315.8 830.740  74
   2   2   0 27155.6 1118.04  10
   2   2   0 25165.6 1118.46  79
  -2  -2   0 27484.9 1115.65  74
  -2  -2   0 26565.9 1126.55  90
  -2  -2   0 25964.7 1116.61  87
  -2  -2   0 28198.3 1128.05   5
  -2  -2   0 27466.2 1116.95  91
  -2  -2  -1 49.3551 32.8310  74
   2   2   1 107.208 45.4453  10
  -2  -2  -1 92.2208 40.5729  90
  -2  -2  -1 102.853 45.5103  91
  -2  -2  -1 111.343 38.0497  87
   2   2   1 7.82297 33.7428  79
  -2  -2  -2 746.891 87.4632  91
   2   2   2 570.779 74.0903  12
  -2  -2  -2 573.605 74.8720   8
  -2  -2  -2 661.323 82.3331  90
  -2  -2  -3 7921.46 404.753   8
   2   2   3 8618.05 417.400  12
  -2  -2  -3 7573.37 404.346  90
  -2  -2  -3 8307.96 422.846  91
  -2  -2  -4 23974.3 1057.04  91
   2   2   4 22418.9 1048.48  80
  -2  -2  -4 24132.4 1043.85   8
   2   2   4 24385.8 1054.85  12
  -2  -2  -5 6171.96 364.759   8
   2   2   5 6127.51 373.553  12
  -2  -2  -5 5992.16 371.027  91
   2   2   5 6924.91 387.737  80
   2   2   6 1754.27 109.017  39
  -2  -2  -6 1761.56 116.988  33
  -2  -2  -6 1883.48 182.273  91
  -2  -2  -6 1338.12 114.469  45
   2   2   6 1848.23 188.972  12
   2   2   6 1444.13 166.519  80
   2   2   7 6390.22 296.406  39
  -2  -2  -7 6688.04 309.023  33
  -2  -2  -7 5926.88 282.388  56
  -2  -2  -7 6413.81 406.714   7
   2   2   7 7002.19 432.987  12
  -2  -2  -7 5423.31 304.838  45
   2   2   7 6307.56 403.595  80
   2   2   8 617.163 67.4191  39
  -2  -2  -8 610.092 60.6921  56
  -2  -2  -8 712.057 77.1124  33
   2   2   9 798.833 77.4934  39
   2   2  10 1131.13 86.6863  39
   2   2  11 64.2702 27.6218  39
  -2  -2 -11 99.8755 30.3371  58
  -2  -2 -12 1108.69 64.5492  58
   2   3 -13 3.17702 29.7555  47
   2   3 -12 615.839 68.2913  47
   2   3 -11 575.050 69.6394  47
  -2  -3  10 21.4520 60.8569  84
   2   3 -10 5.74708 44.6509  47
  -2  -3   9 8084.08 493.285  84
   2   3  -9 8144.92 372.776  30
  -2  -3   8 5174.43 360.534  84
  -2  -3   8 5591.24 370.721  68
   2   3  -8 5350.23 257.384  30
   2   3  -8 4998.80 358.688  13
   2   3  -7 239.857 70.7887   9
  -2  -3   7 232.060 75.2213  73
   2   3  -7 184.683 71.1557  13
  -2  -3   6 255.777 68.8080  73
  -2  -3   6 193.147 63.6407  67
   2   3  -6 217.552 65.0655   9
   2   3  -6 185.877 62.0619  13
  -2  -3   5 3687.11 232.578  81
  -2  -3   5 3834.25 241.255  73
   2   3  -5 3562.50 234.583   9
  -2  -3   5 3231.69 230.358  61
   2   3  -5 3359.11 233.403  13
  -2  -3   5 3493.93 235.346  67
  -2  -3   4 14883.8 676.676  67
  -2  -3   4 14756.6 670.485  74
  -2  -3   4 15201.4 674.903  61
   2   3  -4 13944.2 667.464   9
   2   3  -4 14615.9 674.241  13
   2   3  -3 3545.74 218.598  10
   2   3  -3 3655.49 222.637   9
  -2  -3   3 3766.67 221.490  61
  -2  -3   3 3535.94 222.836  74
  -2  -3   3 4010.73 227.584  87
  -2  -3   2 164.669 50.0097  24
   2   3  -2 195.541 55.2027  10
  -2  -3   2 117.805 45.5111  65
  -2  -3   2 35.5296 43.1731  74
  -2  -3   2 135.149 43.5603   5
   2   3  -1 84.4962 44.6919  10
  -2  -3   1 205.167 54.0874  65
  -2  -3   1 186.261 48.4480   5
  -2  -3   1 179.783 52.6785  90
  -2  -3   1 231.028 55.2157  74
  -2  -3   0 100.073 45.1154  74
   2   3   0 126.740 53.2516  10
  -2  -3   0 117.670 48.3943   5
  -2  -3   0 125.732 50.0475  90
   2   3   1 1861.48 145.004  79
  -2  -3  -1 1992.97 140.049  74
  -2  -3  -1 1873.48 151.042  90
   2   3   1 1838.89 141.331  15
   2   3   1 1677.23 136.729  10
   2   3   2-10.1252 31.4664  15
  -2  -3  -2 11.3806 38.2010  90
  -2  -3  -2-41.4850 38.3618   8
   2   3   2-20.6515 35.8767  79
  -2  -3  -2 5.53367 18.7417  95
   2   3   3-23.4430 34.8764  79
  -2  -3  -3-12.3785 40.0394  90
  -2  -3  -3 35.5381 31.8824   8
  -2  -3  -3 12.0891 17.5742  95
  -2  -3  -3 39.3417 44.0190  91
   2   3   4 201.723 62.2736  79
   2   3   4 253.372 67.5173  12
  -2  -3  -4 342.839 77.4357   8
  -2  -3  -4 227.551 68.7302  91
  -2  -3  -4 248.203 34.4473  96
   2   3   5 2313.60 200.944  12
  -2  -3  -5 1938.68 181.323   8
   2   3   6 3520.70 181.641  39
  -2  -3  -6 3378.81 271.767  91
   2   3   6 3679.62 283.329  12
   2   3   6 3517.43 277.645  11
  -2  -3  -6 2767.03 185.144  45
  -2  -3  -6 3385.39 188.151  33
   2   3   7 1720.55 116.025  39
  -2  -3  -7 1768.08 126.157  33
  -2  -3  -7 1655.21 105.076  56
  -2  -3  -7 1547.13 126.600  45
  -2  -3  -7 1670.22 195.656  91
   2   3   8 722.923 72.8238  39
  -2  -3  -8 703.081 81.8668  33
   2   3   9 8821.08 391.101  39
  -2  -3  -9 8202.18 395.636  33
   2   3  10 5376.92 250.557  39
  -2  -3 -10 4968.89 252.846  33
  -2  -3 -11 27.8194 23.7004  58
   2   4 -13 1093.70 69.2769  47
   2   4 -12 166.194 41.8218  47
   2   4 -11 4133.73 209.736  31
   2   4 -11 4489.05 218.146  47
   2   4 -10 1883.61 125.732  47
  -2  -4   9 7646.20 477.660  84
   2   4  -9 7382.39 346.301  47
  -2  -4   8 18.9269 65.7721  73
   2   4  -8-5.20801 35.2969  46
  -2  -4   8-80.7092 62.7160  84
  -2  -4   7 2330.72 217.998  67
  -2  -4   7 2182.74 206.475  73
   2   4  -7 2186.23 214.200   9
   2   4  -7 2307.31 135.662  46
  -2  -4   6 10862.9 566.204  67
   2   4  -6 10185.7 559.651   9
  -2  -4   6 10869.4 560.429  73
  -2  -4   5 1126.68 132.597  67
   2   4  -5 1353.83 142.255   9
  -2  -4   5 1393.65 146.160  61
   2   4  -5 1057.50 129.147  13
   2   4  -4 4056.15 266.910   9
  -2  -4   4 3958.40 265.396  61
  -2  -4   4 4334.65 269.786  74
   2   4  -3 9622.79 469.421  10
  -2  -4   3 9157.01 471.444  65
  -2  -4   3 9527.84 476.628  74
  -2  -4   3 8821.19 476.074   5
  -2  -4   2 140.006 48.6041  75
   2   4  -2 141.724 60.5256  10
  -2  -4   2 215.828 62.2172  74
  -2  -4   2 81.6389 43.4705  65
  -2  -4   2 158.331 51.5273   5
   2   4  -1 21923.2 930.389  10
  -2  -4   1 21465.4 929.619  74
  -2  -4   1 19515.6 923.805  65
  -2  -4   1 20617.2 929.346  90
  -2  -4   1 21220.3 939.548   5
  -2  -4   0 6221.94 353.065  65
  -2  -4   0 6951.18 372.040   5
  -2  -4   0 6571.16 366.234  90
  -2  -4   0 6770.31 357.333  74
   2   4   0 6648.97 357.332  10
  -2  -4   0 6210.82 354.075  88
   2   4   1-21.8462 46.9951  10
  -2  -4  -1 10.6565 37.0262  74
   2   4   1 23.3065 36.2151  15
  -2  -4  -1 13.1512 42.5387  90
   2   4   2 65.3090 42.3926  15
  -2  -4  -2 102.820 47.6670   8
  -2  -4  -2 113.210 53.9727  90
  -2  -4  -3 9417.15 477.941  85
  -2  -4  -3 8987.31 473.202   8
   2   4   3 8689.27 477.533  15
  -2  -4  -3 8487.17 376.119  95
  -2  -4  -3 8953.90 479.401  90
  -2  -4  -3 8564.24 476.075  91
  -2  -4  -4 25774.8 1073.44  95
  -2  -4  -4 26209.4 1194.98   8
   2   4   4 27787.5 1210.04  15
  -2  -4  -4 26087.9 1211.08  91
  -2  -4  -4 28823.6 1208.64  90
   2   4   4 27159.8 1209.17  11
  -2  -4  -5 5330.33 271.420  33
  -2  -4  -5 5646.33 363.485   8
   2   4   5 5338.85 263.977  55
   2   4   5 4897.78 357.385  15
  -2  -4  -5 5583.50 257.550  96
   2   4   5 5642.53 377.013  11
   2   4   5 5285.84 263.875  39
   2   4   6 2863.73 168.223  39
  -2  -4  -6 3007.68 177.160  33
   2   4   6 3114.32 171.182  55
   2   4   6 2541.81 253.175  15
  -2  -4  -6 2939.52 265.060  91
   2   4   7 5943.45 295.031  39
  -2  -4  -7 6075.97 306.108  33
   2   4   7 6133.95 296.864  55
  -2  -4  -7 6281.90 421.697  91
   2   4   8 411.761 58.0629  39
  -2  -4  -8 345.801 58.8666  33
  -2  -4  -9 6573.00 316.885  33
   2   4   9 6483.84 306.763  39
  -2  -4 -10-14.5736 27.9098  33
  -2  -4 -11 1273.16 77.1067  33
  -2  -4 -11 1117.47 67.0063  58
   2   5 -12 3943.28 179.537  31
   2   5 -12 3768.02 182.124  47
   2   5 -11 3127.80 161.237  31
   2   5 -10 982.922 82.4397  31
   2   5 -10 850.743 77.2786  46
   2   5  -9 594.988 60.4033  52
   2   5  -9 352.252 55.8926  46
  -2  -5   8 824.414 136.907  84
   2   5  -8 698.997 69.6872  52
   2   5  -8 688.326 73.6573  46
  -2  -5   7 1963.33 206.322  73
   2   5  -7 2119.00 136.077  48
   2   5  -7 2229.98 128.793  52
   2   5  -7 2176.35 134.311  46
   2   5  -6 6501.42 293.347  42
  -2  -5   6 6637.41 404.936  73
  -2  -5   6 6557.98 410.823  67
   2   5  -6 6627.80 301.191  48
   2   5  -6 5590.53 293.062  46
   2   5  -6 6475.82 286.625  28
  -2  -5   5 287.930 80.9888  67
   2   5  -5 240.447 49.2097  48
   2   5  -5 238.548 39.0641  28
   2   5  -5 264.430 47.0942  42
  -2  -5   4 660.615 114.285   5
  -2  -5   4 1069.54 131.905  74
   2   5  -3 692.635 105.709  10
  -2  -5   3 503.325 96.0156  74
  -2  -5   3 394.545 82.9878  65
  -2  -5   3 538.523 96.3538   5
  -2  -5   2 1102.07 135.562  65
  -2  -5   2 1355.10 146.214  74
  -2  -5   2 1108.85 135.448   5
   2   5  -2 1429.73 150.696  10
  -2  -5   1 1572.47 155.100  65
  -2  -5   1 1479.45 152.173  74
  -2  -5   1 1391.09 149.170   5
  -2  -5   1 1148.90 140.983  90
   2   5  -1 1522.52 154.624  10
  -2  -5   0 30.8402 47.9229  90
  -2  -5   0-13.8590 51.2647  74
   2   5   0 27.9409 51.6767  10
  -2  -5   0 58.3425 41.3811  65
   2   5   1 11128.5 551.705  10
  -2  -5  -1 10832.6 544.376  74
  -2  -5  -1 9944.05 544.088   8
  -2  -5  -1 10573.0 566.404  90
  -2  -5  -2 15257.9 747.970   8
   2   5   2 15415.8 759.485  15
  -2  -5  -2 15966.1 771.685  90
   2   5   2 14962.4 750.424  11
   2   5   3 18.3214 46.4877  11
   2   5   3 9.55924 47.7462  37
   2   5   3 5.96113 33.3964  32
  -2  -5  -3-51.4258 48.6288   8
   2   5   3-18.2465 40.0950  15
  -2  -5  -3 4.33245 25.7813  95
  -2  -5  -3-18.3798 49.4648  91
  -2  -5  -3 18.4684 46.8608  90
  -2  -5  -4 6996.97 414.636   8
   2   5   4 5558.21 396.893  15
   2   5   4 7009.71 351.632  37
  -2  -5  -4 5946.01 289.867  95
   2   5   4 6998.01 428.774  11
  -2  -5  -4 6052.47 407.147  91
  -2  -5  -4 7029.62 421.133  90
   2   5   5 64.4047 60.1513  37
   2   5   5 111.280 66.2322  15
  -2  -5  -5 21.9807 48.3201  91
  -2  -5  -5 13.4051 35.0873  33
  -2  -5  -6 10201.0 613.269  91
  -2  -5  -6 11011.0 493.698  33
  -2  -5  -7 4214.45 231.502  33
  -2  -5  -7 4490.08 345.390  91
  -2  -5  -8 1898.19 130.374  33
  -2  -5  -9 109.051 36.8498  33
  -2  -5 -10 354.621 44.1926  33
   2   6 -12 872.728 55.6322  31
   2   6 -11 476.947 50.1838  31
   2   6 -10 140.699 41.9080  31
   2   6 -10 93.6386 37.2866  46
   2   6  -9 33.5956 39.7001  31
   2   6  -9-4.33941 33.0388  52
   2   6  -9 35.5581 36.1761  46
   2   6  -8 1944.18 127.334  31
   2   6  -8 2024.36 123.259  52
   2   6  -8 2140.03 131.738  46
   2   6  -7 1243.67 96.4322  42
   2   6  -7 1345.96 96.2456  52
   2   6  -7 1325.15 108.137  48
   2   6  -7 1349.72 102.105  46
   2   6  -7 1348.69 91.2683  28
   2   6  -6 1154.01 89.6684  42
   2   6  -6 1207.22 99.9914  48
   2   6  -6 1019.13 90.0025  46
   2   6  -6 1063.43 82.6574  28
  -2  -6   6 1125.77 154.821  73
   2   6  -5 14517.8 614.935  48
   2   6  -5 14489.5 608.874  42
   2   6  -5 13639.6 609.293  46
   2   6  -5 14483.3 601.315  28
  -2  -6   4 2262.56 221.326  74
   2   6  -4 2333.36 139.890  42
   2   6  -4 2463.64 145.825  48
   2   6  -4 2589.92 136.768  28
   2   6  -3 7172.38 439.540  10
  -2  -6   3 7085.43 438.881  74
   2   6  -3 7419.44 328.310   4
  -2  -6   3 7753.38 452.670  65
   2   6  -3 7071.95 325.751  42
   2   6  -3 6854.85 328.153  48
   2   6  -3 7292.78 320.278  28
   2   6  -2 52.6102 59.0287  10
  -2  -6   2 53.5702 50.8486  74
  -2  -6   2 167.485 68.9733  65
   2   6  -2 99.6451 32.5701  28
   2   6  -2 118.886 32.8567  51
   2   6  -2 161.959 36.9274   4
  -2  -6   1 147.133 64.1771  65
   2   6  -1 315.193 90.4352  10
   2   6  -1 146.196 34.5624  51
   2   6  -1 148.424 36.5244   4
  -2  -6   1 158.185 72.4998  74
  -2  -6   1 107.568 66.5786  90
   2   6   0 87.4228 68.3916  10
  -2  -6   0 109.293 56.6328  65
   2   6   0 5.94358 32.4793  32
  -2  -6   0 86.4830 58.0833  74
   2   6   0 51.1366 28.6434   4
   2   6   0 32.5789 28.0618  51
  -2  -6   0 56.7478 53.6893  90
   2   6   1 886.763 104.902  37
   2   6   1 721.069 66.9058   4
   2   6   1 780.718 78.7691  32
  -2  -6  -1 690.002 113.700   8
   2   6   1 698.870 67.3643  51
  -2  -6  -1 735.644 124.378  90
   2   6   2 3835.94 220.670  32
  -2  -6  -2 4202.48 308.956   8
  -2  -6  -2 4456.46 329.248  90
   2   6   2 4611.29 260.602  37
   2   6   3 20070.0 835.395  37
   2   6   3 18055.5 786.683  32
  -2  -6  -3 18963.4 912.316   8
   2   6   3 17865.2 917.068  15
  -2  -6  -3 17897.9 768.875  95
  -2  -6  -3 19124.3 926.464  91
  -2  -6  -3 17864.9 916.020  90
   2   6   4 907.456 114.633  37
   2   6   4 814.482 86.6011  32
  -2  -6  -4 787.907 136.961  90
  -2  -6  -4 786.821 70.2576  95
  -2  -6  -4 919.605 149.943  91
   2   6   5 1525.77 148.532  37
  -2  -6  -5 1558.45 197.136  91
  -2  -6  -6 1758.78 126.259  33
   2   6   6 1946.98 161.964  37
  -2  -6  -6 1662.10 204.419  91
  -2  -6  -7 2335.00 147.561  33
  -2  -6  -7 2433.60 237.923  91
  -2  -6  -8 273.739 48.3023  33
  -2  -6  -9 8.42617 25.0723  33
  -2  -6 -10 40.0129 20.2239  33
   2   7 -11 4.37274 20.8501  31
   2   7 -10 2727.01 138.471  31
   2   7  -9 165.451 41.8611  31
   2   7  -9 140.054 36.1659  52
   2   7  -9 112.809 38.1188  46
   2   7  -8 130.032 35.8239  28
   2   7  -8 89.1195 42.2584  31
   2   7  -8 43.2241 33.5369  52
   2   7  -8 110.317 43.0522  46
   2   7  -7 155.449 43.7540  52
   2   7  -7 91.5629 40.9767  46
   2   7  -7 115.482 37.2920  28
   2   7  -6 1780.38 121.908  48
   2   7  -6 1689.82 115.277  46
   2   7  -6 1642.73 107.425  28
   2   7  -5 6298.07 294.546  48
   2   7  -5 5963.33 286.761  46
   2   7  -5 5786.99 277.779  28
  -2  -7   4 106.632 69.0278  74
   2   7  -4 84.9271 50.0899  48
   2   7  -4 48.7812 32.4225  28
  -2  -7   3 42.6119 71.5153  74
   2   7  -3 10.4612 30.7706   4
   2   7  -3-32.5664 46.9569  48
   2   7  -3 21.4869 31.3203  28
  -2  -7   2 168.886 80.7620  74
   2   7  -2 201.548 46.3638   4
   2   7  -2 226.738 41.8220  28
   2   7  -1 3101.02 167.737   4
  -2  -7   1 2789.65 260.127  74
   2   7  -1 2939.48 165.129  51
  -2  -7   0-20.4380 55.0039  74
   2   7   0 47.4989 37.0277  32
   2   7   0 10.6136 33.6636   4
   2   7   0-26.3911 32.4624  51
  -2  -7   0-21.9267 65.2382  90
   2   7   1 373.538 78.3490  37
   2   7   1 395.115 63.7689  32
   2   7   1 308.741 50.1632   4
   2   7   1 339.022 50.3407  51
  -2  -7  -1 341.390 98.8332  90
   2   7   2 952.437 117.545  37
   2   7   2 910.996 91.2409  32
   2   7   2 785.320 76.4634  51
   2   7   3 172.726 73.2833  37
   2   7   3 175.423 51.5535  32
  -2  -7  -3 149.900 36.4240  95
   2   7   3 116.769 38.4476  51
  -2  -7  -3 223.042 82.7100  91
  -2  -7  -3 163.895 75.9616  90
   2   7   4 7.14260 43.4635  32
  -2  -7  -4 25.8151 28.5603  95
   2   7   4 69.1268 64.5483  37
  -2  -7  -4 22.8552 57.9954  91
  -2  -7  -4-22.8287 57.9283  90
   2   7   5 5134.05 303.252  37
  -2  -7  -5 5653.97 391.692  91
   2   7   6-9.82551 49.8624  37
   2   7   7 1733.95 135.339  37
  -2  -7  -8 66.1838 29.3339  33
  -2  -7  -9 272.820 31.1194  33
   2   7   9 230.627 27.2485  51
   2   8  -9 2572.19 129.115  52
   2   8  -8 255.724 40.3104  52
   2   8  -8 215.853 42.4333  46
   2   8  -8 208.619 37.1569  28
   2   8  -7 422.697 48.6901  28
   2   8  -7 367.885 50.6974  52
   2   8  -7 481.759 56.2754  46
   2   8  -6 823.376 72.6855  52
   2   8  -6 956.514 88.3404  48
   2   8  -6 912.515 72.2035  28
   2   8  -5 2887.35 166.128  48
   2   8  -5 2826.75 152.920  28
   2   8  -4 2370.78 145.085  48
   2   8  -4 2292.71 131.420  28
   2   8  -3 235.471 46.0595   4
   2   8  -3 275.943 45.8913  28
  -2  -8   2 1454.14 187.682  87
   2   8  -2 1767.91 116.157   4
   2   8  -1 2290.91 137.823   4
  -2  -8   1 1953.29 219.760  87
   2   8   0 70.1737 45.0587  32
   2   8   0 93.0200 35.8640   4
   2   8   0 97.1235 35.3694  51
  -2  -8   0 131.968 73.8889  87
  -2  -8   0 22.9521 77.0999  90
   2   8   1 1071.16 88.4020   4
   2   8   1 1331.07 109.735  32
   2   8   1 1136.66 90.2606  51
  -2  -8  -1 1031.37 169.406  90
  -2  -8  -1 1341.52 95.4724  95
  -2  -8  -1 1261.56 168.201  87
   2   8   2 650.276 98.1226  37
   2   8   2 473.569 68.0585  32
   2   8   2 574.429 62.7589  51
  -2  -8  -2 394.038 53.8257  95
  -2  -8  -2 491.021 120.181  90
   2   8   3 1195.71 102.813  32
  -2  -8  -3 1087.44 164.465  90
   2   8   3 1142.57 89.5668  51
  -2  -8  -3 1317.30 92.8225  95
   2   8   3 1322.12 130.577  37
   2   8   4 153.038 68.1155  37
   2   8   4 115.242 45.2179  32
  -2  -8  -4 171.156 34.9381  95
   2   8   4 135.045 37.4034  51
   2   8   5-9.17707 50.0768  37
   2   8   5 5.56875 34.2483  32
   2   8   5 4.31620 26.2612  51
   2   8   6 480.556 73.1425  37
   2   8   6 423.956 45.5914  51
   2   8   7 128.855 42.8726  37
   2   8   7 108.044 24.2419  51
   2   9  -8 276.627 33.2147  52
   2   9  -8 218.172 28.8005  28
   2   9  -7 186.398 32.6286  52
   2   9  -7 191.305 30.8881  28
   2   9  -6 37.8073 28.1810  52
   2   9  -6 82.3111 30.5393  28
   2   9  -5 323.462 42.3636  28
   2   9  -4 804.482 76.8931  48
   2   9  -4 848.720 67.3176  28
   2   9  -3 1042.11 80.5872   4
   2   9  -2 727.729 68.7154   4
   2   9  -1-14.7943 30.6550   4
   2   9   0 206.286 48.5356  32
   2   9   0 216.058 42.4257   4
  -2  -9   0 237.544 41.5640  95
   2   9   1 479.061 64.9270  32
   2   9   1 489.157 54.1765   4
   2   9   1 547.682 57.9452  51
  -2  -9  -1 507.645 54.9729  95
   2   9   2 173.719 46.8207  32
  -2  -9  -2 107.677 31.8512  95
   2   9   2 138.647 35.3562  51
   2   9   3 33.2284 48.8697  37
   2   9   3-5.51973 35.0174  32
   2   9   3-7.95276 23.6677  51
  -2  -9  -3 44.8491 26.6328  95
   2   9   4 29.9639 44.5816  37
   2   9   4 33.5819 30.7433  32
   2   9   4 41.8073 25.0140  51
  -2  -9  -4-3.48383 20.7440  95
   2   9   5 990.334 90.5365  37
   2   9   5 863.501 68.3710  32
   2   9   5 1004.27 64.8898  51
   2   9   6 541.240 58.1616  37
   2   9   6 593.330 42.6408  51
   2  10  -6 4.04410 17.5160  52
   2  10  -6 43.9048 18.4430  28
   2  10  -5 214.106 31.7835  52
   2  10  -5 280.884 31.2750  28
   2  10  -4 335.881 38.7923  52
   2  10  -3 51.6954 25.6775   4
   2  10  -2 10.4550 26.5309   4
   2  10  -1 98.8350 31.1033   4
   2  10   0 67.4420 27.6846   4
   2  10   1 45.6722 30.3245  32
   2  10   1 54.1467 24.2179   4
   2  10   2 183.842 34.9446  32
   2  10   3 136.375 32.8021  32
  -3  11   1 611.602 44.9028   4
  -3  11   0 95.1248 22.1007   4
  -3  10   6 150.757 37.0243  37
  -3  10   6 174.056 28.1413  32
  -3  10   5 48.6992 26.3623  32
  -3  10   4 814.499 64.4208  32
   3 -10  -4 590.163 51.9090  96
  -3  10   3 82.5164 33.2027  32
  -3  10   3 61.0065 28.2444   4
   3 -10  -3 93.2546 26.8321  96
  -3  10   2 470.722 49.0929   4
  -3  10   2 501.320 56.3306  32
   3 -10  -2 375.175 44.3295  96
  -3  10   1 747.559 63.4649   4
  -3  10   0 1370.72 89.0235   4
  -3  10  -1 1412.41 89.2209   4
  -3  10  -2 1442.37 94.6272  48
  -3  10  -3 19.1145 34.6579  48
  -3  10  -4 583.586 50.7210  48
  -3   9   8 4117.42 193.230  37
   3  -9  -8 3382.33 168.521  33
  -3   9   7 786.406 64.5288  44
   3  -9  -7 716.474 55.7400  96
  -3   9   6 2520.30 141.254  32
   3  -9  -6 2733.45 138.048  96
  -3   9   6 2422.43 140.989  44
  -3   9   5 206.429 44.2189  32
   3  -9  -5 139.720 32.0743  96
  -3   9   5 223.569 44.9620  44
  -3   9   4 5.35353 32.5748  44
  -3   9   4-16.9581 32.4722  32
   3  -9  -4-13.7105 27.1978  96
  -3   9   3 17.7442 36.0097  32
  -3   9   3 44.8489 32.4621   4
  -3   9   2 944.018 77.7120   4
  -3   9   2 824.758 81.5027  32
  -3   9   2 681.983 69.4542  49
  -3   9   1 943.069 86.1564  32
  -3   9   1 917.265 79.0370  49
   3  -9  -1 932.560 147.327  92
  -3   9   0 128.178 40.1153  49
  -3   9  -1 3024.88 161.799   4
  -3   9  -1 2828.89 154.217  50
  -3   9  -2 674.082 62.9262   4
  -3   9  -2 572.163 59.7019  50
  -3   9  -3 1247.31 86.6083  50
  -3   9  -4 453.462 51.0629  50
  -3   9  -4 461.257 57.7708  48
  -3   9  -4 494.815 53.8083  42
  -3   9  -5 1343.30 84.1141  42
  -3   9  -6 978.740 65.2212  42
  -3   9  -7 167.693 25.1454  42
   3  -8  -9 407.754 45.9487  33
   3  -8  -8 857.362 72.2635  33
   3  -8  -8 699.309 59.0076  96
  -3   8   8 853.319 69.5320  44
   3  -8  -7-5.64471 30.8174  33
  -3   8   7 47.8783 32.3823  44
   3  -8  -7 42.8293 25.7926  96
  -3   8   6 22.6385 34.1600  32
  -3   8   6 113.174 43.1609  44
   3  -8  -6 81.5211 31.1324  96
   3  -8  -5 708.116 67.1105  96
  -3   8   5 587.438 71.4113  44
  -3   8   5 739.321 77.3320  32
   3  -8  -5 554.787 116.159  92
  -3   8   4 986.773 91.2983  32
   3  -8  -4 1014.98 156.225  88
  -3   8   4 842.168 88.1802  44
   3  -8  -4 906.595 144.789  92
   3  -8  -4 906.212 146.084  86
  -3   8   3 626.539 75.6581  44
  -3   8   3 680.079 78.6590  32
   3  -8  -3 381.280 105.166  92
   3  -8  -3 578.012 118.565  86
   3  -8  -2 7134.13 472.972  77
   3  -8  -2 7207.35 462.621  86
  -3   8   2 8133.04 352.723  32
  -3   8   2 6613.84 328.963  49
   3  -8  -1 10393.3 646.195  77
  -3   8   1 10989.9 507.776  49
   3  -8  -1 10417.8 634.783  86
   3  -8   0 666.049 126.426  86
   3  -8   0 819.905 140.506  77
  -3   8   0 684.855 72.5911  49
   3  -8   1 9040.56 574.067  77
  -3   8  -1 9760.37 429.792  50
  -3   8  -1 9935.11 436.821  49
  -3   8  -2 368.273 53.5720  50
  -3   8  -2 391.964 56.3634  49
  -3   8  -3 3004.30 164.423  50
  -3   8  -4 5880.59 271.039  50
  -3   8  -4 5598.11 269.295  42
  -3   8  -5 1352.52 94.2268  42
  -3   8  -5 1314.92 91.3552  50
  -3   8  -6 107.701 36.9964  43
  -3   8  -6 88.8847 35.3912  42
  -3   8  -7 3.10592 27.5827  42
  -3   8  -8 79.0462 23.9055  42
   3  -7 -10 318.426 42.8360  33
  -3   7  10 285.599 34.8272  54
   3  -7  -9 74.1710 35.0444  33
   3  -7  -8 686.832 72.3477  33
   3  -7  -8 590.019 57.8491  96
  -3   7   8 617.951 68.6037  44
  -3   7   7 6070.25 305.357  38
   3  -7  -7 6218.13 290.142  96
  -3   7   7 6222.75 302.247  44
  -3   7   6 3447.63 189.191  38
   3  -7  -6 3158.38 170.367  96
  -3   7   6 2999.14 180.204  44
  -3   7   5 7604.56 354.236  32
   3  -7  -5 7683.50 472.797  92
   3  -7  -5 6522.30 453.470  86
  -3   7   4 18921.6 792.683  29
   3  -7  -4 19262.4 950.507  86
   3  -7  -3 5331.90 381.355  77
   3  -7  -3 5735.83 388.954  86
   3  -7  -2 6293.03 421.393  77
   3  -7  -2 6738.23 433.220  71
  -3   7   2 6269.86 441.998  26
  -3   7   2 6163.77 296.188  49
   3  -7  -2 6807.95 427.484  86
   3  -7  -1 1222.37 160.077  78
  -3   7   1 1063.95 87.3250  49
   3  -7  -1 1031.49 151.769  71
   3  -7  -1 1053.11 153.005  77
  -3   7   1 1312.50 178.098  26
   3  -7   0 8498.60 500.011  78
   3  -7   0 8445.76 514.170  71
  -3   7   0 8334.81 370.901  50
  -3   7   0 8232.33 377.018  49
   3  -7   1 10097.3 566.362  78
   3  -7   1 9889.36 579.938  71
  -3   7  -1 9687.83 430.125  50
  -3   7  -1 9779.12 434.831  49
   3  -7   2 1070.08 155.501  78
   3  -7   2 1228.30 170.567  71
  -3   7  -2 1083.81 87.3971  50
  -3   7  -2 1246.04 93.3940  49
  -3   7  -3 65.5514 40.4645  43
   3  -7   3-42.0325 65.3129  78
  -3   7  -3 25.2720 34.8343  50
  -3   7  -3 15.2871 36.8608  49
  -3   7  -3 30.3264 37.3960  42
  -3   7  -4 586.651 69.1202  42
  -3   7  -4 664.596 70.5016  43
  -3   7  -4 652.546 66.5359  50
  -3   7  -5 71.3500 42.4844  43
  -3   7  -5 42.1395 33.7111  50
  -3   7  -5 112.364 42.8218  42
  -3   7  -6 2223.01 136.793  43
  -3   7  -6 2517.08 140.556  42
  -3   7  -7 646.987 64.7244  43
  -3   7  -7 687.950 64.3831  42
  -3   7  -8 37.4297 30.3720  43
  -3   7  -8-21.8401 28.4058  42
  -3   7  -9 4.76560 23.2205  43
   3  -6 -11 25.8232 24.1114  33
  -3   6  11 18.8990 21.5408  55
  -3   6  11 29.5018 22.0263  54
   3  -6 -10 77.7633 35.4379  33
  -3   6  10 117.150 33.7033  55
  -3   6  10 173.541 34.9238  54
  -3   6   9 776.799 81.7933  38
   3  -6  -9 706.204 75.6260  33
  -3   6   9 699.181 66.4694  54
  -3   6   8 588.017 77.4987  38
  -3   6   8 566.502 62.1423  54
  -3   6   7 29.4126 47.1333  38
  -3   6   7 23.8215 33.1428  29
   3  -6  -7 60.6799 32.4328  96
   3  -6  -6 55.8173 27.3975  96
  -3   6   6 28.1179 45.5243  36
  -3   6   6 128.902 53.4068  38
  -3   6   6 38.9384 34.9975  29
  -3   6   5 34815.3 1442.71  36
  -3   6   5 35040.7 1424.61  29
   3  -6  -5 37445.2 1583.26  92
   3  -6  -5 35253.8 1573.26  86
  -3   6   4 6155.47 288.140  29
  -3   6   4 6270.66 420.720  26
  -3   6   4 6387.42 430.780   6
   3  -6  -4 6168.84 398.588  86
   3  -6  -3 37.0376 49.8867  86
   3  -6  -3 73.4368 59.4226  77
   3  -6  -3 54.8415 51.9047  71
  -3   6   3 107.264 63.8658   6
  -3   6   3 35.1990 28.5469  29
  -3   6   3 55.3531 54.9406   1
  -3   6   3 187.809 87.8318  26
   3  -6  -2 5266.91 348.014  78
   3  -6  -2 5195.74 354.153  77
   3  -6  -2 5170.62 352.285  71
  -3   6   2 5046.23 357.945   1
  -3   6   2 5418.52 250.535  29
  -3   6   2 5110.02 367.787   6
  -3   6   2 5779.08 380.292  26
  -3   6   1 6949.42 414.332  23
   3  -6  -1 6446.46 396.124  78
   3  -6  -1 5849.83 390.713  71
  -3   6   1 6340.74 410.776   1
  -3   6   0-57.6629 80.8759  23
   3  -6   0-17.3497 44.0225  78
   3  -6   0-37.1088 57.6596  71
   3  -6   0 18.2308 46.2580  64
  -3   6   0 37.5215 60.6814   1
  -3   6   0 41.1142 31.2969  50
  -3   6   0 27.6180 30.0624  49
   3  -6   1 214.385 71.4661  78
  -3   6  -1 323.021 93.5699  23
   3  -6   1 361.633 90.1135  72
   3  -6   1 363.285 93.5900  64
  -3   6  -1 463.532 52.0000  50
  -3   6  -1 431.744 54.1556  49
  -3   6  -1 377.121 98.3332   1
  -3   6  -2 254.160 87.3812  23
   3  -6   2 210.163 78.8878  72
  -3   6  -2 182.206 44.1754  31
  -3   6  -2 200.271 45.6002  43
  -3   6  -2 163.564 37.6381  50
  -3   6  -2 196.711 41.3981  49
  -3   6  -3 110.378 76.7046  23
   3  -6   3 60.9085 54.6482  72
  -3   6  -3 39.1031 38.9850  42
  -3   6  -3 4.68007 40.2811  40
  -3   6  -3 4.92533 39.0342  31
  -3   6  -3-4.70826 33.0021  50
  -3   6  -3 64.3839 41.2129  43
  -3   6  -4 1692.15 112.857  40
   3  -6   4 1689.09 195.110  72
  -3   6  -4 1457.47 109.607  31
  -3   6  -4 1545.30 105.855  50
  -3   6  -4 1406.58 108.811  42
  -3   6  -4 1720.10 113.092  43
  -3   6  -5 3281.40 177.042  31
  -3   6  -5 3352.69 177.953  43
  -3   6  -5 2952.21 174.057  42
  -3   6  -5 3262.76 177.736  40
  -3   6  -6 5820.39 279.980  31
  -3   6  -6 5642.12 281.197  43
  -3   6  -6 5668.13 280.209  42
  -3   6  -6 6487.03 286.888  40
  -3   6  -7 4427.68 216.297  31
  -3   6  -7 4107.72 218.293  40
  -3   6  -7 4399.46 216.783  42
  -3   6  -7 4491.43 221.008  43
  -3   6  -8 409.661 54.7822  43
  -3   6  -8 459.837 59.2628  40
  -3   6  -8 418.479 51.7074  42
  -3   6  -9 169.776 36.8078  43
  -3   6 -10 2.14392 21.1561  43
  -3   5  12 341.340 37.6649  55
  -3   5  12 287.638 34.8930  54
  -3   5  11 402.981 48.6431  55
  -3   5  11 387.975 46.5664  54
   3  -5 -10 41.0788 32.9058  33
  -3   5  10 25.2923 41.7059  38
  -3   5  10 36.6029 30.4318  54
  -3   5   9 1052.90 98.2584  38
  -3   5   8 1948.80 138.168  38
  -3   5   7-7.27791 47.9851  38
  -3   5   7 42.9093 44.9172  36
  -3   5   7 32.2164 30.6316  29
   3  -5  -7 18.9683 53.8167  82
  -3   5   6 171.447 52.0743  38
  -3   5   6 160.778 51.2501  36
  -3   5   6 193.845 40.8058  29
  -3   5   6 275.793 92.5413   6
  -3   5   5 1182.58 98.3056  36
  -3   5   5 1156.26 100.935  38
   3  -5  -5 1076.98 138.316  82
  -3   5   5 1227.99 84.2513  29
  -3   5   5 1322.55 171.356   6
   3  -5  -4 668.055 106.136  82
  -3   5   4 698.703 61.8870  29
  -3   5   4 767.016 124.119   6
   3  -5  -4 787.699 113.303  86
  -3   5   3 30.6292 54.9539   1
   3  -5  -3-29.4493 51.1593  82
   3  -5  -3 73.9745 49.6604  77
  -3   5   3-18.2174 40.0313   6
   3  -5  -3-14.7619 35.0372  71
   3  -5  -3-14.9259 50.1002  59
   3  -5  -2 1404.48 153.639  82
   3  -5  -2 1700.97 163.844  78
   3  -5  -2 1789.67 166.697  71
   3  -5  -2 1620.18 159.507  59
  -3   5   2 1561.40 165.855   1
  -3   5   2 1611.86 171.520   6
  -3   5   1 2787.32 221.727  23
   3  -5  -1 2787.19 217.823  82
   3  -5  -1 3076.36 223.539  78
   3  -5  -1 2800.51 218.806  64
  -3   5   1 3009.57 231.684   1
   3  -5  -1 2436.13 209.758  71
  -3   5   0 742.082 114.676  23
   3  -5   0 824.653 112.569  78
   3  -5   0 673.739 104.393  82
   3  -5   0 706.639 106.543  64
   3  -5   0 559.288 97.9950  72
  -3   5   0 649.655 105.402   1
   3  -5   1 4359.18 296.054  64
   3  -5   1 4008.36 288.057  82
  -3   5  -1 4358.26 297.607   1
   3  -5   1 4659.94 298.672  72
  -3   5  -1 4050.10 297.152  23
  -3   5  -2 35.6479 50.5633  23
   3  -5   2-33.1358 55.6112  72
  -3   5  -2-18.4602 54.9242  19
   3  -5   2 67.8534 54.8674  64
  -3   5  -3 6492.70 392.573  23
  -3   5  -3 5511.95 382.070  19
   3  -5   3 5240.15 360.180  72
  -3   5  -3 5604.04 262.676  57
  -3   5  -3 5483.37 264.000  31
  -3   5  -3 5882.08 264.812  50
  -3   5  -3 5708.51 266.395  43
  -3   5  -3 5540.40 263.802  40
   3  -5   4 1181.30 155.369  72
  -3   5  -4 1134.00 159.905  19
   3  -5   4 856.506 139.187  66
  -3   5  -4 1148.88 85.7833  57
  -3   5  -4 1135.88 88.2548  31
  -3   5  -4 1263.04 92.8410  43
  -3   5  -4 1222.28 85.4280  50
   3  -5   4 939.111 138.978  89
  -3   5  -4 1114.77 89.3505  40
   3  -5   5 2430.66 237.275  72
  -3   5  -5 2370.00 136.985  57
  -3   5  -5 2307.31 138.828  31
   3  -5   5 2093.37 221.197  70
   3  -5   5 2227.10 224.447  89
  -3   5  -5 2366.58 142.150  43
  -3   5  -5 2430.58 142.230  40
  -3   5  -6 256.334 56.4777  40
  -3   5  -6 142.024 40.0817  57
   3  -5   6 148.652 71.7165  89
  -3   5  -6 249.951 53.0909  43
  -3   5  -6 242.841 50.9657  42
  -3   5  -7 48.0358 41.2946  43
  -3   5  -7 112.876 33.3536  57
  -3   5  -7 39.3483 36.2380  42
   3  -5   7 108.054 64.3667  89
  -3   5  -7 82.9439 47.2901  40
  -3   5  -8-43.6730 40.6119  43
  -3   5  -8 19.0180 42.8725  40
  -3   5  -9 250.744 44.1632  43
  -3   5  -9 232.310 46.8797  40
  -3   5 -10 616.705 51.6923  43
  -3   5 -10 595.026 54.3764  40
  -3   4  13 1004.71 63.0183  55
  -3   4  12 984.439 72.6846  55
  -3   4  12 969.602 70.1945  54
  -3   4  11 631.871 63.5556  54
  -3   4  10 298.893 62.3425  38
  -3   4   9 29.2713 45.9668  38
  -3   4   8 254.815 61.1481  38
  -3   4   8 149.875 51.5083  36
  -3   4   8 252.999 50.8136  34
  -3   4   7 567.154 75.1750  38
   3  -4  -7 652.915 111.203  82
  -3   4   7 522.685 68.4260  36
  -3   4   7 519.822 65.0034  34
  -3   4   6 407.087 64.2915  38
  -3   4   6 396.244 62.7902  36
  -3   4   6 469.781 56.5580  34
   3  -4  -6 378.034 89.0680  82
  -3   4   6 552.857 53.1703  29
  -3   4   6 490.318 105.633   6
   3  -4  -5 2487.11 198.946  82
  -3   4   5 1766.14 191.137   6
   3  -4  -4 5268.57 314.686  82
  -3   4   4 4740.43 325.864   6
   3  -4  -4 4913.90 308.290  86
  -3   4   3 265.769 73.2990  22
  -3   4   3 301.559 72.5173   1
   3  -4  -3 466.193 81.5750  59
  -3   4   3 273.307 74.5456   6
   3  -4  -3 445.022 83.3189  82
   3  -4  -2 550.674 90.4370  82
  -3   4   2 552.853 96.0826  22
  -3   4   2 453.167 91.2876   6
   3  -4  -2 807.076 98.6783  71
   3  -4  -2 718.822 102.349  59
  -3   4   2 550.915 94.4103   1
   3  -4  -2 771.044 97.3813  78
  -3   4   1 25.0023 43.4537  22
   3  -4  -1 23.0507 37.3018  78
   3  -4  -1 55.0973 41.9607  64
   3  -4  -1 12.1252 46.1671  82
  -3   4   1 84.5313 48.4648  23
  -3   4   1 37.6412 51.5970   1
  -3   4   0 6943.08 388.147  23
   3  -4   0 7301.50 392.180  82
   3  -4   0 6979.63 382.650  72
  -3   4   0 6606.94 379.080  22
   3  -4   0 7096.99 380.857  64
  -3   4   0 7338.38 392.038   1
  -3   4  -1 4704.61 305.759  23
  -3   4  -1 4464.47 307.113  19
   3  -4   1 5001.46 301.624  72
   3  -4   1 5113.86 303.251  64
  -3   4  -1 5356.96 309.702   1
  -3   4  -2 27905.8 1208.79  23
  -3   4  -2 27341.9 1217.49  19
   3  -4   2 25917.7 1194.10  72
   3  -4   2 27208.4 1187.99  89
  -3   4  -3 13166.2 692.542  19
   3  -4   3 13293.4 672.028  70
   3  -4   3 13507.6 679.562  66
   3  -4   3 14039.6 679.290  89
  -3   4  -3 14756.3 696.353  23
   3  -4   4 774.563 119.247  70
   3  -4   4 536.492 101.974  66
  -3   4  -4 689.493 66.4852  43
  -3   4  -4 780.897 126.859  19
  -3   4  -4 693.603 63.8653  57
  -3   4  -4 737.497 65.9510  31
  -3   4  -4 730.607 68.0659  40
  -3   4  -5 6559.87 435.784  19
   3  -4   5 5574.04 401.110  66
  -3   4  -5 6582.36 302.044  57
  -3   4  -5 6783.80 306.999  43
   3  -4   5 6619.34 419.854  70
  -3   4  -5 6674.15 305.322  40
   3  -4   6 4251.99 330.646  70
  -3   4  -6 4116.97 208.389  57
  -3   4  -6 4252.41 214.885  43
  -3   4  -6 4142.01 213.383  40
  -3   4  -7 89.5645 35.6085  57
  -3   4  -7 58.3423 44.0505  43
  -3   4  -7 152.981 50.2432  40
   3  -4   7 196.763 80.9643  89
  -3   4  -8 714.969 72.1239  43
   3  -4   8 691.996 131.811  89
  -3   4  -8 767.015 78.0364  40
  -3   4  -9 479.112 58.4865  43
  -3   4  -9 767.057 71.8503  40
  -3   4 -10 909.172 71.7535  40
  -3   4 -11 238.060 32.7894  40
  -3   3  13 33.7761 21.8787  55
   3  -3 -13 3.87365 25.5489  45
  -3   3  12 534.824 54.0536  54
   3  -3 -12 550.983 64.1123  45
  -3   3  11 301.208 49.2392  54
   3  -3 -11 286.513 56.9272  45
   3  -3 -10 622.127 76.2561  45
  -3   3   9 226.424 54.1979  34
  -3   3   9 215.433 56.4522  38
  -3   3   8 312.766 60.8578  36
  -3   3   8 242.823 48.6196  34
  -3   3   8 263.257 59.5131  38
  -3   3   8 223.084 79.9568  16
  -3   3   7 779.070 81.7894  38
  -3   3   7 701.446 77.0784  36
   3  -3  -7 946.418 128.379  82
  -3   3   7 672.956 113.868  16
  -3   3   7 740.101 72.0900  34
   3  -3  -6 1252.82 145.126  82
  -3   3   6 1572.49 158.119  16
  -3   3   5 7491.62 411.856  22
  -3   3   5 7746.47 413.480  16
   3  -3  -5 7304.74 407.974  82
  -3   3   5 7271.33 420.967   6
   3  -3  -4 1312.58 129.042  59
  -3   3   4 1106.95 127.954   6
  -3   3   4 1348.19 131.695  22
   3  -3  -3 7734.86 410.297  82
   3  -3  -3 8372.72 408.826  78
   3  -3  -3 7871.25 414.343  59
  -3   3   3 7800.31 407.765   1
  -3   3   3 7795.42 425.685   6
  -3   3   3 8489.34 426.169  22
   3  -3  -2 20183.0 907.826  82
  -3   3   2 21217.6 911.866   1
   3  -3  -2 20748.6 912.516  59
  -3   3   2 19256.8 917.077   6
   3  -3  -2 20313.8 899.557  78
  -3   3   2 22225.5 923.249  22
  -3   3   1 877.026 99.1567  23
  -3   3   1 831.261 100.113  22
   3  -3  -1 928.947 94.5855  78
   3  -3  -1 678.425 84.8162  89
  -3   3   1 627.518 90.8542   1
   3  -3  -1 611.651 86.8085  82
  -3   3   0 36375.9 1449.65  23
  -3   3   0 36629.2 1447.31   1
  -3   3   0 33245.6 1446.64  19
   3  -3   0 33308.9 1434.67  72
   3  -3   0 33187.2 1429.16  64
   3  -3   0 33645.3 1429.29  89
  -3   3   0 33533.1 1436.88  22
  -3   3  -1 22612.2 951.363   1
   3  -3   1 20586.4 942.536  72
   3  -3   1 20980.0 942.715  89
  -3   3  -1 21150.2 961.130  19
  -3   3  -1 22569.3 961.604  23
  -3   3  -2-12.6616 43.9940  23
   3  -3   2-11.6440 39.0873  70
  -3   3  -2 69.1215 55.4635  19
   3  -3   2-35.1300 45.7922  89
   3  -3   3 693.031 103.429  70
  -3   3  -3 566.395 106.063  19
   3  -3   3 684.019 99.7824  66
  -3   3  -3 735.081 110.214  23
   3  -3   3 673.014 103.718  12
   3  -3   3 693.922 100.034  89
   3  -3   4 92.1471 58.6988  70
  -3   3  -4 198.059 84.1018  19
   3  -3   4 76.3441 49.6787  66
   3  -3   4 307.056 75.5233  12
  -3   3  -5 2821.84 247.592  19
   3  -3   5 2450.67 222.306  70
   3  -3   5 2017.17 206.118  66
  -3   3  -5 2610.17 137.109  57
  -3   3  -5 2346.11 138.735  40
   3  -3   6 79.6448 56.5067  70
  -3   3  -6-22.8062 57.8883  19
   3  -3   6 39.1273 46.4604  66
  -3   3  -6 44.5699 30.4913  57
  -3   3  -6 63.8562 46.2427  40
  -3   3  -7 47.1517 46.5442  40
   3  -3   7 21.7436 58.5315  70
   3  -3   8-43.2529 58.2042  89
  -3   3  -8 57.4891 47.3532  40
  -3   3  -9 147.051 48.4843  40
  -3   3 -10 19.0217 36.9223  40
  -3   3 -11 89.5591 31.6672  40
   3  -2 -13-9.15843 29.0495  45
   3  -2 -12 541.660 67.3196  45
   3  -2 -11-7.14730 41.0558  45
  -3   2  10 1168.20 169.966  84
   3  -2 -10 1809.93 128.286  45
  -3   2   9 1640.60 187.670  84
  -3   2   9 1986.08 125.190  34
   3  -2  -9 1664.41 128.461  45
  -3   2   8 1061.96 143.490  84
   3  -2  -8 739.534 128.608  21
  -3   2   8 1166.04 87.6133  34
  -3   2   8 811.765 87.9840  38
  -3   2   8 1050.93 143.276  16
   3  -2  -8 970.285 90.3563  45
   3  -2  -7 250.437 72.4581  82
  -3   2   7 328.798 81.5416  16
   3  -2  -6 5638.62 338.110  82
   3  -2  -6 5677.38 343.913  25
  -3   2   6 5704.72 340.509  16
   3  -2  -5 3958.11 253.394  25
   3  -2  -5 3894.24 247.525  82
  -3   2   5 3590.89 245.996  16
   3  -2  -4 1684.28 143.786  82
   3  -2  -4 1939.32 151.732  59
  -3   2   4 1735.14 145.849  22
  -3   2   4 1763.49 152.594   6
   3  -2  -4 1604.89 145.176  25
   3  -2  -3 4674.83 272.909  82
   3  -2  -3 5338.86 282.376  59
  -3   2   3 4747.55 272.341   1
  -3   2   3 4844.85 281.062  22
  -3   2   3 5008.67 289.662   6
  -3   2   2 10915.4 496.336  22
   3  -2  -2 9862.37 470.779  78
   3  -2  -2 10029.8 482.327  82
  -3   2   1 3546.04 212.256  19
   3  -2  -1 3586.74 213.125  82
  -3   2   1 3910.80 215.777  20
  -3   2   1 3216.96 204.689  17
   3  -2  -1 3215.31 203.498  89
   3  -2   0 8295.76 408.532  72
  -3   2   0 8817.92 411.871  20
  -3   2   0 8145.03 419.041  19
  -3   2   0 8529.27 419.932  17
   3  -2   0 8614.79 414.899  89
   3  -2   1-8.83652 38.0193  72
  -3   2  -1-42.8439 47.0743  19
  -3   2  -1 10.2156 39.9482  17
  -3   2  -1-18.0934 42.9459   1
   3  -2   1 9.48086 37.0754  89
  -3   2  -2 3942.08 256.665  19
  -3   2  -2 3816.23 247.622  17
   3  -2   2 4052.54 246.988  89
   3  -2   3 2475.83 195.964  70
   3  -2   3 3102.47 207.469  66
   3  -2   3 2778.45 207.932  12
  -3   2  -3 2459.45 207.587  19
   3  -2   3 2819.41 205.326  89
   3  -2   4 421.446 85.8879  70
  -3   2  -4 574.218 104.968  19
   3  -2   4 282.904 70.0247  66
   3  -2   4 397.606 85.9156  12
   3  -2   5 7475.03 429.206  80
   3  -2   5 6807.38 416.622  70
  -3   2  -5 7418.91 449.515  19
   3  -2   5 6751.19 411.215  66
   3  -2   5 7635.59 439.663  12
   3  -2   6 308.889 83.8032  80
   3  -2   6 333.602 93.2393  70
  -3   2  -6 401.016 104.446  19
  -3   2  -6 250.084 41.0612  57
  -3   2  -6 258.283 43.3892  56
   3  -2   6 477.916 100.085  12
   3  -2   7 4093.40 321.830  80
   3  -2   7 3792.10 306.104  70
  -3   2  -7 3832.62 196.747  56
   3  -2   8 3260.87 293.291  80
   3  -2   8 3042.96 273.113  89
  -3   2  -8 3274.93 178.379  40
  -3   2  -9 1900.89 122.281  40
  -3   2 -10 60.6966 39.8348  40
  -3   2 -11 45.2170 29.8340  40
   3  -1 -14 230.060 33.0674  45
   3  -1 -13 337.687 50.6316  45
   3  -1 -12 211.539 48.8145  45
  -3   1  11-21.2961 57.3145  84
   3  -1 -11 43.7709 47.6455  45
  -3   1  10 127.859 72.0019  84
   3  -1 -10 278.335 55.7022  30
   3  -1 -10 194.024 57.7887  45
  -3   1   9 11917.2 664.125  84
   3  -1  -9 12137.8 688.041  21
  -3   1   9 12319.0 677.658  16
   3  -1  -9 12096.0 548.249  30
   3  -1  -9 14063.3 572.735  45
  -3   1   8 172.208 67.6777  84
  -3   1   8 238.399 77.4582  16
   3  -1  -8 155.541 42.5254  30
  -3   1   7 7280.19 406.317  84
  -3   1   7 6810.20 408.867  16
   3  -1  -7 6971.21 414.998  25
   3  -1  -6 359.858 71.5031  82
  -3   1   6 334.962 77.6509  84
  -3   1   6 342.230 75.4070  93
   3  -1  -6 250.541 70.6347  25
   3  -1  -5 500.958 80.8587  83
   3  -1  -5 650.686 93.2835  25
   3  -1  -5 632.711 84.7999  82
  -3   1   5 483.934 85.1380  93
   3  -1  -4 487.240 74.2387  83
   3  -1  -4 336.056 66.2217  82
  -3   1   4 440.729 76.8150  22
   3  -1  -4 504.686 74.5297  59
  -3   1   4 368.897 69.9634  93
   3  -1  -3 1903.33 136.021  82
  -3   1   3 1872.23 143.595  20
  -3   1   3 1788.83 134.199  18
   3  -1  -3 1847.31 136.260  59
  -3   1   3 1694.86 130.660  93
   3  -1  -2 13982.4 624.699  82
  -3   1   2 13769.4 633.456  20
  -3   1   2 14390.9 617.944  18
  -3   1   2 14336.7 623.399  17
  -3   1   1 5847.97 315.808  20
  -3   1   1 6289.61 318.840  17
   3  -1  -1 6504.81 314.002  82
   3  -1  -1 6368.62 319.266  89
  -3   1   0 20712.0 887.627  20
   3  -1   0 20138.0 875.079  72
  -3   1   0 20835.7 891.739  19
  -3   1   0 21088.3 895.862  17
   3  -1   0 20799.1 888.916  89
  -3   1  -1 2901.91 192.689  19
  -3   1  -1 2615.42 184.921  17
   3  -1   1 2869.23 174.019  72
   3  -1   1 2804.77 182.688  89
   3  -1   2 10.7577 40.9448  12
  -3   1  -2 23.0607 47.4015  19
  -3   1  -2-10.5149 40.0206  17
   3  -1   2 9.56233 32.0980  80
   3  -1   2 9.80422 36.2647  89
   3  -1   3 69.4557 45.3040  80
   3  -1   3 67.1834 46.0693  70
   3  -1   3 62.1208 43.6044  66
  -3   1  -3 55.1231 46.2941  19
  -3   1  -3-11.6090 41.6989  17
   3  -1   3 87.9854 52.9209  12
   3  -1   3 33.5680 38.9212  89
   3  -1   4 9475.53 521.673  70
  -3   1  -4 10949.1 564.869  19
   3  -1   4 10743.9 550.463  12
   3  -1   4 11170.7 546.743  80
   3  -1   5 349.970 86.5665  80
   3  -1   5 509.909 95.0256  70
  -3   1  -5 557.644 114.616  19
   3  -1   5 535.562 100.943  12
   3  -1   6 136.442 74.2607  80
  -3   1  -6 132.916 74.4324  19
  -3   1  -6 64.5152 32.6831  56
   3  -1   6 98.9211 66.4913  12
   3  -1   7 769.953 135.609  80
  -3   1  -7 1136.63 169.615  19
  -3   1  -7 903.896 75.4657  56
  -3   1  -8 2290.53 135.201  56
   3  -1   8 2511.85 249.681  80
  -3   1  -9 5144.51 250.746  40
  -3   1 -10 87.1498 41.4283  40
  -3   1 -11 123.427 36.3705  40
   3   0 -14 498.606 45.1754  45
   3   0 -13 57.0864 33.9291  47
   3   0 -13 43.7927 32.1359  45
   3   0 -12 417.308 60.6236  45
  -3   0  11 171.987 81.9163  84
   3   0 -11 79.0159 42.9243  45
   3   0 -11 101.462 45.2849  30
  -3   0  10 5939.04 417.371  84
   3   0 -10 6414.96 308.912  30
   3   0 -10 6537.19 321.807  45
  -3   0   9 9408.36 523.904  84
   3   0  -9 8661.76 530.019  21
  -3   0   9 8625.35 521.150  16
   3   0  -9 8616.88 399.020  30
   3   0  -9 7890.63 513.089  13
   3   0  -9 9251.11 416.543  45
  -3   0   8 1015.52 138.946  84
  -3   0   8 987.271 137.972  16
   3   0  -8 1047.98 84.9385  30
   3   0  -8 1086.00 145.925  13
  -3   0   8 1088.65 135.656  93
  -3   0   7 567.332 97.0378  84
   3   0  -7 560.224 102.470  13
  -3   0   7 509.244 92.9538  93
   3   0  -6 11.5556 37.3945  82
  -3   0   6 23.9369 48.0301  93
   3   0  -6 64.9315 45.1345  13
  -3   0   6 60.3032 49.5944  84
   3   0  -6 13.6437 45.8110  25
   3   0  -5 475.416 77.2240  83
   3   0  -5 423.027 71.5914  82
  -3   0   5 369.465 77.4073  18
   3   0  -5 419.067 79.2966  25
   3   0  -5 411.359 75.2703  13
  -3   0   5 514.657 81.7033  84
  -3   0   5 454.353 77.7146  93
  -3   0   4 116.832 46.3676  81
  -3   0   4 75.2642 46.2808  20
  -3   0   4 23.8081 33.4675  73
  -3   0   4 101.306 46.0541  18
   3   0  -4 99.7010 45.3264  83
   3   0  -4 18.1410 37.3557  13
   3   0  -4 32.1582 32.3315  82
  -3   0   4 70.9570 43.6387  93
  -3   0   3 739.054 87.4980  20
  -3   0   3 836.635 90.7946  18
   3   0  -3 1046.75 90.8633  59
  -3   0   3 693.623 83.9481  81
   3   0  -3 826.416 87.4603  13
  -3   0   3 812.296 87.7675  93
  -3   0   2 44601.3 1825.72  20
   3   0  -2 43224.3 1806.34  59
  -3   0   2 45658.5 1816.27  17
  -3   0   2 45196.9 1810.28  81
  -3   0   2 44308.8 1805.93  93
  -3   0   1 60.3454 36.3821  24
   3   0  -1 103.729 36.8083  79
   3   0  -1 53.5146 35.0825  89
  -3   0   0 5754.01 302.640  24
   3   0   0 5229.56 284.056  79
  -3   0   0 6072.12 305.454  17
   3   0   0 5440.46 288.675  89
  -3   0  -1 31851.4 1328.12  91
  -3   0  -1 31985.6 1330.30  17
   3   0   1 31801.8 1323.98  12
  -3   0  -1 30666.8 1323.70  24
   3   0   1 31355.9 1314.39  89
  -3   0  -2 5798.19 314.232  17
  -3   0  -2 5164.31 308.431  91
   3   0   2 6032.14 314.112  12
   3   0   2 5265.37 295.563  89
   3   0   2 5258.95 303.562  80
  -3   0  -3 12028.1 597.634  17
   3   0   3 13467.9 618.208  12
  -3   0  -3 11907.4 605.951  91
   3   0   3 11873.5 585.192  89
   3   0   3 13553.6 615.678  80
   3   0   4 5479.38 339.061  80
  -3   0  -4 5544.56 343.605  91
   3   0   4 5646.86 343.682  12
   3   0   5 3634.17 273.841  80
   3   0   5 3560.27 271.897  12
  -3   0  -5 3656.28 277.113  91
   3   0   6 436.946 102.892  80
  -3   0  -6 224.332 41.2132  56
   3   0   6 379.199 90.1362  12
   3   0   7 111.280 72.2099  80
  -3   0  -7 276.933 101.161  19
  -3   0  -7 136.345 36.2355  56
  -3   0  -8 6176.29 287.039  56
   3   0   8 5908.70 421.888  80
  -3   0  -9 2755.49 150.067  56
  -3   0 -10 873.564 75.8422  40
  -3   0 -11 69.6306 32.4123  40
   3   1 -14 91.5063 24.8538  47
   3   1 -13-3.61673 33.0877  47
   3   1 -12 29.7484 35.0184  45
   3   1 -11 483.157 65.2588  30
   3   1 -11 522.561 70.9550  45
  -3  -1  10 1594.03 192.997  84
   3   1 -10 1921.15 127.722  30
   3   1 -10 1840.17 133.050  45
  -3  -1   9 600.818 115.634  84
   3   1  -9 425.612 106.740  21
   3   1  -9 577.582 69.9892  30
   3   1  -9 560.672 74.1731  45
  -3  -1   8 2159.56 207.632  84
   3   1  -8 2392.20 138.753  30
   3   1  -8 1939.09 204.747  13
  -3  -1   8 2311.52 206.474  93
  -3  -1   7 3794.44 264.675  84
   3   1  -7 3937.12 273.869  25
   3   1  -7 3251.39 259.738  13
  -3  -1   7 3284.15 246.177  93
  -3  -1   6 16233.5 745.999  84
   3   1  -6 15563.4 740.845  25
  -3  -1   6 15637.1 732.583  81
  -3  -1   6 16096.4 736.146  73
  -3  -1   6 15339.0 737.595  18
   3   1  -6 14059.1 732.445  13
  -3  -1   6 16736.1 739.496  93
   3   1  -5 2950.10 200.604  83
  -3  -1   5 2584.83 190.068  81
  -3  -1   5 2663.95 189.396  73
  -3  -1   5 2497.12 193.859  18
   3   1  -5 2798.75 200.718  13
  -3  -1   5 2907.15 199.333  93
   3   1  -5 2968.01 203.768  25
   3   1  -4 10654.1 485.519  10
   3   1  -4 9814.29 486.499  83
  -3  -1   4 10474.5 492.474  20
  -3  -1   4 10268.0 484.139  73
  -3  -1   4 9647.13 481.523  67
  -3  -1   4 10459.0 496.340  18
   3   1  -4 9893.27 491.776  13
  -3  -1   4 10704.2 494.568  81
  -3  -1   4 10002.3 487.825  93
   3   1  -3 1417.86 121.536  10
  -3  -1   3 1417.98 117.983  81
  -3  -1   3 1541.79 115.857  73
  -3  -1   3 1360.72 118.885  87
   3   1  -3 1466.13 123.814  13
   3   1  -3 1078.72 109.916  83
  -3  -1   2 84.4221 45.5820  24
   3   1  -2 143.158 52.5694  10
  -3  -1   2 101.632 45.2173  87
  -3  -1   2 135.054 41.8463   5
  -3  -1   2 169.087 45.4804  81
   3   1  -1 1410.42 118.955  10
   3   1  -1 1171.36 107.701  79
  -3  -1   1 1180.88 111.727  87
  -3  -1   1 1222.16 105.537   5
  -3  -1   1 1416.61 123.738  24
   3   1   0 11531.9 534.632  10
   3   1   0 11840.4 538.980  79
  -3  -1   0 11410.2 532.258  87
  -3  -1   0 11800.7 534.739  91
  -3  -1   0 11755.9 533.535   5
   3   1   0 11344.6 525.015  89
  -3  -1   0 11293.5 546.170  24
   3   1   1 10749.4 480.616  10
   3   1   1 9665.90 482.475  79
  -3  -1  -1 9699.24 466.428   8
   3   1   1 10885.9 484.628  12
  -3  -1  -1 9269.96 483.036  91
  -3  -1  -1 10394.6 475.931  87
  -3  -1  -1 9810.49 493.178  24
  -3  -1  -2 178.345 53.0472  24
  -3  -1  -2 115.310 48.6667  91
  -3  -1  -2 87.8223 42.5954   8
   3   1   2 41.8480 42.1430  12
  -3  -1  -3 3619.26 253.230  17
   3   1   3 4190.72 263.634  12
  -3  -1  -3 4215.40 269.460  91
   3   1   4 4017.34 285.157  80
   3   1   4 4295.53 286.833  12
  -3  -1  -4 4368.74 293.988  91
   3   1   5 932.226 133.055  80
  -3  -1  -5 935.029 133.003  91
   3   1   5 1021.37 136.486  12
   3   1   6 1287.43 168.394  80
  -3  -1  -6 1200.49 102.400  33
  -3  -1  -6 1292.36 89.3877  56
  -3  -1  -6 1369.02 169.243  91
   3   1   6 1352.42 169.811  12
  -3  -1  -7 374.582 50.8575  56
  -3  -1  -7 379.310 59.9521  33
  -3  -1  -8 3815.65 212.348  33
  -3  -1  -8 3853.86 195.623  56
  -3  -1  -9 1174.71 84.4976  56
  -3  -1 -10 769.597 62.8489  56
  -3  -1 -11 4303.48 195.970  40
   3   2 -13-6.82475 31.8137  47
   3   2 -12 380.126 56.3654  47
  -3  -2  11 212.449 78.8288  84
   3   2 -11 141.063 46.5386  30
  -3  -2  10 174.165 75.7841  84
   3   2 -10 100.403 45.2004  30
  -3  -2   9 124.149 64.6034  84
   3   2  -9 181.698 50.0391  30
  -3  -2   8 261.776 81.5004  93
   3   2  -8 427.409 55.8990  30
   3   2  -8 221.972 77.9636  13
  -3  -2   8 392.523 100.102  84
  -3  -2   7 44.7063 46.3954  81
  -3  -2   7 93.7322 56.1279  73
   3   2  -7 45.7434 35.6498  30
   3   2  -7 140.432 63.0527  13
  -3  -2   7 98.4233 62.4968  84
  -3  -2   7 89.2273 59.7280  93
  -3  -2   6 8980.21 470.127  81
  -3  -2   6 8038.64 460.360  73
  -3  -2   6 9425.37 479.829  18
  -3  -2   6 9078.61 471.918  93
   3   2  -6 8693.12 478.808  13
  -3  -2   5 1404.48 135.059  81
  -3  -2   5 1234.78 128.539  73
  -3  -2   5 1198.23 126.921  67
  -3  -2   5 1250.51 133.857  18
   3   2  -5 1254.71 135.071  13
   3   2  -4 18549.9 831.515  83
  -3  -2   4 18839.6 838.016  81
  -3  -2   4 18126.7 830.223  73
  -3  -2   4 19278.1 832.997  67
   3   2  -4 19187.8 832.773  10
   3   2  -4 18552.4 844.002  13
  -3  -2   4 18750.1 832.407  87
  -3  -2   3 11111.4 507.481  67
   3   2  -3 10922.5 510.655  83
  -3  -2   3 10153.3 520.568  24
   3   2  -3 11548.1 521.515  10
  -3  -2   3 10407.4 515.171  87
   3   2  -2 2910.06 191.746  10
  -3  -2   2 3105.79 205.905  24
  -3  -2   2 3041.86 196.294   5
  -3  -2   2 2400.20 183.431  87
   3   2  -1 7927.18 385.896  10
  -3  -2   1 7515.92 385.013   5
  -3  -2   1 6985.01 376.864  87
  -3  -2   1 7439.79 389.847  24
   3   2   0 1839.53 151.514  10
   3   2   0 2099.18 159.628  79
  -3  -2   0 2324.82 171.379  24
  -3  -2   0 2029.98 155.025  87
  -3  -2   0 2013.61 156.595   5
   3   2   1 42397.9 1715.37  10
   3   2   1 40763.9 1726.04  79
  -3  -2  -1 40955.2 1641.65  95
  -3  -2  -1 41145.3 1713.18   8
  -3  -2  -1 41797.7 1725.68  91
  -3  -2  -1 41712.2 1713.37  87
   3   2   2 26258.1 1125.82  79
  -3  -2  -2 26679.8 1108.58   8
  -3  -2  -2 25000.4 1124.99  91
  -3  -2  -2 25130.1 1027.11  95
   3   2   3 212.194 67.8184  79
  -3  -2  -3 323.813 80.8752  91
  -3  -2  -3 196.725 59.1315   8
  -3  -2  -3 240.566 34.2203  95
   3   2   3 299.422 72.6141  12
  -3  -2  -4 3010.78 227.046   8
   3   2   4 3087.83 237.744  12
  -3  -2  -4 3093.25 248.217  91
  -3  -2  -5 4293.49 228.081  33
   3   2   5 4586.60 321.191  12
  -3  -2  -5 4210.36 314.119  91
  -3  -2  -6 3461.62 198.544  33
  -3  -2  -6 3342.38 176.802  56
  -3  -2  -6 3558.43 278.599   7
   3   2   6 3850.78 300.822  12
  -3  -2  -6 3261.74 283.830  91
  -3  -2  -7 106.212 45.4693  33
  -3  -2  -7 71.8877 33.1698  56
  -3  -2  -7 65.3728 51.8133  91
  -3  -2  -8 96.2595 41.4121  33
  -3  -2  -8 18.7414 28.8665  56
   3   2   8 43.9126 62.3096  79
  -3  -2  -9 539.319 66.3782  33
  -3  -2  -9 633.362 59.2664  56
  -3  -2 -10 430.050 45.6742  56
  -3  -2 -11 596.052 49.1580  40
   3   3 -13 8.84959 28.8693  47
   3   3 -12 253.321 44.2559  30
   3   3 -12 154.872 46.3871  47
   3   3 -11 182.637 44.9128  30
   3   3 -11 157.989 51.1465  47
  -3  -3  10 1003.09 154.623  84
   3   3 -10 1383.96 102.547  30
  -3  -3   9 2829.04 264.636  84
   3   3  -9 3069.62 171.964  30
  -3  -3   8 3123.50 266.387  84
   3   3  -8 3228.50 171.237  30
   3   3  -8 2477.06 246.554  13
  -3  -3   8 2685.66 238.291  93
  -3  -3   7 626.661 109.311  81
  -3  -3   7 601.091 114.332  73
   3   3  -7 769.691 70.5346  30
   3   3  -7 810.320 124.859  13
  -3  -3   7 533.999 109.075  93
  -3  -3   6 747.336 116.020  73
  -3  -3   6 1256.83 142.778  67
  -3  -3   6 1166.47 137.259  18
  -3  -3   6 1087.07 136.012  81
   3   3  -6 797.624 125.307  13
  -3  -3   6 1021.08 128.981  93
  -3  -3   5-13.4963 40.1563  73
  -3  -3   5 13.3920 46.5296  67
  -3  -3   5 13.6775 49.0801  18
   3   3  -5-14.7037 45.6936  13
  -3  -3   5 80.3210 49.5154  81
   3   3  -4 5366.29 313.203  10
  -3  -3   4 5577.98 318.155  67
  -3  -3   4 5340.25 314.600  87
   3   3  -3 2104.14 167.067  10
  -3  -3   3 1775.98 164.759   5
  -3  -3   3 1949.92 162.451  87
   3   3  -2 10923.9 517.734  10
  -3  -3   2 10327.1 513.739  74
  -3  -3   2 10469.6 520.360   5
  -3  -3   2 9758.55 508.080  87
  -3  -3   2 10250.0 520.389  24
  -3  -3   1 34640.5 1386.15  74
  -3  -3   1 31811.6 1292.83  95
  -3  -3   1 31565.2 1384.13  90
  -3  -3   1 33049.5 1383.21  87
   3   3  -1 32324.9 1380.09  10
  -3  -3   1 33941.5 1397.88   5
  -3  -3   1 31711.7 1394.22  24
  -3  -3   0 6079.32 349.853  74
  -3  -3   0 6502.78 286.096  95
  -3  -3   0 6783.95 372.956  90
  -3  -3   0 5974.20 352.057  87
   3   3   1 404.728 81.3351  79
   3   3   1 403.833 79.2473  10
  -3  -3  -1 483.661 78.6665   8
  -3  -3  -1 386.921 75.4735  91
  -3  -3  -1 332.124 80.4364  90
  -3  -3  -1 480.742 44.3092  95
  -3  -3  -1 571.015 84.7969  87
   3   3   2 14.2547 38.3693  79
  -3  -3  -2-7.12824 20.4850  95
  -3  -3  -2-26.3898 39.2649   8
  -3  -3  -2-43.2822 51.7749  91
  -3  -3  -3 440.870 84.0819   8
   3   3   3 488.582 91.0368  79
  -3  -3  -3 439.311 47.9526  95
  -3  -3  -3 379.883 89.3054  91
   3   3   4 1528.73 171.514  79
  -3  -3  -4 1754.88 116.485  33
  -3  -3  -4 2058.07 186.633   8
  -3  -3  -4 1504.96 98.6038  95
  -3  -3  -4 1645.60 181.043  91
   3   3   5 116.159 62.9525  79
  -3  -3  -5 177.335 44.9519  33
  -3  -3  -5 258.272 82.9993   8
  -3  -3  -5 124.536 74.7601  91
   3   3   6 20.8539 49.4957  79
  -3  -3  -6 7.07188 39.1073  33
  -3  -3  -6-22.2817 56.5359  91
  -3  -3  -7 194.838 52.6071  33
  -3  -3  -7 258.672 45.4022  56
  -3  -3  -7 270.949 86.4316  91
  -3  -3  -8 54.2916 41.3442  33
  -3  -3  -8 53.6912 31.6743  56
  -3  -3  -9 39.9893 34.0991  33
  -3  -3  -9 89.9024 29.6085  56
  -3  -3 -10 115.658 32.4062  33
   3   4 -13-13.1169 23.8639  47
   3   4 -12 502.209 51.7478  31
   3   4 -12 611.136 58.2668  47
  -3  -4  10 361.927 100.495  84
   3   4 -10 420.879 57.9460  30
  -3  -4   9 5764.80 409.038  84
   3   4  -9 6521.06 291.316  30
   3   4  -9 5538.42 282.036  46
  -3  -4   8 747.074 136.270  84
  -3  -4   8 1101.36 153.073  73
   3   4  -8 917.376 84.8337  30
   3   4  -8 975.268 84.1292  46
  -3  -4   7 7292.43 454.983  93
  -3  -4   7 7102.68 459.879  73
  -3  -4   7 7473.38 468.685  67
   3   4  -7 8120.12 355.455  30
  -3  -4   6 9042.59 518.119  81
  -3  -4   6 9036.96 523.108  73
  -3  -4   6 9411.22 530.282  67
   3   4  -6 9867.26 423.129  30
  -3  -4   5 46.5047 50.1392  81
  -3  -4   5-15.7874 46.9719  67
  -3  -4   5-18.4324 43.7483   5
   3   4  -4 2120.98 187.467  10
  -3  -4   4 2231.84 193.067  67
  -3  -4   4 2320.18 205.272   5
  -3  -4   4 2239.96 190.214  87
  -3  -4   3 3270.22 242.433  74
   3   4  -3 3257.29 234.762  10
  -3  -4   3 3498.06 252.302   5
  -3  -4   3 2833.32 224.759  87
   3   4  -2 8457.41 439.545  10
  -3  -4   2 7266.63 426.625  74
  -3  -4   2 7720.39 439.812   5
  -3  -4   2 8008.61 437.664  87
   3   4  -1 1909.88 176.732  10
  -3  -4   1 1906.49 105.683  95
  -3  -4   1 1771.59 168.111  74
  -3  -4   1 2008.81 177.312  87
  -3  -4   1 1662.76 165.772  90
  -3  -4   1 2006.61 183.914   5
  -3  -4   1 1896.30 180.435  24
   3   4   0 3074.03 230.343  10
  -3  -4   0 3224.00 160.389  95
  -3  -4   0 3340.96 234.674  74
  -3  -4   0 3332.21 248.060  90
  -3  -4   0 3098.58 233.479  87
   3   4   1 13.5705 48.7375  10
  -3  -4  -1 14.8462 35.2951   8
  -3  -4  -1 128.493 31.8873  95
  -3  -4  -1 33.0001 55.4206  90
  -3  -4  -1 14.1384 40.1593  87
   3   4   2 483.599 93.7075  79
  -3  -4  -2 669.142 107.013   8
  -3  -4  -2 669.352 58.3737  95
  -3  -4  -2 647.557 106.184  91
  -3  -4  -2 720.104 116.337  90
   3   4   3 86.7790 54.7885  37
   3   4   3 97.1660 35.8505  32
  -3  -4  -3 52.1408 49.3963   8
  -3  -4  -3 88.3363 30.3252  95
  -3  -4  -3 56.1412 53.1726  91
   3   4   3 34.9029 54.3150  79
   3   4   4 399.056 78.5894  37
  -3  -4  -4 309.641 57.5437  33
  -3  -4  -4 265.675 79.2466   8
  -3  -4  -4 383.943 47.9060  95
  -3  -4  -4 497.594 109.342  91
  -3  -4  -5 3107.03 178.686  33
  -3  -4  -5 2422.26 248.056  91
  -3  -4  -6 5057.79 261.586  33
  -3  -4  -6 4576.87 362.398  91
  -3  -4  -7 351.578 61.3474  33
  -3  -4  -7 453.898 53.7223  56
  -3  -4  -7 452.088 112.240  91
  -3  -4  -8 31.5629 37.1488  33
  -3  -4  -8 24.4298 27.1085  56
  -3  -4  -9 1218.30 91.4654  33
  -3  -4 -10 360.201 42.6243  33
   3   5 -12 63.2915 28.9827  31
   3   5 -11-44.6890 34.1141  31
   3   5 -10 816.856 72.8380  46
  -3  -5   9 21.5366 64.0794  84
   3   5  -9 10.5686 36.7230  46
   3   5  -8 174.566 45.9714  46
  -3  -5   7 20.7810 58.9550  73
   3   5  -7 5.63029 36.7758  46
  -3  -5   7 38.2391 61.8446  93
  -3  -5   6 4206.97 300.045  81
  -3  -5   6 3349.70 284.420  73
   3   5  -6 3770.31 187.303  28
  -3  -5   5 2388.80 223.198  67
   3   5  -5 2226.10 140.448  48
   3   5  -5 2394.43 130.390  28
  -3  -5   5 2627.12 242.889   5
  -3  -5   4-17.8502 50.6377  74
   3   5  -4-14.5374 40.5466  48
   3   5  -4 61.5067 29.6653  28
  -3  -5   4 39.8266 61.8820   5
  -3  -5   4-84.8675 48.1506  87
   3   5  -3 572.335 59.1306   4
  -3  -5   3 452.134 99.8883  74
   3   5  -3 649.652 111.003  10
   3   5  -3 565.395 54.3926  28
  -3  -5   3 561.013 104.656  87
  -3  -5   3 596.939 108.746   5
   3   5  -2 809.267 69.6383   4
  -3  -5   2 712.334 119.338  74
   3   5  -2 830.421 126.173  10
   3   5  -2 975.396 71.3316  51
   3   5  -2 758.516 62.7214  28
  -3  -5   2 832.557 123.364  87
  -3  -5   2 856.686 130.721   5
   3   5  -1 6007.86 294.069   4
  -3  -5   1 6465.90 396.982  74
  -3  -5   1 6357.75 401.366  90
   3   5  -1 6540.73 295.565  51
  -3  -5   1 6580.59 294.374  95
  -3  -5   1 6539.36 396.127  87
   3   5   0 4992.05 280.419  37
   3   5   0 5982.76 353.256  10
   3   5   0 4863.15 238.021   4
  -3  -5   0 4995.57 331.578  74
   3   5   0 4634.92 249.178  32
   3   5   0 4960.22 237.721  51
  -3  -5   0 5187.69 239.072  95
  -3  -5   0 4887.83 343.458  90
  -3  -5   0 5422.74 342.778  87
   3   5   1 77.4227 57.6888  37
   3   5   1 100.673 40.0572  32
  -3  -5  -1 178.468 66.0984   8
  -3  -5  -1 63.9431 29.7412  95
  -3  -5  -1 117.201 65.6533  90
  -3  -5  -1 67.8250 50.5640  87
   3   5   2-10.2905 56.9247  37
   3   5   2 59.2650 40.9525  32
  -3  -5  -2 37.7443 50.8102   8
  -3  -5  -2-20.5015 58.1769  90
  -3  -5  -2 86.5680 32.0291  95
   3   5   3 8099.31 431.361  37
   3   5   3 8050.74 395.123  32
  -3  -5  -3 9332.87 518.527   8
  -3  -5  -3 8880.63 382.361  95
  -3  -5  -3 8129.36 502.106  91
  -3  -5  -3 7760.89 502.109  90
   3   5   3 8804.79 520.104  11
   3   5   4 8122.16 422.229  37
  -3  -5  -4 8013.54 365.595  95
  -3  -5  -4 8282.28 508.521  91
   3   5   5 703.846 100.408  37
  -3  -5  -5 596.799 72.5239  33
  -3  -5  -5 746.997 138.051  91
  -3  -5  -6 692.000 76.5579  33
  -3  -5  -6 555.523 118.380  91
  -3  -5  -7 1540.42 112.991  33
  -3  -5  -7 1447.43 95.3918  56
  -3  -5  -8 495.317 58.3623  33
  -3  -5  -8 546.960 50.6414  56
  -3  -5  -9 8.04506 24.4762  33
   3   6 -11 133.374 32.1795  31
   3   6 -11 165.640 31.5043  46
   3   6 -10-15.1916 33.0324  31
   3   6 -10 7.95600 31.5171  46
   3   6  -9 22.1887 38.0052  31
   3   6  -9 53.1933 37.0939  46
   3   6  -8 2298.34 139.886  46
  -3  -6   7 587.687 120.704  93
   3   6  -7 706.512 73.6779  46
   3   6  -7 655.106 63.5320  28
   3   6  -6 13191.5 599.224  46
   3   6  -6 14563.6 590.742  28
   3   6  -5 166.665 41.3224  28
   3   6  -5 44.9136 48.2535  48
  -3  -6   4 41.2925 64.1662  74
   3   6  -4 39.7223 31.8228   4
   3   6  -4 21.4381 47.8468  48
   3   6  -4 4.31155 30.7132  28
   3   6  -3 871.056 75.7120   4
  -3  -6   3 794.853 135.907  74
   3   6  -3 831.258 139.184  10
   3   6  -3 860.953 70.6532  28
  -3  -6   3 693.010 127.407  87
  -3  -6   3 932.482 147.993   5
  -3  -6   2 520.887 110.600  74
   3   6  -2 358.076 97.5547  10
   3   6  -2 449.787 57.5216   4
   3   6  -2 440.281 54.2255  51
   3   6  -2 403.324 49.4480  28
  -3  -6   2 457.800 105.458  87
  -3  -6   1 78.5524 58.5108  74
   3   6  -1 119.094 73.4816  10
   3   6  -1 116.673 44.3916  32
   3   6  -1 107.707 36.6508   4
   3   6  -1 55.2845 33.5798  51
  -3  -6   1 85.6776 31.8181  95
  -3  -6   1 20.4118 51.8837  90
  -3  -6   1 39.8661 59.3871  87
   3   6   0 10268.5 558.467  10
   3   6   0 9417.13 422.186   4
   3   6   0 9214.43 436.322  32
  -3  -6   0 9203.22 546.553   8
   3   6   0 9450.65 421.963  51
  -3  -6   0 9549.97 421.663  95
  -3  -6   0 9946.14 564.192  90
  -3  -6   0 10055.2 554.790  87
   3   6   1 12765.6 615.482  37
   3   6   1 12732.9 561.155   4
   3   6   1 12805.5 580.794  32
   3   6   1 12760.7 563.835  51
  -3  -6  -1 14125.2 568.000  95
  -3  -6  -1 12925.8 709.167  90
  -3  -6  -1 14293.4 704.237  87
   3   6   2 845.495 109.883  37
   3   6   2 545.198 75.8764  32
   3   6   2 729.700 70.6106  51
  -3  -6  -2 831.964 72.5584  95
  -3  -6  -2 942.081 149.978  90
   3   6   3 1354.45 111.938  32
  -3  -6  -3 1414.55 97.9858  95
   3   6   3 1150.06 132.818  37
  -3  -6  -3 1351.43 178.863  91
  -3  -6  -3 1435.56 188.552  90
   3   6   4 16002.0 723.546  37
   3   6   4 14719.6 674.319  32
  -3  -6  -4 15653.4 659.375  95
  -3  -6  -4 16817.5 830.720  91
   3   6   5 5247.15 309.769  37
  -3  -6  -5 5695.03 396.763  91
   3   6   6 38.9344 53.8478  37
  -3  -6  -7 385.448 52.2677  33
  -3  -6  -7 321.846 40.8109  56
  -3  -6  -8 1138.24 81.2742  33
  -3  -6  -9 134.157 25.0385  33
   3   6   9 126.111 21.6171  51
   3   7 -10 126.915 30.9325  31
   3   7 -10 91.2840 29.8277  46
   3   7  -9 524.875 54.0211  31
   3   7  -9 617.867 58.6666  46
   3   7  -8-13.9765 31.5616  46
   3   7  -8-21.1378 28.0994  28
   3   7  -7 64.6183 33.7085  52
   3   7  -7 10.2058 33.6576  46
   3   7  -7 16.1322 30.7196  28
   3   7  -6 1181.42 91.2974  46
   3   7  -6 1090.80 82.3598  28
  -3  -7   5 5966.05 402.111  81
   3   7  -5 6014.40 278.850  28
   3   7  -4 1362.70 98.3681   4
   3   7  -4 1334.59 105.212  48
   3   7  -4 1246.89 89.5791  28
   3   7  -3 441.506 53.7720  28
   3   7  -3 427.572 58.3020   4
  -3  -7   3 431.046 103.702  87
   3   7  -2 8959.30 396.967   4
   3   7  -2 8772.17 384.200  28
  -3  -7   2 7783.74 515.158  87
   3   7  -1 6583.00 317.896   4
   3   7  -1 6675.97 318.692  51
  -3  -7   1 6975.24 317.303  95
  -3  -7   1 7417.08 459.145  87
   3   7   0 1641.55 114.618   4
   3   7   0 1703.27 129.272  32
   3   7   0 1855.58 119.646  51
  -3  -7   0 1893.11 117.897  95
  -3  -7   0 1782.66 210.985  90
  -3  -7   0 1922.87 207.721  87
   3   7   1 3542.60 238.932  37
   3   7   1 3647.02 192.758   4
   3   7   1 3571.53 208.316  32
   3   7   1 3431.92 191.185  51
  -3  -7  -1 3870.23 195.927  95
  -3  -7  -1 3815.20 320.127  90
  -3  -7  -1 4001.71 307.849  87
   3   7   2 34.0742 66.0368  37
   3   7   2 37.1378 40.5366  32
   3   7   2-5.49666 33.4511  51
  -3  -7  -2 59.7570 34.8102  95
  -3  -7  -2-23.7333 56.3343  90
   3   7   3 16640.1 765.947  37
   3   7   3 15824.8 721.480  32
   3   7   3 16888.4 707.403  51
  -3  -7  -3 17243.6 707.519  95
   3   7   4 804.747 107.195  37
  -3  -7  -4 760.055 68.4223  95
   3   7   4 760.401 81.3713  32
   3   7   4 813.662 73.5045  51
   3   7   5 105.961 63.5198  37
   3   7   5 27.5731 27.3900  51
   3   7   6 961.594 104.789  37
   3   7   6 1187.59 79.6790  51
   3   7   7 1551.36 89.1100  51
   3   7   8 1014.92 58.9030  51
   3   8  -9 167.842 30.6480  46
   3   8  -8-8.17015 22.9188  28
   3   8  -8-20.2760 25.1935  52
   3   8  -8 37.7093 31.8115  46
   3   8  -7 52.7819 30.8159  52
   3   8  -7 59.2852 29.9257  46
   3   8  -7 26.5917 26.3921  28
   3   8  -6 63.8930 31.1843  28
   3   8  -5 1034.39 77.4600  28
   3   8  -4 1451.16 96.3103   4
   3   8  -4 1222.48 87.9358  28
   3   8  -3 10.2595 31.8852   4
   3   8  -3 12.3042 29.2067  28
   3   8  -2 3310.45 179.598   4
  -3  -8   2 3485.92 292.542  87
   3   8  -1-15.8683 35.1907   4
  -3  -8   1 64.5507 61.0397  87
   3   8   0 6960.43 315.736   4
   3   8   0 6433.57 326.446  32
   3   8   0 6516.26 314.350  51
  -3  -8   0 7067.73 315.792  95
   3   8   1 102.607 45.5677  32
   3   8   1 67.3511 34.6023   4
   3   8   1 40.7246 32.3734  51
  -3  -8  -1 50.5438 29.1244  95
   3   8   2 89.5791 61.8801  37
   3   8   2 19.8814 36.1954  32
   3   8   2 48.8122 32.8046  51
  -3  -8  -2 34.0421 29.3062  95
   3   8   3 18.9738 53.1932  37
   3   8   3 104.609 40.9974  32
  -3  -8  -3 53.8416 29.1076  95
   3   8   3 45.3877 29.4429  51
   3   8   4 8.55414 49.7485  37
   3   8   4 58.9980 35.0520  32
   3   8   4 48.4950 27.6403  51
  -3  -8  -4 15.6212 25.0529  95
   3   8   5 37.2721 23.9633  51
   3   8   5 7.17941 43.6976  37
   3   8   6 142.702 26.2009  51
   3   9  -7 65.3592 23.1234  52
   3   9  -7 85.0822 24.0280  28
   3   9  -6 23.0120 24.7817  52
   3   9  -6 40.4000 23.8283  28
   3   9  -5 374.655 41.7873  28
   3   9  -4 62.9674 29.2946   4
   3   9  -4 81.8449 28.2402  28
   3   9  -3 1903.03 112.546   4
   3   9  -2 1371.36 92.2811   4
   3   9  -1 327.766 46.3308   4
   3   9   0 301.552 50.9919  32
   3   9   0 372.363 46.1727   4
  -3  -9   0 320.046 42.0212  95
   3   9   1 690.307 59.3197   4
   3   9   1 637.254 67.7242  32
  -3  -9  -1 853.565 64.2469  95
   3   9   2 1143.35 105.259  37
  -3  -9  -2 1252.69 81.6945  95
   3   9   2 1291.71 91.9546  32
   3   9   3 1440.28 115.979  37
   3   9   3 1593.63 100.787  32
   3   9   3 1632.57 92.3784  51
   3   9   4 17.1649 22.8711  32
   3   9   4 41.3211 19.8311  51
   3  10  -5 197.107 25.1461  52
   3  10  -4-19.6056 22.2944  52
   3  10  -3 12.6290 21.0183   4
   3  10  -2 159.873 28.5122   4
   3  10  -1 389.004 39.0849   4
   3  10   0 1568.69 85.1891   4
   3  10   1 1714.42 95.0890  32
  -4  10   5 65.2032 23.9920  32
  -4  10   4 1105.45 74.3371  32
  -4  10   3 269.899 40.1973  32
  -4  10   3 272.197 34.5803   4
   4 -10  -3 249.546 32.2968  96
  -4  10   2 17.9542 25.5717  32
  -4  10   2 6.06032 22.5841   4
  -4  10   1-18.8216 22.5246   4
  -4  10   0 18.2414 25.1548   4
  -4  10  -1 13.6543 22.4590   4
  -4  10  -2 424.437 45.5447  48
   4  -9  -7 135.043 29.7532  33
  -4   9   7 52.2883 26.6155  44
  -4   9   6-15.4528 28.7894  32
   4  -9  -6 26.0490 20.2401  96
  -4   9   6 7.94566 26.9093  44
  -4   9   5 416.145 54.0058  32
   4  -9  -5 436.212 46.3857  96
  -4   9   5 506.671 55.4445  44
  -4   9   4 20.1933 33.3270  32
   4  -9  -4 62.0750 27.5897  96
  -4   9   4 46.8126 33.9041  44
  -4   9   3 26.4455 36.4664  32
  -4   9   3 35.7967 30.5109  49
  -4   9   2 308.526 51.3680  32
  -4   9   2 287.104 45.9778  49
  -4   9   1 323.121 48.1549  49
  -4   9   0 884.620 74.7412  49
  -4   9  -1 109.769 34.3141  50
  -4   9  -1 75.7851 33.1228  49
  -4   9  -2 36.9333 29.1089  50
  -4   9  -3 23.7958 25.8927  50
  -4   9  -4 58.3198 23.9400  50
  -4   9  -5 18.2781 22.2759  42
   4  -8  -9 52.7949 24.5050  33
  -4   8   9 57.5685 22.1020  44
   4  -8  -8 1319.70 89.7089  33
  -4   8   8 1199.98 84.0861  44
   4  -8  -7 1759.77 103.769  96
  -4   8   7 1794.69 113.574  44
  -4   8   6 1337.37 97.7749  32
   4  -8  -6 1242.13 86.8858  96
  -4   8   6 1282.31 97.6305  44
  -4   8   5 1636.76 113.025  32
  -4   8   5 1446.40 110.441  44
  -4   8   4 340.854 60.7855  32
   4  -8  -4 422.554 97.6836  92
  -4   8   3 1385.84 97.3246  49
   4  -8  -3 1242.72 167.439  86
  -4   8   2 2099.91 128.146  49
   4  -8  -2 1802.74 209.803  86
   4  -8  -1 44.1111 59.3640  86
  -4   8   1 15.7445 36.7827  49
   4  -8   0 372.188 99.2274  86
  -4   8   0 300.510 47.3092  50
  -4   8   0 463.415 57.6435  49
  -4   8  -1 1349.34 98.5961  50
  -4   8  -1 1734.30 108.146  49
  -4   8  -2 982.374 78.0173  50
  -4   8  -2 837.113 75.2224  49
  -4   8  -3 83.6452 33.2027  50
  -4   8  -4 428.624 50.6195  50
  -4   8  -4 472.783 55.4139  42
  -4   8  -5 361.622 42.4556  50
  -4   8  -5 325.433 46.4500  42
  -4   8  -6 228.774 36.1242  42
  -4   8  -7 50.2474 21.8294  42
   4  -7 -10 31.7354 23.0620  33
   4  -7  -9 4.80612 29.2424  33
  -4   7   8 33.9435 40.2913  38
  -4   7   8 15.4006 32.5755  44
  -4   7   7 1623.48 117.561  38
  -4   7   7 1509.28 111.732  44
  -4   7   6 2048.18 139.316  36
  -4   7   6 2039.67 135.229  32
  -4   7   6 2153.67 125.826  29
   4  -7  -6 2071.13 125.254  96
  -4   7   5 651.175 79.1562  36
  -4   7   5 876.064 74.3712  29
   4  -7  -5 753.248 131.524  86
  -4   7   4 799.977 72.0692  29
  -4   7   4 669.695 69.2534  49
   4  -7  -4 675.753 125.346  86
  -4   7   3 647.212 68.0667  49
  -4   7   3 560.684 62.0666  29
   4  -7  -2 10934.8 630.528  77
  -4   7   2 11336.9 492.665  49
   4  -7  -2 11035.6 632.106  86
   4  -7  -1-21.4130 63.7113  78
  -4   7   1 37.6168 36.0784  49
   4  -7   0 905.607 144.189  78
  -4   7   0 982.848 79.3244  50
  -4   7   0 896.860 80.5926  49
   4  -7   1 305.284 92.5998  78
  -4   7  -1 262.756 50.2965  50
  -4   7  -1 392.854 54.2060  49
   4  -7   2-21.9706 59.1282  78
  -4   7  -2-5.00443 34.4836  50
  -4   7  -2 10.0373 32.1517  49
  -4   7  -3 117.885 38.8803  50
  -4   7  -3 89.1209 42.3337  42
  -4   7  -4 4735.65 230.554  50
  -4   7  -4 4778.96 234.177  42
  -4   7  -5 1513.05 99.0392  50
  -4   7  -5 1594.72 106.708  43
  -4   7  -5 1725.35 108.257  42
  -4   7  -6 269.611 46.0958  43
  -4   7  -6 269.285 46.2851  42
  -4   7  -7 43.6462 27.7384  42
  -4   7  -8-2.06361 20.6145  42
  -4   6  11 14.3509 17.8474  54
  -4   6  10 1184.78 87.9579  38
   4  -6 -10 955.933 80.7822  33
  -4   6  10 1125.22 77.7253  54
  -4   6   9 323.097 56.1467  38
  -4   6   9 378.279 49.0217  54
  -4   6   8 1237.99 109.008  38
  -4   6   8 1354.37 91.3948  29
  -4   6   7 6158.26 321.588  36
  -4   6   7 6432.39 303.967  29
  -4   6   6 142.833 47.0974  36
  -4   6   6 189.925 44.4149  29
  -4   6   5 3596.95 204.141  36
  -4   6   5 3727.01 188.053  29
   4  -6  -5 2884.70 268.493  82
   4  -6  -5 3273.09 279.887  86
   4  -6  -4 11036.9 615.189  82
  -4   6   4 12555.0 516.500  36
  -4   6   4 10864.1 490.715  29
   4  -6  -4 10572.0 613.748  86
   4  -6  -3 12845.9 706.885  82
  -4   6   3 15343.1 609.798  36
  -4   6   3 12963.5 721.440   1
  -4   6   3 13230.6 582.665  29
   4  -6  -3 13464.4 718.714  86
   4  -6  -2 1380.52 169.210  78
   4  -6  -2 1481.12 178.340  82
  -4   6   2 1408.87 183.513   1
   4  -6  -1 551.076 116.017  82
   4  -6  -1 623.147 117.480  78
   4  -6  -1 800.728 130.867  71
  -4   6   1 740.644 138.051   1
  -4   6   0 6042.43 415.173  23
   4  -6   0 5623.69 388.159  78
   4  -6   0 6088.34 405.606  71
  -4   6   0 5875.81 410.914   1
  -4   6   0 5918.43 278.537  50
  -4   6   0 6356.74 285.944  49
   4  -6   0 5220.95 385.396  82
  -4   6  -1 2124.00 225.426  23
   4  -6   1 1849.30 203.411  78
  -4   6  -1 2133.50 222.017   1
   4  -6   1 1634.26 197.202  82
  -4   6  -1 1933.84 118.924  50
  -4   6  -1 1848.25 118.566  49
   4  -6   2 64.2387 66.5482  82
   4  -6   2 20.9892 53.2639  78
   4  -6   2 21.7488 47.7989  72
  -4   6  -2 22.9404 32.4210  57
  -4   6  -2 72.8543 42.2828  43
  -4   6  -2-14.7069 32.6270  50
  -4   6  -3-4.82858 33.2754  57
  -4   6  -3-24.6520 30.3261  50
  -4   6  -3-26.7353 43.4390  43
   4  -6   3 22.0858 48.5334  82
  -4   6  -4 7670.54 347.927  57
  -4   6  -4 7999.81 347.897  50
  -4   6  -4 7557.67 351.969  43
  -4   6  -5 89.1859 41.9329  43
   4  -6   5 66.3625 65.8807  82
  -4   6  -5 71.4776 41.8293  42
  -4   6  -5 67.8112 45.2511  40
  -4   6  -6 222.589 50.4031  43
  -4   6  -6 242.468 50.2558  42
  -4   6  -7 1906.00 112.045  42
  -4   6  -7 1926.35 114.912  43
  -4   6  -7 1877.14 115.828  40
  -4   6  -8 227.005 36.8457  43
  -4   6  -8 168.188 34.1987  42
  -4   5  12 1048.14 63.5387  55
  -4   5  12 900.970 61.3387  54
  -4   5  11 1124.64 85.6221  38
  -4   5  11 1060.00 75.7907  55
  -4   5  11 1135.56 77.7160  54
  -4   5  10 705.587 77.6197  38
  -4   5  10 704.974 65.8244  54
  -4   5   9 3496.79 200.254  38
  -4   5   8 9058.99 399.837  38
  -4   5   8 7840.75 389.462  36
  -4   5   8 7994.69 366.555  29
  -4   5   7 10884.1 487.367  38
  -4   5   7 10053.8 480.255  36
  -4   5   7 11002.1 471.533  34
  -4   5   7 10452.3 459.750  29
   4  -5  -7 9833.85 582.065  82
   4  -5  -6 1711.27 189.253  82
  -4   5   6 1581.76 123.969  36
  -4   5   6 1814.05 129.919  38
  -4   5   6 1646.46 108.860  29
   4  -5  -5 13660.3 716.168  82
  -4   5   5 14604.2 612.477  36
  -4   5   5 12694.4 743.302   6
  -4   5   5 13739.5 591.111  29
   4  -5  -4 3520.50 282.764  82
  -4   5   4 3989.05 195.153  29
   4  -5  -4 3668.67 281.304  86
   4  -5  -3 3297.98 266.958  82
  -4   5   3 3426.63 281.986  22
   4  -5  -3 3607.45 283.437  59
  -4   5   3 3482.54 177.254   3
  -4   5   3 3786.75 182.545  29
  -4   5   3 3419.56 276.754   1
   4  -5  -2 5825.03 387.823  82
  -4   5   2 6608.02 411.311  22
   4  -5  -2 6775.31 398.959  78
   4  -5  -2 6160.91 399.773  59
  -4   5   2 7222.61 423.206   1
  -4   5   2 6457.00 293.080   3
  -4   5   1 1806.34 182.642  23
   4  -5  -1 1398.25 160.981  82
  -4   5   1 1082.24 149.558  22
   4  -5  -1 1023.36 141.901  78
   4  -5  -1 1196.07 156.223  59
  -4   5   1 1580.47 173.759   1
  -4   5   1 1243.47 85.8945   3
  -4   5   0 7172.62 433.175  23
   4  -5   0 6503.81 406.952  78
   4  -5   0 6825.23 421.192  82
  -4   5   0 7294.82 435.230   1
  -4   5   0 6718.54 305.773   3
  -4   5  -1 2891.09 253.207  23
   4  -5   1 2661.14 237.762  82
   4  -5   1 2680.82 235.177  72
  -4   5  -1 2846.08 153.419  43
  -4   5  -1 2629.39 147.343  50
  -4   5  -1 2741.18 241.757   1
  -4   5  -1 2683.71 144.374   3
  -4   5  -2 3392.00 283.844  23
  -4   5  -2 2847.24 268.223  19
   4  -5   2 2954.05 258.024  72
  -4   5  -2 2936.63 157.687  57
  -4   5  -2 2868.90 158.939  50
   4  -5   2 3320.93 272.754  82
  -4   5  -2 2936.76 163.243  43
   4  -5   3 784.744 133.952  72
  -4   5  -3 500.322 122.709  19
  -4   5  -3 755.339 135.326  23
  -4   5  -3 497.809 57.7189  57
  -4   5  -3 614.997 68.9341  43
  -4   5  -3 482.433 58.0215  50
   4  -5   3 440.542 102.363  89
   4  -5   4 848.110 143.502  72
  -4   5  -4 946.089 78.9354  57
  -4   5  -4 796.308 74.3665  50
  -4   5  -4 935.986 83.1814  43
   4  -5   4 881.217 142.998  89
  -4   5  -5 418.818 56.0507  57
  -4   5  -5 526.251 66.3950  43
   4  -5   5 491.657 111.517  89
  -4   5  -5 391.959 62.5946  40
  -4   5  -6-4.96416 42.9494  40
  -4   5  -6 72.4067 42.5267  43
   4  -5   6-42.7492 63.5979  89
  -4   5  -6 62.4112 36.5486  57
  -4   5  -7 239.664 42.0839  57
  -4   5  -7 232.164 46.2956  43
   4  -5   7 170.018 35.8422  94
  -4   5  -7 232.169 44.7995  42
  -4   5  -7 137.167 47.9454  40
   4  -5   8 1523.99 98.0747  94
  -4   5  -8 1527.72 98.3093  43
  -4   5  -8 1806.82 105.330  40
  -4   5  -9 162.992 38.3189  40
  -4   4  12 1059.76 72.9874  55
  -4   4  12 1053.24 71.8790  54
  -4   4  11 10.9137 36.3041  38
  -4   4  11-9.22935 27.4601  54
  -4   4  10 1621.31 121.876  38
  -4   4   9 352.392 65.8082  38
  -4   4   9 315.552 56.7376  34
  -4   4   8 8721.06 394.663  38
   4  -4  -8 8250.04 493.784  82
  -4   4   8 7678.26 382.321  36
  -4   4   8 7872.55 375.107  34
  -4   4   7 2758.33 171.671  38
   4  -4  -7 3178.07 257.552  82
  -4   4   7 2745.79 167.548  36
  -4   4   7 2729.82 159.973  34
  -4   4   7 2528.79 146.617  29
   4  -4  -6 1285.24 164.520  82
  -4   4   6 1707.38 123.679  36
  -4   4   6 1759.11 113.425  34
  -4   4   6 1322.04 176.437   6
  -4   4   6 1686.12 106.113  29
  -4   4   6 1747.35 129.002  38
  -4   4   5 6631.31 322.292  38
   4  -4  -5 5731.46 386.746  82
  -4   4   5 6099.74 401.790  22
  -4   4   5 6284.11 296.270  29
  -4   4   4 391.574 91.4916  22
   4  -4  -4 391.518 87.6048  59
  -4   4   4 368.201 46.8788  29
   4  -4  -4 361.663 87.2177  82
   4  -4  -3 863.999 123.921  82
  -4   4   3 883.463 128.019  22
   4  -4  -3 913.430 115.552  78
   4  -4  -3 700.400 112.193  59
  -4   4   3 832.027 119.773   1
  -4   4   2 1255.37 148.765   1
   4  -4  -2 1017.36 132.605  82
  -4   4   2 884.384 123.841  22
   4  -4  -2 919.441 119.703  78
   4  -4  -2 1020.23 132.187  59
   4  -4  -1 4014.35 277.479  82
   4  -4  -1 3733.83 265.105  78
  -4   4   1 4182.19 282.024  23
  -4   4   1 3847.11 279.847  22
  -4   4   1 4066.01 283.934   1
  -4   4   0 980.210 130.434  23
   4  -4   0 1063.42 128.822  89
   4  -4   0 982.696 130.793  72
  -4   4   0 981.155 135.935  19
   4  -4   0 1044.67 136.698  82
  -4   4   0 1001.84 133.526   1
  -4   4  -1 139.929 62.8862  23
   4  -4   1 48.1083 49.9874  72
  -4   4  -1 128.945 72.1366  19
  -4   4  -1 128.173 69.0405   1
   4  -4   1 136.997 59.6510  89
   4  -4   1 66.5520 55.9839  82
  -4   4  -2 1909.55 199.339  23
  -4   4  -2 2178.89 218.119  19
   4  -4   2 1872.92 193.732  72
  -4   4  -2 2175.51 121.001  57
  -4   4  -2 2123.99 124.552  43
   4  -4   2 2094.16 196.279  89
  -4   4  -3 139.338 69.3938  23
  -4   4  -3 164.644 44.4253  43
   4  -4   3 257.899 81.1584  72
  -4   4  -3 21.9022 65.4140  19
  -4   4  -3 113.231 34.9723  57
  -4   4  -3 160.881 37.2618  50
   4  -4   3 223.971 73.2840  12
   4  -4   3 182.190 73.3143  89
   4  -4   4 179.548 72.3891  72
  -4   4  -4 190.419 91.2275  19
   4  -4   4 377.227 102.878  89
  -4   4  -4 304.959 47.9004  57
  -4   4  -4 293.922 51.3039  43
   4  -4   5 7186.80 484.017  72
  -4   4  -5 8607.04 370.444  57
  -4   4  -5 7790.58 368.392  43
   4  -4   5 8745.67 511.972  89
  -4   4  -5 8280.64 370.647  40
  -4   4  -6 5447.11 257.377  57
  -4   4  -6 5174.29 258.205  43
   4  -4   6 5252.08 382.486  89
  -4   4  -6 5427.85 261.384  40
  -4   4  -7 806.718 72.4720  57
   4  -4   7 939.375 146.050  89
  -4   4  -7 941.824 82.5319  40
  -4   4  -8 234.641 50.7375  40
  -4   4  -8 187.353 37.9967  57
   4  -4   8 220.571 39.3847  94
  -4   4  -9-20.5330 35.0119  40
  -4   4 -10 2973.68 140.856  40
  -4   3  13 5.55579 18.9793  55
   4  -3 -13 3.30222 23.8839  45
  -4   3  12 15.5100 22.2847  54
   4  -3 -12 24.6494 30.9660  45
   4  -3 -11 4389.86 229.731  45
  -4   3  10 6592.55 311.429  38
  -4   3  10 5819.36 295.697  34
  -4   3   9 423.364 71.0753  38
  -4   3   9 525.049 67.6993  34
  -4   3   8 473.724 70.0207  38
   4  -3  -8 341.462 100.068  82
  -4   3   8 415.783 61.0034  34
  -4   3   7 771.829 83.6303  38
   4  -3  -7 466.633 100.539  82
  -4   3   7 684.905 77.9871  36
  -4   3   7 496.081 64.2678  34
  -4   3   7 650.531 61.6404  29
   4  -3  -6 426.589 98.0254  82
  -4   3   6 509.181 74.2421  38
  -4   3   6 625.936 71.8119  36
  -4   3   6 577.308 57.2361  29
   4  -3  -5 62.7115 46.6721  82
  -4   3   5 16.3499 48.6706  22
   4  -3  -4 1436.04 152.122  82
  -4   3   4 1447.72 158.737  22
   4  -3  -4 1440.91 152.594  59
   4  -3  -3 19382.5 908.000  82
  -4   3   3 20083.0 922.252  22
  -4   3   3 21164.9 918.859   1
   4  -3  -3 18842.4 907.424  59
   4  -3  -2 4536.10 283.725  78
  -4   3   2 5013.88 312.091  22
  -4   3   2 5076.08 311.083   1
   4  -3  -2 4925.73 307.661  59
   4  -3  -2 4810.29 302.464  82
  -4   3   1 137.329 60.9126   1
   4  -3  -1 239.471 63.6874  82
  -4   3   1 239.128 71.8554  22
   4  -3  -1 252.507 63.1695  78
   4  -3  -1 214.836 60.5516  89
  -4   3   1 192.252 67.9747  19
  -4   3   1 212.630 64.7262  23
   4  -3   0 561.273 92.5665  82
  -4   3   0 442.919 87.5830  22
   4  -3   0 702.332 97.7007  72
  -4   3   0 661.322 106.650  19
  -4   3   0 498.350 93.5532   1
   4  -3   0 498.287 46.5974  94
   4  -3   0 514.374 87.7723  89
  -4   3  -1 2483.79 199.987   1
   4  -3   1 2018.40 183.795  72
  -4   3  -1 2309.32 207.424  19
   4  -3   1 2457.55 196.691  89
   4  -3   1 2336.09 123.162  94
   4  -3   2 3571.83 264.655  72
  -4   3  -2 4121.48 299.377  19
   4  -3   2 3894.58 188.447  94
   4  -3   2 4105.16 279.818  89
  -4   3  -3 233.821 75.7674  23
   4  -3   3 64.5528 48.1527  72
  -4   3  -3 182.032 77.0647  19
  -4   3  -3 89.8249 31.9274  57
   4  -3   3 75.7839 61.3876  12
   4  -3   3 51.0874 45.9731  89
  -4   3  -4 158.055 86.0695  19
  -4   3  -4 124.758 35.8477  57
   4  -3   4 93.8796 63.2041  89
   4  -3   4 124.933 64.8834  12
  -4   3  -5 247.636 92.0991  19
  -4   3  -5 251.801 42.8548  57
   4  -3   5 367.734 95.7157  89
  -4   3  -5 209.573 49.6299  40
  -4   3  -6 1773.48 110.720  57
   4  -3   6 1398.64 181.713  89
  -4   3  -6 1514.24 110.825  40
  -4   3  -7 4082.70 204.917  57
   4  -3   7 3694.78 313.245  89
  -4   3  -7 4188.26 211.026  40
  -4   3  -8 2416.14 141.107  40
   4  -3   9 11.8623 25.8237  94
  -4   3  -9-15.2641 36.7106  40
  -4   3 -10 37.7048 29.0294  40
   4  -2 -13 4.05036 26.7010  45
   4  -2 -12 303.828 50.6028  45
   4  -2 -11 341.388 60.9189  45
  -4   2  10 184.885 49.2191  34
   4  -2 -10 275.398 58.0708  45
  -4   2   9 682.538 83.9204  38
  -4   2   9 603.451 72.5187  34
   4  -2  -9 804.172 84.9642  45
  -4   2   8 1020.51 99.8193  38
  -4   2   8 1058.92 91.9486  34
  -4   2   8 1042.81 151.156  16
   4  -2  -7 675.392 114.340  82
  -4   2   7 649.264 77.7499  38
  -4   2   7 433.815 97.2799  16
   4  -2  -7 574.029 117.398  25
   4  -2  -6 3591.78 267.279  82
  -4   2   6 4060.30 281.004  16
   4  -2  -6 4057.35 289.007  25
   4  -2  -5 26274.9 1169.11  83
   4  -2  -5 27570.4 1186.26  82
   4  -2  -5 26439.6 1192.76  25
   4  -2  -4 5305.91 315.384  82
  -4   2   4 5319.68 323.418  22
   4  -2  -4 4868.52 312.892  59
  -4   2   4 5443.72 319.222   1
  -4   2   3 160.048 64.5866  22
   4  -2  -3 119.125 48.0000  82
   4  -2  -3 87.3275 46.3594  59
   4  -2  -2 988.766 116.328  82
  -4   2   2 1066.49 124.391  22
   4  -2  -2 1081.44 67.2645  94
   4  -2  -1 9805.50 491.358  82
  -4   2   1 10074.0 495.696  20
  -4   2   1 9398.45 492.408  17
   4  -2  -1 9877.84 412.115  94
   4  -2  -1 9538.30 492.060  89
   4  -2   0 7798.24 418.623  82
   4  -2   0 7988.21 345.085  94
   4  -2   0 7326.79 408.039  72
  -4   2   0 8541.23 438.216  19
  -4   2   0 8801.11 443.309  17
   4  -2   0 8483.33 430.830  89
  -4   2  -1 1392.37 150.558  19
  -4   2  -1 1743.68 162.400  17
  -4   2  -1 1417.14 142.461   1
   4  -2   1 1416.43 84.8809  94
   4  -2   1 1183.86 134.938  89
  -4   2  -2 480.614 92.3280  19
  -4   2  -2 341.326 84.4163  17
   4  -2   2 482.252 46.7746  94
   4  -2   2 604.694 105.578  12
   4  -2   2 517.388 91.2409  89
  -4   2  -3 284.448 92.0435  19
   4  -2   3 177.337 68.0818  12
   4  -2   3 254.304 73.2486  89
  -4   2  -4 4376.54 330.558  19
  -4   2  -4 4116.15 200.919  57
   4  -2   4 4323.43 324.137  12
   4  -2   4 3470.90 280.743  89
  -4   2  -5 771.591 145.788  19
  -4   2  -5 869.972 73.2382  57
  -4   2  -5 880.022 72.7686  56
   4  -2   5 791.891 139.415  12
   4  -2   5 928.049 139.592  89
  -4   2  -6 205.236 42.5029  57
  -4   2  -6 203.130 41.6490  56
   4  -2   6 82.3162 58.7761  89
  -4   2  -6 158.763 50.5798  40
  -4   2  -7 1053.55 83.8427  57
  -4   2  -7 1204.33 94.0102  40
   4  -2   8-4.79716 25.8205  94
  -4   2  -8 14.5264 46.1750  40
   4  -2   9 104.192 30.1319  94
  -4   2  -9 101.366 38.8743  40
  -4   2 -10 1220.83 79.2291  40
   4  -1 -13 166.884 36.6899  45
   4  -1 -12 1535.95 111.822  45
   4  -1 -11 312.527 61.3064  45
   4  -1 -10 15132.8 681.855  30
   4  -1 -10 17357.9 706.655  45
  -4   1   9 1104.83 95.3581  34
   4  -1  -9 1078.84 102.192  45
  -4   1   8 76.8425 46.0652  38
  -4   1   8-20.0969 47.7129  16
  -4   1   7 1605.36 130.683  38
  -4   1   7 2184.57 116.425  97
  -4   1   7 2109.16 202.733  16
   4  -1  -7 2182.92 198.460  82
   4  -1  -7 2408.67 221.910  25
   4  -1  -6 12176.7 612.434  83
   4  -1  -6 13016.1 619.454  82
  -4   1   6 12474.5 618.979  93
   4  -1  -6 11456.1 626.432  25
   4  -1  -5 3910.26 258.446  83
   4  -1  -5 4131.43 261.172  82
  -4   1   5 3820.57 256.439  93
   4  -1  -5 3453.34 259.976  25
   4  -1  -4 2497.56 193.955  83
   4  -1  -4 2883.22 198.563  82
  -4   1   4 2806.24 205.672  22
  -4   1   4 2743.52 198.740  18
   4  -1  -4 2644.89 194.759  59
   4  -1  -4 2549.30 131.659  94
  -4   1   4 2728.80 194.098  93
   4  -1  -3 16018.2 718.405  82
  -4   1   3 16159.3 740.974  20
   4  -1  -3 15880.2 720.551  59
   4  -1  -3 15491.1 642.146  94
  -4   1   2 857.527 107.141  20
   4  -1  -2 897.436 60.2556  94
  -4   1   1 2292.92 172.630  20
  -4   1   1 2073.57 164.486  17
   4  -1  -1 1899.63 103.326  94
   4  -1  -1 1868.46 158.475  89
  -4   1   0 54974.6 2274.93  20
  -4   1   0 56432.3 2290.63  17
   4  -1   0 54942.2 2186.97  94
   4  -1   0 55838.5 2280.10  89
   4  -1   1 459.186 79.8168  89
  -4   1  -1 347.193 81.3105  19
  -4   1  -1 411.810 82.5703  17
   4  -1   1 469.228 43.9028  94
  -4   1  -2 498.817 93.5559  19
  -4   1  -2 506.419 89.5618  17
   4  -1   2 416.979 84.4175  12
   4  -1   2 457.621 46.1259  94
   4  -1   2 580.486 94.0771  89
  -4   1  -3 853.193 131.470  19
  -4   1  -3 677.380 109.255  17
   4  -1   3 759.586 60.8610  94
   4  -1   3 812.270 121.117  12
   4  -1   3 625.640 107.502  89
   4  -1   4 334.566 85.2399  80
  -4   1  -4 355.971 97.2277  19
  -4   1  -4 492.944 52.4484  57
   4  -1   4 365.680 91.2561  12
   4  -1   4 445.739 96.2889  89
   4  -1   5 1484.56 184.158  80
  -4   1  -5 1541.59 198.231  19
  -4   1  -5 1803.71 109.546  57
  -4   1  -5 1690.36 106.507  56
   4  -1   5 1633.10 193.679  12
   4  -1   5 1864.99 192.760  89
   4  -1   6-22.1404 52.5492  80
  -4   1  -6 28.1578 33.1493  57
  -4   1  -6-9.46347 31.7648  56
  -4   1  -7 5228.38 252.651  57
  -4   1  -7 5436.83 256.566  56
  -4   1  -8 5811.66 268.853  56
  -4   1  -8 5597.47 271.324  40
  -4   1  -9 730.455 67.3838  40
  -4   1 -10 76.3016 35.5069  40
   4   0 -13 35.0677 30.4902  45
   4   0 -12-23.5125 37.2980  45
   4   0 -11 3729.13 206.627  30
   4   0 -11 4311.36 223.980  45
  -4   0  10 166.546 77.0619  84
   4   0 -10 47.4827 42.7051  30
   4   0 -10 81.1590 47.8260  45
   4   0  -9 3977.27 210.516  30
   4   0  -8 1293.15 100.111  30
  -4   0   8 1442.08 166.644  93
   4   0  -8 1474.12 177.668  25
  -4   0   7 4752.29 316.474  93
   4   0  -7 4569.51 326.593  25
   4   0  -6 623.501 102.139  83
   4   0  -6 659.255 110.475  25
  -4   0   6 633.095 106.997  93
   4   0  -5 368.097 79.3711  83
  -4   0   5 282.386 74.5939  18
  -4   0   5 367.789 77.4913  93
   4   0  -5 368.973 83.7657  25
   4   0  -4 3073.21 216.386  83
  -4   0   4 3354.86 220.201  81
  -4   0   4 2875.25 219.480  20
  -4   0   4 2954.51 214.303  18
  -4   0   4 2990.33 211.066  93
  -4   0   3 5600.16 308.588  81
  -4   0   3 5606.67 325.174  20
  -4   0   3 5659.96 313.663  18
   4   0  -3 5453.18 244.743  94
  -4   0   2 27636.5 1168.40  20
  -4   0   2 27839.3 1156.76  17
   4   0  -2 26179.0 1069.04  94
  -4   0   1 6771.26 355.213  17
   4   0  -1 6027.92 269.045  94
   4   0   0 51798.2 2138.96  79
  -4   0   0 53554.7 2162.05  17
   4   0   0 52040.7 2054.03  94
   4   0   0 50466.0 2137.86  89
  -4   0   0 51242.6 2156.57  24
  -4   0  -1 799.696 105.292  24
   4   0   1 708.408 96.8258  79
  -4   0  -1 741.777 109.023  17
   4   0   1 778.403 56.6163  94
   4   0   1 688.465 100.282  12
   4   0   1 691.871 97.1595  89
   4   0   2 3485.31 243.417  79
  -4   0  -2 3373.13 253.296  19
  -4   0  -2 3695.90 258.440  17
   4   0   2 3628.07 254.057  12
   4   0   2 3326.39 164.989  94
   4   0   2 3333.17 234.491  89
  -4   0  -3 2366.08 217.823  19
  -4   0  -3 2027.64 197.100  17
   4   0   3 2213.00 207.470  12
   4   0   3 2397.47 125.775  94
  -4   0  -4 18.0284 35.3541  33
  -4   0  -4-20.8467 59.1401  19
  -4   0  -4 41.8368 29.7931  57
  -4   0  -4 36.0821 27.3943  56
   4   0   4-4.02692 22.8522  94
   4   0   4-18.8009 50.5998  12
  -4   0  -5 612.512 75.2154  33
  -4   0  -5 831.161 145.580  19
  -4   0  -5 709.547 64.8988  57
  -4   0  -5 760.556 66.5783  56
   4   0   5 740.941 130.386  12
  -4   0  -6 722.062 83.1852  33
  -4   0  -6 743.680 68.9200  57
  -4   0  -6 839.513 71.2910  56
  -4   0  -7 483.306 57.3393  56
  -4   0  -8 248.254 43.9325  56
  -4   0  -9 5395.26 252.826  40
  -4   0 -10 372.358 46.9736  40
   4   1 -13 32.5485 32.3894  47
   4   1 -13 7.96605 26.7466  45
   4   1 -12 797.157 71.9465  30
   4   1 -12 662.915 71.9805  45
   4   1 -11 904.068 84.3014  30
   4   1 -11 1090.92 95.2469  45
   4   1 -10 3487.22 188.116  30
   4   1 -10 3497.71 199.234  45
  -4  -1   9 1931.36 213.761  84
   4   1  -9 2344.50 143.163  30
  -4  -1   9 2355.67 222.053  93
  -4  -1   8 1002.97 144.639  84
   4   1  -8 1191.35 92.2446  30
   4   1  -8 939.185 148.648  13
  -4  -1   8 1081.32 146.178  93
   4   1  -8 960.373 145.785  25
  -4  -1   7 377.454 89.6996  84
   4   1  -7 445.794 58.1388  30
   4   1  -7 444.158 95.2019  13
  -4  -1   7 544.740 103.775  93
   4   1  -7 220.737 78.9563  25
  -4  -1   6 4218.78 283.838  81
  -4  -1   6 4126.54 293.067  18
   4   1  -6 3734.12 280.433  13
  -4  -1   6 4107.65 283.235  93
   4   1  -6 4269.09 294.556  25
  -4  -1   5 1591.34 157.884  81
  -4  -1   5 1704.07 163.406  18
   4   1  -5 1854.48 166.987  83
   4   1  -5 1672.75 165.544  13
  -4  -1   5 1520.15 153.458  93
   4   1  -5 1597.79 163.370  25
   4   1  -4-12.3125 45.5412  83
  -4  -1   4 12.0319 44.5032  81
   4   1  -4-12.3982 44.4887  10
  -4  -1   4 66.1262 48.9170  20
  -4  -1   4-12.7548 48.5447  18
  -4  -1   4-35.2401 45.9330  93
   4   1  -3 7869.44 432.901  10
   4   1  -3 8836.01 436.665  83
  -4  -1   3 8314.65 426.287  81
  -4  -1   3 8285.38 444.202  20
   4   1  -3 8439.49 356.533  94
  -4  -1   3 8421.37 424.824  93
  -4  -1   3 7841.19 429.817  87
  -4  -1   2 2446.94 190.506  87
   4   1  -2 2438.82 126.178  94
  -4  -1   1 27.4162 40.8007  24
   4   1  -1 24.0124 44.4219  10
   4   1  -1 31.3229 21.4014  94
  -4  -1   1 23.6602 43.7709  87
   4   1   0 4025.37 260.386  10
   4   1   0 4357.63 268.303  79
  -4  -1   0 4075.18 269.490  24
   4   1   0 3853.48 183.473  94
  -4  -1   0 4141.66 258.262  87
   4   1   1 766.365 110.637  79
  -4  -1  -1 1118.14 128.623  24
  -4  -1  -1 912.135 122.737  17
  -4  -1  -1 1097.21 127.104  91
   4   1   2 1095.15 134.546  79
  -4  -1  -2 1533.91 161.465  17
  -4  -1  -2 1426.98 152.856  91
   4   1   3 2472.34 218.934  79
  -4  -1  -3 2622.94 224.021  17
   4   1   3 2763.91 226.230  12
  -4  -1  -3 2656.98 228.818  91
   4   1   4-19.0744 54.1209  79
  -4  -1  -4 56.1712 34.9811  33
  -4  -1  -4 21.4465 26.6796  57
  -4  -1  -4 54.2031 28.7497  56
  -4  -1  -4 59.0089 58.5321  91
   4   1   4-18.7383 50.4403  12
   4   1   5 590.782 113.843  79
  -4  -1  -5 615.871 75.8646  33
  -4  -1  -5 868.077 69.5366  57
  -4  -1  -5 722.310 66.1704  56
   4   1   5 593.466 118.978  12
   4   1   6 90.4203 67.2856  79
  -4  -1  -6 49.4099 40.0968  33
  -4  -1  -6 27.7544 28.5178  57
  -4  -1  -6 77.2444 35.2404  56
   4   1   7 298.799 97.5193  79
  -4  -1  -7 386.597 61.3362  33
  -4  -1  -7 288.628 47.1594  56
  -4  -1  -8 2733.38 148.585  56
  -4  -1  -9 634.575 57.4566  56
  -4  -1 -10 1735.91 97.0069  40
   4   2 -13 11.7342 28.3471  47
   4   2 -12 115.503 37.5303  30
   4   2 -12 157.336 44.8710  47
   4   2 -11 763.931 77.3860  30
  -4  -2  10 1960.97 216.128  84
   4   2 -10 2406.12 145.365  30
  -4  -2   9 1091.56 159.035  84
   4   2  -9 1220.83 99.1015  30
  -4  -2   9 1325.16 163.949  93
  -4  -2   8 1021.09 147.157  84
   4   2  -8 1136.31 93.0160  30
  -4  -2   8 1003.28 149.507  93
  -4  -2   7 266.911 79.2324  84
  -4  -2   7 316.272 88.6811  81
  -4  -2   7 225.536 83.5756  18
   4   2  -7 334.972 54.4142  30
   4   2  -7 418.133 100.264  13
  -4  -2   7 467.342 100.238  93
  -4  -2   6 32.1394 47.8700  81
  -4  -2   6 15.3372 43.5727  73
  -4  -2   6 68.2322 64.9656  18
   4   2  -6 124.732 39.8204  30
   4   2  -6 53.5271 48.0761  13
  -4  -2   6 47.4593 53.1525  93
   4   2  -5 2389.60 198.323  83
  -4  -2   5 2546.02 206.228  81
  -4  -2   5 2568.48 201.782  73
  -4  -2   5 2005.70 194.731  18
  -4  -2   5 2577.55 205.673  93
   4   2  -4 3177.86 227.205  83
   4   2  -4 3261.97 235.568  10
  -4  -2   4 3162.68 231.873  81
  -4  -2   4 2764.84 227.167   5
  -4  -2   4 3765.81 241.728  93
  -4  -2   4 3164.76 232.051  87
   4   2  -3 758.662 100.430  83
  -4  -2   3 797.855 103.711  81
   4   2  -3 991.224 119.606  10
  -4  -2   3 583.659 93.4628   5
  -4  -2   3 776.002 108.080  87
  -4  -2   2 59.6911 44.4254  24
  -4  -2   2 11.1587 36.1246  81
   4   2  -2 185.750 62.9995  10
  -4  -2   2 39.7477 46.0579  87
   4   2  -2 35.6859 21.5620  94
  -4  -2   2 39.2537 43.9455   5
  -4  -2   1 354.618 71.2051   5
  -4  -2   1 275.448 76.5828  24
   4   2  -1 540.731 94.2867  10
  -4  -2   1 381.898 75.1948  87
  -4  -2   0 47.7735 42.8693  24
   4   2   0 14.3738 36.4858  79
   4   2   0 65.8078 57.8514  10
  -4  -2   0 13.1199 45.5953  87
   4   2   1 1732.05 170.421  79
  -4  -2  -1 1846.21 175.243  91
  -4  -2  -1 2107.08 190.860  24
   4   2   2 2124.43 194.297  79
  -4  -2  -2 1926.86 188.960  91
  -4  -2  -2 1893.55 190.911  24
   4   2   3 13504.2 700.398  79
  -4  -2  -3 13702.4 588.741  33
  -4  -2  -3 14510.0 710.089  17
  -4  -2  -3 12997.6 566.792  57
  -4  -2  -3 13968.3 710.712  91
   4   2   4 122.319 60.6733  79
  -4  -2  -4 19.5218 33.5665  33
  -4  -2  -4 31.3051 29.7894  57
  -4  -2  -4 41.5967 49.3857  91
   4   2   5 66.0353 65.4924  79
  -4  -2  -5-6.99657 39.6982  33
  -4  -2  -5 4.64437 28.5663  57
  -4  -2  -5 18.9151 30.2975  56
  -4  -2  -5 22.3912 63.5209  91
   4   2   6 366.960 102.786  79
  -4  -2  -6 467.763 71.2268  33
  -4  -2  -6 580.505 59.7107  56
  -4  -2  -6 598.585 125.544  91
  -4  -2  -7 546.044 72.1516  33
  -4  -2  -7 608.136 62.5574  56
  -4  -2  -8 247.350 49.8310  33
  -4  -2  -8 221.008 40.0832  56
  -4  -2  -9 607.464 53.5668  56
  -4  -2 -10 456.136 43.4951  40
   4   3 -13 106.988 27.6798  47
   4   3 -12 465.146 52.5828  30
   4   3 -12 449.774 52.0606  47
   4   3 -11 54.4921 38.5445  30
  -4  -3  10 84.6046 63.3412  84
   4   3 -10 260.855 52.9479  30
  -4  -3   9-21.5219 57.9209  84
   4   3  -9-5.76031 40.0277  30
  -4  -3   9 19.3504 57.5732  93
  -4  -3   8 375.057 104.815  84
  -4  -3   8 312.177 96.6730  81
  -4  -3   8 366.236 93.9476  93
   4   3  -8 287.892 57.7481  30
  -4  -3   7 1081.96 146.866  81
  -4  -3   7 902.289 136.923  73
  -4  -3   7 1271.77 163.677  18
   4   3  -7 1043.03 89.6916  30
  -4  -3   7 1051.18 147.194  93
  -4  -3   6-17.4075 54.1760  81
  -4  -3   6 85.5760 53.2691  73
  -4  -3   6 221.008 75.7703  18
   4   3  -6 64.5019 40.1686  30
  -4  -3   6 120.578 69.1693  93
  -4  -3   5 129.256 61.6035  81
  -4  -3   5 123.642 58.9378  73
  -4  -3   5 85.4390 66.9197  18
  -4  -3   5 56.1440 50.5004   5
   4   3  -4 3495.24 249.935  10
  -4  -3   4 3204.81 243.309  81
  -4  -3   4 2914.29 244.648   5
  -4  -3   4 3104.55 241.363  87
  -4  -3   3 590.776 101.865  24
   4   3  -3 781.746 118.672  10
  -4  -3   3 714.224 111.796   5
  -4  -3   3 532.019 98.6667  87
  -4  -3   2 67.3485 47.9356  24
   4   3  -2 223.913 74.6689  10
  -4  -3   2 45.3529 52.6806  87
  -4  -3   2 161.229 61.4972   5
  -4  -3   1 16.0478 38.0913   5
  -4  -3   1 69.7852 51.9095  24
   4   3  -1 14.8532 51.6077  10
  -4  -3   1 14.6008 23.6173  95
  -4  -3   1-30.1219 48.7162  87
  -4  -3   0 764.105 120.980  24
   4   3   0 696.244 113.890  10
  -4  -3   0 734.494 61.6641  95
  -4  -3   0 645.389 107.152  87
   4   3   1 1324.40 158.002  79
  -4  -3  -1 1435.29 157.036   8
  -4  -3  -1 1564.56 97.0926  95
  -4  -3  -1 1574.98 177.940  24
  -4  -3  -2 468.789 102.728  24
   4   3   2 232.161 69.7003  37
   4   3   2 336.754 85.0356  79
   4   3   2 377.404 56.6405  32
  -4  -3  -2 392.370 85.3665   8
  -4  -3  -2 379.726 88.4304  91
  -4  -3  -3 409.625 99.7125  24
   4   3   3 334.636 76.4493  37
   4   3   3 342.271 95.0008  79
  -4  -3  -3 463.996 100.214  91
   4   3   4 990.797 150.620  79
  -4  -3  -4 1393.55 106.847  33
  -4  -3  -4 1112.10 84.3433  57
  -4  -3  -4 1277.80 172.872  91
   4   3   5 112.592 70.0033  79
  -4  -3  -5 42.6156 40.8417  33
  -4  -3  -5 66.0480 32.0078  57
  -4  -3  -5-23.2006 51.0155  91
   4   3   6 135.608 73.4066  79
  -4  -3  -6 135.283 46.9765  33
  -4  -3  -6 208.062 42.1648  56
  -4  -3  -6 185.735 80.9392  91
  -4  -3  -7 841.694 88.1897  33
  -4  -3  -7 1174.88 82.3780  56
  -4  -3  -8 402.534 57.4429  33
  -4  -3  -8 449.573 49.4025  56
  -4  -3  -9 128.925 27.8846  56
  -4  -3 -10 45.7813 23.4687  40
   4   4 -12 519.024 49.7964  31
   4   4 -12 513.692 48.8538  30
   4   4 -11 246.617 46.6168  30
   4   4 -10 1214.79 93.1979  30
  -4  -4   9 3345.75 298.876  84
   4   4  -9 3490.20 196.936  46
  -4  -4   9 3758.47 298.457  93
  -4  -4   8 195.806 83.5672  84
  -4  -4   8 279.541 93.7541  81
   4   4  -8 292.352 53.8486  30
  -4  -4   8 435.103 104.064  93
  -4  -4   7 532.954 112.608  81
  -4  -4   7 570.749 113.242  73
   4   4  -7 505.694 66.0799  30
  -4  -4   7 685.262 127.220  93
  -4  -4   6-37.9828 70.2460  81
  -4  -4   6 19.1039 51.4152  73
   4   4  -6 31.6790 34.8087  30
  -4  -4   6 75.2656 63.1602  93
  -4  -4   5 1120.23 146.986  81
  -4  -4   5 1366.77 158.805  73
  -4  -4   5 1061.68 146.957  18
   4   4  -5 1016.43 75.7231  28
  -4  -4   5 811.283 134.702   5
  -4  -4   4 257.203 77.7232  81
   4   4  -4 445.950 95.5098  10
   4   4  -4 320.502 44.6669   4
   4   4  -4 304.444 42.9734  28
  -4  -4   4 201.043 73.0065   5
  -4  -4   4 174.541 67.3693  87
   4   4  -3 4122.21 207.186   4
   4   4  -3 4891.07 317.047  10
  -4  -4   3 3625.12 299.120   5
  -4  -4   3 4520.03 308.130  87
   4   4  -2 3581.48 186.705   4
   4   4  -2 4066.77 287.733  10
  -4  -4   2 3631.56 289.515   5
  -4  -4   2 3932.79 297.631  24
  -4  -4   2 3674.90 276.876  87
   4   4  -1 13318.9 569.249   4
   4   4  -1 12498.3 608.926  37
   4   4  -1 12556.5 580.366  32
  -4  -4   1 13779.9 566.479  95
  -4  -4   1 13828.7 688.861  87
  -4  -4   1 14340.8 717.018  24
   4   4   0 1354.94 93.8296   4
   4   4   0 1035.49 117.062  37
   4   4   0 1520.35 168.583  10
   4   4   0 1228.12 103.275  32
  -4  -4   0 1396.26 159.680   8
  -4  -4   0 1387.48 91.6622  95
  -4  -4   0 1383.53 161.390  87
  -4  -4  -1 88.2853 56.0343  24
   4   4   1 10.1894 55.6329  37
   4   4   1 46.0740 37.3922  32
  -4  -4  -1 126.785 60.8241   8
  -4  -4  -1 37.8847 26.5981  95
  -4  -4  -2 46.5333 55.2265  24
   4   4   2 53.2896 54.9281  37
   4   4   2 20.5305 39.7923  32
  -4  -4  -2-19.0883 51.3759   8
  -4  -4  -2 19.9255 26.4463  95
  -4  -4  -3 340.877 98.6222  24
   4   4   3 309.726 78.0557  37
   4   4   3 448.630 102.315  79
   4   4   3 320.766 59.9077  32
  -4  -4  -3 408.889 103.055  91
   4   4   4 1114.43 127.269  37
   4   4   4 1589.19 189.022  79
  -4  -4  -4 1260.43 177.672  91
  -4  -4  -5 2631.64 162.801  33
  -4  -4  -5 2448.87 140.578  57
  -4  -4  -5 2620.63 262.210  91
  -4  -4  -6 2132.23 141.138  33
  -4  -4  -6 2081.70 123.703  56
  -4  -4  -6 2276.70 236.437  91
  -4  -4  -7 2060.37 129.687  33
  -4  -4  -7 1740.83 107.904  56
  -4  -4  -8 33.4866 31.6110  33
  -4  -4  -8 70.4246 25.4555  56
  -4  -4  -9 806.546 53.0448  56
   4   5 -12 76.9634 25.3632  31
   4   5 -11 87.1921 32.1783  31
   4   5 -10 816.066 70.0668  30
   4   5 -10 802.171 69.4186  46
   4   5  -9 141.828 41.5659  30
   4   5  -9 60.0314 38.5337  46
   4   5  -8 1794.65 116.000  30
   4   5  -8 1491.19 110.403  46
  -4  -5   8 1856.73 197.290  93
  -4  -5   7 2116.65 226.244  81
   4   5  -7 2758.24 153.452  30
  -4  -5   7 2340.54 233.257  93
  -4  -5   6 2293.73 231.347  81
   4   5  -6 2624.46 150.178  30
   4   5  -6 2434.64 136.576  28
  -4  -5   5 2603.91 237.889  81
  -4  -5   5 2081.52 217.403  73
   4   5  -5 2405.21 134.037  28
   4   5  -4 10703.1 467.724   4
  -4  -5   4 10764.6 590.721  81
   4   5  -4 10815.5 461.177  28
  -4  -5   4 10073.3 584.682  87
   4   5  -3 1444.34 99.5775   4
   4   5  -3 1240.70 164.164  10
   4   5  -3 1364.36 92.6748  28
  -4  -5   3 1345.49 168.634  87
  -4  -5   3 1467.40 183.848   5
   4   5  -2 177.061 84.7646  10
   4   5  -2 127.205 40.0570   4
   4   5  -2 133.056 34.8948  28
  -4  -5   2 19.8300 59.1782  87
   4   5  -1 2851.73 164.627   4
   4   5  -1 3229.90 269.381  10
   4   5  -1 2914.13 178.453  32
  -4  -5   1 3402.94 167.915  95
  -4  -5   1 3025.61 262.161  87
  -4  -5   1 3009.41 272.836  24
  -4  -5   0 900.657 147.627  24
   4   5   0 445.488 88.7680  37
   4   5   0 640.067 122.793  10
   4   5   0 565.117 71.6182  32
   4   5   0 574.368 62.5646   4
  -4  -5   0 649.641 120.317   8
  -4  -5   0 742.957 66.2402  95
  -4  -5   0 391.842 99.0617  87
  -4  -5  -1 24.8387 63.0250  24
   4   5   1-33.2988 57.2011  37
   4   5   1 28.8554 39.8942  32
  -4  -5  -1 10.4237 28.8239  95
   4   5   2 160.243 72.8592  37
   4   5   2 140.177 47.6542  32
  -4  -5  -2 166.248 40.9904  95
   4   5   3-46.4368 60.7323  37
   4   5   3-36.6555 44.6135  32
  -4  -5  -3-5.38284 30.9326  95
   4   5   4 1392.97 144.278  37
  -4  -5  -4 1849.12 209.383  91
   4   5   5 741.887 103.301  37
  -4  -5  -5 1096.20 157.660  91
  -4  -5  -6 23.0447 30.1783  33
  -4  -5  -6 57.6786 28.6730  56
  -4  -5  -7 232.804 42.0353  33
  -4  -5  -7 185.554 33.6882  56
  -4  -5  -8 3250.81 151.508  56
   4   6 -11 22.8004 23.2314  31
   4   6 -11-9.25536 20.8610  46
   4   6 -10 362.242 44.1115  31
   4   6 -10 384.265 45.3730  46
   4   6  -9 108.391 37.3427  46
   4   6  -8 135.454 42.3087  46
   4   6  -7 1905.30 129.019  46
   4   6  -7 2210.04 121.497  28
  -4  -6   7 2270.82 222.575  93
  -4  -6   6 2550.51 245.997  81
   4   6  -6 2743.30 147.392  28
  -4  -6   5 4833.14 355.418  81
   4   6  -5 4975.37 237.378  28
   4   6  -4 6531.52 304.289   4
  -4  -6   4 6654.94 432.833  81
   4   6  -4 6457.01 297.496  28
  -4  -6   4 6175.48 419.928  87
   4   6  -3 5.39251 31.7265   4
   4   6  -3 8.93759 33.0626  28
  -4  -6   3 64.4218 60.9200  87
   4   6  -2 5.46327 33.2519   4
   4   6  -2 39.4485 32.4366  28
  -4  -6   2 21.6323 54.8952  87
   4   6  -1 121.010 47.0225  32
   4   6  -1 70.9935 37.7521   4
   4   6  -1 93.1681 35.1873  51
   4   6  -1 42.5197 30.6656  28
  -4  -6   1 150.720 82.0042  87
   4   6   0 99.3784 61.9790  37
   4   6   0 102.971 45.3965  32
   4   6   0 102.070 35.6209   4
   4   6   0 104.317 36.1442  51
  -4  -6   0 111.273 36.4031  95
  -4  -6   0 42.2706 53.7640  87
   4   6   1 993.593 123.498  37
   4   6   1 958.725 97.8051  32
   4   6   1 1153.84 89.2121  51
   4   6   2 1351.01 142.029  37
   4   6   2 1269.74 112.343  32
   4   6   2 1294.26 96.6570  51
  -4  -6  -2 1492.01 102.063  95
   4   6   3 2396.61 193.977  37
   4   6   3 2613.65 169.201  32
   4   6   3 3032.18 157.714  51
   4   6   4-42.3188 56.9452  37
   4   6   4-6.50925 37.3902  32
   4   6   4 4.76700 27.0467  51
   4   6   5 339.411 44.7261  51
  -4  -6  -6 136.250 31.2917  56
  -4  -6  -7 2.46891 20.4197  56
   4   7 -10 1521.15 84.3201  46
   4   7  -9 23.1274 27.3404  46
   4   7  -8 56.3023 31.9487  46
   4   7  -8 62.9089 26.5713  28
   4   7  -7 54.3142 35.6766  46
   4   7  -7 42.8003 27.3990  28
   4   7  -6 2300.53 137.140  46
   4   7  -6 2427.40 131.182  28
   4   7  -5 1138.34 82.1978  28
   4   7  -4 65.3779 35.3250   4
   4   7  -4 73.2549 34.8809  28
  -4  -7   4 41.4002 55.7654  87
   4   7  -3 316.582 51.2776   4
   4   7  -3 374.490 49.6858  28
  -4  -7   3 386.360 102.804  87
   4   7  -2 387.245 55.5870   4
   4   7  -2 516.680 55.2381  28
  -4  -7   2 369.716 97.1158  87
   4   7  -1 2673.32 150.813   4
   4   7  -1 2544.76 160.831  32
  -4  -7   1 2307.71 237.667  87
   4   7   0 4463.86 227.205   4
   4   7   0 4239.15 240.663  32
   4   7   0 4862.98 230.705  51
  -4  -7   0 4667.76 229.220  95
  -4  -7   0 4701.16 345.544  87
   4   7   1 2627.45 194.915  37
   4   7   1 2663.02 169.028  32
   4   7   1 2720.17 154.296  51
  -4  -7  -1 2993.41 158.263  95
   4   7   2 407.951 62.9522  32
   4   7   2 422.658 50.9929  51
  -4  -7  -2 420.909 52.8258  95
   4   7   3 206.069 67.4277  37
   4   7   3 287.163 54.9074  32
   4   7   3 333.800 46.4114  51
   4   7   4 2292.99 139.365  32
  -4  -7  -4 2478.54 125.895  57
   4   7   4 2254.21 127.725  51
  -4  -7  -5 9.11333 22.6420  56
   4   7   5 16.2605 22.4143  51
  -4  -7  -6 4170.18 187.283  56
   4   7   6 4251.23 188.935  51
   4   8  -8 292.044 33.4367  28
   4   8  -8 435.129 40.6895  46
   4   8  -7 1215.84 77.0328  46
   4   8  -7 1102.26 71.4390  28
   4   8  -6 119.694 30.0011  28
   4   8  -5 2457.66 129.569  28
   4   8  -4 315.262 45.4868   4
   4   8  -4 311.818 42.3454  28
   4   8  -3 5031.58 241.651   4
   4   8  -3 5108.84 234.054  28
   4   8  -2 3315.21 174.064   4
   4   8  -1 4797.52 231.681   4
   4   8   0 404.523 58.4528  32
   4   8   0 383.476 49.7461   4
  -4  -8   0 456.690 50.4878  95
   4   8   1 332.398 54.5027  32
  -4  -8  -1 416.656 47.5398  95
   4   8   2 1251.74 97.3163  32
   4   8   2 1335.20 86.0431  51
   4   8   3 459.138 56.3924  32
   4   8   3 523.681 48.4506  51
   4   8   4 25.6705 26.1251  32
   4   8   4 18.9341 19.7304  51
  -4  -8  -5 30.8409 16.4250  56
   4   8   5 46.8837 16.9669  51
   4   9  -6 1060.16 61.9536  28
   4   9  -5 3361.41 161.764  52
   4   9  -5 3803.67 163.746  28
   4   9  -4 348.980 38.6555   4
   4   9  -4 301.138 34.2207  28
   4   9  -3 1178.17 75.9960   4
   4   9  -2 672.653 56.3311   4
   4   9  -1 860.122 62.9974   4
   4   9   0 1285.81 76.8322   4
   4   9   0 1153.71 82.8454  32
   4   9   1 11.2194 24.8844  32
   4   9   2 9.91471 23.1563  32
  -4  -9  -2 2.08707 17.4644  57
  -5  10   2 21.6396 17.3835   4
  -5  10   1 111.639 22.8092   4
  -5  10   0 326.616 31.4989   4
  -5   9   6 104.966 27.2709  32
  -5   9   6 124.637 28.4289  44
  -5   9   5 73.1470 28.6271  32
   5  -9  -5 14.5406 17.9245  96
  -5   9   5 31.1002 24.6335  44
  -5   9   4 4.08978 26.9656  32
  -5   9   4 2.99483 23.5807  49
   5  -9  -4 26.4848 19.7069  96
  -5   9   3 172.183 38.8105  32
  -5   9   3 121.444 30.3045  49
  -5   9   2 12.8359 30.4656  32
  -5   9   2-3.57045 27.1785  49
  -5   9   1 366.527 45.5501  49
  -5   9   0 443.924 47.8707  49
  -5   9  -1 447.377 44.4704  50
  -5   9  -2 580.596 49.1314  50
  -5   9  -3 824.532 55.9104  50
   5  -8  -8 655.440 57.1589  33
  -5   8   8 764.823 57.7545  44
  -5   8   7 16.0486 27.8864  44
  -5   8   6 13.3618 29.8999  32
  -5   8   6-13.9746 30.7076  44
  -5   8   5 127.071 39.3103  32
   5  -8  -5 139.506 32.4099  96
  -5   8   4 1416.46 94.6445  49
  -5   8   3 4.54132 31.0266  49
  -5   8   2 523.700 58.9811  49
  -5   8   1 922.865 76.9972  49
  -5   8   0 36.5421 31.9662  50
  -5   8   0-4.48397 30.6392  49
  -5   8  -1 2095.63 122.145  50
  -5   8  -1 2281.84 126.619  49
  -5   8  -2 147.044 35.1838  50
  -5   8  -3 108.227 30.9749  50
  -5   8  -4 20.4030 24.5466  50
  -5   8  -4 29.4148 28.0662  42
  -5   8  -5 361.687 38.2403  42
   5  -7  -9 165.114 34.0711  33
  -5   7   8-4.42601 29.4464  44
  -5   7   7 90.3250 40.6604  36
  -5   7   7 87.0178 32.5092  29
  -5   7   6 337.398 59.5376  36
  -5   7   6 401.188 50.8469  29
  -5   7   5 5036.96 269.547  36
  -5   7   5 5743.45 259.156  29
  -5   7   4 8076.31 375.590  36
  -5   7   4 7902.81 356.486  29
   5  -7  -3 377.750 97.2760  82
  -5   7   3 411.525 58.2422  49
   5  -7  -3 407.537 99.3674  86
   5  -7  -2 197.821 79.1047  86
   5  -7  -2 21.3342 63.7650  82
  -5   7   2 215.709 45.9185  49
   5  -7  -1 451.795 111.835  82
  -5   7   1 685.845 68.9849  49
   5  -7   0 2363.29 240.896  82
  -5   7   0 2800.22 149.845  50
  -5   7   0 2592.07 150.698  49
   5  -7   1 1813.24 206.794  82
  -5   7  -1 1879.78 117.915  50
  -5   7  -1 2002.95 120.715  49
  -5   7  -2 18.4264 31.7503  50
  -5   7  -3 42.9269 30.6116  50
  -5   7  -3 43.3183 35.2292  42
  -5   7  -4-15.0535 26.3861  50
  -5   7  -4-40.3629 30.9524  42
  -5   7  -5 273.419 42.4812  42
  -5   7  -6 4875.09 218.531  42
  -5   6  10 54.0228 33.5722  38
   5  -6 -10 26.2369 24.2756  33
  -5   6  10 25.1026 20.5272  54
  -5   6   9 26.1412 36.9401  38
  -5   6   9 20.1879 24.9048  29
  -5   6   8 425.768 61.5299  38
  -5   6   8 341.706 58.3396  36
  -5   6   8 336.654 45.3404  29
  -5   6   7-6.68563 42.8315  36
  -5   6   7-4.61178 32.0467  29
   5  -6  -6 874.286 146.827  82
  -5   6   6 1049.85 98.0689  36
  -5   6   6 1103.74 83.6569  29
   5  -6  -5 2272.63 234.195  82
  -5   6   5 2748.15 168.320  36
  -5   6   5 2659.80 148.948  29
   5  -6  -4 450.633 100.997  82
  -5   6   4 323.304 59.8675  36
  -5   6   4 359.840 51.4764  29
   5  -6  -3 20.9986 53.2804  86
  -5   6   3-32.5394 32.5695   3
   5  -6  -2 65.1040 64.7040  82
  -5   6   2 122.989 38.4218   3
   5  -6  -1 570.681 123.468  82
   5  -6  -1 438.137 111.453  78
  -5   6   1 543.935 60.2171  50
  -5   6   1 672.056 64.8596   3
   5  -6   0 22.1898 63.2190  82
   5  -6   0 147.871 68.5759  78
  -5   6   0 146.994 41.6457  50
  -5   6   0 222.931 46.2745  49
   5  -6   1 599.588 120.045  78
  -5   6  -1 472.711 56.5462  50
   5  -6   1 560.650 118.949  82
   5  -6   2 1912.33 210.557  82
  -5   6  -2 1660.15 110.932  50
  -5   6  -3 6363.13 291.042  57
  -5   6  -3 6622.59 293.624  50
  -5   6  -4 8926.30 398.730  57
  -5   6  -4 9219.63 398.178  50
  -5   6  -5 816.773 73.3035  42
  -5   6  -6 5154.24 237.277  42
  -5   6  -7 85.4190 29.6135  42
  -5   5  11 1681.28 103.173  38
  -5   5  11 1616.30 94.1877  54
  -5   5  10 2178.06 133.817  38
  -5   5   9 827.325 84.8289  38
  -5   5   9 822.339 67.2126  29
  -5   5   8-20.8262 49.4302  38
  -5   5   8 6.77580 38.4437  36
  -5   5   8 21.9833 38.5063  34
  -5   5   8 9.13459 32.5211  29
  -5   5   7 437.966 71.8094  38
   5  -5  -7 444.020 108.509  82
  -5   5   7 475.940 68.7633  36
  -5   5   7 363.004 51.7890  29
   5  -5  -6 3594.85 301.122  82
  -5   5   6 4151.95 222.979  36
  -5   5   6 3844.06 201.330  29
   5  -5  -5 2403.45 234.583  82
  -5   5   5 2605.98 161.769  36
  -5   5   5 2303.37 139.886  29
  -5   5   4 398.601 52.1691   3
  -5   5   4 320.314 51.6395  29
   5  -5  -3 906.622 145.224  82
  -5   5   3 1021.33 154.919  22
  -5   5   3 923.523 153.349   1
   5  -5  -3 1153.34 161.257  59
  -5   5   3 1062.33 81.0081   3
   5  -5  -2 370.255 95.3235  82
  -5   5   2 287.269 92.1183  22
   5  -5  -2 429.811 96.0556  78
  -5   5   2 389.512 52.9988   3
  -5   5   2 519.980 114.356   1
   5  -5  -2 413.059 107.907  59
   5  -5  -1 4194.16 323.019  82
   5  -5  -1 4135.05 311.703  78
   5  -5  -1 3851.77 326.751  59
  -5   5   1 4369.22 342.046   1
  -5   5   1 4395.64 212.996   3
  -5   5   1 4349.71 226.744  41
  -5   5   0 1190.28 176.513  23
   5  -5   0 1247.56 166.991  82
   5  -5   0 1353.26 168.836  78
  -5   5   0 1170.41 170.823   1
  -5   5   0 1287.09 90.4528   3
  -5   5   0 1181.37 98.0752  41
   5  -5   1-43.2047 69.8722  82
   5  -5   1 59.7441 59.2518  78
  -5   5  -1 39.0519 37.1580  50
   5  -5   2 862.513 149.035  82
  -5   5  -2 961.451 79.6636  50
   5  -5   3 179.605 76.0656  82
  -5   5  -3 273.903 45.5751  57
  -5   5  -3 263.630 47.8447  50
   5  -5   3 379.254 98.7581  89
   5  -5   4 757.875 137.449  82
  -5   5  -4 549.134 62.2797  57
   5  -5   4 530.977 111.708  89
  -5   5  -5 27.5101 32.4038  57
   5  -5   5 23.3465 26.8416  94
  -5   5  -5 33.5115 37.4545  43
  -5   5  -6 77.2689 31.7944  57
   5  -5   6 110.708 30.5267  94
  -5   5  -6 79.6135 37.0013  42
  -5   5  -7 1434.98 88.9349  42
  -5   5  -8 838.416 59.4180  40
  -5   4  12 35.4509 26.6594  38
  -5   4  12 2.65097 19.3264  55
  -5   4  12 11.1802 18.2607  54
  -5   4  11 2120.22 128.257  38
  -5   4  10 1938.26 131.867  38
  -5   4   9 371.792 66.7600  38
  -5   4   9 325.067 55.5445  34
  -5   4   8 5553.03 279.041  38
   5  -4  -8 4776.03 361.916  82
  -5   4   8 4991.23 267.695  36
  -5   4   8 5507.42 264.224  34
  -5   4   8 5038.69 249.309  29
  -5   4   7 1474.23 118.843  38
   5  -4  -7 1220.56 165.577  82
  -5   4   7 1325.10 109.288  36
  -5   4   7 1233.31 102.170  34
  -5   4   7 1183.70 91.2236  29
  -5   4   6 94.6493 50.1931  38
   5  -4  -6 20.5331 55.2818  82
  -5   4   6 55.1922 44.6570  36
  -5   4   6 45.8315 40.8222  34
  -5   4   6 14.7186 32.3806  29
   5  -4  -5 39.8871 59.3531  82
  -5   4   5 21.8448 58.8052  22
  -5   4   5 37.9977 34.6421  29
   5  -4  -4 328.250 87.4050  82
  -5   4   4 234.748 82.0720  22
  -5   4   4 277.399 43.0040   3
   5  -4  -4 163.103 80.5877  59
  -5   4   4 416.801 52.5835  29
   5  -4  -3 282.835 85.1557  82
  -5   4   3 271.327 84.3191  22
  -5   4   3 260.304 43.4268   3
   5  -4  -3 240.085 86.6456  59
  -5   4   3 195.336 89.9008   1
   5  -4  -2 18.7088 44.4089  82
  -5   4   2 40.7251 54.8040  22
  -5   4   2 19.6389 65.9220   1
  -5   4   2 29.5566 29.1014   3
   5  -4  -2-19.9312 50.5758  59
  -5   4   2 5.79911 37.5193  41
  -5   4   1-19.7036 63.7304   1
  -5   4   1-19.2775 54.6867  23
   5  -4  -1 18.8496 44.7385  82
  -5   4   1 19.9775 56.6724  22
  -5   4   1 12.6746 31.2534   3
  -5   4   1-11.5494 35.5147  41
  -5   4   0 61.5064 63.8041  23
   5  -4   0 38.4760 48.9333  82
  -5   4   0 84.0285 33.4632   3
  -5   4   0 110.601 43.8246  41
  -5   4   0 138.237 73.1237   1
   5  -4   0 128.505 67.9876  89
  -5   4  -1-21.6844 72.7920  23
   5  -4   1-19.8896 47.2180  82
  -5   4  -1-22.4833 66.9016  19
  -5   4  -1 70.9927 41.1218  41
   5  -4   1 134.240 62.0362  89
  -5   4  -2 7161.63 471.840  23
   5  -4   2 6419.14 440.635  82
  -5   4  -2 7366.12 486.239  19
   5  -4   2 7247.87 326.656  94
  -5   4  -2 7028.71 338.217  41
   5  -4   2 7860.15 462.802  89
   5  -4   3 2622.34 253.919  82
  -5   4  -3 2761.51 155.650  57
   5  -4   3 2883.47 158.204  94
  -5   4  -3 3028.25 158.481  50
  -5   4  -3 2817.51 160.577  43
   5  -4   3 2861.77 260.102  89
  -5   4  -4 83.9047 35.2675  57
   5  -4   4 71.5351 33.5014  94
   5  -4   4 64.9522 67.3463  89
   5  -4   5 1831.93 211.377  89
  -5   4  -5 2062.96 127.103  57
   5  -4   5 2299.79 131.519  94
  -5   4  -6-8.90066 30.6654  57
   5  -4   6 9.55198 24.6123  94
  -5   4  -7 6894.05 316.495  57
   5  -4   7 7116.45 321.595  94
  -5   4  -7 7496.32 320.650  40
  -5   4  -8 1902.61 104.245  57
  -5   4  -8 1993.05 107.933  40
  -5   4  -9 300.575 33.1515  40
  -5   3  12-9.88898 21.1212  54
  -5   3  11 1262.86 97.8525  38
  -5   3  10 616.344 75.5163  38
  -5   3  10 651.137 71.7368  34
  -5   3   9 2830.02 175.281  38
  -5   3   9 2655.47 161.616  34
  -5   3   8 5888.26 296.529  38
   5  -3  -8 5374.42 383.019  82
  -5   3   8 5777.82 280.096  34
  -5   3   8 5400.64 264.988  29
   5  -3  -7 201.685 77.5045  82
  -5   3   7 309.923 65.9180  38
  -5   3   7 300.749 55.8002  34
  -5   3   7 264.112 48.9618  29
   5  -3  -6 38.4141 57.1495  82
  -5   3   6-14.4377 45.3353  38
  -5   3   6 32.3310 41.4297  36
  -5   3   6 18.7721 32.3435  29
  -5   3   5 5083.40 276.532  38
   5  -3  -5 5414.92 360.751  82
  -5   3   5 5440.40 374.621  22
  -5   3   5 5514.99 256.138  29
  -5   3   4 1399.45 90.1376   3
   5  -3  -4 1186.54 151.237  82
  -5   3   4 1177.21 156.417  22
  -5   3   4 1492.31 169.375   1
   5  -3  -4 902.610 140.395  59
  -5   3   4 1520.48 94.5568  29
  -5   3   3 1885.00 112.756   3
   5  -3  -3 1854.95 188.107  82
  -5   3   3 1914.25 199.438  22
  -5   3   3 2396.76 213.333   1
   5  -3  -3 2063.75 202.116  59
  -5   3   3 1992.73 127.097  41
   5  -3  -2 6920.07 426.353  82
  -5   3   2 7465.73 328.023   3
  -5   3   2 7275.19 446.094  22
  -5   3   2 8343.02 459.820   1
   5  -3  -2 7013.95 435.397  59
  -5   3   2 7280.42 341.660  41
  -5   3   1 1835.04 190.373  23
   5  -3  -1 1791.13 184.494  82
  -5   3   1 1820.15 108.717   3
  -5   3   1 1652.30 185.197  22
   5  -3  -1 1870.06 107.771  94
  -5   3   1 2123.75 205.403   1
  -5   3   1 1853.18 121.485  41
   5  -3   0 480.024 96.9318  82
  -5   3   0 518.430 53.6493   3
  -5   3   0 450.169 102.881   1
  -5   3   0 491.047 62.3430  41
   5  -3   0 473.577 96.5445  89
   5  -3   0 579.187 54.6223  94
   5  -3   1 53.6890 53.3108  82
   5  -3   1 73.5454 54.7671  89
  -5   3  -1 20.3755 63.3723  19
   5  -3   1 61.3161 27.9051  94
  -5   3  -1 102.702 38.7318  41
  -5   3  -2 2659.81 251.713  23
   5  -3   2 2019.04 211.554  82
   5  -3   2 2595.57 141.924  94
  -5   3  -2 2214.80 236.036  19
  -5   3  -2 2509.70 140.690  57
   5  -3   2 2238.92 235.105  12
  -5   3  -2 2884.01 159.411  41
   5  -3   2 2601.50 235.793  89
  -5   3  -3 712.808 131.253  23
  -5   3  -3 561.841 144.999  19
  -5   3  -3 787.727 69.8894  57
   5  -3   3 682.218 67.6240  94
  -5   3  -3 805.423 81.8327  41
   5  -3   3 982.072 146.305  89
  -5   3  -4 7452.85 332.861  57
   5  -3   4 7169.78 332.662  94
  -5   3  -4 7271.79 344.376  41
   5  -3   4 6616.17 449.301  89
  -5   3  -5 18241.0 766.837  57
   5  -3   5 19010.0 771.235  94
   5  -3   5 16445.4 901.915  89
  -5   3  -6 1328.83 96.2203  57
   5  -3   6 1508.45 100.232  94
   5  -3   6 1565.43 186.177  89
  -5   3  -7 257.193 41.8021  57
   5  -3   7 287.693 41.7049  94
  -5   3  -7 198.867 47.3074  40
  -5   3  -8 6.15874 25.0180  57
  -5   3  -8 16.7702 32.6867  40
  -5   3  -9 434.405 43.0090  40
   5  -2 -13 817.054 60.7767  45
   5  -2 -12 14.1546 30.2318  45
  -5   2  11 1863.37 123.600  38
  -5   2  11 1938.31 116.537  34
   5  -2 -11 1558.83 117.818  45
  -5   2  10 2139.58 148.703  38
  -5   2  10 2435.11 143.158  34
   5  -2 -10 2244.77 148.762  45
  -5   2   9 45.1821 46.8598  38
  -5   2   9 73.5587 43.0113  34
   5  -2  -9 57.6714 43.4439  45
  -5   2   8-7.70432 47.8838  38
  -5   2   8 6.16817 38.7338  34
  -5   2   8 9.31090 30.9729  29
   5  -2  -7-18.8815 56.1778  82
  -5   2   7 14.9835 47.9953  38
  -5   2   7 4.65174 30.9477  29
   5  -2  -7-22.0043 52.2262  25
   5  -2  -6 4032.84 291.324  83
  -5   2   6 3327.59 214.600  38
   5  -2  -6 4101.40 293.160  82
  -5   2   6 4178.56 200.302  29
   5  -2  -6 4082.47 314.398  25
   5  -2  -5-16.3642 50.8530  83
   5  -2  -5 49.4987 55.3818  82
  -5   2   5 37.0722 52.5835  22
  -5   2   5-7.62392 29.2174  97
  -5   2   5-8.60150 29.1282  29
   5  -2  -5-18.9997 53.8986  25
   5  -2  -4 5227.06 333.122  82
  -5   2   4 5224.98 351.324  22
   5  -2  -4 4467.38 324.908  59
  -5   2   4 5555.21 351.836   1
   5  -2  -4 5317.31 241.293  94
  -5   2   4 5294.69 244.964  29
  -5   2   4 5099.89 238.206  97
   5  -2  -3 3017.54 240.582  82
  -5   2   3 3100.12 256.226  22
   5  -2  -3 3726.42 263.110  59
   5  -2  -3 3423.73 168.270  94
  -5   2   2-17.6440 52.5108  22
   5  -2  -2-79.7353 55.4202  59
   5  -2  -2-3.80785 21.9086  94
  -5   2   1 5408.11 344.794  17
   5  -2  -1 4992.67 235.212  94
  -5   2   0 10884.5 586.781  17
  -5   2   0 10710.7 576.076   1
   5  -2   0 10649.4 460.963  94
  -5   2   0 11029.1 474.161  41
   5  -2   0 10255.2 566.355  89
  -5   2  -1 19.2040 51.6993  17
   5  -2   1 51.3447 27.7104  94
   5  -2   1-19.2596 48.8856  12
   5  -2   1 17.5536 52.2436  89
  -5   2  -1 54.9516 36.5828  41
  -5   2  -2 12305.3 652.601  19
  -5   2  -2 11885.6 499.114  57
   5  -2   2 11756.4 644.663  12
   5  -2   2 11640.4 500.396  94
   5  -2   2 10107.2 603.090  89
  -5   2  -3 3854.24 320.893  19
  -5   2  -3 3640.99 191.922  57
   5  -2   3 3667.29 308.321  12
   5  -2   3 3946.19 194.944  94
   5  -2   3 3784.76 296.067  89
  -5   2  -4 7196.49 329.123  57
   5  -2   4 7208.46 330.700  94
   5  -2   4 6935.15 449.416  89
  -5   2  -5 113.849 38.0600  57
   5  -2   5 41.6786 31.4969  94
   5  -2   5 126.013 67.9981  89
  -5   2  -6 42.5219 31.1874  57
   5  -2   6 40.4522 27.6391  94
  -5   2  -7 3092.73 159.580  57
   5  -2   7 3004.55 161.369  94
  -5   2  -7 3038.02 163.299  40
  -5   2  -8 571.840 52.1894  57
   5  -2   8 553.969 53.4230  94
  -5   2  -8 672.083 60.1558  40
  -5   2  -9 15.5180 26.7641  40
   5  -1 -13 445.099 46.8976  45
   5  -1 -12 1267.79 94.1315  45
   5  -1 -11 2974.14 173.394  45
  -5   1  10 2843.84 174.891  38
  -5   1  10 2769.77 162.268  34
   5  -1 -10 2940.26 177.784  45
  -5   1   9 3142.70 190.170  38
  -5   1   9 3086.97 177.345  34
  -5   1   8 3204.40 198.537  38
  -5   1   8 3416.77 172.818  97
   5  -1  -7 6185.60 388.074  83
  -5   1   7 6190.19 273.658  29
  -5   1   7 5958.09 267.991  97
   5  -1  -7 5406.33 393.053  25
   5  -1  -6 4036.75 298.435  83
  -5   1   6 4312.75 211.828  29
  -5   1   6 4242.41 205.496  97
  -5   1   6 4106.03 300.912  93
   5  -1  -6 4383.23 327.042  25
   5  -1  -5 691.200 120.644  83
   5  -1  -5 812.747 71.8661  35
  -5   1   5 685.937 64.3764  29
  -5   1   5 756.095 63.9036  97
  -5   1   5 633.641 111.191  93
   5  -1  -5 773.157 125.319  25
   5  -1  -4 156.649 64.4612  83
  -5   1   4 85.8978 57.7355  22
   5  -1  -4 54.9039 28.2905  94
  -5   1   3 812.117 130.367  20
   5  -1  -3 1161.04 77.2685  94
  -5   1   2 7283.71 420.477  20
   5  -1  -2 6951.86 311.412  94
  -5   1   1 10366.0 583.510  20
  -5   1   1 11331.4 593.520  17
   5  -1  -1 11596.9 482.476  94
  -5   1   0 2141.88 199.807  17
   5  -1   0 1735.43 105.825  94
   5  -1   0 1831.50 178.909  89
  -5   1  -1 18.7556 47.5893  17
   5  -1   1 17.9120 45.4490  12
   5  -1   1 4.19353 21.9364  94
   5  -1   1-16.8654 47.8444  89
  -5   1  -2 219.551 82.5468  17
  -5   1  -2 252.133 41.2098  57
   5  -1   2 227.051 39.9611  94
   5  -1   2 274.835 84.9393  12
   5  -1   2 159.767 70.0001  89
  -5   1  -3 504.078 110.525  17
  -5   1  -3 566.788 59.6601  57
   5  -1   3 590.970 59.8032  94
   5  -1   3 650.994 122.067  12
   5  -1   3 543.016 109.859  89
  -5   1  -4 43.7347 31.7361  57
   5  -1   4-19.8653 27.4637  94
  -5   1  -5 231.943 44.9031  57
   5  -1   5 162.029 39.7893  94
  -5   1  -6 756.431 68.5338  57
  -5   1  -6 695.334 65.3348  56
   5  -1   6 671.400 65.8283  94
  -5   1  -7 220.345 40.9339  57
  -5   1  -7 278.925 50.9709  40
  -5   1  -8 147.550 40.6661  40
  -5   1  -9 13.4007 26.7782  40
   5   0 -13 21.0819 25.0319  45
   5   0 -12 880.022 77.1613  45
   5   0 -11 535.113 63.7686  30
   5   0 -11 555.795 68.7062  45
   5   0 -10 5587.96 270.909  30
   5   0 -10 5469.22 284.190  45
  -5   0   9 9465.92 449.635  38
  -5   0   9 9787.23 421.031  97
  -5   0   8 143.455 54.9129  38
  -5   0   8 221.791 43.6737  97
  -5   0   7 551.022 56.3566  97
  -5   0   7 384.668 53.3486  29
   5   0  -7 498.593 113.302  25
   5   0  -6 1573.23 176.914  83
  -5   0   6 1504.09 103.851  29
  -5   0   6 1903.80 186.964  93
   5   0  -6 1775.97 193.189  25
   5   0  -5 182.906 78.0378  83
   5   0  -5 256.427 43.0482  35
  -5   0   5 298.387 77.8026  18
  -5   0   5 193.881 40.5046  29
  -5   0   5 288.322 79.8939  93
   5   0  -4 769.763 117.672  83
   5   0  -4 702.234 117.539  10
  -5   0   4 718.736 115.338  20
   5   0  -4 829.071 65.1338  94
  -5   0   3 16.9982 48.2210  20
   5   0  -3-7.74026 23.8021  94
  -5   0   2 1785.68 179.783  20
   5   0  -2 1763.85 103.560  94
  -5   0   1 663.485 113.513  20
  -5   0   1 685.477 115.345  17
   5   0  -1 685.243 57.3035  94
   5   0   0 16995.8 841.167  10
  -5   0   0 18001.0 852.354  20
  -5   0   0 17448.0 856.133  17
   5   0   0 17691.0 727.885  94
  -5   0  -1 266.456 84.8039  17
   5   0   1 324.921 79.7187  89
   5   0   1 396.283 46.8778  94
  -5   0  -2 12404.5 641.519  17
  -5   0  -2 11531.7 494.497  57
   5   0   2 11379.4 493.905  94
   5   0   3 39.3212 46.6715  79
  -5   0  -3 63.2366 59.8031  17
  -5   0  -3 23.2409 30.6539  57
   5   0   3 9.16521 25.3565  94
   5   0   3 20.7995 45.7127  12
   5   0   4 276.916 86.2920  79
  -5   0  -4 316.738 49.7452  57
   5   0   5 44.8105 60.3184  79
  -5   0  -5 54.0931 33.6334  57
  -5   0  -5 27.7489 31.0869  56
  -5   0  -6 1909.78 116.507  57
  -5   0  -6 1840.85 114.809  56
  -5   0  -7 1093.30 81.7519  57
  -5   0  -7 1275.70 85.7274  56
  -5   0  -8 4173.08 200.320  40
  -5   0  -9 3668.69 170.396  40
   5   1 -13 240.180 35.0202  47
   5   1 -13 199.620 33.7289  45
   5   1 -12 1663.03 104.657  30
   5   1 -12 1745.41 111.130  45
   5   1 -11 2343.00 141.661  30
   5   1 -11 2606.41 153.482  45
   5   1 -10 11.0512 36.0869  30
   5   1 -10-6.91306 37.2094  45
  -5  -1   9 592.236 63.9869  97
   5   1  -9 805.047 79.7914  30
  -5  -1   9 858.427 137.868  93
   5   1  -8 61.4269 44.0055  30
  -5  -1   8 38.5817 36.1327  97
  -5  -1   8 78.8727 68.5385  93
   5   1  -7 2077.32 127.125  30
  -5  -1   7 1792.82 115.228  29
  -5  -1   7 2150.81 209.732  93
   5   1  -6 809.344 127.846  83
  -5  -1   6 671.004 123.365  18
  -5  -1   6 653.010 65.0781  29
  -5  -1   6 708.995 124.117  93
   5   1  -6 744.056 125.283  25
   5   1  -5 1755.65 180.389  83
  -5  -1   5 1308.12 157.350  81
   5   1  -5 1726.60 109.821  35
  -5  -1   5 1634.22 181.285  20
  -5  -1   5 1723.33 182.260  18
  -5  -1   5 1606.06 167.467  93
   5   1  -4 6680.78 398.768  83
   5   1  -4 7099.34 415.638  10
  -5  -1   4 7449.78 406.295  81
   5   1  -4 6347.69 307.156  35
  -5  -1   4 6834.47 419.892  20
  -5  -1   4 7389.32 415.749  18
  -5  -1   4 6646.05 300.954   2
   5   1  -3 829.439 120.481  83
   5   1  -3 987.206 134.884  10
  -5  -1   3 1000.94 140.130  20
  -5  -1   3 1096.09 137.353  18
   5   1  -3 1032.01 74.1414  94
   5   1  -2 281.608 84.5368  10
  -5  -1   2 245.050 74.1903  20
   5   1  -2 216.765 35.8573  94
   5   1  -1 1432.87 162.736  10
  -5  -1   1 1393.65 165.035  17
   5   1  -1 1513.93 92.8095  94
   5   1   0 1505.86 170.415  10
  -5  -1   0 1441.64 172.635  17
  -5  -1   0 1586.36 103.887  53
   5   1   0 1730.37 100.463  94
  -5  -1   0 1685.47 189.512  24
   5   1   1 18.0607 42.8700  79
  -5  -1  -1 59.9526 59.4613  17
  -5  -1  -1 33.4876 30.2804  57
  -5  -1  -1-13.7360 29.0496  53
   5   1   2 1015.18 149.848  79
  -5  -1  -2 1404.29 170.663  17
  -5  -1  -2 1091.14 82.1935  57
   5   1   3 21.0531 50.0195  79
  -5  -1  -3 130.348 70.3038  17
  -5  -1  -3 57.0885 31.4428  57
   5   1   4 3539.30 301.625  79
  -5  -1  -4 3724.67 191.138  57
   5   1   5 5985.05 431.588  79
  -5  -1  -5 6629.87 303.970  57
  -5  -1  -5 6582.20 302.410  56
  -5  -1  -6 341.228 49.5340  57
  -5  -1  -6 330.433 48.4556  56
  -5  -1  -7 1266.51 88.0672  57
  -5  -1  -7 1481.39 92.1531  56
  -5  -1  -8 467.507 47.5310  56
  -5  -1  -9 792.166 56.4787  40
   5   2 -12 126.086 35.0452  30
   5   2 -12 113.296 36.2216  47
   5   2 -11 33.2083 35.3748  30
   5   2 -10 2443.61 140.271  30
   5   2 -10 1948.01 138.482  45
  -5  -2  10 1951.21 204.374  93
   5   2  -9 3920.20 197.567  30
  -5  -2   9 3403.11 178.556  97
  -5  -2   9 3113.03 276.331  93
   5   2  -8 696.397 74.4449  30
  -5  -2   8 658.539 121.730  93
   5   2  -7-10.9976 40.0785  30
  -5  -2   7-19.2609 59.8572  93
  -5  -2   6 6640.69 429.913  81
  -5  -2   6 7011.37 450.660  18
   5   2  -6 7425.34 331.711  30
  -5  -2   6 6441.68 422.640  93
   5   2  -5 2763.57 233.297  83
  -5  -2   5 2468.95 223.183  81
   5   2  -5 2673.06 149.826  35
  -5  -2   5 2558.42 235.557  18
  -5  -2   5 2478.08 221.313  93
   5   2  -4 2851.50 234.287  83
   5   2  -4 2866.08 246.802  10
  -5  -2   4 2826.53 233.850  81
   5   2  -4 2989.91 160.991  35
  -5  -2   4 3104.59 259.409  20
  -5  -2   4 2733.03 239.562  18
   5   2  -3 1789.32 185.502  10
   5   2  -3 1506.28 99.3007  35
  -5  -2   3 1492.80 173.181  20
  -5  -2   3 1280.90 93.7158  53
   5   2  -2 123.583 72.5955  10
   5   2  -2 14.0263 30.8642  35
  -5  -2   2 63.7281 30.8727  53
  -5  -2   1 653.174 120.647  24
   5   2  -1 750.940 123.650  10
  -5  -2   1 743.353 66.7074  53
  -5  -2   0-41.9818 42.1104  24
   5   2   0-17.3252 53.8426  10
  -5  -2   0-41.0618 52.0968  17
  -5  -2   0 9.58976 29.4947  53
   5   2   1 1869.09 196.275  79
  -5  -2  -1 1724.19 200.772  17
  -5  -2  -1 1879.50 112.052  57
  -5  -2  -1 1711.98 114.605  53
  -5  -2  -1 1558.71 190.994  24
   5   2   2 5350.98 370.207  79
  -5  -2  -2 5180.88 375.651  17
  -5  -2  -2 4961.05 242.637  57
   5   2   3 4855.66 371.695  79
  -5  -2  -3 5336.39 253.408  57
   5   2   4 231.956 86.3397  79
  -5  -2  -4 252.951 44.6575  57
  -5  -2  -4 248.069 45.8654  56
   5   2   5 6753.66 462.800  79
  -5  -2  -5 7178.19 323.846  57
  -5  -2  -5 7013.10 322.066  56
  -5  -2  -6 868.978 71.0123  57
  -5  -2  -6 855.994 71.8601  56
  -5  -2  -7 707.240 60.9610  56
  -5  -2  -8 360.781 40.7658  56
  -5  -2  -9 314.445 34.1176  40
   5   3 -12 384.971 45.0668  30
   5   3 -11-12.8160 31.6061  30
   5   3 -10 86.2979 43.3328  30
   5   3  -9 249.880 53.4938  30
  -5  -3   9 310.173 92.6031  93
   5   3  -8 39.9499 41.6222  30
  -5  -3   8 40.1153 64.8945  93
  -5  -3   7 286.416 90.3638  81
   5   3  -7 220.734 48.2152  30
  -5  -3   7 218.333 85.8711  93
  -5  -3   6 1774.78 196.938  81
   5   3  -6 1763.25 119.843  30
  -5  -3   6 1698.24 189.805  93
  -5  -3   5 2703.74 237.807  81
  -5  -3   5 2323.77 234.708  18
  -5  -3   5 2611.20 230.537  93
   5   3  -4 2710.59 239.808  10
  -5  -3   4 2230.75 212.323  81
  -5  -3   4 2340.61 226.423  87
   5   3  -3 2543.68 144.808   4
   5   3  -3 2643.17 238.490  10
  -5  -3   3 2306.33 223.394  87
  -5  -3   2 261.716 88.4810  24
   5   3  -2 285.778 94.5316  10
   5   3  -2 427.921 54.9150   4
  -5  -3   2 326.608 52.1204  53
  -5  -3   2 264.100 78.6582  87
  -5  -3   1 358.616 97.1477  24
   5   3  -1 376.491 93.2444  10
   5   3  -1 290.475 48.0049   4
   5   3  -1 300.217 55.4652  32
  -5  -3   1 243.121 83.0321  87
  -5  -3   0-46.2787 62.2805  24
   5   3   0 37.2371 64.6944  10
   5   3   0-13.7754 35.5069  32
  -5  -3   0 92.1406 61.8621  87
  -5  -3  -1 23.8806 60.6095  24
   5   3   1 42.4063 39.6209  32
  -5  -3  -2 222.001 43.7728  57
   5   3   3 1485.29 190.739  79
  -5  -3  -3 1670.02 108.104  57
  -5  -3  -3 1404.15 191.454  91
   5   3   4 887.921 144.974  79
  -5  -3  -4 827.146 86.3145  33
  -5  -3  -4 1032.63 79.7676  57
  -5  -3  -4 856.677 74.0864  56
  -5  -3  -5 521.490 56.9619  57
  -5  -3  -5 481.274 55.9974  56
  -5  -3  -6 63.0349 30.0515  57
  -5  -3  -6 36.8646 29.4600  56
  -5  -3  -7 37.3004 25.4922  56
  -5  -3  -8 24.8748 21.3089  56
   5   4 -12 114.741 27.4923  31
   5   4 -12 87.8285 25.6345  30
   5   4 -11 287.685 43.8894  30
   5   4 -10 1690.21 108.790  30
   5   4  -9 385.003 57.7342  30
   5   4  -9 198.686 45.5556  46
   5   4  -8 373.718 58.8794  30
  -5  -4   8 452.167 106.916  93
  -5  -4   7 310.729 94.0526  81
   5   4  -7 389.817 58.5078  30
  -5  -4   7 401.952 103.025  93
  -5  -4   6 225.877 78.6833  81
   5   4  -6 361.711 57.6372  30
  -5  -4   5 558.307 116.599  81
   5   4  -5 786.061 67.4801  28
  -5  -4   5 671.919 125.006  93
  -5  -4   4 38.2755 61.9005  81
   5   4  -4 10.2754 29.5118   4
   5   4  -4-4.35810 31.2767  28
  -5  -4   4 54.8701 65.6305  93
  -5  -4   4-40.6568 51.5798  87
   5   4  -3 99.2126 37.6564   4
  -5  -4   3 82.0207 63.8285  87
   5   4  -2 1582.43 107.949   4
   5   4  -2 1456.61 116.490  32
  -5  -4   2 1680.78 191.305  87
  -5  -4   2 1963.94 214.837  24
   5   4  -1 472.705 59.1035   4
   5   4  -1 473.736 67.1343  32
  -5  -4   1 609.538 119.650  87
   5   4   0 1858.72 117.407   4
   5   4   0 1675.35 129.949  32
  -5  -4   0 1691.96 193.914  87
   5   4   1 44.4742 44.6397  32
   5   4   2 2371.82 157.665  32
  -5  -4  -3 372.852 52.1295  57
  -5  -4  -4 145.319 37.4872  57
  -5  -4  -4 109.150 35.2280  56
  -5  -4  -4 175.773 83.7786  91
  -5  -4  -5 95.4806 31.8864  57
  -5  -4  -5 125.853 34.5499  56
  -5  -4  -6 322.419 39.9383  57
  -5  -4  -6 270.024 39.6630  56
  -5  -4  -7 1381.06 81.6431  56
  -5  -4  -8 73.8957 19.1859  56
   5   5 -11 40.4746 25.0972  31
   5   5 -11-5.22187 22.7163  30
   5   5 -10 202.297 38.7735  30
   5   5 -10 242.238 38.8379  46
   5   5  -9 183.906 41.1843  30
   5   5  -9 161.289 40.2527  46
   5   5  -8 39.6558 39.0511  30
   5   5  -7 260.609 52.3410  30
  -5  -5   7 350.793 93.1655  93
   5   5  -6 1549.15 108.883  30
   5   5  -6 1472.63 95.5605  28
  -5  -5   6 1631.88 183.699  93
  -5  -5   5 2284.85 222.905  81
   5   5  -5 2126.45 122.446  28
  -5  -5   5 1838.12 208.577  93
  -5  -5   4 606.678 118.754  81
   5   5  -4 384.342 54.5824   4
   5   5  -4 433.167 53.4077  28
  -5  -5   4 445.113 107.182  87
   5   5  -3 2954.31 160.609   4
  -5  -5   3 2496.75 239.148  81
   5   5  -3 2709.12 150.024  28
  -5  -5   3 2483.11 246.974  87
   5   5  -2 1484.73 120.084  32
   5   5  -2 1756.79 108.721  28
  -5  -5   2 1428.41 184.093  87
   5   5  -1 3969.73 206.274   4
   5   5  -1 3957.04 221.573  32
  -5  -5   1 3955.20 319.181  87
   5   5   0 127.199 41.7760   4
   5   5   0 148.677 49.2826  32
  -5  -5   0 124.306 67.2137  87
   5   5   1 313.104 62.1387  32
   5   5   2 304.891 61.5510  32
   5   5   3 988.318 94.6281  32
  -5  -5  -3 1204.24 85.4529  57
  -5  -5  -4 2458.49 134.988  57
  -5  -5  -5 939.187 67.9733  57
  -5  -5  -5 940.525 69.6345  56
  -5  -5  -6 1321.20 79.3639  56
  -5  -5  -7 1710.59 87.3891  56
   5   6 -10 100.434 26.0216  46
   5   6  -9 239.745 39.7034  30
   5   6  -9 276.409 40.5893  46
   5   6  -8 416.331 51.7033  30
   5   6  -8 522.639 57.1934  46
   5   6  -7 1752.63 109.945  30
   5   6  -7 1647.85 108.196  46
   5   6  -7 1651.16 98.5726  28
   5   6  -6 1258.75 94.5940  30
   5   6  -6 1312.95 87.2240  28
   5   6  -5 2229.83 127.157  28
  -5  -6   5 2247.85 218.833  93
   5   6  -4 2179.86 131.093   4
   5   6  -4 2292.17 127.528  28
  -5  -6   4 1848.26 206.612  87
   5   6  -3 393.666 54.9877   4
   5   6  -3 392.885 50.3877  28
  -5  -6   3 256.380 82.5831  87
   5   6  -2 4013.88 208.666   4
   5   6  -2 4212.92 201.771  28
  -5  -6   2 3627.03 307.939  87
   5   6  -1 2081.39 126.624   4
   5   6  -1 1966.18 136.238  32
   5   6  -1 1848.63 113.481  28
  -5  -6   1 2129.21 215.940  87
   5   6   0 1340.74 95.1278   4
   5   6   0 1120.67 103.674  32
   5   6   1 20.7870 41.7051  32
   5   6   2 6.54625 37.6032  32
  -5  -6  -3 411.116 50.4565  57
  -5  -6  -4 3653.68 174.720  57
  -5  -6  -4 3630.48 175.392  56
  -5  -6  -5 2882.59 138.607  57
  -5  -6  -5 2953.81 141.481  56
  -5  -6  -6 3.94588 16.7913  56
   5   7  -9 484.829 42.2253  46
   5   7  -8 790.478 59.8823  46
   5   7  -7 785.479 64.3163  46
   5   7  -7 766.248 58.0739  28
   5   7  -6 11.5760 27.7146  46
   5   7  -6 45.4365 26.8652  28
   5   7  -5 95.7336 36.8129  30
   5   7  -5 191.741 37.6923  28
   5   7  -4 672.586 63.7502   4
   5   7  -4 753.685 62.2163  28
   5   7  -3 109.950 38.2442   4
   5   7  -3 63.5905 30.3672  28
   5   7  -2 41.8029 33.1145   4
   5   7  -2 43.6528 29.0532  28
   5   7  -1 104.214 36.9250   4
   5   7  -1 47.3379 36.8943  32
   5   7   0 173.396 37.9534   4
   5   7   0 166.500 45.7506  32
   5   7   1 262.979 51.7958  32
  -5  -7  -2 6.91623 26.1410  57
  -5  -7  -3 7120.57 304.795  57
  -5  -7  -3 6963.87 306.555  53
  -5  -7  -4 13.3299 18.3850  57
  -5  -7  -4 18.7007 18.8832  56
   5   8  -7 51.1032 18.2673  28
   5   8  -6 6.81161 20.0624  28
   5   8  -5 435.360 41.7737  28
   5   8  -4 202.717 32.1338  28
   5   8  -3-16.1829 23.3419  28
  -5  -8   1 712.257 57.3589  53
  -5  -8   0 174.183 31.4723  53
  -5  -8  -1 967.733 63.6155  57
  -5  -8  -1 1040.65 67.5017  53
  -5  -8  -2 1160.53 69.5531  57
  -5  -8  -2 1404.66 75.9252  53
  -6   9   4 707.868 54.5763  32
  -6   9   4 778.787 50.7068  49
  -6   9   3 121.675 27.2242  32
  -6   9   3 101.027 24.3213  49
  -6   9   2 48.6541 21.7966  49
  -6   9   1 200.582 29.4399  49
  -6   9   0 1322.62 74.1706   4
  -6   8   7 25.4328 21.0808  44
  -6   8   6 337.224 40.3296  32
  -6   8   6 288.703 39.6817  44
  -6   8   5 1191.62 83.5243  32
  -6   8   5 1188.67 75.1384  49
  -6   8   4 142.296 34.2964  49
  -6   8   3 252.043 40.1179  49
  -6   8   2 10.9264 26.9460  49
  -6   8   1 119.119 32.3865  49
  -6   8   0 1977.44 109.148  50
  -6   8   0 2112.26 111.713  49
  -6   8  -1 193.659 33.3810  50
  -6   8  -2 2366.52 119.022  50
  -6   8  -3 1568.43 83.8080  50
  -6   7   8 247.524 37.6402  44
  -6   7   7 592.372 61.3109  36
  -6   7   6 253.816 48.8999  36
  -6   7   6 290.366 40.3341  29
  -6   7   6 257.493 40.7954  49
  -6   7   5 925.446 83.0625  36
  -6   7   5 955.152 71.7789  29
  -6   7   5 1081.32 77.2077  49
  -6   7   4 2675.95 161.131  36
  -6   7   4 2888.87 152.697  49
  -6   7   3 929.513 87.3948  36
  -6   7   3 1153.53 84.4927  49
  -6   7   2 1862.15 115.956  49
  -6   7   1 278.122 42.1509  50
  -6   7   1 165.248 41.6315  49
  -6   7   0-4.02911 28.6891  50
  -6   7  -1-31.2948 30.4154  50
  -6   7  -2 28.8444 27.8466  50
  -6   7  -3 21.8929 24.3048  50
  -6   7  -3 6.24456 27.5921  42
  -6   7  -4 2800.36 135.411  50
  -6   7  -4 2901.32 138.706  42
  -6   7  -5 380.924 36.0203  42
  -6   6  10 425.945 41.7420  38
  -6   6   9 438.368 48.4234  38
  -6   6   9 325.864 36.5408  29
  -6   6   8 647.800 67.9774  36
  -6   6   8 837.299 62.2849  29
  -6   6   7 330.546 56.8029  36
  -6   6   7 375.751 47.1331  29
  -6   6   6 235.387 53.4357  36
  -6   6   6 141.570 38.1107  29
  -6   6   5 490.644 68.7710  36
  -6   6   5 566.031 58.2653  29
  -6   6   4 518.739 69.8958  36
   6  -6  -3 5124.25 371.631  82
  -6   6   3 5025.82 241.062   3
   6  -6  -2 21.5854 67.0808  82
  -6   6   2 13.7198 32.5688   3
   6  -6  -1 971.992 153.713  82
  -6   6   1 1260.61 89.3086  50
  -6   6   1 1152.98 89.5617  49
  -6   6   1 1285.98 89.6831   3
  -6   6   0 2890.98 156.686  50
  -6   6  -1 327.014 48.8589  50
  -6   6  -2-17.0776 31.8212  50
  -6   6  -3 897.697 69.2025  50
  -6   6  -4 3.13736 25.0173  50
  -6   6  -4-21.6203 32.6483  42
  -6   6  -5 938.423 66.6014  42
  -6   6  -6 1622.74 85.5952  42
  -6   5  11 806.564 55.7884  38
  -6   5  11 620.130 45.9065  54
  -6   5  10 126.479 36.3832  38
  -6   5   9 812.912 75.3649  38
  -6   5   9 788.150 62.4184  29
  -6   5   8 52.7293 43.4027  38
  -6   5   8 52.0774 38.9141  36
  -6   5   8 69.0724 33.0877  29
  -6   5   7 378.533 63.3010  36
  -6   5   7 492.790 57.2203  29
   6  -5  -6 1164.94 158.084  82
  -6   5   6 1095.11 101.477  36
  -6   5   6 1386.89 93.2593  29
   6  -5  -5 2685.82 256.267  82
  -6   5   5 2954.92 179.741  36
  -6   5   5 3049.11 163.209  29
   6  -5  -4 1292.28 174.840  82
  -6   5   4 1414.54 95.9365   3
   6  -5  -3 65.0456 67.5602  82
  -6   5   3 150.656 40.8124   3
   6  -5  -2-21.7810 61.7897  82
  -6   5   2 28.5595 35.7277   3
   6  -5  -1 2249.86 229.908  82
  -6   5   1 2359.01 135.507   3
   6  -5   0 153.466 76.3518  82
  -6   5   0 154.507 40.2862   3
  -6   5   0 118.200 41.3072  50
  -6   5   0 121.303 46.8239  41
   6  -5   1 545.221 116.673  82
  -6   5  -1 631.912 65.4804  50
  -6   5  -1 656.177 76.6303  41
  -6   5  -2 5873.50 263.526  50
   6  -5   2 5338.91 380.523  89
  -6   5  -3 1723.95 107.836  57
  -6   5  -3 1800.47 109.250  50
  -6   5  -4 1004.90 75.1050  57
  -6   5  -5 113.126 31.8191  57
  -6   5  -6 574.385 49.9774  42
  -6   4  11 559.671 54.5422  38
  -6   4  10 165.681 43.6805  38
  -6   4   9 278.408 55.3664  38
  -6   4   9 254.227 46.8504  34
  -6   4   9 297.571 43.1310  29
  -6   4   8 1480.71 123.195  38
  -6   4   8 1649.12 117.481  34
  -6   4   7 908.628 91.6862  38
   6  -4  -7 801.475 133.573  82
  -6   4   7 981.524 92.4288  36
  -6   4   7 899.019 83.8351  34
  -6   4   7 821.780 74.3778  29
   6  -4  -6 41.8682 56.3388  82
  -6   4   6 82.7457 46.2905  36
  -6   4   6-29.8424 38.6410  29
   6  -4  -5 650.949 123.652  82
  -6   4   5 712.089 69.9553  29
   6  -4  -4 837.700 140.600  82
  -6   4   4 1031.64 81.4145  29
  -6   4   4 935.923 78.4712   3
   6  -4  -3 5130.36 375.863  82
  -6   4   3 5647.49 263.986   3
   6  -4  -2 976.825 147.262  82
  -6   4   2 826.523 86.4814  41
  -6   4   2 895.733 75.9468   3
   6  -4  -1 209.230 82.4097  82
  -6   4   1 253.497 48.6598   3
  -6   4   1 275.641 57.9307  41
  -6   4   0 5373.31 278.128  41
  -6   4   0 5986.00 264.608   3
   6  -4   1 339.874 101.783  82
   6  -4   1 350.311 49.6474  94
  -6   4  -1 371.315 64.7142  41
   6  -4   2 4.99096 27.6056  94
   6  -4   2 21.1666 50.2410  82
  -6   4  -2 25.4545 41.1697  41
   6  -4   2 21.7707 61.7618  89
  -6   4  -3 40.9368 33.6487  57
  -6   4  -3-8.82175 30.3946  50
   6  -4   3-9.85578 25.7781  94
  -6   4  -3-6.04660 38.7379  41
   6  -4   3 64.2514 54.3428  89
  -6   4  -4 540.312 57.3709  57
   6  -4   4 492.855 55.0247  94
  -6   4  -5 23.5044 28.7754  57
   6  -4   5 16.9937 25.2921  94
  -6   4  -6 64.7748 26.5898  57
  -6   4  -7 347.005 37.0342  57
  -6   3  12 873.887 58.5678  38
  -6   3  12 665.106 49.9792  54
  -6   3  11 87.5169 36.7732  38
  -6   3  10 523.406 66.5386  38
  -6   3  10 552.022 60.9753  34
  -6   3   9 735.836 83.9639  38
  -6   3   9 699.743 73.4871  34
  -6   3   9 648.900 61.7823  29
  -6   3   8 87.8069 49.6382  38
  -6   3   8 64.5643 39.8524  34
  -6   3   8 70.2664 36.2591  29
  -6   3   7 15.0984 47.4059  38
  -6   3   7 12.0573 38.2417  34
  -6   3   7-24.7139 32.5839  29
  -6   3   6 3642.53 217.776  38
  -6   3   6 3937.73 198.762  29
  -6   3   5 1870.06 119.685  29
   6  -3  -4 460.471 102.986  83
  -6   3   4 376.135 53.5306   3
  -6   3   4 397.876 53.7757  29
  -6   3   3 535.107 60.6249   3
  -6   3   3 417.490 66.1683  41
  -6   3   2 4091.72 207.034   3
   6  -3  -2 4410.50 210.201  94
  -6   3   2 3979.99 221.910  41
  -6   3   1 2984.96 159.627   3
   6  -3  -1 3004.39 161.440  94
  -6   3   1 2898.85 175.061  41
  -6   3   0 1910.52 118.148   3
   6  -3   0 2066.34 121.761  94
  -6   3   0 1860.26 134.795  41
   6  -3   1-5.08867 28.1489  94
  -6   3  -1 13.1121 41.5930  41
   6  -3   1-43.3415 67.3470  89
   6  -3   2 1342.22 95.4184  94
  -6   3  -2 1383.81 108.538  41
   6  -3   2 1075.28 159.709  89
  -6   3  -3 47.3729 32.7559  57
   6  -3   3 103.489 32.2748  94
  -6   3  -3 83.4887 43.1988  41
   6  -3   3 21.7958 51.8027  89
  -6   3  -4 184.484 40.2897  57
   6  -3   4 184.859 38.9207  94
  -6   3  -4 157.024 51.0103  41
  -6   3  -5 190.183 39.7068  57
   6  -3   5 261.825 42.5872  94
  -6   3  -5 256.355 51.5034  41
  -6   3  -6 483.062 51.1436  57
   6  -3   6 462.396 48.4731  94
  -6   3  -7 861.102 60.4452  57
   6  -2 -12 88.4783 28.3559  45
  -6   2  11 571.607 61.6396  38
  -6   2  11 471.621 52.5607  34
   6  -2 -11 416.571 54.1027  45
  -6   2  10 134.110 47.1736  38
  -6   2  10 39.8369 36.7341  34
   6  -2 -10 122.085 42.5150  45
  -6   2   9 1179.16 106.281  38
  -6   2   9 1112.56 83.7056  29
   6  -2  -9 961.860 94.5427  45
  -6   2   8 68.6542 49.9241  38
  -6   2   8 91.2295 45.1080  34
  -6   2   8 85.4928 36.5480  29
  -6   2   7 7.78762 49.8921  38
  -6   2   7 9.91746 32.0797  29
   6  -2  -6 157.619 73.0206  83
  -6   2   6 61.3824 47.9111  38
  -6   2   6 149.380 41.9197  29
   6  -2  -5 1997.53 210.652  83
  -6   2   5 2067.61 127.919  29
   6  -2  -4 4786.46 337.333  83
  -6   2   4 4437.09 347.112  22
  -6   2   4 4093.11 333.683   1
  -6   2   4 4560.25 223.553  29
   6  -2  -4 4527.47 221.685  94
  -6   2   3 22.6237 57.4235  22
  -6   2   3 64.3429 69.3880   1
   6  -2  -3 52.0394 28.8237  94
  -6   2   3 17.9840 36.5046  41
   6  -2  -2 912.398 72.2233  94
  -6   2   2 817.095 80.8627  41
  -6   2   2 731.857 135.876   1
  -6   2   1 248.032 86.3389  22
  -6   2   1 171.642 79.9197   1
   6  -2  -1 214.228 42.7266  94
  -6   2   1 326.064 56.5365  41
  -6   2   0 85.0205 83.1573   1
   6  -2   0 54.8495 30.7848  94
  -6   2   0 94.5805 45.3318  41
   6  -2   1 4718.60 236.117  94
  -6   2  -1 4954.81 252.278  41
   6  -2   2 4601.09 233.534  94
  -6   2  -2 5030.74 251.141  41
   6  -2   2 4358.07 342.786  89
  -6   2  -3 33.8586 30.0807  57
   6  -2   3 31.4099 30.8130  94
   6  -2   3 21.5699 61.1987  89
  -6   2  -3 13.1525 38.6994  41
  -6   2  -4 11113.2 477.757  57
   6  -2   4 10749.1 479.286  94
  -6   2  -4 11525.4 495.802  41
   6  -2   4 10058.2 605.241  89
  -6   2  -5 3371.07 169.649  57
   6  -2   5 3032.52 167.037  94
  -6   2  -5 3197.52 179.355  41
  -6   2  -6 462.971 52.0466  57
   6  -2   6 540.161 52.9041  94
  -6   2  -6 500.353 59.6188  41
  -6   2  -7 17.3622 22.4810  57
  -6   2  -7-29.0703 28.4183  41
  -6   2  -8 106.789 20.2526  57
   6  -1 -12 255.653 40.2818  45
  -6   1  11 2373.27 142.846  38
   6  -1 -11 2523.71 145.078  45
  -6   1  10 2276.47 146.382  38
  -6   1  10 2283.41 136.072  34
   6  -1 -10 2214.10 144.148  45
  -6   1   9 1235.29 111.680  38
  -6   1   9 1327.49 101.912  34
  -6   1   8 7.72805 47.0220  38
  -6   1   8 14.2649 31.9243  29
   6  -1  -7 1855.25 209.454  83
  -6   1   7 1797.96 146.719  38
  -6   1   7 2038.82 126.737  29
  -6   1   7 2362.13 128.227  97
   6  -1  -6 2619.64 238.979  83
  -6   1   6 2480.25 143.868  29
  -6   1   6 2374.36 137.183  97
   6  -1  -5 594.066 126.144  83
   6  -1  -5 649.688 68.1421  35
  -6   1   5 519.987 63.1251  29
  -6   1   5 478.557 58.9100  97
   6  -1  -4 1494.13 182.420  83
  -6   1   4 1646.81 195.567  22
   6  -1  -4 1800.44 117.984  35
  -6   1   4 1807.04 109.404   2
  -6   1   4 1572.68 109.230  29
   6  -1  -4 1789.39 110.746  94
   6  -1  -3 4157.19 216.198  35
  -6   1   3 4073.28 208.986   2
  -6   1   3 4183.03 214.403  53
   6  -1  -3 4521.35 214.199  94
   6  -1  -2 331.006 53.7507  35
  -6   1   2 339.641 101.554  20
  -6   1   2 322.692 52.3008  53
   6  -1  -2 336.656 47.1773  94
  -6   1   2 301.357 49.6003   2
   6  -1  -1 3332.79 182.401  35
  -6   1   1 2897.91 273.271  17
  -6   1   1 3443.95 175.738   2
  -6   1   1 3193.61 179.443  53
   6  -1  -1 3483.74 177.278  94
  -6   1   1 3344.59 186.633  41
  -6   1   0 9247.75 559.323  17
  -6   1   0 9630.00 413.806   2
  -6   1   0 9252.52 417.524  53
   6  -1   0 9087.32 414.397  94
  -6   1   0 9633.45 428.903  41
   6  -1   1 25062.0 1033.31  94
  -6   1  -1 25237.2 1046.55  41
  -6   1  -2 12101.1 526.911  57
   6  -1   2 12489.5 532.261  94
  -6   1  -3 547.758 60.7071  57
   6  -1   3 541.743 61.7647  94
  -6   1  -4 1124.16 85.4076  57
   6  -1   4 1062.78 83.9315  94
  -6   1  -5 173.662 39.9398  57
   6  -1   5 123.811 33.6360  94
  -6   1  -6 156.428 35.4334  57
  -6   1  -7 8.78984 22.6103  57
  -6   1  -7-11.8405 30.4575  41
  -6   1  -8 90.7308 25.0185  41
   6   0 -12 118.889 32.6055  45
   6   0 -11 2077.68 129.142  45
  -6   0  10 110.590 45.0011  38
   6   0 -10 119.636 43.6197  45
  -6   0   9 1439.21 120.062  38
  -6   0   8 285.785 67.5556  38
  -6   0   8 254.924 46.8737  29
  -6   0   8 240.138 46.9098  97
  -6   0   7 3660.36 192.239  29
  -6   0   7 3614.34 185.507  97
   6   0  -6 142.259 75.3882  83
  -6   0   6 139.200 41.2766  29
  -6   0   6 157.986 43.1495  97
   6   0  -5 377.699 100.867  83
   6   0  -5 433.963 60.3212  35
  -6   0   5 410.839 58.2731  29
  -6   0   5 543.685 58.4604  97
   6   0  -4 9097.60 522.532  83
  -6   0   4 8804.30 540.218  20
   6   0  -4 9297.56 407.130  35
  -6   0   4 9135.05 400.427  53
  -6   0   4 8556.80 394.853   2
  -6   0   4 8924.66 398.730  29
   6   0  -3 4214.81 317.611  10
   6   0  -3 3463.69 285.367  83
  -6   0   3 3706.29 308.541  20
   6   0  -3 3823.52 200.922  35
  -6   0   3 3725.65 196.962  53
  -6   0   3 3872.96 193.954   2
  -6   0   3 3855.95 194.729  29
   6   0  -3 3777.23 194.390  94
  -6   0   2 340.256 51.3929   2
   6   0  -2 331.637 102.959  10
   6   0  -2 419.864 55.0276  35
  -6   0   2 455.282 104.017  20
  -6   0   2 370.179 54.5224  53
   6   0  -2 424.818 53.9480  94
   6   0  -1 50497.8 2060.02  10
   6   0  -1 45882.0 1893.25  35
  -6   0   1 45812.4 2048.03  20
  -6   0   1 47732.4 2059.23  17
  -6   0   1 46757.3 1891.60  53
  -6   0   1 47304.3 1885.60   2
   6   0  -1 47692.0 1888.93  94
  -6   0   0 113.763 64.6209  17
  -6   0   0 72.5860 38.4818  53
   6   0   0 98.2126 35.6542  94
  -6   0   0 58.9522 36.0647   2
   6   0   1 308.555 46.6675  94
  -6   0  -2 609.753 64.6811  57
   6   0   2 731.387 67.0457  94
  -6   0  -3 1841.02 116.553  57
   6   0   3 1869.93 116.401  94
  -6   0  -4 2701.43 150.606  57
  -6   0  -5 361.455 50.9034  57
  -6   0  -6 156.917 34.5612  57
  -6   0  -7 383.795 41.2083  57
  -6   0  -8 326.740 36.4130  41
   6   1 -12 59.5084 27.6529  45
   6   1 -11 34.2241 31.8426  30
   6   1 -11 29.2999 31.6141  45
   6   1 -10-6.04209 35.1279  45
  -6  -1   9 282.897 61.0476  38
  -6  -1   9 354.501 47.2447  97
  -6  -1   8 753.491 70.2920  29
  -6  -1   8 775.110 71.5227  97
  -6  -1   8 548.415 116.071  93
  -6  -1   7 2226.97 131.876  29
  -6  -1   7 2085.59 125.876  97
  -6  -1   7 2247.21 222.906  93
   6   1  -6 9335.76 535.822  83
  -6  -1   6 8939.13 404.842  29
   6   1  -5 1460.40 180.474  83
   6   1  -5 1481.02 106.596  35
  -6  -1   5 1374.25 103.128  29
   6   1  -4 5119.50 366.288  83
   6   1  -4 5447.44 271.183  35
  -6  -1   4 5596.07 399.974  20
  -6  -1   4 5744.29 264.336   2
   6   1  -3 149.012 74.8291  83
  -6  -1   3 113.960 39.2355   2
   6   1  -3 149.644 42.0764  35
  -6  -1   3-22.4597 66.9381  20
  -6  -1   3 92.2476 41.5612  53
   6   1  -3 131.441 36.7470  94
   6   1  -2 2736.86 160.252  35
  -6  -1   2 2532.08 253.417  20
  -6  -1   2 2688.30 158.724  53
  -6  -1   2 3090.81 158.332   2
   6   1  -2 2832.38 154.455  94
   6   1  -1 939.977 84.9110  35
  -6  -1   1 1008.87 153.744  20
  -6  -1   1 1032.83 153.960  17
  -6  -1   1 906.411 82.4278  53
  -6  -1   1 909.712 77.7110   2
   6   1  -1 1034.23 79.3596  94
  -6  -1   0 59.8633 36.0851   2
  -6  -1   0 85.0849 41.1009  53
   6   1   0 43.0918 30.4575  94
  -6  -1  -1 90.0847 32.5624  57
  -6  -1  -1 78.6576 37.7796  53
  -6  -1  -2 853.428 74.7000  57
   6   1   3 2328.69 239.582  79
  -6  -1  -3 2385.54 138.176  57
  -6  -1  -4 37.7386 30.8432  57
  -6  -1  -5 29.7560 27.5230  57
  -6  -1  -6 876.486 67.7412  57
  -6  -1  -7 410.452 40.4790  57
  -6  -1  -8 279.595 32.1571  41
   6   2 -12 462.833 42.4113  30
   6   2 -11 267.348 41.2493  30
   6   2 -11 257.508 43.0642  45
   6   2 -10 35.6352 33.1996  30
  -6  -2  10-19.0545 26.1193  97
   6   2 -10 70.6518 38.0840  45
   6   2  -9 186.066 44.4949  30
  -6  -2   9 229.178 40.7867  97
   6   2  -8 197.786 47.5691  30
  -6  -2   8 202.467 42.7892  29
  -6  -2   8 202.872 44.0274  97
  -6  -2   8 115.766 69.6319  93
   6   2  -7 70.4861 40.4353  30
  -6  -2   7 29.1679 32.3821  29
  -6  -2   7 19.3982 60.3028  93
  -6  -2   6 501.779 62.3569  29
   6   2  -5 789.132 75.4608  35
   6   2  -4 1057.66 88.3874  35
  -6  -2   4 1008.83 83.1355   2
   6   2  -3 38.7152 33.2996  35
  -6  -2   3 9.75242 32.1620   2
  -6  -2   3 36.4762 39.6791  53
   6   2  -2-33.2978 38.8832  35
  -6  -2   2 29.3077 34.2239   2
  -6  -2   2 16.0583 36.8839  53
   6   2  -1 1914.29 124.041  35
  -6  -2   1 1893.69 122.429  53
  -6  -2   1 1714.53 114.601   2
  -6  -2   0 1108.40 90.7965  53
  -6  -2   0 1130.95 86.1497   2
  -6  -2  -1 38.7772 32.2512  57
  -6  -2  -1-5.36913 37.9285  53
  -6  -2  -2 1231.17 89.5796  57
  -6  -2  -3 1594.98 105.037  57
  -6  -2  -4 5466.33 258.512  57
  -6  -2  -5 830.886 67.5658  57
  -6  -2  -6 684.834 56.9420  57
  -6  -2  -6 762.774 56.8893  56
  -6  -2  -7 60.2081 21.2631  57
  -6  -2  -7 61.1917 21.2474  56
   6   3 -11 302.940 41.1635  30
   6   3 -10 186.586 41.5008  30
  -6  -3  10 189.645 34.1027  97
  -6  -3   9-17.6461 30.0352  97
   6   3  -9 37.8285 38.1770  30
   6   3  -8 5.17732 35.6765  30
  -6  -3   8 18.5916 55.3161  93
   6   3  -7 54.1092 39.4663  30
  -6  -3   7 18.7630 30.6757  29
  -6  -3   7 114.674 72.7587  93
  -6  -3   6 1931.02 213.167  81
   6   3  -6 2761.52 153.369  30
  -6  -3   5 2287.10 132.816   2
  -6  -3   4 1785.33 113.709   2
  -6  -3   3 1303.40 96.7692  53
  -6  -3   2 2939.51 165.386  53
  -6  -3   1 1360.37 100.169  53
  -6  -3   1 1285.17 95.2865   2
  -6  -3   0 2460.30 150.286  53
  -6  -3   0 2690.56 146.774   2
  -6  -3  -1 6891.24 316.108  57
  -6  -3  -1 6808.89 320.945  53
  -6  -3  -2 1958.93 118.918  57
  -6  -3  -2 1882.72 120.935  53
  -6  -3  -3 27.6145 31.1898  57
  -6  -3  -4 141.383 34.8313  57
  -6  -3  -5 1957.33 109.869  57
  -6  -3  -6 1534.22 84.8381  57
  -6  -3  -6 1455.16 83.5552  56
   6   4 -11 219.571 32.7928  30
   6   4 -10 179.409 36.7665  30
   6   4  -9-12.5413 32.0421  30
   6   4  -9-11.8444 31.8768  46
  -6  -4   9 6.15713 26.4903  97
   6   4  -8 1363.46 97.4365  30
   6   4  -7 10.2576 37.3794  30
  -6  -4   7-17.3297 29.0854  29
   6   4  -6 358.521 55.6684  30
   6   4  -5 2475.64 135.241  28
  -6  -4   5 2396.27 137.871   2
   6   4  -4 4259.90 209.348  28
  -6  -4   3 2133.15 130.794  53
  -6  -4   2 1107.36 89.5238  53
  -6  -4   1 1028.17 85.9970  53
  -6  -4   0 59.5657 32.5059   2
  -6  -4   0 26.9916 36.0414  53
  -6  -4  -1 1691.05 108.987  57
  -6  -4  -1 1790.77 115.801  53
  -6  -4  -2 112.819 34.8713  57
  -6  -4  -2 114.546 37.0969  53
  -6  -4  -3 788.432 65.6737  57
  -6  -4  -4 204.795 35.6211  57
  -6  -4  -5-22.7813 22.9932  57
  -6  -4  -5 10.6620 21.3894  56
  -6  -4  -6 53.6502 18.5078  57
  -6  -4  -6 33.0197 17.2413  56
   6   5 -10 217.799 32.6272  30
   6   5 -10 221.537 30.2241  46
   6   5  -9-6.72004 29.0728  30
   6   5  -9 29.2896 27.8549  46
  -6  -5   9 19.6445 23.8333  97
   6   5  -8 56.2570 34.0085  30
   6   5  -8-28.0267 28.7352  46
   6   5  -7 841.266 72.8788  30
   6   5  -6 9.72167 36.2556  30
   6   5  -6 61.7407 30.6033  28
   6   5  -5 620.757 66.9874  30
   6   5  -5 511.249 54.9502  28
   6   5  -4 166.473 38.8038  28
   6   5  -3 29.7010 32.5417  28
  -6  -5   2 59.5201 36.1944  53
   6   5  -2 37.9021 30.5134  28
  -6  -5   1-45.3203 35.0069  53
   6   5  -1-12.1926 29.4133  28
  -6  -5   0 30.2863 30.4013  57
  -6  -5   0 84.0487 37.1788  53
   6   5   0 72.0415 31.4438  28
  -6  -5  -1 37.8515 30.4709  57
  -6  -5  -1 55.9482 33.2462  53
  -6  -5  -2 1205.75 82.2973  57
  -6  -5  -2 1254.35 86.2494  53
  -6  -5  -3 2360.63 125.388  57
  -6  -5  -4 106.876 26.9070  57
  -6  -5  -5 72.2647 19.7661  57
  -6  -5  -5 42.3128 18.5520  56
   6   6  -9 55.2960 21.8378  30
   6   6  -9 2.27156 19.3451  46
  -6  -6   9 9.86924 16.6442  97
   6   6  -8 206.741 34.6316  30
   6   6  -8 155.574 30.4453  46
   6   6  -7 201.169 37.8368  30
   6   6  -7 158.283 35.3985  46
   6   6  -6 736.784 64.5127  30
   6   6  -6 650.946 55.1157  28
   6   6  -5 4333.93 205.036  30
   6   6  -5 4079.63 194.495  28
  -6  -6   5 4059.53 195.715   2
   6   6  -4 463.149 48.8841  28
   6   6  -3 1385.66 88.4257  28
  -6  -6   2 571.628 58.1786  53
   6   6  -2 573.250 53.8228  28
  -6  -6   1 444.697 52.4886  53
   6   6  -1 445.083 47.9455  28
  -6  -6   0 239.327 36.2988   2
  -6  -6   0 285.478 40.2028  57
  -6  -6   0 312.124 44.8752  53
  -6  -6  -1-6.81572 26.1202  57
  -6  -6  -1 18.9013 28.9745  53
  -6  -6  -2 643.802 52.4622  57
  -6  -6  -2 659.116 55.6453  53
  -6  -6  -3 1993.74 102.659  57
  -6  -6  -4 308.293 29.4561  57
   6   7  -7 472.263 39.6233  30
   6   7  -7 501.438 40.4972  46
   6   7  -7 469.522 36.4177  28
   6   7  -6 91.0824 26.4089  30
   6   7  -6 74.4537 23.2962  28
  -6  -7   5 199.727 29.5511   2
   6   7  -5 258.646 38.3628  30
   6   7  -5 271.781 33.2627  28
  -6  -7   4 5.68741 22.3859   2
   6   7  -4 42.7145 29.1799  30
   6   7  -4-15.9366 22.4794  28
   6   7  -3 26.7400 23.1566  28
   6   7  -2 15.2867 22.0492  28
  -6  -7   1 855.251 61.1637  57
  -6  -7   1 1045.40 68.7693  53
  -6  -7   1 1002.37 65.0459   2
  -6  -7   0 51.9389 22.5154  57
  -6  -7   0 23.5220 22.8907  53
  -6  -7  -1 37.5259 20.5613  57
  -6  -7  -1 39.1094 22.3619  53
  -6  -7  -2 38.6866 17.2685  57
  -6  -7  -2 53.6581 19.5851  53
  -7   8   4 622.251 53.5576  32
  -7   8   4 986.481 54.9779  49
  -7   8   3 401.196 41.7067  32
  -7   8   3 537.248 41.4001  49
  -7   8   2 48.0972 18.7596  49
  -7   7   7 13.3343 18.5386  44
  -7   7   6-20.7420 28.7659  36
  -7   7   6-12.4362 20.3368  49
  -7   7   5 6991.94 323.170  36
  -7   7   5 7570.58 316.056  49
  -7   7   4 526.524 58.2675  36
  -7   7   4 758.891 57.4811  49
  -7   7   3 356.644 49.5935  36
  -7   7   3 439.403 45.8202  49
  -7   7   2 77.2561 27.8852  49
  -7   7   1 681.322 53.2745  50
  -7   7   0 336.738 38.3701  50
  -7   7  -1 124.425 26.2250  50
  -7   7  -2 147.249 24.8872  50
  -7   6   8 452.246 39.1935  29
  -7   6   7 28.6416 32.8325  36
  -7   6   7-25.2460 22.9287  29
  -7   6   6 107.879 38.0692  36
  -7   6   6 174.222 32.0926  29
  -7   6   5 725.136 71.4283  36
  -7   6   4-21.2923 35.1003  36
  -7   6   3 996.275 86.7538  36
  -7   6   2 183.270 36.9465  49
  -7   6   1 467.915 50.6945  50
  -7   6   0 93.1779 33.1430  50
  -7   6  -1 190.083 35.9164  50
  -7   6  -2 104.689 27.6636  50
  -7   6  -3-4.60178 20.2270  50
  -7   6  -3-17.2715 23.6355  42
  -7   6  -4 980.409 59.1217  42
  -7   5   9 192.900 36.1520  38
  -7   5   9 177.342 27.7021  29
  -7   5   8 1301.53 91.6950  36
  -7   5   8 1461.13 85.1352  29
  -7   5   7 54.6687 36.5021  36
  -7   5   7 3.53340 25.9576  29
  -7   5   6 44.2789 40.0511  36
  -7   5   6 26.7694 28.9349  29
  -7   5   5 449.630 49.6428   3
  -7   5   5 424.872 62.4337  36
  -7   5   5 473.327 52.6680  29
  -7   5   4 1605.49 100.356   3
  -7   5   3 1204.38 85.5726   3
  -7   5   2 1688.98 104.810  50
  -7   5   2 1700.86 105.435   3
  -7   5   1 81.2661 31.3044   3
  -7   5   1 81.1342 35.0430  50
  -7   5   0 794.858 67.3825  50
  -7   5   0 753.068 63.0815   3
  -7   5  -1 255.008 41.0412  50
  -7   5  -2 1128.76 77.1537  50
  -7   5  -3 317.416 37.9014  50
  -7   5  -4 117.742 30.7101  42
  -7   5  -5 28.7608 18.7970  42
  -7   4  10 150.831 32.7627  38
  -7   4  10 178.024 26.4000  29
  -7   4   9 87.1737 35.8349  38
  -7   4   9 95.6609 31.3840  34
  -7   4   9 112.344 29.5517  29
  -7   4   8 123.183 42.7934  38
  -7   4   8 108.237 36.2264  34
  -7   4   8 180.129 35.8134  29
  -7   4   7 4.05671 29.3405  29
  -7   4   6 368.714 57.6258  36
  -7   4   6 254.396 43.9140  29
  -7   4   5-20.3666 30.1368   3
  -7   4   5-4.37528 28.3080  29
  -7   4   4 48.0947 31.6778   3
  -7   4   3-4.51960 30.6108   3
  -7   4   2 1176.38 86.2727   3
  -7   4   1 829.758 88.0442  41
  -7   4   1 907.870 74.6032   3
  -7   4   0 229.139 39.6067   3
  -7   4   0 202.316 50.8300  41
   7  -4   1 106.607 33.2657  94
  -7   4  -1 52.5360 39.6738  41
  -7   4  -2 1111.58 79.4409  50
   7  -4   2 1212.07 83.2479  94
  -7   4  -2 1116.47 91.8128  41
   7  -4   3 7.72347 23.2413  94
  -7   4  -3 9.38037 34.6971  41
  -7   4  -4 103.652 28.2291  57
  -7   4  -5 25.1423 18.5932  57
  -7   3  11 28.1712 25.2956  38
  -7   3  10 53.4546 32.7978  38
  -7   3  10-3.36341 25.7947  34
  -7   3  10 27.7231 21.4671  29
  -7   3   9 1974.58 122.487  38
  -7   3   9 1778.45 110.622  34
  -7   3   9 1838.92 104.534  29
  -7   3   8 2234.45 141.440  38
  -7   3   8 2171.97 131.189  34
  -7   3   8 2209.56 123.904  29
  -7   3   7-12.8501 42.3548  38
  -7   3   7 10.4779 35.7922  34
  -7   3   7 4.38561 30.2195  29
  -7   3   6 364.036 50.5942  29
  -7   3   5 2795.54 152.554  29
  -7   3   5 2696.08 147.642   3
   7  -3  -4 501.514 113.789  83
  -7   3   4 698.383 66.3135   3
  -7   3   3 18.7543 34.1777   3
  -7   3   2 876.316 72.7605   3
   7  -3  -2 774.006 69.4987  94
  -7   3   2 676.658 79.0122  41
   7  -3  -1 1641.84 105.479  94
  -7   3   1 1472.50 117.430  41
  -7   3   1 1534.47 101.622   3
   7  -3   0 1721.36 106.559  94
  -7   3   0 1373.63 115.321  41
  -7   3   0 1515.23 99.7585   3
   7  -3   1 1859.51 113.852  94
  -7   3  -1 1741.17 124.440  41
   7  -3   2 815.061 70.1876  94
  -7   3  -2 847.308 81.3716  41
   7  -3   3 4.27084 24.2318  94
  -7   3  -3 5.27747 38.7524  41
  -7   3  -4 42.5387 25.9633  57
   7  -3   4 33.7676 22.6224  94
  -7   3  -4 31.3408 32.6603  41
  -7   3  -5 93.6438 25.5408  57
  -7   3  -5 89.6000 31.4280  41
  -7   3  -6 138.659 22.2216  57
  -7   2  11 665.622 56.1373  38
  -7   2  10 1346.23 95.5919  38
  -7   2  10 1388.02 89.5690  34
  -7   2   9 160.273 41.8748  34
  -7   2   9 96.4248 32.5366  29
  -7   2   8 84.1435 47.9610  38
  -7   2   8 57.3513 38.9500  34
  -7   2   8 75.0686 34.6038  29
  -7   2   7 1872.03 136.993  38
  -7   2   7 1935.13 117.339  29
   7  -2  -6 6899.58 437.176  83
  -7   2   6 6341.66 331.682  38
  -7   2   6 7042.09 314.211  29
   7  -2  -5 143.291 77.9541  83
  -7   2   5 48.5966 30.8133   3
  -7   2   5 76.4643 33.3142  29
   7  -2  -4 1018.59 152.443  83
  -7   2   4 916.671 77.2374   3
   7  -2  -3 565.010 120.274  83
  -7   2   3 456.907 57.4847   3
   7  -2  -3 514.120 59.1383  94
  -7   2   2 3587.20 188.368   3
   7  -2  -2 3894.44 193.527  94
  -7   2   2 3504.77 201.785  41
  -7   2   1 2618.60 150.204   3
   7  -2  -1 2919.59 157.401  94
  -7   2   1 2821.04 168.878  41
  -7   2   0 606.880 61.4319   3
  -7   2   0 518.377 70.3336  41
   7  -2   1 377.507 50.7647  94
  -7   2  -1 232.868 57.2255  41
   7  -2   2 1305.48 91.1568  94
  -7   2  -2 1138.92 99.8560  41
  -7   2  -3 809.744 67.2538  57
   7  -2   3 925.363 73.3136  94
  -7   2  -3 950.017 83.2084  41
  -7   2  -4 1298.19 81.0874  57
   7  -2   4 1087.60 78.4317  94
  -7   2  -4 1031.02 87.7580  41
  -7   2  -5 17.4092 23.4407  57
  -7   2  -5 27.2573 29.4453  41
  -7   2  -6 99.6019 23.1078  57
  -7   2  -6 86.9350 27.6029  41
  -7   1  11 10.1978 28.7765  38
  -7   1  11 10.8077 22.6187  34
   7  -1 -11 34.6539 26.5700  45
  -7   1  10 28.7181 35.9267  38
  -7   1  10 41.9662 31.9256  34
   7  -1 -10-18.5135 33.2192  45
  -7   1   9 13051.9 560.659  38
  -7   1   9 12427.1 545.406  34
  -7   1   9 12919.9 536.476  29
  -7   1   8-6.75546 44.5389  38
  -7   1   8 33.9811 32.7868  29
  -7   1   7 905.980 98.7879  38
  -7   1   7 1177.42 85.7143  29
   7  -1  -6 20.4222 54.9843  83
  -7   1   6-7.46082 45.9124  38
  -7   1   6 77.3320 34.4516  29
   7  -1  -5-20.8568 64.8166  83
   7  -1  -5 39.5757 34.7756  35
  -7   1   5 9.71402 34.3133  29
   7  -1  -4 420.113 107.387  83
   7  -1  -4 393.214 57.9456  35
  -7   1   4 280.164 46.9211  29
   7  -1  -3 20.9812 62.4293  83
   7  -1  -3 79.9999 34.3952  35
   7  -1  -3-15.6744 29.6527  94
   7  -1  -2 5416.12 275.209  35
   7  -1  -2 5880.97 272.953  94
   7  -1  -1 45.3634 37.3876  35
   7  -1  -1 5.22626 28.5278  94
   7  -1   0 195.945 45.1248  35
   7  -1   0 165.441 41.4906  94
  -7   1   0 143.202 49.4546  41
   7  -1   1 251.027 47.0020  35
   7  -1   1 312.847 47.0550  94
  -7   1  -1 296.833 57.1250  41
   7  -1   2 748.564 67.9967  94
  -7   1  -2 681.844 75.1876  41
  -7   1  -3 173.159 36.5892  57
   7  -1   3 96.7937 31.9013  94
  -7   1  -3 78.0818 41.8084  41
  -7   1  -4 245.139 38.8366  57
   7  -1   4 260.366 37.9654  94
  -7   1  -4 246.204 49.1770  41
  -7   1  -5 11.9172 21.7157  57
  -7   1  -5 4.02645 30.0059  41
   7  -1   6 182.655 26.4433  35
  -7   1  -6 191.566 26.9530  57
  -7   1  -6 125.460 29.8884  41
   7   0 -11 718.306 59.9678  45
  -7   0  10 1364.69 99.5913  38
   7   0 -10 1578.66 102.637  45
  -7   0   9 1218.95 102.692  38
  -7   0   9 1363.49 96.8527  34
  -7   0   9 1467.01 89.1160  29
  -7   0   8 148.837 52.1146  38
  -7   0   8 126.302 36.0084  29
  -7   0   7 1833.62 117.717  29
  -7   0   7 2073.80 117.973  97
   7   0  -6 2387.87 237.768  83
  -7   0   6 2552.46 148.349  29
  -7   0   6 2783.94 145.461  97
   7   0  -5 311.313 97.1033  83
   7   0  -5 206.436 46.7642  35
  -7   0   5 264.047 46.9650  29
  -7   0   5 166.798 40.5216   2
   7   0  -4 3155.42 280.468  83
   7   0  -4 3740.09 194.535  35
  -7   0   4 3427.03 183.115   2
  -7   0   4 3486.27 183.171  29
   7   0  -3 865.044 142.066  83
   7   0  -3 744.272 76.0579  35
  -7   0   3 742.976 69.2187   2
  -7   0   3 558.356 68.3621  53
   7   0  -2 20.3193 57.6419  83
   7   0  -2-5.81261 38.6708  35
  -7   0   2-10.9575 39.6251  53
   7   0  -2 26.0580 30.2989  94
  -7   0   2-9.87170 31.6211   2
   7   0  -1 17.3509 35.5697  35
  -7   0   1-5.42388 34.7477  53
   7   0  -1-5.15571 28.5110  94
  -7   0   1-9.59651 31.9225   2
   7   0   0 17.1396 31.1754  35
  -7   0   0 20.9239 35.1163  53
   7   0   0-25.2720 28.6769  94
   7   0   1 13544.1 571.767  35
   7   0   1 12860.7 561.940  94
  -7   0  -2 25.5557 29.8696  57
  -7   0  -2 45.8568 40.1817  41
  -7   0  -3 731.631 64.3300  57
  -7   0  -3 754.424 75.0143  41
  -7   0  -4 516.642 51.2851  57
  -7   0  -4 421.382 56.1770  41
  -7   0  -5 139.627 28.1498  57
  -7   0  -5 93.2737 37.0424  41
   7   0   6 24.9088 19.2512  35
  -7   0  -6 27.0650 17.8477  57
  -7   0  -6 31.0115 24.6731  41
   7   1 -11 58.3213 26.4185  45
  -7  -1  10 451.523 55.5287  38
   7   1 -10 383.853 51.1738  45
  -7  -1   9 2009.55 137.630  38
  -7  -1   9 2418.33 123.132  29
  -7  -1   8 641.121 77.6271  38
  -7  -1   8 731.028 63.9176  29
  -7  -1   8 637.682 60.6005  97
  -7  -1   7 862.319 75.0235  29
  -7  -1   7 924.183 73.6171  97
  -7  -1   6 1192.85 89.1133  29
  -7  -1   6 1148.51 84.3255  97
   7   1  -5 2379.84 232.909  83
   7   1  -5 2444.04 147.629  35
  -7  -1   5 2452.69 138.807   2
  -7  -1   5 2496.14 143.393  29
   7   1  -4 16281.0 685.468  35
  -7  -1   4 16097.8 679.525  53
  -7  -1   4 16145.7 676.297   2
  -7  -1   4 15725.2 675.567  29
  -7  -1   3 147.450 40.7964   2
   7   1  -3 224.566 46.4614  35
  -7  -1   3 186.900 46.9883  53
   7   1  -2 5596.48 270.301  35
  -7  -1   2 5738.37 269.462  53
  -7  -1   2 5156.53 259.335   2
   7   1  -1 6864.77 323.694  35
  -7  -1   1 6992.02 315.573   2
  -7  -1   1 6803.09 320.745  53
   7   1  -1 6708.34 314.818  94
   7   1   0-16.9279 39.2092  35
  -7  -1   0-20.8123 30.6073  53
  -7  -1   0 31.1155 28.7548   2
   7   1   1 153.155 42.3241  35
  -7  -1  -1 145.099 39.7163  53
  -7  -1  -2 154.594 36.8368  57
  -7  -1  -3 147.499 35.1205  57
  -7  -1  -4 155.423 33.0201  57
  -7  -1  -4 188.131 41.4752  41
  -7  -1  -5 1223.82 75.9315  57
  -7  -1  -5 1295.80 83.4464  41
   7   1   6 197.653 26.8172  35
  -7  -1  -6 151.741 22.4153  57
  -7  -1  -6 127.321 24.6647  41
   7   2 -10 373.684 45.6571  45
  -7  -2   9 721.815 72.8374  38
  -7  -2   9 768.393 59.8652  97
  -7  -2   8 751.898 64.5686  29
  -7  -2   8 905.111 67.3662  97
  -7  -2   7 6903.70 305.693  29
  -7  -2   7 6565.30 299.826  97
  -7  -2   6 5504.73 252.113  29
  -7  -2   6 5033.91 242.619  97
  -7  -2   5 703.156 65.6311   2
  -7  -2   5 554.448 62.3128  29
   7   2  -4 1690.14 114.928  35
  -7  -2   4 1804.69 111.816  53
  -7  -2   4 1644.17 107.917   2
  -7  -2   4 1518.90 107.250  29
   7   2  -3 569.804 65.3924  35
  -7  -2   3 651.374 67.8377  53
  -7  -2   3 653.256 66.0899   2
  -7  -2   3 602.042 62.1333  29
   7   2  -2 1087.73 90.5797  35
  -7  -2   2 1187.32 91.8762  53
  -7  -2   2 1154.81 87.5675   2
   7   2  -1 620.462 68.6829  35
  -7  -2   1 723.929 72.4499  53
  -7  -2   1 648.716 64.2090   2
   7   2   0 186.275 45.4819  35
  -7  -2   0 146.593 41.7925  53
  -7  -2   0 157.871 36.8571   2
   7   2   1 76.4938 36.7804  35
  -7  -2  -1 112.127 37.8972  53
   7   2   2 9.48653 30.3881  35
  -7  -2  -2-15.8289 28.4003  57
   7   2   3 472.852 53.9358  35
  -7  -2  -3 438.304 48.2481  57
   7   2   4 819.943 63.9062  35
  -7  -2  -4 801.607 59.6471  57
   7   2   5 663.070 52.1792  35
  -7  -2  -5 684.978 49.1158  57
   7   3 -10 2059.11 106.695  30
   7   3  -9 170.853 35.2995  30
  -7  -3   9 180.418 31.9396  97
   7   3  -8 448.654 52.6839  30
  -7  -3   8 477.520 48.7960  29
  -7  -3   8 460.487 48.2134  97
   7   3  -7 2881.38 151.936  30
  -7  -3   7 2617.77 144.749  29
  -7  -3   7 2865.71 144.455  97
   7   3  -6 18.0647 34.4119  30
  -7  -3   6 59.6950 32.7182  29
  -7  -3   5 563.362 58.0812   2
  -7  -3   5 450.666 56.2163  29
  -7  -3   4-4.44067 29.0017   2
  -7  -3   3 72.8244 35.8911   2
  -7  -3   3 38.7450 32.8695  53
  -7  -3   2 27.0644 30.5902   2
  -7  -3   2 59.5931 37.5707  53
  -7  -3   1 185.403 39.8085   2
  -7  -3   1 152.885 40.6049  53
  -7  -3   0 70.8314 34.2640  53
  -7  -3  -1 129.555 32.9809  57
  -7  -3  -1 189.842 39.3602  53
  -7  -3  -2 1268.30 82.7616  57
  -7  -3  -3 147.293 30.6908  57
  -7  -3  -4-10.1378 20.7173  57
  -7  -3  -5 3.53390 13.7280  57
   7   4  -9 448.646 43.0144  30
   7   4  -9 434.299 41.4859  46
  -7  -4   9 433.931 39.4137  97
   7   4  -8 79.6779 31.6524  30
  -7  -4   8 75.9987 25.2368  29
  -7  -4   8 69.5008 26.0830  97
   7   4  -7-3.78970 29.4421  30
  -7  -4   7 3.31534 24.5255  29
  -7  -4   7-8.84594 26.3193  97
   7   4  -6 387.035 50.4778  30
  -7  -4   6 410.615 49.0570  29
  -7  -4   5-3.70294 24.8587   2
   7   4  -5 38.9207 33.3725  30
  -7  -4   5 3.98117 29.0148  29
   7   4  -5-6.79598 26.9220  28
  -7  -4   4 43.8624 29.9541   2
   7   4  -4 21.9323 27.6590  28
  -7  -4   3 467.480 51.8230   2
  -7  -4   3 471.684 53.4910  53
   7   4  -3 460.766 50.4619  28
  -7  -4   2 3972.53 187.702  53
  -7  -4   2 3423.57 178.866   2
   7   4  -2 3572.36 178.230  28
  -7  -4   1 454.274 49.9709   2
  -7  -4   1 420.744 51.9979  53
  -7  -4   0 2725.24 146.842  53
  -7  -4  -1 82.0859 27.0171  57
  -7  -4  -1 78.2330 29.4925  53
  -7  -4  -2 279.381 37.4292  57
  -7  -4  -2 354.429 40.6899  53
  -7  -4  -3-9.98432 20.0316  57
  -7  -4  -4 11.1326 16.8159  57
   7   5  -8 85.2455 25.7995  30
   7   5  -8 72.2096 22.9538  46
  -7  -5   8 62.8085 22.5050  97
   7   5  -7 33.3035 26.0529  30
  -7  -5   7 5.07804 20.5019  29
  -7  -5   7-4.58587 21.7711  97
   7   5  -6 1086.95 74.6287  30
  -7  -5   6 987.488 69.3892  29
   7   5  -6 1151.31 67.4624  28
   7   5  -5 2714.12 137.760  30
  -7  -5   5 2495.04 128.818   2
  -7  -5   5 2452.62 130.659  29
   7   5  -5 2595.08 128.472  28
  -7  -5   4 89.2441 28.5046   2
   7   5  -4 114.495 35.2591  30
   7   5  -4 76.7504 27.6283  28
  -7  -5   3 549.698 52.9857   2
   7   5  -3 617.182 52.5425  28
  -7  -5   2 871.114 66.5775  53
  -7  -5   2 816.552 62.9369   2
   7   5  -2 830.582 62.4425  28
  -7  -5   1 710.898 61.0546  53
  -7  -5   1 795.406 59.1060   2
   7   5  -1 760.887 56.1440  28
  -7  -5   0 160.191 33.0207  53
   7   5   0 103.668 26.2195  28
  -7  -5  -1 376.498 37.3432  57
  -7  -5  -1 360.203 39.6489  53
  -7  -5  -2-2.18947 18.4293  57
  -7  -5  -2 27.0462 19.6068  53
   7   6  -6 1738.78 90.0714  30
  -7  -6   6 1600.87 84.2792  29
   7   6  -6 1676.28 81.9431  28
  -7  -6   6 1539.31 82.0082  97
   7   6  -5 1228.30 71.5939  30
  -7  -6   5 1087.21 64.3139   2
  -7  -6   5 1008.00 64.8780  29
   7   6  -5 1081.15 63.4400  28
  -7  -6   4 2.40977 18.9791   2
   7   6  -4 43.0191 25.4764  30
  -7  -6   4 2.49040 20.2397  29
   7   6  -4 29.3915 19.6734  28
  -7  -6   3-12.5537 20.3976   2
   7   6  -3-14.6231 24.1901  30
   7   6  -3 2.29667 19.7636  28
  -7  -6   2 461.594 42.9137  53
  -7  -6   2 427.541 39.5375   2
   7   6  -2 496.155 40.2413  28
  -7  -6   1 17.2506 18.5623   2
  -7  -6   1 78.1701 23.5942  53
   7   6  -1 73.0198 20.2032  28
  -7  -6   0 119.232 24.6927  53
  -8   6   5 1075.79 71.9586  36
  -8   6   5 1094.88 64.7172  49
  -8   6   4 98.4381 28.9501  36
  -8   6   4 45.1243 22.1295  49
  -8   6   3 312.521 41.2623  36
  -8   6   2 313.144 41.7352  36
  -8   6   1 214.902 34.9105  36
  -8   6   1 287.913 30.4123  50
  -8   6   0 3.89834 16.7723  50
  -8   5   7 218.820 34.0300  36
  -8   5   7 224.027 27.1120  29
  -8   5   6 121.624 32.8898  36
  -8   5   5 744.813 64.7709  36
  -8   5   4 643.159 61.9929  36
  -8   5   3 536.368 47.6581   3
  -8   5   2 311.430 37.7683  50
  -8   5   2 449.690 43.4440   3
  -8   5   1 304.564 36.7517  50
  -8   5   0 3497.53 162.895  50
  -8   5  -1 201.374 27.9763  50
  -8   4   8 379.360 36.0474  29
  -8   4   7-2.61844 21.2709  29
  -8   4   6 68.3295 27.1604  29
  -8   4   5 505.808 57.5031  36
  -8   4   5 487.440 46.9699   3
  -8   4   4 476.164 48.1898   3
  -8   4   3 317.149 41.7970   3
  -8   4   2 851.107 64.3970   3
  -8   4   1 230.336 35.4167   3
  -8   4   1 244.681 37.7293  50
  -8   4   0 1066.24 71.2831  50
  -8   4  -1 229.045 31.5478  50
  -8   4  -2 19.2866 18.7523  50
  -8   3   9 314.330 38.9133  38
  -8   3   9 300.117 34.9197  34
  -8   3   9 336.130 32.3888  29
  -8   3   8 18.4399 25.4192  34
  -8   3   8-2.62937 20.9661  29
  -8   3   7 95.7086 32.6181  34
  -8   3   7 85.3483 28.6326  29
  -8   3   6 361.721 42.8374  29
  -8   3   5 649.130 56.4144   3
  -8   3   4 32.4367 29.1257   3
  -8   3   3 185.355 37.5841   3
  -8   3   2 127.347 33.0159   3
  -8   3   1-13.5783 27.2454   3
   8  -3  -1-19.4619 24.4517  94
   8  -3   0 115.579 29.1174  94
  -8   3   0 112.997 39.1963  41
  -8   3  -1 81.4813 26.7462  50
  -8   3  -1 17.2247 30.7337  41
  -8   3  -2 3.72915 27.3832  41
  -8   3  -3-2.96739 24.1055  41
  -8   2   9 13.8410 28.8268  38
  -8   2   9 54.2853 24.2279  34
  -8   2   9 41.3380 21.7590  29
  -8   2   8 368.944 50.4380  38
  -8   2   8 339.828 44.1406  34
  -8   2   8 410.617 41.9717  29
  -8   2   7 43.0366 35.6502  38
  -8   2   7 36.4256 31.4628  34
  -8   2   7 13.2507 27.8994  29
  -8   2   6 138.801 33.7695  29
  -8   2   5 1081.57 76.2058   3
  -8   2   4 3.81033 29.0045   3
  -8   2   3 3228.30 163.875   3
  -8   2   2 1431.98 92.0635   3
  -8   2   1 204.034 36.9672   3
   8  -2  -1 218.210 37.4604  94
  -8   2   1 145.480 42.8860  41
   8  -2   0-12.0031 24.8669  94
  -8   2   0 38.6793 35.7663  41
   8  -2   1 228.951 35.3953  94
  -8   2  -1 224.507 44.2798  41
  -8   2  -2 273.853 43.8956  41
  -8   2  -3 3.26499 27.3197  41
  -8   1   9 11.2010 28.2227  38
  -8   1   9-15.0603 23.7106  34
  -8   1   9-9.58323 21.5997  29
   8  -1  -9 13.7471 25.7948  45
  -8   1   8 197.125 44.6490  38
  -8   1   8 287.290 43.4313  34
  -8   1   8 326.296 38.5547  29
  -8   1   7 3373.90 189.380  38
  -8   1   7 3809.20 176.690  29
  -8   1   6 414.870 60.8198  38
  -8   1   6 592.093 55.2730  29
  -8   1   5-3.63572 28.2496   3
  -8   1   5-18.7434 27.7348  29
   8  -1  -4 42.1468 31.3041  35
  -8   1   4 116.658 32.3052   3
   8  -1  -3 179.553 41.7272  35
  -8   1   3 127.144 36.8176   3
   8  -1  -2 350.562 49.5443  35
  -8   1   2 288.019 44.0849   3
  -8   1   1 1706.35 99.8689   3
   8  -1  -1 1742.24 107.332  35
   8  -1  -1 1503.06 100.404  94
   8  -1   0 1101.43 82.5211  35
   8  -1   0 1137.83 80.4761  94
   8  -1   1 2700.43 140.426  35
   8  -1   1 2588.64 137.376  94
  -8   1  -1 2542.61 143.999  41
   8  -1   2 378.656 43.3173  35
  -8   1  -2 348.259 46.3591  41
   8  -1   3 101.041 25.4890  35
  -8   1  -3 84.6885 30.3082  41
  -8   1  -4 706.418 50.7066  41
  -8   0   9 1496.30 94.0533  38
  -8   0   9 1318.80 83.3581  34
  -8   0   9 1582.22 81.7473  29
   8   0  -9 1379.62 89.8335  45
  -8   0   8 4.62493 31.8779  38
  -8   0   8 29.5055 24.9825  29
  -8   0   7 386.080 57.6987  38
  -8   0   7 563.058 51.8754  29
  -8   0   6 187.747 51.7813  38
  -8   0   6 245.382 39.7103  29
  -8   0   5 3.75522 26.3110  29
   8   0  -4 14.2196 32.3874  35
   8   0  -3 167.528 40.5801  35
   8   0  -2 1388.31 96.8626  35
   8   0  -1 2721.83 149.980  35
   8   0   0 1771.89 110.537  35
   8   0   0 1846.75 107.617  94
   8   0   1 715.271 62.7115  35
   8   0   2 6.88035 25.0731  35
   8   0   3 586.704 46.9511  35
  -8   0  -3 388.497 43.1020  41
  -8  -1   9 13.6885 27.1149  38
  -8  -1   9 6.38543 18.2177  29
  -8  -1   8 30.6598 34.9310  38
  -8  -1   8 13.7948 22.4240  29
  -8  -1   7 911.065 83.9537  38
  -8  -1   7 1116.45 72.2961  29
  -8  -1   6 21.0605 28.1759  29
  -8  -1   5 508.390 52.4316  29
   8   1  -4 778.797 70.5792  35
   8   1  -3 68.7223 35.2176  35
   8   1  -2 489.711 58.6718  35
   8   1  -1 1108.44 82.0670  35
   8   1   0 49.3712 30.9396  35
   8   1   1 96.7913 32.4264  35
   8   1   2 121.624 31.6786  35
   8   1   3 17.8012 20.0303  35
  -8  -2   8 180.314 38.7435  38
  -8  -2   8 229.517 30.2995  29
  -8  -2   7 592.283 64.1744  38
  -8  -2   7 715.085 54.5401  29
  -8  -2   6 246.952 36.9801  29
  -8  -2   5 197.885 35.6742  29
  -8  -2   4 1095.01 73.4395   2
  -8  -2   4 840.163 67.8247  29
   8   2  -3 4.07787 28.3404  35
  -8  -2   3 21.4729 28.3586   2
   8   2  -2 36.2484 29.2119  35
  -8  -2   2 50.6255 33.5798  53
  -8  -2   2 79.8380 28.7928   2
   8   2  -1 30.9340 29.4544  35
  -8  -2   1 26.0787 28.7711  53
   8   2   0 530.910 51.6298  35
   8   2   1 105.011 27.5378  35
   8   2   2-15.8435 21.1963  35
  -8  -3   8 232.547 37.0325  38
  -8  -3   8 346.616 31.2230  29
  -8  -3   7 132.778 27.0997  29
  -8  -3   7 150.784 25.5781  97
  -8  -3   6 35.7040 22.2178  29
  -8  -3   5 383.872 40.1250   2
  -8  -3   5 354.593 40.0129  29
  -8  -3   4 49.2983 25.6411  29
   8   3  -4 26.7388 22.9043  28
  -8  -3   4 6.08587 22.8611   2
  -8  -3   3 6.62153 24.6760  53
   8   3  -3-28.1989 24.4004  28
  -8  -3   3-9.31101 22.2796   2
  -8  -3   2 33.4384 24.9226  53
   8   3  -2-11.2727 24.1222  28
  -8  -3   2 26.8627 23.8041   2
  -8  -3   1 216.770 35.2266  53
  -8  -3   1 216.742 31.8818   2
  -8  -3   0 8.51046 21.1417  53
   8   3   1 92.7120 21.1046  28
  -8  -4   6 40.1041 19.9207  29
  -8  -4   5 36.6067 21.2476  29
  -8  -4   5 10.8746 18.3224   2
  -8  -4   4 80.3020 23.4790  29
   8   4  -4 82.5191 21.7257  28
  -8  -4   4 67.5267 23.0922   2
  -8  -4   3 50.9818 23.7517  53
   8   4  -3 127.144 26.4492  28
  -8  -4   3 135.445 27.0649   2
  -8  -4   2 577.862 46.1439   2
  -8  -4   2 577.789 48.2043  53
   8   4  -2 691.210 48.0313  28
  -8  -4   1 140.250 25.9550  53
  -8  -4   1 127.798 22.6219   2
   8   4  -1 89.1501 22.2830  28
  -8  -4   0 21.1646 18.3122  53
   8   4   0-1.67175 15.2968  28
  -9   3   5 306.126 28.9976   3
  -9   3   4 194.898 25.5757   3
  -9   3   3 366.356 33.0646  50
  -9   3   3 389.655 34.3462   3
  -9   3   2 1.81725 16.4666   3
  -9   3   2 13.6970 17.9887  50
  -9   3   1 244.332 26.5295  50
  -9   2   5 13.5562 17.7248   3
  -9   2   4 58.0321 20.9783   3
  -9   2   3 311.607 33.4983   3
  -9   2   2 52.6569 21.1313   3
  -9   1   6 121.587 26.2734  34
  -9   1   5-6.05926 17.0948   3
  -9   1   4 26.6632 20.6445   3
  -9   1   3 143.578 25.9094   3
  -9   1   2 1012.07 60.8937   3
   9  -1  -1 311.746 33.3458  35
  -9   0   5-1.95816 17.1216   3
  -9   0   4 109.815 23.5719   3
  -9   0   3 86.6467 22.4965   3
  -9   0   2 59.8308 20.6872   3
   9   0  -1 217.440 28.9377  35
  -9  -1   5 145.011 22.8215   3
  -9  -1   4 228.576 26.6570   3
  -9  -1   3-3.88135 16.9692   3
  -9  -1   2 380.693 33.2102   3
   9   1  -2 436.356 33.6582  28
   0   0   0    0.00    0.00   0

TITL 9827-10660_CA263 in P-1
REM P-1 (#2 in standard setting)
CELL 1.54184   7.504745   9.221060  11.449888  90.8837 103.9559  95.2641
ZERR    2.00   0.000329   0.000415   0.000550   0.0038   0.0039   0.0036
LATT  1
SFAC C N O F
UNIT 34.00 4.00 2.00 2.00
TREF
HKLF 4
END
;
_shelx_hkl_checksum              26936
_olex2_submission_special_instructions 'No special instructions were received'
_oxdiff_exptl_absorpt_empirical_details
;
Empirical correction (ABSPACK) includes:
- Absorption correction using spherical harmonics
- Frame scaling
;
_oxdiff_exptl_absorpt_empirical_full_max 2.048
_oxdiff_exptl_absorpt_empirical_full_min 0.766
loop_
_space_group_symop_operation_xyz
'x, y, z'
'-x, -y, -z'
loop_
_atom_site_label
_atom_site_type_symbol
_atom_site_fract_x
_atom_site_fract_y
_atom_site_fract_z
_atom_site_U_iso_or_equiv
_atom_site_adp_type
_atom_site_occupancy
_atom_site_site_symmetry_order
_atom_site_calc_flag
_atom_site_refinement_flags_posn
F1 F 0.84471(13) -0.10066(10) 0.68862(9) 0.0434(3) Uani 1 1 d .
O1 O 0.00854(14) 0.35477(11) 0.42342(9) 0.0317(3) Uani 1 1 d .
N2 N 0.29035(17) 0.35308(13) 0.53764(11) 0.0282(3) Uani 1 1 d .
N1 N -0.00558(17) 0.26342(14) 0.52030(11) 0.0305(3) Uani 1 1 d .
C5 C 0.3857(2) 0.10784(15) 0.69811(12) 0.0257(3) Uani 1 1 d .
C4 C 0.21392(19) 0.18464(15) 0.69668(12) 0.0256(3) Uani 1 1 d .
H4 H 0.1105 0.1067 0.6926 0.031 Uiso 1 1 calc R
C1 C 0.1643(2) 0.26816(15) 0.58342(13) 0.0260(3) Uani 1 1 d .
C11 C 0.22738(19) 0.28005(15) 0.80976(13) 0.0259(3) Uani 1 1 d .
C7 C 0.7166(2) 0.10312(16) 0.74982(14) 0.0306(3) Uani 1 1 d .
H7 H 0.8366 0.1474 0.7872 0.037 Uiso 1 1 calc R
C6 C 0.5610(2) 0.17222(15) 0.75253(13) 0.0280(3) Uani 1 1 d .
H6 H 0.5748 0.2652 0.7923 0.034 Uiso 1 1 calc R
C8 C 0.6922(2) -0.03145(17) 0.69142(14) 0.0316(3) Uani 1 1 d .
C12 C 0.2359(2) 0.43123(16) 0.80524(13) 0.0284(3) Uani 1 1 d .
H12 H 0.2389 0.4754 0.7312 0.034 Uiso 1 1 calc R
C16 C 0.2264(2) 0.21328(16) 0.91884(13) 0.0300(3) Uani 1 1 d .
C2 C 0.1881(2) 0.40156(16) 0.44157(13) 0.0288(3) Uani 1 1 d .
C13 C 0.2404(2) 0.52025(17) 0.90612(14) 0.0322(3) Uani 1 1 d .
C10 C 0.3675(2) -0.02810(16) 0.63981(14) 0.0324(3) Uani 1 1 d .
H10 H 0.2480 -0.0730 0.6020 0.039 Uiso 1 1 calc R
C9 C 0.5213(2) -0.09914(17) 0.63603(15) 0.0359(4) Uani 1 1 d .
H9 H 0.5087 -0.1920 0.5962 0.043 Uiso 1 1 calc R
C15 C 0.2306(2) 0.30316(18) 1.01919(14) 0.0375(4) Uani 1 1 d .
H15 H 0.2295 0.2601 1.0939 0.045 Uiso 1 1 calc R
C14 C 0.2363(2) 0.45313(18) 1.01258(15) 0.0383(4) Uani 1 1 d .
H14 H 0.2375 0.5108 1.0823 0.046 Uiso 1 1 calc R
C18 C 0.2233(2) 0.05082(17) 0.93090(15) 0.0359(4) Uani 1 1 d .
H18A H 0.1186 0.0023 0.8705 0.054 Uiso 1 1 calc GR
H18B H 0.2109 0.0258 1.0116 0.054 Uiso 1 1 calc GR
H18C H 0.3384 0.0186 0.9184 0.054 Uiso 1 1 calc GR
C3 C 0.2437(2) 0.49633(18) 0.35087(15) 0.0373(4) Uani 1 1 d .
H3A H 0.2178 0.4421 0.2734 0.056 Uiso 1 1 calc GR
H3B H 0.3760 0.5277 0.3771 0.056 Uiso 1 1 calc GR
H3C H 0.1741 0.5820 0.3420 0.056 Uiso 1 1 calc GR
C17 C 0.2488(3) 0.68344(18) 0.89801(16) 0.0419(4) Uani 1 1 d .
H17A H 0.3729 0.7269 0.9386 0.063 Uiso 1 1 calc GR
H17B H 0.1584 0.7207 0.9369 0.063 Uiso 1 1 calc GR
H17C H 0.2207 0.7090 0.8132 0.063 Uiso 1 1 calc GR
loop_
_atom_site_aniso_label
_atom_site_aniso_U_11
_atom_site_aniso_U_22
_atom_site_aniso_U_33
_atom_site_aniso_U_23
_atom_site_aniso_U_13
_atom_site_aniso_U_12
F1 0.0366(5) 0.0407(5) 0.0537(6) -0.0069(4) 0.0098(4) 0.0136(4)
O1 0.0317(6) 0.0350(6) 0.0261(5) 0.0030(4) 0.0023(4) 0.0035(4)
N2 0.0290(6) 0.0298(6) 0.0260(6) 0.0016(5) 0.0068(5) 0.0033(5)
N1 0.0312(7) 0.0317(7) 0.0266(6) 0.0016(5) 0.0037(5) 0.0013(5)
C5 0.0303(7) 0.0247(7) 0.0224(7) 0.0022(5) 0.0073(6) 0.0018(6)
C4 0.0275(7) 0.0241(7) 0.0244(7) 0.0003(5) 0.0061(6) -0.0006(5)
C1 0.0284(7) 0.0246(7) 0.0246(7) -0.0036(5) 0.0058(6) 0.0025(5)
C11 0.0244(7) 0.0287(7) 0.0245(7) -0.0008(6) 0.0058(5) 0.0034(5)
C7 0.0276(7) 0.0308(8) 0.0325(8) 0.0003(6) 0.0060(6) 0.0019(6)
C6 0.0317(8) 0.0243(7) 0.0276(7) -0.0007(6) 0.0072(6) 0.0016(6)
C8 0.0335(8) 0.0313(8) 0.0323(8) 0.0007(6) 0.0098(6) 0.0106(6)
C12 0.0301(7) 0.0288(7) 0.0250(7) 0.0003(6) 0.0045(6) 0.0033(6)
C16 0.0305(8) 0.0317(8) 0.0281(8) 0.0021(6) 0.0073(6) 0.0034(6)
C2 0.0309(8) 0.0291(7) 0.0269(7) -0.0015(6) 0.0075(6) 0.0054(6)
C13 0.0348(8) 0.0308(8) 0.0300(8) -0.0039(6) 0.0056(6) 0.0054(6)
C10 0.0332(8) 0.0279(7) 0.0335(8) -0.0049(6) 0.0042(6) 0.0006(6)
C9 0.0412(9) 0.0276(8) 0.0377(9) -0.0068(6) 0.0072(7) 0.0048(6)
C15 0.0469(9) 0.0414(9) 0.0258(8) 0.0029(6) 0.0106(7) 0.0075(7)
C14 0.0486(10) 0.0389(9) 0.0278(8) -0.0064(7) 0.0095(7) 0.0069(7)
C18 0.0438(9) 0.0337(8) 0.0315(8) 0.0073(6) 0.0107(7) 0.0057(7)
C3 0.0406(9) 0.0413(9) 0.0307(8) 0.0077(7) 0.0088(7) 0.0068(7)
C17 0.0541(11) 0.0319(8) 0.0385(9) -0.0064(7) 0.0086(8) 0.0063(7)
loop_
_atom_type_symbol
_atom_type_description
_atom_type_scat_dispersion_real
_atom_type_scat_dispersion_imag
_atom_type_scat_source
C C 0.0181 0.0091 'International Tables Vol C Tables 4.2.6.8 and 6.1.1.4'
H H 0.0000 0.0000 'International Tables Vol C Tables 4.2.6.8 and 6.1.1.4'
F F 0.0727 0.0534 'International Tables Vol C Tables 4.2.6.8 and 6.1.1.4'
N N 0.0311 0.0180 'International Tables Vol C Tables 4.2.6.8 and 6.1.1.4'
O O 0.0492 0.0322 'International Tables Vol C Tables 4.2.6.8 and 6.1.1.4'
loop_
_geom_angle_atom_site_label_1
_geom_angle_atom_site_label_2
_geom_angle_atom_site_label_3
_geom_angle
C2 O1 N1 106.04(11)
C2 N2 C1 102.59(12)
C1 N1 O1 102.95(11)
C6 C5 C4 121.67(13)
C6 C5 C10 118.85(14)
C10 C5 C4 119.44(13)
C5 C4 H4 106.8
C5 C4 C11 114.24(12)
C1 C4 C5 109.66(11)
C1 C4 H4 106.8
C1 C4 C11 112.07(11)
C11 C4 H4 106.8
N2 C1 C4 124.08(12)
N1 C1 N2 114.86(13)
N1 C1 C4 121.07(13)
C12 C11 C4 121.12(13)
C12 C11 C16 119.65(13)
C16 C11 C4 119.21(13)
C6 C7 H7 120.9
C8 C7 H7 120.9
C8 C7 C6 118.11(14)
C5 C6 C7 121.09(13)
C5 C6 H6 119.5
C7 C6 H6 119.5
F1 C8 C7 118.56(14)
F1 C8 C9 118.65(14)
C9 C8 C7 122.79(14)
C11 C12 H12 118.9
C11 C12 C13 122.15(14)
C13 C12 H12 118.9
C11 C16 C18 122.37(13)
C15 C16 C11 117.79(14)
C15 C16 C18 119.84(14)
O1 C2 C3 117.60(13)
N2 C2 O1 113.55(13)
N2 C2 C3 128.83(14)
C12 C13 C17 120.79(15)
C14 C13 C12 117.68(14)
C14 C13 C17 121.52(14)
C5 C10 H10 119.5
C9 C10 C5 121.00(14)
C9 C10 H10 119.5
C8 C9 C10 118.15(14)
C8 C9 H9 120.9
C10 C9 H9 120.9
C16 C15 H15 119.1
C14 C15 C16 121.76(15)
C14 C15 H15 119.1
C13 C14 C15 120.96(15)
C13 C14 H14 119.5
C15 C14 H14 119.5
C16 C18 H18A 109.5
C16 C18 H18B 109.5
C16 C18 H18C 109.5
H18A C18 H18B 109.5
H18A C18 H18C 109.5
H18B C18 H18C 109.5
C2 C3 H3A 109.5
C2 C3 H3B 109.5
C2 C3 H3C 109.5
H3A C3 H3B 109.5
H3A C3 H3C 109.5
H3B C3 H3C 109.5
C13 C17 H17A 109.5
C13 C17 H17B 109.5
C13 C17 H17C 109.5
H17A C17 H17B 109.5
H17A C17 H17C 109.5
H17B C17 H17C 109.5
loop_
_geom_bond_atom_site_label_1
_geom_bond_atom_site_label_2
_geom_bond_distance
F1 C8 1.3670(17)
O1 N1 1.4214(16)
O1 C2 1.3419(18)
N2 C1 1.3778(19)
N2 C2 1.2921(19)
N1 C1 1.3017(19)
C5 C4 1.523(2)
C5 C6 1.386(2)
C5 C10 1.391(2)
C4 H4 1.0000
C4 C1 1.505(2)
C4 C11 1.5317(19)
C11 C12 1.392(2)
C11 C16 1.402(2)
C7 H7 0.9500
C7 C6 1.388(2)
C7 C8 1.376(2)
C6 H6 0.9500
C8 C9 1.373(2)
C12 H12 0.9500
C12 C13 1.399(2)
C16 C15 1.399(2)
C16 C18 1.505(2)
C2 C3 1.479(2)
C13 C14 1.381(2)
C13 C17 1.506(2)
C10 H10 0.9500
C10 C9 1.388(2)
C9 H9 0.9500
C15 H15 0.9500
C15 C14 1.383(2)
C14 H14 0.9500
C18 H18A 0.9800
C18 H18B 0.9800
C18 H18C 0.9800
C3 H3A 0.9800
C3 H3B 0.9800
C3 H3C 0.9800
C17 H17A 0.9800
C17 H17B 0.9800
C17 H17C 0.9800
