#------------------------------------------------------------------------------
#$Date: 2019-11-04 11:57:43 +0200 (Mon, 04 Nov 2019) $
#$Revision: 222666 $
#$URL: file:///home/coder/svn-repositories/cod/cif/4/03/41/4034109.cif $
#------------------------------------------------------------------------------
#
# This file is available in the Crystallography Open Database (COD),
# http://www.crystallography.net/
#
# All data on this site have been placed in the public domain by the
# contributors.
#
data_4034109
loop_
_publ_author_name
'Hokamp, Tobias'
'Wirth, Thomas'
_publ_section_title
;
 Structurally Defined \a-Tetralol-Based Chiral Hypervalent Iodine
 Reagents.
;
_journal_issue                   13
_journal_name_full               'The Journal of organic chemistry'
_journal_page_first              8674
_journal_page_last               8682
_journal_paper_doi               10.1021/acs.joc.9b01315
_journal_volume                  84
_journal_year                    2019
_chemical_absolute_configuration ad
_chemical_formula_sum            'C11 H14 O2'
_chemical_formula_weight         178.22
_space_group_crystal_system      monoclinic
_space_group_IT_number           4
_space_group_name_Hall           'P 2yb'
_space_group_name_H-M_alt        'P 1 21 1'
_atom_sites_solution_hydrogens   geom
_audit_creation_method           SHELXL-2018/1
_cell_angle_alpha                90
_cell_angle_beta                 95.679(5)
_cell_angle_gamma                90
_cell_formula_units_Z            2
_cell_length_a                   7.3685(4)
_cell_length_b                   4.8732(2)
_cell_length_c                   13.2304(7)
_cell_measurement_reflns_used    1638
_cell_measurement_temperature    293(2)
_cell_measurement_theta_max      73.7820
_cell_measurement_theta_min      6.6320
_cell_volume                     472.75(4)
_computing_cell_refinement       'CrysAlisPro 1.171.39.45b (Rigaku OD, 2018)'
_computing_data_collection       'CrysAlisPro 1.171.39.45b (Rigaku OD, 2018)'
_computing_data_reduction        'CrysAlisPro 1.171.39.45b (Rigaku OD, 2018)'
_computing_structure_refinement  'SHELXL-2018/1 (Sheldrick, 2018)'
_computing_structure_solution    SHELXS
_diffrn_ambient_temperature      293(2)
_diffrn_measured_fraction_theta_full 0.999
_diffrn_measured_fraction_theta_max 0.977
_diffrn_measurement_device_type  'SuperNova, Dual, Cu at home/near, Atlas'
_diffrn_measurement_method       '\w scans'
_diffrn_radiation_type           CuK\a
_diffrn_radiation_wavelength     1.54184
_diffrn_reflns_av_R_equivalents  0.0295
_diffrn_reflns_av_unetI/netI     0.0351
_diffrn_reflns_Laue_measured_fraction_full 0.999
_diffrn_reflns_Laue_measured_fraction_max 0.977
_diffrn_reflns_limit_h_max       8
_diffrn_reflns_limit_h_min       -8
_diffrn_reflns_limit_k_max       6
_diffrn_reflns_limit_k_min       -6
_diffrn_reflns_limit_l_max       16
_diffrn_reflns_limit_l_min       -16
_diffrn_reflns_number            3455
_diffrn_reflns_point_group_measured_fraction_full 0.989
_diffrn_reflns_point_group_measured_fraction_max 0.948
_diffrn_reflns_theta_full        67.684
_diffrn_reflns_theta_max         73.918
_diffrn_reflns_theta_min         6.035
_exptl_absorpt_coefficient_mu    0.679
_exptl_absorpt_correction_T_max  1.000
_exptl_absorpt_correction_T_min  0.653
_exptl_absorpt_correction_type   gaussian
_exptl_absorpt_process_details
;
CrysAlisPro 1.171.39.45b (Rigaku Oxford Diffraction, 2018)
Numerical absorption correction based on gaussian integration over
			a multifaceted crystal model
Empirical absorption correction using spherical harmonics,
 implemented in SCALE3 ABSPACK scaling algorithm.
;
_exptl_crystal_colour            colourless
_exptl_crystal_density_diffrn    1.252
_exptl_crystal_description       plate
_exptl_crystal_F_000             192
_exptl_crystal_size_max          0.351
_exptl_crystal_size_mid          0.062
_exptl_crystal_size_min          0.022
_refine_diff_density_max         0.162
_refine_diff_density_min         -0.187
_refine_diff_density_rms         0.045
_refine_ls_abs_structure_details
;
 Flack x determined using 680 quotients [(I+)-(I-)]/[(I+)+(I-)]
 (Parsons, Flack and Wagner, Acta Cryst. B69 (2013) 249-259).
;
_refine_ls_abs_structure_Flack   0.06(18)
_refine_ls_extinction_method     none
_refine_ls_goodness_of_fit_ref   1.044
_refine_ls_hydrogen_treatment    constr
_refine_ls_matrix_type           full
_refine_ls_number_parameters     120
_refine_ls_number_reflns         1818
_refine_ls_number_restraints     1
_refine_ls_restrained_S_all      1.044
_refine_ls_R_factor_all          0.0435
_refine_ls_R_factor_gt           0.0401
_refine_ls_shift/su_max          0.000
_refine_ls_shift/su_mean         0.000
_refine_ls_structure_factor_coef Fsqd
_refine_ls_weighting_details
'w=1/[\s^2^(Fo^2^)+(0.0620P)^2^+0.0533P] where P=(Fo^2^+2Fc^2^)/3'
_refine_ls_weighting_scheme      calc
_refine_ls_wR_factor_gt          0.1033
_refine_ls_wR_factor_ref         0.1079
_reflns_Friedel_coverage         0.728
_reflns_Friedel_fraction_full    0.976
_reflns_Friedel_fraction_max     0.912
_reflns_number_gt                1706
_reflns_number_total             1818
_reflns_threshold_expression     'I > 2\s(I)'
_cod_data_source_file            jo9b01315_si_002.cif
_cod_data_source_block           tw1803b
_cod_original_sg_symbol_H-M      'P 21'
_cod_database_code               4034109
_shelx_shelxl_version_number     2018/1
_shelx_space_group_comment
;
The symmetry employed for this shelxl refinement is uniquely defined
by the following loop, which should always be used as a source of
symmetry information in preference to the above space-group names.
They are only intended as comments.
;
_shelx_estimated_absorpt_t_min   0.796
_shelx_estimated_absorpt_t_max   0.985
_shelx_res_file
;
TITL tw1803b in P2(1)/m
    shelx.res
    created by SHELXL-2018/1 at 16:01:13 on 19-Apr-2018
CELL  1.54184   7.3685   4.8732  13.2304   90.000   95.679   90.000
ZERR     2.00   0.0004   0.0002   0.0007    0.000    0.005    0.000
LATT  -1
SYMM  - X, 1/2 + Y, - Z
SFAC  C    H    O
UNIT  22 28 4
MERG   2
FMAP   2
PLAN   5
SIZE     0.022   0.062   0.351
ACTA
BOND   $H
L.S.   4
WGHT    0.062000    0.053300
FVAR      14.79562
MOLE    1
C1    1    0.765768    0.343182    0.762573    11.00000    0.02203    0.01910 =
         0.02282    0.00208    0.00363    0.00014
C2    1    0.801976    0.532933    0.841797    11.00000    0.02684    0.02507 =
         0.02066    0.00000    0.00559    0.00167
C3    1    0.974167    0.644273    0.864684    11.00000    0.02968    0.03079 =
         0.02345   -0.00490   -0.00080   -0.00345
AFIX  43
H3    2    0.995826    0.769100    0.917675    11.00000   -1.20000
AFIX   0
C4    1    1.114766    0.566816    0.807237    11.00000    0.02035    0.03374 =
         0.03013    0.00081   -0.00228   -0.00269
AFIX  43
H4    2    1.230396    0.642452    0.821248    11.00000   -1.20000
AFIX   0
C5    1    1.082556    0.378355    0.729746    11.00000    0.02086    0.03007 =
         0.02457    0.00206    0.00337    0.00277
AFIX  43
H5    2    1.177372    0.325668    0.692508    11.00000   -1.20000
AFIX   0
C6    1    0.908771    0.265579    0.706554    11.00000    0.02145    0.02043 =
         0.01998    0.00313    0.00202    0.00206
C7    1    0.875969    0.057274    0.621755    11.00000    0.02528    0.02062 =
         0.02057    0.00276    0.00684    0.00205
AFIX  13
H7    2    0.900761   -0.126185    0.650169    11.00000   -1.20000
AFIX   0
C8    1    0.679165    0.066395    0.574859    11.00000    0.03007    0.03513 =
         0.02312   -0.00468    0.00049    0.00040
AFIX  23
H8A   2    0.659403   -0.073029    0.522604    11.00000   -1.20000
H8B   2    0.653056    0.244169    0.543786    11.00000   -1.20000
AFIX   0
C9    1    0.553287    0.015731    0.657784    11.00000    0.02344    0.02604 =
         0.03357   -0.00578    0.00314   -0.00401
AFIX  23
H9A   2    0.582616   -0.160032    0.689728    11.00000   -1.20000
H9B   2    0.427970    0.008303    0.627546    11.00000   -1.20000
AFIX   0
C10   1    0.572052    0.241202    0.738171    11.00000    0.02140    0.02630 =
         0.03082   -0.00226    0.00705   -0.00325
AFIX  23
H10A  2    0.495291    0.394675    0.714706    11.00000   -1.20000
H10B  2    0.527808    0.172040    0.799959    11.00000   -1.20000
AFIX   0
C11   1    0.685301    0.779808    0.977032    11.00000    0.04608    0.03711 =
         0.03269   -0.01219    0.01367   -0.00056
AFIX 137
H11A  2    0.726877    0.953581    0.954079    11.00000   -1.50000
H11B  2    0.776359    0.702920    1.025825    11.00000   -1.50000
H11C  2    0.574041    0.805330    1.007975    11.00000   -1.50000
AFIX   0
O1    3    0.653540    0.597912    0.892652    11.00000    0.03182    0.03847 =
         0.03093   -0.01253    0.01301   -0.00396
O2    3    1.001445    0.110078    0.547634    11.00000    0.03634    0.02516 =
         0.02556   -0.00273    0.01413   -0.00096
AFIX 147
H2    2    1.008495   -0.025831    0.511689    11.00000   -1.50000
AFIX   0
HKLF    4




REM  tw1803b in P2(1)/m
REM R1 =  0.0401 for    1706 Fo > 4sig(Fo)  and  0.0435 for all    1818 data
REM    120 parameters refined using      1 restraints

END

WGHT      0.0620      0.0533

REM Highest difference peak  0.162,  deepest hole -0.187,  1-sigma level  0.045
Q1    1   0.8188  0.9913  0.8463  11.00000  0.05    0.16
Q2    1   0.8375  0.2567  0.7524  11.00000  0.05    0.15
Q3    1   0.7675  1.1827  0.9418  11.00000  0.05    0.14
Q4    1   1.0147  1.1338  0.8618  11.00000  0.05    0.14
Q5    1   1.1019 -0.2573  0.6107  11.00000  0.05    0.14
;
_shelx_res_checksum              49047
_shelx_hkl_file
;
   0   0  -2 109712. 1534.57   3
   0   0  -3 2996.25 342.565   3
   0   0   3 3406.34 265.707   6
   0   0   4 765.589 161.894   6
   0   0  -4 770.307 236.537   3
   0   0  -5 4881.54 546.026   3
   0   0   5 4401.24 421.999   6
   0   0  -6 3500.58 541.980   3
   0   0   6 3432.85 393.324   6
   0   0   7 69963.9 1867.15   6
   0   0  -7 74837.4 2629.60   3
   0   0  -8 9325.49 1051.04   3
   0   0  -9 3612.85 708.930   3
   0   0 -10 7872.82 1168.65   3
   0   0  10 7165.26 515.647   9
   0   0  10 6318.49 555.324  26
   0   0  11 12910.7 817.679  26
   0   0  11 14015.1 768.856   9
   0   0  12 2633.66 370.306   9
   0   0  13 1508.10 280.144   9
   0   0  14 299.749 159.100   9
   0   0  15 737.897 178.215   9
   0   0  16-2.32959 62.6602   9
   0   1   0 12.0390 91.0518   6
   0  -1   0 89.2524 72.4137   3
   0   1   0-9.82984 52.2624   2
   0   1  -1 173604. 1060.86   1
   0   1   1 172899. 1926.36   2
   0   1  -1 169586. 1724.82   6
   0  -1  -1 175515. 2156.68   3
   0  -1   1 169527. 1401.92   3
   0   1  -2 999999. 3681.51   3
   0   1  -2 992011. 4709.43   4
   0   1  -2 993848. 3025.54   6
   0   1   2 992967. 5764.96   2
   0  -1  -2 993102. 6136.43   3
   0   1   3 309995. 3731.21   6
   0   1  -3 309562. 2469.24   4
   0  -1  -3 313799. 3930.42   3
   0   1  -3 308197. 2738.28   3
   0  -1  -4 1026.12 273.686   3
   0   1  -4 798.790 190.848   3
   0   1   4 715.186 259.005   6
   0   1  -4 770.446 123.701   7
   0   1   5 198181. 3611.83   6
   0  -1  -5 200967. 3861.80   3
   0   1  -5 194815. 3159.83   3
   0   1  -6 43322.9 1708.27   3
   0  -1  -6 44808.6 2022.49   3
   0   1   6 44491.8 1864.19   6
   0   1  -7 24904.4 1453.82   3
   0   1   7 27579.7 1592.87   6
   0  -1  -7 26426.5 1711.76   3
   0  -1  -8 8789.09 1089.83   3
   0   1   8 8522.48 931.232   6
   0   1   9 1121.30 217.022  21
   0   1   9 985.482 234.979  24
   0   1   9 988.895 204.502   9
   0  -1   9 1116.82 218.901   9
   0   1   9 1396.08 264.829  26
   0  -1  -9 1341.59 475.337   3
   0  -1  10 13342.4 728.392   9
   0   1  10 14826.4 885.728  26
   0  -1 -10 12599.4 1556.16   3
   0   1  10 14876.1 790.866   9
   0   1  10 14718.9 792.027  21
   0   1  11 8337.37 694.793  26
   0  -1  11 7277.88 563.864   9
   0   1  11 7892.53 607.069   9
   0   1  12-101.295 126.298   9
   0  -1  12 99.7964 133.881   9
   0   1  12 173.004 152.026  26
   0   1  13 4603.11 496.596  26
   0   1  13 4776.92 471.672   9
   0  -1  13 3929.32 418.438   9
   0   1  14 1570.18 254.366   9
   0  -1  14 1687.31 267.227   9
   0  -1  15 493.720 145.138   9
   0   1  15 508.048 139.904   9
   0  -1  16 617.112 111.330   9
   0  -1 -16 542.875 102.934  15
   0   2   0 131818. 2645.20   6
   0  -2   0 127164. 2225.57   3
   0   2  -1 31801.7 1195.05   6
   0  -2  -1 31782.1 1267.59   3
   0  -2   1 28475.7 887.836   3
   0   2   1 32617.7 1396.11   6
   0   2  -1 30863.3 1346.25   4
   0  -2   1 33111.4 1370.81   5
   0  -2  -2 70407.0 2073.64   3
   0   2  -2 68066.5 1562.15   6
   0   2   2 72011.0 2182.35   6
   0   2  -2 71254.6 1958.05   4
   0   2   3 152157. 3373.88   6
   0   2  -3 152428. 2778.58   4
   0  -2  -3 153362. 3377.78   3
   0   2  -4 314073. 3843.21   4
   0   2   4 307797. 5125.62   6
   0  -2  -4 310374. 5240.59   3
   0  -2  -5 15914.8 1301.67   3
   0   2   5 16136.8 1259.55   6
   0  -2  -6 6499.40 908.412   3
   0   2   6 6204.01 844.810   6
   0   2   7 22628.3 1697.90   6
   0  -2  -7 20813.6 1707.54   3
   0   2   8 6978.94 536.026  21
   0   2   8 5930.77 903.267   6
   0   2   8 7268.67 583.316  26
   0   2   8 7366.24 513.011  22
   0   2   8 7038.76 547.481  24
   0  -2  -8 6932.25 1039.28   3
   0   2   8 6520.93 535.547   9
   0  -2   8 5787.54 448.506   9
   0   2   9 13016.8 768.871  24
   0   2   9 13726.0 763.605  12
   0  -2   9 12793.8 692.245   9
   0   2   9 12404.7 664.012   8
   0   2   9 13964.5 724.126  22
   0   2   9 13344.4 835.258  26
   0  -2  -9 12995.7 1558.86   3
   0   2   9 11739.0 1356.86   6
   0   2   9 14330.9 790.341  21
   0   2   9 13388.0 793.888   9
   0  -2  10 559.054 195.652   9
   0   2  10 603.437 196.202  12
   0   2  10 758.302 213.984   9
   0   2  10 480.700 185.617  21
   0   2  10 586.384 177.236  22
   0   2  10 774.412 240.177  26
   0   2  10 634.538 166.201   8
   0   2  11 2598.24 329.092  12
   0   2  11 2733.58 435.599  26
   0   2  11 2456.31 360.856   9
   0  -2  11 2621.14 343.044   9
   0   2  12 6284.96 541.531   9
   0   2  12 7630.88 657.185  26
   0  -2  12 6612.65 522.627   9
   0   2  12 6931.13 498.673  12
   0  -2  13 418.468 162.340   9
   0   2  13 258.331 171.238  26
   0   2  13 141.099 111.934   9
   0  -2  14 1.57610 84.8021   9
   0   2  14-123.442 76.9323  18
   0  -2 -14-32.7796 71.2319  15
   0  -2 -15 100.495 57.8706  15
   0  -2 -15 93.0536 62.6888  19
   0   3   0-358.882 202.708   6
   0  -3   0-91.7391 281.306   5
   0   3   0-483.271 259.904   4
   0   3   1 41506.5 2100.07   4
   0   3  -1 42012.8 2027.96   4
   0   3  -1 39043.4 1759.23   6
   0  -3  -1 42032.4 2105.58   5
   0   3   1 41121.7 2014.10   6
   0  -3  -2 80911.5 2733.93   3
   0   3  -2 87141.3 2861.91   4
   0   3   2 87686.4 3127.51   4
   0   3   2 88705.4 3096.11   6
   0  -3  -2 89686.1 3243.31   5
   0   3   3 21498.1 1613.35   6
   0   3  -3 21489.5 1385.02   4
   0   3   3 22125.6 1620.47   4
   0  -3  -3 19510.9 1455.48   3
   0  -3  -4 12797.4 1266.38   3
   0   3   4 15881.8 1418.40   4
   0   3   4 14795.0 1390.74   6
   0   3   5 17630.1 1522.55   4
   0   3   5 14215.6 733.404  21
   0  -3  -5 15348.7 1478.25   3
   0   3   5 16745.4 1544.09   6
   0  -3   5 14318.9 666.424  20
   0  -3  -5 15896.9 757.031  19
   0   3   6 6433.58 932.281   4
   0  -3  -6 8002.59 561.140  19
   0   3   6 7565.94 1093.63   6
   0  -3   6 6920.65 474.310  20
   0   3   6 6384.27 543.380  26
   0  -3  -6 7250.14 1071.32   3
   0   3   6 6667.73 521.675  24
   0   3   6 7348.78 545.241  21
   0   3   7 23923.5 1089.25  26
   0   3   7 24549.7 961.824  22
   0   3   7 23109.8 996.274  21
   0   3   7 23911.8 1996.29   6
   0   3   7 22266.6 991.296  24
   0  -3  -7 20904.7 1951.16   3
   0   3   7 19328.6 1680.79   4
   0  -3  -7 22567.4 1003.88  19
   0   3   8 336.985 145.754  24
   0  -3  -8 489.864 200.640  19
   0   3   8 433.970 143.229  22
   0   3   8 465.014 176.482  12
   0   3   8 328.865 162.357  21
   0   3   8 477.011 215.107  26
   0   3   9 5374.37 471.463  22
   0   3   9 4785.05 536.792  26
   0   3   9 4760.61 476.851  21
   0  -3  -9 5421.88 523.818  19
   0   3   9 5281.25 481.162  12
   0   3   9 5144.66 451.948   8
   0   3  10 2349.83 304.370  22
   0   3  10 1972.05 350.920  26
   0   3  10 2212.20 313.402  12
   0   3  10 2363.53 338.186  21
   0  -3 -10 2408.52 355.225  19
   0   3  10 2111.47 274.272   8
   0   3  11 1652.66 227.396   8
   0   3  11 1623.17 247.883  12
   0   3  11 1864.55 321.437  26
   0  -3 -11 1514.38 265.381  19
   0   3  12 412.762 196.487  26
   0  -3 -12 536.025 174.574  19
   0   3  12 545.318 154.061  12
   0  -3 -13 1043.95 180.368  19
   0   3  13 1021.91 153.027  12
   0  -3 -14 3557.66 232.405  19
   0  -4   0 60768.0 1340.77  16
   0  -4   0 61412.0 1502.63  19
   0  -4  -1 1306.94 251.731  19
   0  -4   1 716.977 157.260  16
   0  -4  -1 859.541 163.784  16
   0  -4  -1 897.317 401.760   5
   0   4   1 567.649 293.855   4
   0  -4   1 1144.33 233.249  20
   0  -4   2 1634.29 255.256  20
   0   4   2 1814.71 552.141   4
   0  -4   2 1615.60 232.679  16
   0   4  -2 990.192 374.195   4
   0  -4  -2 1580.40 244.847  19
   0  -4  -2 913.609 387.786   5
   0  -4   3 18547.4 755.792  16
   0   4   3 18716.6 837.197  12
   0  -4  -3 17783.2 1739.60   5
   0   4   3 16635.9 1685.64   6
   0  -4  -3 21647.8 944.863  19
   0  -4   3 20009.5 846.139  20
   0   4   3 20643.2 1862.47   4
   0   4   4 2266.94 307.707  12
   0  -4   4 1849.06 275.379  20
   0  -4  -4 2126.22 316.661  19
   0  -4   5 6324.97 487.808  20
   0   4   5 6781.62 527.914  12
   0   4   5 6966.20 521.074  22
   0   4   5 6137.57 492.608  21
   0  -4  -5 6394.80 535.705  19
   0   4   6 9724.82 629.783  12
   0  -4  -6 10193.3 668.134  19
   0   4   6 9684.47 605.386  22
   0  -4   6 9081.71 577.022  20
   0   4   6 8412.32 584.123  21
   0   4   7 79.2279 120.435  22
   0   4   7 197.549 143.797  12
   0  -4  -7 85.6535 147.123  19
   0   4   7 193.928 123.067  21
   0   4   7 7.25106 108.826   8
   0   4   8 685.630 191.512  12
   0  -4  -8 801.005 233.605  19
   0   4   8 655.552 180.258  22
   0   4   8 733.870 199.092   8
   0   4   8 515.712 175.662  21
   0   4   9 7436.85 505.607  12
   0   4   9 6927.68 457.772   8
   0  -4  -9 7628.09 543.458  19
   0   4   9 7436.58 486.779  22
   0  -4 -10 800.601 185.632  19
   0   4  10 668.869 153.852  12
   0   4  10 652.532 116.417  13
   0   4  10 682.281 146.968   8
   0   4  11 1120.91 144.664  11
   0   4  11 1055.03 146.186   8
   0   4  11 1359.16 179.712  12
   0  -4 -11 1511.84 201.884  19
   0  -4 -12 2751.40 213.730  19
   0  -5   0-58.0844 105.238  20
   0  -5  -1 1414.01 240.624  20
   0  -5   1 1558.08 251.293  20
   0  -5  -2 12692.8 686.143  20
   0  -5   2 12330.1 641.484  20
   0   5   2 11817.9 590.693   8
   0   5   3 2995.74 305.311   8
   0  -5   3 3092.43 320.120  20
   0  -5  -4 10444.6 580.010  19
   0   5   4 8471.97 469.965  22
   0   5   4 10080.1 549.607   8
   0  -5   4 9829.78 557.675  20
   0   5   5 3149.35 284.934  22
   0   5   5 2976.55 294.109   8
   0  -5  -5 3149.45 318.319  19
   0   5   5 2960.01 292.038  12
   0  -5  -6 2726.33 296.430  19
   0   5   6 2303.67 246.938  12
   0   5   6 2720.13 259.733  22
   0   5   6 2791.54 281.182   8
   0   5   7 3777.64 297.866   8
   0   5   7 3781.36 291.219  22
   0   5   7 3489.49 286.260  12
   0  -5  -7 4244.27 341.657  19
   0   5   8 1628.30 177.239   8
   0  -5  -8 1678.01 192.837  19
   0   5   8 1783.80 188.630  12
   0   5   8 1583.51 160.434  13
   0  -5  -9 298.128 85.2319  19
   0   5   9 114.114 52.6560  11
   0  -6   0 4253.59 245.180  20
   0  -6  -1 1070.18 126.567  20
   1   0 -16 957.178 143.991  15
  -1   0  16 934.048 146.450   9
  -1   0  15 2751.91 306.972   9
  -1   0  14 24172.5 966.500   9
  -1   0  13 28534.4 1118.81   9
  -1   0  12 30303.2 1157.93   9
  -1   0  11 1962.75 261.508  18
  -1   0  11 1572.65 333.113  26
  -1   0  11 1788.60 271.365   9
  -1   0  10 3311.02 415.014  26
  -1   0  10 3778.18 385.624   9
  -1   0  10 3100.79 300.171  18
   1   0 -10 4036.10 786.871   3
   1   0  -9-224.280 204.743   3
   1   0  -8 1121.70 381.967   3
   1   0  -7 162.406 179.485   3
   1   0  -6 1125.49 285.873   3
  -1   0   6 1307.53 237.614   6
  -1   0   6 1166.72 340.161   2
  -1   0   5 2939.36 337.889   6
   1   0  -5 3144.12 455.663   3
  -1   0   5 3375.64 502.418   2
   1   0  -4 2338.05 342.924   3
  -1   0   4 2410.83 375.456   2
  -1   0   4 2120.53 250.576   6
  -1   0   3 445.651 63.0492   7
   1   0  -3 503.127 164.240   3
  -1   0   3 358.453 169.172   2
   1   0  -2 6509.93 408.854   3
  -1   0   2 6151.28 248.455   7
  -1   0   1 167636. 1909.06   1
  -1   0   1 165521. 1394.18   7
  -1   0   0 112976. 1515.36   3
  -1   0   0 112899. 1261.09   7
  -1   0  -1 513836. 2986.41   7
  -1   0  -1 515248. 3695.93   3
  -1   0  -2 8789.78 569.304   3
  -1   0  -3 391774. 4158.76   3
  -1   0  -4 601.064 250.355   3
  -1   0  -5 4046.06 559.509   3
  -1   0  -6 14201.0 1109.36   3
   1   0   7 63582.2 2058.70   6
  -1   0  -7 70382.0 2722.26   3
  -1   0  -8 12745.4 1279.16   3
  -1   0  -9 43695.0 2578.43   3
   1   0   9 43116.6 1202.57   9
   1   0  10 14106.7 690.499  23
  -1   0 -10 14237.0 1571.81   3
   1   0  10 14353.7 742.459   9
   1   0  11 3686.12 428.977  26
   1   0  11 4607.05 412.479  23
   1   0  11 4519.42 438.860   9
   1   0  12 24552.0 1020.28   9
   1   0  13 4246.55 421.900   9
   1   0  14 4586.35 407.349   9
   1   0  15 55.0439 88.8609   9
   1   0  16 8726.32 387.407   9
   1  -1 -16 5056.94 295.259  15
  -1   1  15 14857.0 647.421   9
   1  -1 -15 14477.2 615.140  15
  -1  -1  15 12747.6 593.623   9
  -1   1  14 7951.10 439.785  18
  -1   1  14 9158.25 582.906   9
  -1  -1  14 8895.10 574.274   9
  -1   1  13 7108.79 467.077  18
  -1  -1  13 7463.95 575.017   9
  -1   1  13 7853.91 597.230   9
  -1   1  12 60.7626 180.969  26
  -1   1  12 670.764 233.984   9
  -1   1  12 374.268 128.849  18
  -1  -1  12 480.123 188.381   9
  -1   1  11 13225.4 764.130   9
  -1  -1  11 12779.7 755.071   9
  -1   1  11 13865.1 903.414  26
   1  -1 -11 11251.1 1492.37   3
  -1   1  10 4311.51 437.059   9
  -1  -1  10 4078.27 402.350   9
  -1   1  10 4127.63 473.289  26
   1  -1 -10 4140.84 827.553   3
  -1   1  10 3560.22 364.030  12
  -1   1   9 3693.47 379.748   9
  -1   1   9 3610.06 429.153  26
   1  -1  -9 3269.93 710.844   3
   1  -1  -8 1312.47 442.370   3
  -1   1   8 1472.69 383.889   6
  -1   1   7 18191.0 1265.57   6
   1  -1  -7 17503.9 1400.07   3
  -1   1   6 5956.00 530.832   4
  -1   1   6 6658.26 826.136   2
   1  -1  -6 7230.74 854.807   3
   1   1  -6 6129.85 585.899   3
  -1   1   6 6986.24 744.183   6
  -1   1   5 5233.97 652.761   2
   1  -1  -5 5810.83 667.036   3
  -1   1   5 6729.38 674.125   6
  -1   1   5 5895.91 515.610   4
   1   1  -5 5495.00 483.333   3
  -1   1   4 12718.2 930.744   2
   1  -1  -4 13797.6 938.034   3
  -1   1   4 12471.6 707.651   4
   1   1  -4 11132.4 524.864   3
  -1   1   4 12812.0 842.820   6
   1  -1  -3 23108.9 1092.52   3
  -1   1   3 22122.0 1116.94   2
  -1   1   3 21789.0 896.668   4
  -1  -1   3 21184.7 752.692   2
  -1   1   3 22467.0 1018.99   6
   1  -1  -2 28068.1 1113.99   3
  -1  -1   2 27151.1 658.331   2
  -1   1   2 28731.8 981.801   4
  -1  -1   1 91533.6 1021.58   1
  -1   1   1 91709.2 1817.77   1
  -1  -1   0 12512.1 527.564   3
  -1   1   0 11435.7 590.723   6
   1  -1   0 11656.6 510.968   5
  -1   1   0 12256.2 619.514   1
  -1  -1  -1 401091. 3650.24   3
  -1   1  -1 396025. 3390.19   4
  -1   1  -2 244203. 3106.72   3
  -1  -1  -2 243209. 3281.52   3
  -1   1  -2 243190. 2662.56   4
  -1   1  -3 198193. 2987.26   3
  -1   1  -3 191634. 2406.90   7
  -1  -1  -3 198975. 3314.48   3
  -1  -1  -4 37093.4 1600.26   3
  -1   1  -4 36689.2 1058.82   7
  -1   1  -4 38182.6 1485.37   3
  -1   1  -5 145240. 3216.06   3
  -1  -1  -5 148959. 3460.28   3
  -1  -1  -6 56197.3 2355.47   3
  -1   1  -6 61328.3 2302.29   3
   1   1   6 55666.1 2191.15   6
  -1  -1  -7 6817.20 918.916   3
  -1   1  -7 7098.42 891.591   3
   1   1   7 7334.17 861.295   6
  -1   1  -8 37899.8 2174.59   3
  -1  -1  -8 36457.9 2276.21   3
   1   1   8 36525.9 2036.41   6
   1  -1   9 4816.49 405.402  23
   1   1   9 3428.18 369.164  21
   1  -1   9 4214.70 388.082   9
   1   1   9 4171.98 439.440  24
   1   1   9 4141.62 400.021   9
  -1  -1  -9 3439.49 776.095   3
   1  -1  10 1947.40 287.588   9
   1   1  10 2220.11 314.003  21
   1  -1  10 2100.55 290.130  23
   1   1  10 2579.28 362.073  24
  -1  -1 -10 2253.55 651.579   3
   1   1  10 2527.04 338.669   9
   1   1  11 15183.9 786.060  21
   1   1  11 16317.5 848.196   9
   1  -1  11 14816.6 787.326   9
   1  -1  12 3420.92 385.875   9
   1   1  12 3899.88 432.914   9
   1   1  12 4257.84 488.128  26
   1   1  13 5355.79 498.822  26
   1  -1  13 6470.18 520.056   9
   1   1  13 7291.99 549.729   9
   1  -1  14 25673.1 911.232   9
   1   1  14 23164.7 915.682  26
   1   1  14 23904.6 895.036   9
   1  -1  15 1373.04 198.615   9
   1   1  15 915.590 151.342   9
   1  -2 -15 1764.15 195.055  15
   1  -2 -15 1849.03 200.394  19
   1  -2 -14 2404.24 268.490  15
  -1   2  14 2479.89 234.819  18
  -1   2  13 3793.38 334.032  18
   1  -2 -13 4253.56 403.208  15
  -1  -2  13 3921.21 371.916   9
  -1   2  12 2456.22 359.899   9
  -1  -2  12 2136.33 305.569   9
  -1   2  12 2609.99 394.112  26
  -1   2  12 2666.29 322.262  12
  -1  -2  11 365.628 156.235   9
  -1   2  11 287.785 193.453  26
  -1   2  11 179.406 134.079  12
  -1   2  11 104.415 150.229   9
  -1   2  11 214.451 121.908   8
  -1  -2  10 10711.6 669.689   9
  -1   2  10 12030.7 824.921  26
  -1   2  10 10870.1 691.446  12
  -1   2  10 11611.7 746.650   9
  -1   2  10 10739.8 622.822   8
  -1   2   9 6784.35 514.187  22
   1  -2  -9 6718.64 1126.72   3
  -1   2   9 6309.94 478.514   8
  -1   2   9 7420.58 573.789  21
  -1   2   9 6999.24 615.662  26
  -1   2   9 6553.80 522.726  12
  -1   2   9 6734.84 553.645   9
  -1   2   9 6120.49 967.493   6
  -1   2   8 3195.97 339.516  22
  -1   2   8 3086.92 326.303   8
  -1   2   8 2571.41 361.618  26
  -1   2   8 2778.96 356.241   9
  -1   2   8 2849.37 347.847  21
  -1   2   8 2993.22 654.419   6
   1  -2  -8 2564.97 650.026   3
  -1   2   8 3313.82 359.516  12
  -1   2   7 5980.07 898.982   6
  -1   2   7 4924.56 687.113   4
   1  -2  -7 5398.90 877.098   3
   1  -2  -6 1915.93 494.989   3
  -1   2   6 2580.34 551.687   6
  -1   2   6 2721.42 483.752   4
   1  -2  -5 227.915 238.615   3
  -1   2   5 8.64623 315.371   2
  -1   2   5 267.821 179.795   4
  -1   2   5 365.458 223.692   6
  -1   2   4 2553.19 482.044   6
   1  -2  -4 2416.97 489.837   3
  -1   2   4 2444.20 493.970   2
   1   2  -4 1799.58 320.292   4
  -1   2   4 3019.16 482.057   4
  -1   2   3 12970.9 946.229   4
  -1   2   3 14283.8 1041.64   6
   1  -2  -3 15027.6 1097.57   3
  -1   2   3 13542.7 995.940   2
  -1   2   2 22189.6 1124.32   2
  -1   2   2 22449.5 1230.23   6
  -1   2   2 21640.9 1182.98   4
   1   2  -2 20092.3 945.399   6
   1  -2  -2 21723.7 1211.99   3
  -1   2   1 2107.48 369.021   4
   1  -2  -1 2245.71 398.693   5
   1  -2  -1 2023.89 358.500   3
   1   2  -1 1469.29 292.010   6
  -1  -2   1 2207.07 392.233   5
  -1   2   1 2581.32 411.530   6
  -1   2   0 15584.6 928.193   6
   1  -2   0 15748.7 920.642   5
  -1  -2   0 15788.6 1020.18   5
  -1   2   0 15834.1 977.229   4
   1  -2   0 14134.3 847.902   3
  -1  -2   0 14039.9 710.087   3
  -1   2  -1 19542.2 845.773   1
   1  -2   1 18612.7 948.296   3
  -1  -2  -1 19979.9 1005.99   3
  -1   2  -1 21772.3 1008.94   6
  -1   2  -1 22119.1 1127.37   4
  -1   2  -2 24922.3 970.659   1
   1  -2   2 25635.2 1091.36   3
  -1  -2  -2 26806.7 1312.53   3
   1   2   3 245505. 4544.72   6
  -1   2  -3 249408. 3736.67   4
  -1  -2  -3 248688. 4400.09   3
  -1  -2  -4 39902.2 1928.43   3
   1   2   4 38709.4 1891.70   6
   1   2   5 127723. 3650.23   6
  -1  -2  -5 128797. 3740.68   3
  -1   2  -5 125745. 2519.10   7
  -1  -2  -6 59881.6 2759.59   3
   1   2   6 65358.5 2804.00   6
  -1  -2  -7 16854.9 1583.96   3
   1   2   7 16332.6 1488.01   6
   1   2   8 9842.64 655.187  24
  -1  -2  -8 10982.2 1352.79   3
   1   2   8 9083.88 1167.37   6
   1   2   8 11293.8 687.726  21
   1  -2   8 10421.2 593.989   9
   1   2   8 10425.8 609.012  22
   1   2   9 3868.57 384.648  22
   1   2   9 4255.36 462.981  24
   1   2   9 2897.64 678.650   6
   1   2   9 3577.50 402.482   9
   1   2   9 4205.68 433.988  21
  -1  -2  -9 5276.79 996.994   3
   1  -2   9 3996.03 396.943   9
   1  -2  10 1956.34 301.307   9
   1   2  10 1653.52 270.133   9
   1   2  10 2026.54 370.103  26
   1   2  10 1876.33 335.479  24
   1   2  10 2175.35 300.499  22
   1   2  10 1968.31 317.665  21
   1   2  11 11852.8 647.918  22
   1   2  11 11560.9 720.175   9
   1   2  11 11827.0 727.440  21
   1   2  11 10738.9 655.455  12
   1   2  11 12868.0 854.457  26
   1   2  11 12300.8 789.757  24
   1  -2  11 12608.5 718.280   9
   1   2  12 14805.2 773.013   9
   1   2  12 16085.8 910.579  26
   1  -2  12 15337.0 767.257   9
   1   2  12 13614.7 669.113  12
   1   2  13 9909.40 668.276  26
   1  -2  13 9110.30 553.235   9
   1  -2  14 3738.80 316.989   9
   1   2  14 4079.20 360.191  26
   1  -3 -14-31.9409 54.3479  19
  -1   3  14 24.2097 42.9653  18
  -1   3  13 944.747 150.395  18
   1  -3 -13 796.629 143.159  15
   1  -3 -13 1068.65 188.036  19
   1  -3 -12 1566.48 226.248  15
  -1   3  12 1695.98 231.537  12
   1  -3 -12 1930.22 269.285  19
   1  -3 -11 6094.41 468.825  15
  -1   3  11 5459.71 409.790   8
  -1   3  11 5709.81 462.320  12
   1  -3 -11 6667.46 529.073  19
  -1   3  10 5981.45 507.093  12
  -1   3  10 6573.43 485.732   8
   1  -3 -10 6143.86 498.377  15
  -1   3  10 6372.68 593.853  26
  -1   3  10 6053.66 416.386  13
  -1   3   9 5209.32 481.618  12
  -1   3   9 5700.21 477.844   8
  -1   3   9 5260.11 550.211  26
  -1   3   9 5558.65 483.485  22
   1  -3  -9 6080.85 515.654  15
  -1   3   9 5533.39 428.000  13
   1  -3  -8 4046.36 423.190  15
  -1   3   8 3403.27 440.724  26
  -1   3   8 4958.32 452.929  22
  -1   3   8 4217.67 427.637  12
  -1   3   8 4435.21 449.576  21
  -1   3   8 4675.01 430.729   8
  -1   3   7 1908.79 501.584   4
  -1   3   7 3159.40 361.432  12
   1  -3  -7 2898.47 758.969   3
  -1   3   7 3519.31 362.721   8
  -1   3   7 2937.08 379.775  26
  -1   3   7 3410.44 361.627  22
  -1   3   7 2991.92 359.406  21
  -1   3   7 2408.02 619.154   6
  -1   3   6 13633.0 694.573  22
  -1  -3   6 11964.6 633.323  20
  -1   3   6 11398.4 718.222  26
   1  -3  -6 11891.4 1427.68   3
   1  -3  -6 14178.0 767.776  19
  -1   3   6 12692.2 700.087  21
  -1   3   6 12908.4 1399.22   6
  -1   3   6 13327.8 704.731  12
  -1   3   6 14764.8 1358.46   4
  -1   3   5 6279.08 466.967  12
  -1   3   5 5347.99 434.293  21
  -1   3   5 6425.98 464.115  22
  -1  -3   5 6397.61 447.317  20
  -1   3   5 6771.02 976.073   6
   1  -3  -5 6417.12 976.357   3
   1  -3  -5 6234.18 491.329  19
  -1   3   5 6468.33 889.883   4
   1  -3  -4 3054.27 627.301   3
  -1   3   4 3301.52 680.612   6
  -1   3   4 3240.25 621.392   4
  -1   3   3 6450.66 887.282   6
   1  -3  -3 6677.19 889.199   5
   1  -3  -3 5363.37 813.187   3
  -1   3   3 6040.25 816.559   4
   1   3  -3 6444.13 783.046   4
  -1   3   2 31099.2 1802.96   4
   1   3  -2 29573.6 1711.71   4
   1  -3  -2 29013.7 1763.96   5
   1  -3  -2 29261.1 1748.85   3
  -1   3   2 30437.0 1816.72   6
   1  -3  -1 12673.3 1077.84   3
  -1   3   1 14639.3 1208.42   6
   1   3  -1 12100.6 1049.78   6
   1  -3  -1 14695.5 1210.27   5
  -1   3   1 13445.4 1169.97   4
  -1   3   0 2474.78 513.647   4
  -1  -3   0 3266.77 599.899   5
   1   3   0 2919.46 540.183   6
  -1   3   0 3328.59 556.419   6
   1  -3   0 3265.86 555.846   5
   1   3   1 1814.50 457.263   6
  -1  -3  -1 1796.61 458.512   5
  -1   3  -1 2525.87 502.084   4
  -1  -3  -2 2671.63 572.980   5
   1   3   2 1876.72 488.953   6
  -1   3  -2 2377.27 495.809   4
   1   3   3 17980.5 1542.27   6
  -1   3  -3 18512.9 1305.42   4
  -1  -3  -3 18542.4 1549.17   5
  -1  -3  -4 1284.17 211.140  19
  -1  -3  -4 1150.71 403.215   3
   1   3   4 2029.30 543.802   6
   1  -3   4 1250.37 186.904  16
  -1  -3  -5 101452. 3878.08   3
  -1  -3  -5 101038. 1935.15  19
   1   3   5 85977.9 1850.90  24
   1  -3   5 87649.2 1656.77   9
   1   3   5 107895. 4053.79   6
   1  -3   5 97570.8 1611.97  16
   1   3   6 9412.71 1230.61   6
   1  -3   6 9511.17 565.419   9
   1  -3   6 8503.37 518.895  20
   1   3   6 11200.2 696.042  24
  -1  -3  -6 9825.14 1312.51   3
  -1  -3  -6 11474.2 675.005  19
  -1  -3  -7 29609.8 2348.99   3
   1   3   7 31811.3 2367.14   6
  -1  -3  -7 32751.5 1171.93  19
   1   3   7 35521.0 1256.66  21
   1   3   7 32970.8 1237.93  24
   1  -3   7 33577.4 1091.54   9
   1   3   8 24687.3 1156.13  26
   1   3   8 26308.4 1010.88  22
   1   3   8 25512.5 1097.02  24
   1   3   8 25779.0 1082.00  21
  -1  -3  -8 26679.2 1069.06  19
   1  -3   8 26610.6 991.429   9
   1   3   9 16869.0 801.627  22
   1  -3   9 16323.8 793.213   9
   1   3   9 17800.6 990.278  26
   1   3   9 16381.3 891.531  24
  -1  -3  -9 17782.6 862.270  19
   1   3   9 16998.6 865.021  21
   1   3  10 2455.87 289.547   8
   1   3  10 2457.75 307.053  22
   1   3  10 2588.52 376.848  24
   1   3  10 2836.84 416.263  26
   1   3  10 2621.82 337.257  12
   1   3  10 2661.41 346.554  21
   1  -3  10 2227.56 297.671   9
  -1  -3 -10 2796.58 342.019  19
   1   3  11 1815.64 255.315  22
  -1  -3 -11 1641.14 261.222  19
   1   3  11 1811.72 315.753  26
   1  -3  11 1469.02 235.282   9
   1   3  11 1405.81 244.686  21
   1   3  11 1604.21 207.312   8
   1   3  11 1812.15 255.104  12
   1   3  12 2372.92 320.776  26
   1   3  12 2321.39 250.511  12
   1  -3  12 1799.55 230.485   9
  -1  -3 -12 1991.57 239.035  19
   1  -3  13 431.684 95.8176   9
   1   3  13 484.635 104.639  12
   1   3  13 585.483 144.969  26
  -1  -3 -13 678.253 124.071  19
  -1   4  12 1271.23 138.637  18
   1  -4 -12 1507.87 169.130  19
   1  -4 -11 3122.76 283.933  19
  -1   4  11 2599.92 213.744  11
  -1   4  11 3096.45 272.864  12
  -1   4  10 4823.90 359.786   8
  -1   4  10 5136.96 356.867  11
  -1   4  10 4964.97 318.425  13
   1  -4 -10 5652.21 430.629  19
  -1   4  10 5241.91 394.499  12
  -1   4   9 763.381 179.710  12
  -1   4   9 881.912 183.318   8
   1  -4  -9 1198.42 265.326  19
  -1   4   9 772.924 148.265  13
  -1   4   8 3398.04 348.004   8
  -1   4   8 2903.58 333.317  12
  -1   4   8 3300.85 340.285  22
   1  -4  -8 3721.01 436.778  19
  -1   4   7 5274.10 443.193  22
  -1   4   7 5277.47 445.012   8
  -1   4   7 5202.60 452.882  12
   1  -4  -7 5959.52 524.275  19
  -1   4   6 22.3320 87.0019  22
  -1   4   6 37.4437 97.8431  12
  -1  -4   6 128.327 137.069  20
  -1   4   6 18.8256 115.635   8
   1  -4  -6 152.079 132.166  19
  -1   4   5 3200.38 352.849  12
  -1  -4   5 3391.91 370.210  20
  -1   4   5 3368.34 350.885  22
  -1   4   5 3941.13 393.695   8
   1  -4  -5 3359.10 400.404  19
   1  -4  -4 912.535 234.086  19
  -1  -4   4 605.916 172.940  20
  -1   4   4 944.102 186.671  22
  -1   4   4 881.511 198.887   8
  -1   4   4 619.831 167.110  12
   1  -4  -3 3004.12 363.702  19
  -1   4   3 2200.72 602.810   6
  -1  -4   3 2913.89 343.415  20
   1  -4  -3 1322.81 474.517   5
  -1   4   3 2365.46 606.337   4
  -1  -4   2 5100.88 444.584  20
  -1   4   2 3886.39 747.313   6
   1  -4  -2 5037.21 452.980  19
  -1   4   2 4459.65 805.111   4
   1  -4  -2 4559.93 820.052   5
  -1  -4   1 12749.1 704.464  20
   1  -4  -1 12029.7 638.345  16
   1  -4  -1 12161.9 678.450  19
  -1   4   1 11874.6 1320.26   4
   1   4  -1 10263.2 1249.92   4
   1  -4   0 19830.2 832.560  19
  -1   4   0 21697.5 1757.83   4
   1   4   0 19278.2 1776.90   4
   1  -4   0 19573.1 809.914  16
  -1   4  -1 16935.7 1539.12   4
   1  -4   1 19717.3 801.297  16
  -1  -4  -1 18771.3 848.884  19
   1  -4   1 19361.6 851.109  20
  -1  -4  -1 18366.7 1717.77   5
   1   4   1 20505.2 1870.29   4
  -1  -4  -2 2058.83 587.147   5
   1  -4   2 2420.31 290.475  16
   1  -4   2 2212.40 285.144  20
   1   4   2 2090.69 590.153   6
   1   4   2 1835.08 605.578   4
  -1  -4  -2 2275.95 310.266  19
  -1   4  -2 922.799 360.951   4
   1  -4   3 8292.91 532.008  20
   1  -4   3 7849.80 508.391  16
  -1  -4  -3 9198.12 610.971  19
   1   4   4 5425.43 482.481  21
   1  -4   4 5209.12 409.269  16
   1  -4   4 4524.60 407.273  20
  -1  -4  -4 5831.81 499.224  19
   1   4   5 413.590 151.389  21
  -1  -4  -5 309.592 145.068  19
   1  -4   5 378.553 126.203  20
   1   4   6 240.581 130.970  22
   1   4   6 185.184 121.862  21
  -1  -4  -6-33.5919 134.287  19
   1   4   6 321.795 127.451  24
   1   4   7 7014.63 533.588  24
  -1  -4  -7 8507.36 590.928  19
   1   4   7 7815.38 538.191  22
   1   4   7 8635.44 603.306  12
   1   4   7 8023.40 577.872  21
   1   4   8 16377.8 831.552  26
   1   4   8 15940.4 731.039  22
   1   4   8 15478.2 763.174  21
  -1  -4  -8 16449.7 781.482  19
   1   4   8 17031.5 800.302  12
   1   4   9 7880.33 546.155  26
   1   4   9 7728.91 507.058  12
   1   4   9 7961.02 482.847   8
   1   4   9 7574.68 509.150  21
   1   4   9 7742.41 480.909  22
  -1  -4  -9 7723.09 504.184  19
   1   4  10 22774.5 717.928   8
   1   4  10 23862.4 865.814  26
   1   4  10 24528.0 808.143  12
   1   4  10 23230.4 763.404  22
  -1  -4 -10 23689.9 787.202  19
   1   4  11 3177.26 223.045   8
   1   4  11 3930.50 286.347  12
  -1  -4 -11 3766.45 270.353  19
  -1   5   9 4139.07 217.092  13
   1  -5  -9 4909.95 271.385  19
  -1   5   9 4983.85 259.692  11
  -1   5   8 1733.07 171.268  13
  -1   5   8 1855.69 191.058  11
   1  -5  -8 1905.23 214.539  19
  -1   5   8 1838.53 167.204  27
  -1   5   7 900.907 158.211  11
  -1   5   7 1030.18 162.082   8
   1  -5  -7 931.079 174.103  19
  -1   5   7 1173.99 159.681  13
  -1   5   7 813.131 116.875  17
  -1   5   6 1136.90 180.502   8
   1  -5  -6 1515.55 221.570  19
  -1   5   6 1245.99 189.243  11
  -1   5   5 2436.57 262.201   8
   1  -5  -5 2335.17 275.155  19
  -1   5   4 4033.72 337.519   8
  -1  -5   4 4743.18 392.169  20
   1  -5  -4 4657.68 380.896  19
  -1   5   3 5334.95 381.428   8
  -1  -5   3 5917.68 441.454  20
   1  -5  -2 350.112 132.319  20
  -1  -5   2 303.384 142.995  20
  -1   5   2 284.151 105.454  11
   1  -5  -2 253.833 96.0326  16
  -1  -5   1 9433.07 567.095  20
   1  -5  -1 8439.88 531.422  20
   1  -5  -1 8200.44 449.059  16
   1  -5   0 965.864 207.519  20
   1  -5   0 1220.75 184.216  16
  -1  -5   0 1037.73 219.620  20
  -1  -5  -1 9017.44 561.267  20
   1  -5   1 8290.34 504.368  20
   1  -5   1 7791.06 441.015  16
  -1  -5  -2 6019.53 452.544  20
   1   5   2 5882.94 422.507  22
   1  -5   2 6201.46 430.373  20
   1  -5   3 6407.77 431.702  20
   1   5   3 6766.94 446.756  22
   1  -5   4 401.680 98.5852  20
   1   5   4 543.768 155.277  22
   1   5   5 5130.28 387.438   8
   1   5   5 4281.60 344.295  22
  -1  -5  -5 4624.72 362.860  19
   1   5   5 4291.33 347.435  12
   1   5   6 1756.08 225.568   8
  -1  -5  -6 1916.43 233.878  19
   1   5   6 1417.98 192.061  12
   1   5   6 1733.85 215.177  22
   1   5   7 2570.63 239.752   8
   1   5   7 2301.74 232.278  12
   1   5   7 2299.57 230.355  22
  -1  -5  -7 2693.82 247.627  19
   1   5   8 2822.31 229.474  12
   1   5   8 2657.90 187.727  13
   1   5   8 3103.96 231.166   8
   1   5   8 2976.18 231.659  22
  -1   6   2 2077.63 159.244  17
  -1   6   1 4431.80 236.122  17
  -1  -6   1 4056.95 234.976  20
  -1  -6   0 552.072 93.4630  20
  -1  -6  -1 1721.41 157.377  20
   2   0 -16 96.5841 68.7962  15
  -2   0  15 18050.5 723.423   9
   2   0 -15 18951.7 721.806  15
  -2   0  14 28015.1 1018.66   9
  -2   0  13 19431.6 920.613   9
  -2   0  13 18695.2 779.655  18
  -2   0  12 112384. 2246.45   9
  -2   0  12 109803. 1959.36  18
  -2   0  11 15059.9 724.226  18
  -2   0  11 15464.8 827.152   9
  -2   0  10 25928.1 1029.20   9
  -2   0  10 24902.6 900.255  18
   2   0  -9 3415.97 680.266   3
  -2   0   9 2718.32 324.414   9
   2   0  -8 1393.12 423.038   3
   2   0  -7 7405.82 848.392   3
  -2   0   7 6273.71 861.258   2
   2   0  -6 12519.4 1007.85   3
  -2   0   6 14105.9 1148.39   2
   2   0  -5 273766. 4230.29   3
  -2   0   5 279380. 4572.04   2
   2   0  -4 199.363 192.369   3
   2   0  -3 369.961 177.494   3
  -2   0   3 506.596 125.356   7
   2   0  -2 71130.0 1692.97   3
  -2   0   2 65613.8 1325.15   7
  -2   0   2 69653.2 1793.03   1
  -2   0   1 346812. 3790.31   1
  -2   0   1 349820. 3148.57   7
  -2   0   0 40046.9 1333.23   3
  -2   0  -1 3534.43 453.776   3
  -2   0  -2 3101.52 441.912   3
  -2   0  -3 3924.78 542.932   3
  -2   0  -4-305.222 250.192   3
  -2   0  -5 119.498 232.442   3
  -2   0  -6 339.676 303.846   3
  -2   0  -7 1629.28 487.970   3
  -2   0  -8 9146.62 1174.60   3
   2   0   9 1033.46 210.867   9
  -2   0  -9 731.248 384.807   3
   2   0   9 724.787 163.945  10
   2   0  10 64.3181 129.085   9
   2   0  10 102.340 89.8277  23
  -2   0 -10-177.511 191.112   3
   2   0  11 5783.95 470.576  23
   2   0  11 5628.77 503.085   9
   2   0  12 7863.47 577.184   9
   2   0  12 8175.65 535.904  23
   2   0  13 2840.55 335.344   9
   2   0  14 10006.3 557.755   9
   2   0  15 10893.0 491.989   9
   2  -1 -16 3284.62 232.103  15
  -2   1  15 4698.58 290.199  18
  -2  -1  15 4697.68 335.496   9
   2  -1 -14 22387.6 861.513  15
  -2   1  14 22841.2 900.387   9
  -2   1  14 20958.9 749.688  18
  -2  -1  14 19651.9 807.196   9
  -2   1  13 3699.55 420.795   9
  -2  -1  13 3346.53 380.792   9
  -2   1  13 3404.81 350.167  18
  -2   1  12 44815.4 1419.90   9
  -2  -1  12 42313.8 1349.34   9
  -2   1  12 42829.7 1238.38  18
  -2  -1  11 31676.9 1163.85   9
  -2   1  11 33270.4 1226.56   9
  -2   1  11 31355.9 1055.93  18
  -2   1  10 60783.5 1521.36  12
  -2  -1  10 58102.6 1541.50   9
   2  -1 -10 65238.8 3515.19   3
  -2  -1  10 60268.3 1429.95  18
  -2   1  10 65271.1 1678.13   9
  -2   1   9 9016.00 668.253  26
   2  -1  -9 8685.99 1200.43   3
  -2  -1   9 6970.81 480.857  18
  -2   1   9 7404.72 520.457  12
  -2   1   9 8970.85 605.158   9
  -2   1   8 65372.1 3055.36   2
   2  -1  -8 66355.0 3078.61   3
  -2   1   7 57988.4 2674.64   2
   2  -1  -7 64479.9 2801.23   3
  -2  -1   6 38952.8 1744.07   2
  -2   1   6 37862.7 2017.12   2
   2  -1  -6 41560.0 2060.28   3
  -2   1   6 42037.4 1818.59   6
  -2   1   6 36593.9 1270.02   4
  -2  -1   5 17346.5 1038.37   2
  -2   1   5 18056.6 1304.05   2
   2  -1  -5 18488.0 1267.00   3
  -2   1   5 17850.3 1113.43   6
  -2   1   5 18515.3 900.095   4
   2   1  -4 8716.16 524.594   3
   2  -1  -4 9630.21 837.137   3
  -2   1   4 10091.8 782.620   6
  -2   1   4 9503.89 635.777   4
  -2  -1   4 9843.03 717.199   2
   2   1  -3 7602.85 453.316   3
   2  -1  -3 9537.94 793.641   3
  -2   1   3 8621.16 600.492   4
   2  -1  -2 45985.1 1636.36   3
  -2   1   2 44394.1 1320.30   4
  -2   1   2 48189.4 1675.00   1
  -2  -1   2 42769.3 1253.82   1
   2  -1  -1 12708.8 828.646   3
  -2  -1   1 10051.9 570.894   3
  -2  -1   1 11011.9 639.928   5
  -2   1   1 12422.0 831.264   1
  -2  -1   1 11342.7 640.664   1
  -2   1   1 12003.8 679.159   4
  -2  -1   0 30506.3 1094.76   5
  -2  -1   0 28013.9 1080.14   3
  -2   1   0 29699.3 1239.81   1
  -2   1  -1 109358. 2084.28   7
  -2  -1  -1 109220. 2400.58   3
  -2   1  -2 20901.3 915.939   7
  -2  -1  -2 20199.1 1133.05   3
  -2   1  -2 20445.7 1131.82   3
  -2   1  -3 5235.96 483.092   7
  -2  -1  -3 4750.63 619.497   3
  -2   1  -3 4591.54 589.239   3
  -2   1  -4 17981.4 928.364   7
  -2  -1  -4 15690.7 1164.93   3
  -2   1  -4 17083.3 1182.86   3
  -2  -1  -5 18903.8 1386.33   3
  -2   1  -5 16604.3 1258.04   3
  -2  -1  -6 10611.5 1111.34   3
  -2   1  -6 11127.0 1126.80   3
  -2   1  -7 4708.87 779.116   3
  -2  -1  -7 2763.01 622.247   3
   2   1   8 3196.14 629.928   6
   2   1   8 3936.68 417.636  10
  -2   1  -8 3226.41 679.162   3
  -2  -1  -8 3205.72 723.680   3
   2   1   8 3346.77 373.261  24
   2  -1   8 3714.66 347.162  23
   2  -1   8 3747.01 341.424   9
   2   1   9 2038.69 292.575   9
   2   1   9 2120.81 315.399  10
   2   1   9 1616.89 290.859  24
  -2  -1  -9 1944.25 589.502   3
   2   1   9 2160.61 304.435  21
   2  -1   9 2124.41 291.268  23
   2  -1   9 2002.88 274.809   9
   2   1  10 9724.57 674.463  24
   2  -1  10 8868.44 589.703   9
   2  -1  10 9977.32 616.797  23
   2   1  10 9901.54 642.079   9
   2   1  10 8835.89 594.380  21
   2   1  11 4118.23 425.250   9
   2   1  11 4140.08 446.540  24
   2  -1  11 4569.95 429.280  23
   2  -1  11 3903.47 409.548   9
   2   1  12 9364.08 682.829  26
   2   1  12 8812.03 602.388   9
   2  -1  12 8493.81 590.684   9
   2   1  13 1746.71 254.179   9
   2  -1  13 1848.96 277.240   9
   2   1  13 1686.91 280.710  26
   2   1  14 313.419 109.057   9
   2  -1  14 199.994 122.241   9
   2   1  14 115.840 89.0014  26
   2  -1  15 2686.69 237.287   9
   2  -2 -15 870.026 136.132  19
  -2   2  15 1038.86 127.609  18
   2  -2 -15 1031.09 139.367  15
   2  -2 -14 274.523 122.476  15
  -2   2  14 298.334 110.923  18
   2  -2 -13 3098.34 340.573  15
  -2   2  13 2962.28 303.599  18
   2  -2 -12 13845.0 746.444  15
  -2   2  12 14606.3 705.924  18
  -2   2  11 1389.27 257.080  12
   2  -2 -11 1194.78 251.198  15
   2  -2 -10 38235.7 1266.61  15
  -2   2  10 36436.3 1080.85  13
  -2   2  10 38607.1 1294.73  12
   2  -2  -9 102364. 2021.82  15
   2  -2  -9 104083. 4503.91   3
  -2   2   9 101400. 2052.59  12
  -2   2   9 101421. 2176.70   9
  -2   2   9 103923. 1970.60   8
  -2   2   9 98920.8 1772.53  13
  -2   2   9 104490. 2327.89  26
  -2   2   8 24433.9 926.206   8
   2  -2  -8 22269.2 1963.00   3
  -2   2   8 21850.8 1037.14  26
  -2   2   8 22382.9 1783.18   6
  -2   2   8 22273.6 826.882  13
  -2   2   8 24033.6 961.591  12
   2  -2  -8 23891.9 950.473  15
  -2   2   8 23782.8 1024.30   9
   2  -2  -7 18542.7 808.894  15
  -2   2   7 20296.0 1752.69   2
  -2   2   7 20314.5 810.045   8
  -2   2   7 21775.9 1669.62   6
   2  -2  -7 20826.8 1785.74   3
  -2   2   7 19542.9 811.858  22
  -2   2   7 20143.1 834.092  12
  -2   2   7 18662.1 916.959  26
   2  -2  -6 21832.4 1724.25   3
  -2   2   6 22451.5 1608.93   6
  -2   2   6 21784.6 1698.06   2
  -2   2   6 19778.4 1308.01   4
  -2   2   5 6066.55 794.790   6
   2  -2  -5 6283.97 873.977   3
  -2   2   5 5332.56 666.123   4
  -2   2   5 6035.86 836.358   2
  -2   2   4 18370.7 1291.13   6
  -2   2   4 16882.1 1326.25   2
   2  -2  -4 16117.2 1286.97   3
  -2   2   4 17972.1 1183.35   4
   2  -2  -3 52349.5 2205.37   3
  -2   2   3 53949.8 2091.24   6
  -2   2   3 52190.5 1930.69   4
   2  -2  -2 11967.0 1008.35   3
  -2   2   2 11270.3 931.688   6
  -2   2   2 12325.8 922.179   4
   2  -2  -1 22554.2 1330.97   3
   2  -2  -1 21355.0 1050.80   5
  -2  -2   1 22543.1 1283.38   5
  -2   2   1 23098.7 1233.02   4
  -2  -2   0 21807.0 996.390   3
  -2   2   0 21971.8 1208.95   1
   2  -2   0 22467.3 1018.13   5
  -2  -2   0 22734.1 1325.91   5
  -2   2   0 25356.2 1276.33   4
   2  -2   0 22490.7 1297.48   3
  -2  -2  -1 497.908 196.498   3
  -2   2  -1 331.640 213.717   1
   2  -2   1 324.298 156.752   3
  -2  -2  -1 178.836 219.718   5
  -2   2  -1 157.208 174.966   4
  -2  -2  -2 29899.3 1550.28   3
  -2   2  -2 28345.4 1397.94   1
  -2  -2  -3 10263.1 994.182   3
  -2   2  -3 11246.5 849.088   7
  -2   2  -4 4454.45 557.745   7
  -2  -2  -4 4046.16 665.225   3
  -2  -2  -5 3205.39 656.404   3
  -2   2  -5 2715.06 431.746   7
  -2  -2  -6 231.626 192.194   3
   2   2   6 361.134 224.883   6
  -2  -2  -7 3430.73 780.565   3
   2   2   7 3494.68 393.822  10
   2   2   7 3254.51 690.459   6
   2  -2   7 3117.36 327.413  23
  -2  -2  -7 2565.83 286.204  25
   2  -2   7 3703.14 359.782   9
   2   2   8 8756.79 1181.36   6
   2   2   8 9051.92 638.877  24
   2  -2   8 8480.77 569.663  23
  -2  -2  -8 8930.23 1265.93   3
   2   2   8 7974.24 606.081  10
   2  -2   8 8252.59 550.807   9
   2   2   9 2039.59 325.592  21
   2   2   9 1662.37 300.169  24
   2   2   9 1926.70 269.154  22
   2   2   9 1796.65 574.248   6
   2  -2   9 2131.47 295.738   9
   2  -2  10 1139.02 245.049   9
   2   2  10 1054.79 247.227  21
   2   2  10 1513.22 233.813  22
   2   2  10 1224.41 290.971  24
   2  -2  11 282.191 155.134   9
   2   2  11 543.869 182.854  21
   2   2  11 490.409 215.388  24
   2   2  11 466.152 168.225  12
   2   2  11 504.891 126.853  22
   2   2  11 293.800 203.448  26
   2  -2  12 155.977 143.894   9
   2   2  12 271.942 150.875  26
   2  -2  13 7324.34 466.221   9
   2   2  13 8078.14 552.102  26
   2   2  14 5808.62 392.571  26
   2  -2  14 6069.50 361.980   9
   2  -3 -14 10921.8 408.023  19
  -2   3  14 11091.4 385.665  18
   2  -3 -13 1950.40 212.221  15
   2  -3 -13 2266.17 245.858  19
  -2   3  13 2285.88 222.978  18
   2  -3 -12 4207.20 371.250  15
   2  -3 -12 4769.63 405.680  19
  -2   3  12 4401.63 336.110  18
   2  -3 -11 5064.81 440.985  15
  -2   3  11 4687.81 346.994  13
  -2   3  11 4916.54 426.180  12
  -2   3  11 4213.89 339.119  11
   2  -3 -11 5214.04 470.176  19
   2  -3 -10 9732.04 628.783  15
  -2   3  10 9253.79 577.573   8
  -2   3  10 8474.60 513.733  13
  -2   3  10 9147.62 610.604  12
  -2   3  10 8978.77 544.188  11
   2  -3  -9 2311.96 327.991  15
  -2   3   9 2710.09 350.360  12
  -2   3   9 2422.87 293.666  13
  -2   3   9 2786.72 340.017   8
   2  -3  -8 27108.4 1085.53  15
  -2   3   8 28422.4 985.266  13
  -2   3   8 26972.5 1010.01   8
  -2   3   8 26978.5 1052.73  12
   2  -3  -7 37041.7 1241.34  15
   2  -3  -7 34480.1 2621.38   3
  -2   3   7 36551.2 1144.82   8
  -2   3   7 34851.9 2377.58   6
  -2   3   7 35333.6 1178.01  12
  -2   3   7 34974.1 1159.08  22
  -2   3   6 255.884 119.483  12
  -2   3   6 159.470 105.591   8
   2  -3  -6 98.5545 96.9162  15
  -2   3   6 87.8940 145.558   6
   2  -3  -6 662.105 395.298   3
  -2   3   6 294.473 126.969  22
  -2  -3   6 106.752 88.8586  20
   2  -3  -6 188.746 108.240  19
  -2   3   6 142.498 258.924   4
   2  -3  -5 34140.5 1127.17  15
   2  -3  -5 38116.5 1218.62  19
  -2   3   5 40672.0 1147.33   8
   2  -3  -5 37492.2 2509.20   3
  -2   3   5 40762.0 2401.44   6
  -2   3   5 39796.6 1177.66  12
  -2   3   5 34950.5 1063.48  22
  -2  -3   5 39493.6 1144.75  20
  -2   3   5 39155.2 2187.01   4
   2  -3  -4 3194.92 698.057   3
  -2   3   4 2953.43 303.701   8
  -2   3   4 2610.71 293.481  12
  -2   3   4 3078.47 618.334   6
  -2  -3   4 3181.36 323.751  20
   2  -3  -4 2314.15 300.688  19
   2  -3  -4 2584.73 566.996   5
  -2   3   4 3096.54 594.745   4
  -2   3   3 28932.0 1870.09   6
   2  -3  -3 30242.5 1829.34   5
  -2  -3   3 28567.9 942.243  20
  -2   3   3 29834.1 1829.50   4
   2  -3  -3 30113.1 2029.77   3
   2  -3  -2 950.992 354.798   3
   2  -3  -2 660.030 266.695   5
  -2   3   2 757.922 291.718   4
   2   3  -1 1719.40 480.264   6
   2  -3  -1 2030.48 459.602   3
   2  -3  -1 1973.76 425.069   5
  -2   3   1 1893.28 485.933   4
   2   3   0 1373.86 418.728   6
   2  -3   0 844.351 318.090   3
  -2   3   0 982.215 315.728   4
  -2  -3   0 902.245 261.975   5
   2   3   1 3487.48 684.824   6
  -2  -3  -1 3786.00 689.559   5
  -2   3  -1 3498.21 598.427   4
   2   3   2 3729.25 787.294   6
  -2  -3  -2 3915.30 726.847   5
  -2   3  -2 4872.03 691.931   4
  -2  -3  -3 2615.69 597.608   5
   2   3   3 2512.43 627.535   6
  -2  -3  -3 1973.08 273.667  19
   2  -3   3 2169.48 249.803  16
   2   3   4 26153.2 2054.89   6
  -2   3  -4 25255.4 1566.72   7
  -2  -3  -4 26440.5 2009.95   5
  -2  -3  -4 23930.5 935.798  19
   2  -3   4 24451.5 828.625  16
   2   3   5 6525.33 522.892  10
   2   3   5 8440.76 1184.74   6
  -2  -3  -5 7867.29 551.116  19
   2  -3   5 7073.73 450.298  16
   2  -3   6 8375.53 551.309   9
   2   3   6 8064.77 631.039  24
  -2  -3  -6 5744.87 1006.24   3
   2   3   6 5804.84 1009.02   6
   2   3   6 7670.58 579.773  10
  -2  -3  -6 8129.34 569.825  19
   2   3   7 7444.45 603.417  24
  -2  -3  -7 6639.69 516.263  19
   2  -3   7 7514.72 529.119   9
   2   3   8 7006.68 598.522  24
   2  -3   8 7731.60 535.378   9
   2   3   8 7311.95 541.011  22
  -2  -3  -8 6570.39 499.880  19
   2   3   8 7544.90 598.774  21
   2  -3   9 1266.18 234.839   9
   2   3   9 1162.42 254.676  21
   2   3   9 1218.80 227.992  22
   2   3   9 843.293 228.728  24
  -2  -3  -9 1233.38 229.970  19
   2  -3  10 342.216 149.564   9
   2   3  10 523.366 119.493   8
   2   3  10 553.396 211.724  26
   2   3  10 653.054 215.775  24
   2   3  10 429.094 127.246  22
  -2  -3 -10 619.155 160.857  19
   2   3  10 606.071 183.111  21
   2  -3  11 583.898 148.871   9
   2   3  11 583.850 193.588  26
   2   3  11 891.324 170.972  22
   2   3  11 514.042 154.516  21
   2   3  11 572.272 153.013  12
  -2  -3 -11 885.736 166.154  19
   2   3  12 1372.12 224.355  26
   2   3  12 1297.05 170.527  12
   2  -3  12 1652.12 211.474   9
   2  -3  13 399.360 85.8682   9
   2   3  13 394.140 114.183  26
   2  -4 -12 11573.2 412.053  19
  -2   4  12 10785.7 369.426  18
  -2   4  11 2621.81 208.659  11
   2  -4 -11 3015.50 268.793  19
  -2   4  11 2530.44 221.950  18
  -2   4  10 1997.71 209.845  13
  -2   4  10 2428.59 242.427  11
   2  -4 -10 2278.25 267.409  19
  -2   4   9 5731.08 386.968  13
  -2   4   9 5311.05 413.682  12
  -2   4   9 5497.83 397.230  11
  -2   4   9 5427.56 337.966  27
   2  -4  -9 6515.99 497.044  19
  -2   4   8 3188.19 307.216  13
  -2   4   8 2688.30 311.375  12
  -2   4   8 2929.76 316.004  11
  -2   4   8 3125.76 327.158   8
   2  -4  -8 2978.53 361.000  19
  -2   4   7 17123.3 727.689  13
  -2   4   7 16299.4 749.570   8
  -2   4   7 15783.0 765.154  12
   2  -4  -7 17093.8 854.536  19
  -2   4   6 14862.3 721.950   8
  -2   4   6 14572.9 742.495  12
  -2  -4   6 14692.8 735.588  20
   2  -4  -6 14723.1 800.831  19
  -2   4   5 2903.03 327.935   8
  -2   4   5 2974.95 340.371  12
  -2  -4   5 2793.56 330.714  20
   2  -4  -5 3124.52 379.082  19
  -2   4   4 1267.78 229.551   8
   2  -4  -4 1052.64 236.321  19
  -2   4   4 1134.49 206.130  12
  -2  -4   4 1377.72 238.408  20
  -2   4   3 5666.09 437.306   8
  -2  -4   3 6480.81 495.599  20
   2  -4  -3 6512.52 509.568  19
  -2   4   2 4503.67 372.033   8
   2  -4  -2 4846.44 428.181  19
  -2  -4   2 5314.61 459.523  20
  -2   4   1 4330.07 372.067  11
  -2  -4   1 5159.70 455.465  20
   2  -4  -1 4830.36 414.181  19
   2   4   0 5689.18 992.476   4
  -2  -4   0 6645.05 517.127  20
   2  -4   0 6392.09 486.702  16
   2  -4   1 4018.89 367.727  20
   2  -4   1 4450.74 395.108  16
  -2  -4  -2 21566.3 906.217  19
   2  -4   2 21237.7 836.519  16
  -2  -4  -3 11330.8 664.946  19
   2  -4   3 11394.3 602.954  16
   2  -4   4 338.350 138.477   9
  -2  -4  -4 256.429 138.326  19
   2  -4   4 273.900 114.362  16
   2  -4   5-74.3969 85.1726   9
   2   4   5 112.046 96.7385  24
  -2  -4  -5 50.4403 124.013  19
   2  -4   6 1237.34 213.730   9
   2   4   6 1348.80 258.348  24
   2   4   6 1926.28 306.070  21
  -2  -4  -6 1679.71 257.890  19
  -2  -4  -7 3772.95 354.984  19
   2   4   7 3297.49 371.046  24
   2   4   7 4296.94 402.854  22
   2   4   7 4035.76 413.873  21
   2  -4   7 3396.09 340.103   9
   2   4   8 4546.27 422.573  26
   2   4   8 4457.64 409.781  24
   2   4   8 4649.74 387.794  22
   2   4   8 4440.33 409.052  21
  -2  -4  -8 4751.08 380.255  19
   2  -4   8 4287.96 351.360   9
   2   4   9 5871.01 390.460   8
   2   4   9 5399.68 432.976  26
   2   4   9 6161.43 406.334  22
   2   4   9 5820.53 418.449  12
   2   4   9 6113.02 440.336  21
  -2  -4  -9 5214.23 356.906  19
   2  -4   9 4990.76 346.122   9
   2   4  10 8901.80 402.989   8
   2   4  10 8575.61 490.013  26
   2   4  10 10293.9 492.553  12
   2   4  10 9833.57 457.055  22
   2   4  10 9660.95 490.671  21
  -2  -4 -10 8035.92 373.649  19
   2   4  11 5262.21 295.702  12
  -2   5   8 1427.08 137.488  27
  -2   5   8 1424.22 154.233  13
  -2   5   8 1580.21 164.369  11
   2  -5  -8 1306.78 149.729  19
  -2   5   7 490.318 102.198  27
  -2   5   7 571.435 117.484  13
  -2   5   7 682.808 129.664  11
   2  -5  -7 531.725 126.974  19
  -2   5   7 394.279 78.6323  17
  -2   5   6 1757.96 196.171  27
  -2   5   6 1726.13 199.252  13
  -2   5   6 1436.21 193.588  11
   2  -5  -6 1333.94 191.385  19
  -2   5   6 1335.15 160.976  17
  -2   5   5 7123.38 424.370  11
  -2   5   5 7409.99 412.654  13
   2  -5  -5 6520.84 355.952  16
  -2   5   4 920.092 155.515  13
  -2  -5   4 775.206 181.609  20
  -2   5   4 703.822 135.673  11
   2  -5  -4 1053.29 170.589  16
  -2   5   3 7126.52 433.985  11
  -2   5   3 6993.96 420.735  13
  -2  -5   3 7098.98 483.927  20
   2  -5  -3 7142.03 461.977  20
   2  -5  -3 6541.80 404.515  16
  -2   5   2 4801.38 350.244  11
   2  -5  -2 5333.88 392.864  20
  -2   5   2 4695.66 345.493  13
  -2  -5   2 5007.93 400.314  20
   2  -5  -2 4989.26 361.129  16
  -2  -5   1 9823.46 556.569  20
   2  -5  -1 10640.6 541.340  20
  -2   5   1 9762.73 475.148  13
   2  -5  -1 10048.6 517.229  16
  -2   5   0 16326.9 629.769  27
  -2  -5   0 16217.5 707.220  20
   2  -5   0 15133.6 623.746  20
   2  -5   0 15457.8 634.975  16
  -2   5  -1 6992.63 392.393  27
  -2  -5  -1 8028.69 500.543  20
   2  -5   1 6884.22 428.043  16
  -2  -5  -2 3164.98 314.688  20
   2  -5   2 2643.64 267.126  16
  -2  -5  -3 3911.42 344.233  20
  -2   5  -3 3865.95 288.979  17
  -2  -5  -4 341.864 133.969  20
   2   5   4 449.550 130.425  12
   2   5   4 566.919 142.335  22
   2   5   5 647.909 136.013  12
   2   5   5 764.110 153.120  22
  -2  -5  -5 814.219 156.549  20
  -2  -5  -6 657.862 132.188  20
   2   5   6 642.735 135.526   8
   2   5   6 293.952 104.066  12
   2   5   6 501.079 125.961  22
   2   5   6 477.617 112.074  21
   2   5   7 2304.53 210.872   8
   2   5   7 1800.27 185.922  22
  -2  -5  -7 1785.58 173.857  20
   2   5   7 1656.86 182.809  12
   2   5   8 473.725 88.5567   8
   2   5   8 548.995 95.4639  22
   3   0 -15 293.293 97.1524  15
  -3   0  14 1193.91 192.306  18
   3   0 -14 1103.26 199.904  15
   3   0 -13 10667.6 653.573  15
  -3   0  13 10660.3 652.087   9
  -3   0  13 11031.3 612.549  18
   3   0 -12 4134.50 437.572  15
  -3   0  12 4009.32 425.702   9
  -3   0  12 4351.59 415.835  18
  -3   0  11 4681.41 470.286   9
  -3   0  11 4072.06 406.350  18
  -3   0  10 459.635 163.040   9
  -3   0  10 327.564 112.313  18
  -3   0   9 45074.2 1321.40   9
  -3   0   9 52757.7 1309.61  18
   3   0  -8 1640.16 465.231   3
  -3   0   8 1677.64 492.234   2
   3   0  -7 24425.2 1646.43   3
  -3   0   7 24135.0 1757.14   2
   3   0  -6 87050.1 2867.98   3
  -3   0   6 88132.6 3119.95   2
   3   0  -5 115513. 3050.28   3
   3   0  -4 60911.8 2099.64   3
  -3   0   3 4225.07 596.204   1
   3   0  -3 4596.55 579.293   3
  -3   0   2 87722.3 2475.69   1
  -3   0   1 8722.92 776.629   1
  -3   0   0 56291.2 1925.46   3
  -3   0  -1 2429.14 454.585   3
  -3   0  -2 441989. 5903.60   3
  -3   0  -3 73354.3 2542.02   3
  -3   0  -4 54942.8 2381.08   3
  -3   0  -5 78.8323 198.858   3
  -3   0  -6 1783.98 505.695   3
  -3   0  -7 30103.1 2165.50   3
   3   0   8-293.866 116.381   9
  -3   0  -8 336.912 292.760   3
   3   0   8 166.911 104.331  10
   3   0   9 21865.9 964.642  10
  -3   0  -9 20308.9 1988.30   3
   3   0   9 22268.9 909.493   9
   3   0  10 261.959 170.357   9
   3   0  10 275.871 125.701  23
   3   0  10 83.5188 113.479  10
   3   0  11 3657.37 374.437  23
   3   0  11 3844.49 414.819   9
   3   0  12 941.167 213.265   9
   3   0  12 842.416 197.907  23
   3   0  13 92.6669 92.4783   9
   3   0  14 14.6319 74.6130   9
   3  -1 -15 36.1789 77.5970  15
  -3   1  15 65.9684 70.9765  18
   3  -1 -14 2512.99 288.687  15
  -3   1  14 2530.37 280.029  18
   3  -1 -13 789.611 199.180  15
  -3   1  13 1351.53 234.799  18
   3  -1 -12 1301.33 254.579  15
  -3  -1  12 1266.42 212.839  18
  -3   1  12 1727.89 280.519  18
   3  -1 -11 39215.6 1281.18  15
  -3   1  11 41594.7 1259.05  18
  -3   1  11 40633.1 1360.95   9
  -3  -1  11 38768.5 1189.47  18
   3  -1 -10 13517.9 735.939  15
  -3   1  10 13034.2 768.609   9
  -3  -1  10 13682.8 719.326  18
  -3   1  10 14158.8 716.828  18
   3  -1  -9 197.901 128.544  15
   3  -1  -9-199.884 252.310   3
  -3  -1   9 261.218 122.188  18
  -3   1   9 166.754 108.433  18
  -3   1   9 357.464 176.538   9
   3  -1  -8 2284.24 296.644  15
  -3   1   8 2322.88 257.091  13
  -3   1   8 2348.14 559.212   2
   3  -1  -8 2533.72 629.237   3
  -3   1   8 2633.58 327.747   9
  -3   1   8 2605.16 281.805  18
  -3  -1   8 2476.02 297.233  18
  -3   1   7 81559.3 3372.21   2
  -3  -1   7 83071.3 3074.64   2
   3  -1  -7 84909.3 3406.54   3
  -3  -1   6 17593.6 1302.82   2
   3  -1  -6 19599.9 1532.90   3
  -3   1   6 19144.4 1537.37   2
   3  -1  -5 25703.5 1629.72   3
  -3   1   5 24345.7 1110.56   7
  -3  -1   5 23907.0 1401.58   2
   3  -1  -4 168741. 3936.37   3
  -3   1   4 159095. 2857.44   7
   3  -1  -3 19701.9 1284.76   3
   3   1  -3 19100.9 978.234   3
  -3   1   3 19376.4 997.110   7
   3  -1  -2 53481.3 2029.63   3
  -3   1   2 50802.4 1602.53   7
  -3  -1   2 46963.9 1711.23   1
  -3   1   2 49375.2 1994.13   1
  -3   1   1 17982.8 939.840   7
  -3   1   1 16520.5 1173.81   1
  -3  -1   1 16965.3 1026.27   1
  -3   1   0 85257.9 2050.28   7
  -3  -1   0 78306.8 1834.64   5
  -3   1   0 80082.1 2479.50   1
  -3  -1   0 81729.8 2347.94   3
  -3   1  -1 31167.3 1262.65   7
  -3  -1  -1 27450.7 1160.81   5
  -3  -1  -1 28485.7 1471.60   3
  -3   1  -2 128034. 2692.65   7
  -3  -1  -2 123906. 3326.45   3
  -3   1  -2 120995. 3255.77   3
  -3   1  -3 9734.41 781.618   7
  -3  -1  -3 10528.1 1045.56   3
  -3   1  -3 9752.94 986.952   3
  -3  -1  -4 66241.8 2757.42   3
  -3   1  -4 69681.4 2787.21   3
  -3  -1  -5 64709.3 2883.63   3
  -3   1  -5 65967.4 2847.69   3
  -3  -1  -6 1069.46 453.615   3
  -3   1  -6 1537.19 499.895   3
  -3  -1  -7 20868.6 1858.45   3
   3   1   7 22558.2 950.148  10
  -3   1  -7 25014.2 2009.40   3
   3  -1   7 21210.4 816.571   9
   3  -1   8 14399.4 691.439  23
   3   1   8 15521.6 820.792  10
  -3  -1  -8 15678.6 1709.45   3
  -3   1  -8 14617.0 1595.55   3
   3  -1   8 14855.9 710.334   9
   3   1   9 22611.6 1029.64  24
   3   1   9 22789.8 1026.83  10
   3  -1   9 22028.4 901.742   9
   3  -1   9 23884.9 923.092  23
   3   1  10 1519.28 291.189  24
   3   1  10 1459.94 244.590   9
   3  -1  10 1359.28 267.046   9
   3  -1  10 2153.59 324.070  23
   3   1  10 1616.68 292.524  10
   3   1  11 597.050 150.254   9
   3  -1  11 685.505 201.180   9
   3   1  11 420.163 132.813  24
   3  -1  11 832.825 204.150  23
   3   1  11 772.927 169.400  23
   3   1  12 1218.18 207.407   9
   3  -1  12 1757.58 276.154   9
   3   1  12 1864.23 292.762  26
   3   1  12 1544.01 208.939  23
   3  -1  13 524.012 154.290   9
   3   1  13 428.759 149.073  26
   3  -1  14 150.437 95.9330   9
   3  -2 -15 552.201 99.5473  15
   3  -2 -14 238.246 100.080  15
  -3   2  14 416.037 120.883  18
   3  -2 -13 61.8318 99.3205  15
  -3   2  13-30.0329 99.6584  18
   3  -2 -12 868.756 207.359  15
  -3   2  12 1194.41 220.351  18
   3  -2 -11 237.618 149.629  15
  -3   2  11-45.7149 142.350  18
   3  -2 -10 10740.6 678.174  15
  -3   2  10 8935.41 555.744  11
  -3   2  10 9735.61 583.792  13
  -3   2  10 10335.0 622.466  18
   3  -2  -9 83225.0 1863.64  15
  -3   2   9 86605.2 1746.99  13
  -3   2   9 82775.5 1683.58  11
  -3   2   8 24663.3 930.261  13
  -3   2   8 23781.8 975.984  12
   3  -2  -8 23415.6 961.037  15
  -3   2   8 22383.7 2036.21   2
   3  -2  -8 21750.4 2031.70   3
  -3  -2   8 23365.1 979.990  18
  -3   2   8 23506.4 895.472  11
  -3   2   7 215.359 88.5809  27
   3  -2  -7-88.9810 121.585  15
  -3   2   7 44.8712 79.7427   8
   3  -2  -7 440.740 307.793   3
  -3   2   7 50.5573 70.7874  13
  -3   2   7-322.588 292.034   2
  -3   2   7 102.671 71.3489  12
  -3   2   7 62.3627 97.7183  11
  -3  -2   7 193.169 121.855  18
  -3   2   6 18692.2 1676.58   2
   3  -2  -6 19770.4 833.442  15
  -3   2   6 21338.3 811.922   8
   3  -2  -6 20624.3 1749.04   3
  -3   2   6 21134.3 780.741  13
  -3   2   6 19536.5 810.308  12
  -3   2   6 19470.5 773.116  11
   3  -2  -5 27993.1 1931.03   3
  -3   2   5 27001.2 1531.95   4
  -3   2   5 26951.4 1910.64   2
   3  -2  -4 7578.22 977.626   3
  -3   2   4 6873.39 772.304   4
   3  -2  -3 39166.8 2104.99   3
  -3   2   3 39370.2 1793.22   4
   3  -2  -2 13094.2 1191.59   3
  -3   2   2 14488.9 1060.04   4
   3  -2  -1 55941.7 2414.22   3
  -3   2   1 53111.2 2290.71   1
   3  -2   0 49268.9 2257.06   3
  -3  -2   0 49276.8 2053.64   5
  -3   2   0 46689.0 2135.93   1
   3  -2   1 33107.9 1842.60   3
  -3   2  -1 31691.3 1767.49   1
  -3   2  -1 34940.2 1622.87   7
  -3  -2  -1 33086.2 1749.42   5
  -3  -2  -1 31060.1 1635.05   3
  -3   2  -2 17771.0 1162.88   7
  -3  -2  -2 17341.8 1316.18   5
  -3  -2  -2 17697.7 1377.67   3
  -3   2  -2 16334.9 1291.56   1
  -3   2  -3 28387.3 1495.55   7
  -3   2  -3 25248.7 1661.38   1
  -3  -2  -3 26822.4 1825.31   3
  -3   2  -4 12199.1 1022.55   7
  -3  -2  -4 10754.7 1222.12   3
  -3   2  -5 28027.1 1604.66   7
  -3  -2  -5 26562.5 941.110  25
  -3  -2  -5 28060.6 2090.81   3
   3  -2   6 63159.2 1484.70  23
  -3  -2  -6 63616.8 1482.16  25
   3   2   6 64099.6 1624.12  10
  -3  -2  -6 59860.8 3243.46   3
   3  -2   6 62102.4 1415.76   9
  -3  -2  -7 49022.5 1303.14  25
   3  -2   7 49188.5 1355.93  23
   3   2   7 46145.3 2830.38   6
  -3  -2  -7 47352.7 3025.22   3
   3   2   7 48031.0 1451.14  10
   3  -2   7 47515.9 1260.52   9
   3  -2   8 4749.72 447.192  23
  -3  -2  -8 4014.72 370.547  25
   3   2   8 4469.70 478.534  10
   3  -2   8 4614.01 425.834   9
   3  -2   9 614.727 190.938   9
   3   2   9 503.992 211.720  24
   3  -2   9 640.391 191.460  23
   3   2   9 582.725 153.170  22
   3   2   9 310.506 156.337  21
   3   2   9 509.750 194.780  10
   3  -2  10 1508.81 259.355   9
   3   2  10 1428.12 247.640  21
   3   2  10 1499.55 292.473  24
   3  -2  11 72.7534 119.299   9
   3   2  11-18.0636 128.137  24
   3   2  11-92.0328 108.600  21
   3  -2  12 536.694 155.089   9
   3   2  12 1011.76 233.729  26
   3   2  13 3049.86 301.286  26
   3  -2  13 2801.97 260.874   9
   3  -2  14-31.5767 60.4758   9
   3  -3 -13 1579.14 185.538  15
   3  -3 -13 1256.94 159.234  19
  -3   3  13 1520.16 174.531  18
   3  -3 -12 1374.52 206.639  15
   3  -3 -12 1141.25 197.512  19
  -3   3  12 1404.06 200.135  18
   3  -3 -11 2167.55 274.483  15
  -3   3  11 2438.66 250.881  11
   3  -3 -11 2163.42 284.721  19
  -3   3  11 2145.40 260.516  18
   3  -3 -10 59.5144 116.647  15
  -3   3  10 148.830 99.3795  13
  -3   3  10 119.681 109.117  11
   3  -3 -10 139.021 125.251  19
  -3   3  10 228.725 103.732  18
   3  -3  -9 574.888 196.328  15
  -3   3   9 698.254 177.941  13
  -3   3   9 299.341 120.783  11
   3  -3  -9 663.719 205.747  19
   3  -3  -8 17880.4 887.414  15
  -3   3   8 18655.7 811.774  13
  -3   3   8 17455.7 720.882  27
  -3   3   8 17511.9 850.544  12
  -3   3   8 18266.6 812.715  11
   3  -3  -8 17414.4 889.866  19
   3  -3  -7 76606.5 1817.68  15
  -3   3   7 74104.0 1649.06   8
  -3   3   7 76965.9 1615.14  13
  -3   3   7 73601.3 1713.91  12
  -3   3   7 72027.5 1609.17  11
   3  -3  -7 74616.9 1777.34  19
  -3   3   7 70061.0 1443.17  17
  -3   3   6 38510.2 1220.03  12
   3  -3  -6 40713.5 1302.55  15
  -3   3   6 38892.6 1178.12   8
   3  -3  -6 39655.3 2820.71   3
  -3   3   6 41495.2 1153.59  13
  -3   3   6 39693.1 1166.52  11
   3  -3  -6 38429.5 1237.16  19
   3  -3  -5 7206.52 542.624  15
  -3   3   5 6808.19 485.807   8
  -3   3   5 7049.47 476.259  13
  -3   3   5 6471.64 493.021  12
  -3   3   5 6700.97 468.521  11
  -3  -3   5 6117.68 485.011  20
   3  -3  -5 5905.28 1042.63   3
   3  -3  -5 5962.81 475.047  19
  -3   3   5 6628.24 914.678   4
   3  -3  -4 7026.79 524.188  15
  -3   3   4 7435.01 495.612   8
  -3   3   4 7845.77 484.467  13
   3  -3  -4 9094.35 1240.13   3
  -3   3   4 7130.08 499.317  12
  -3   3   4 7658.28 498.037  11
  -3  -3   4 6956.42 503.325  20
  -3   3   4 7974.37 995.827   4
   3  -3  -3 2909.01 330.904  15
  -3   3   3 2935.17 300.607   8
   3  -3  -3 3712.30 766.040   3
  -3   3   3 3135.03 310.246  11
  -3  -3   3 3213.09 337.484  20
  -3   3   3 2571.82 545.808   4
   3  -3  -2 23049.5 904.939  15
   3  -3  -2 25908.3 1965.18   3
  -3   3   2 25459.8 871.373  11
  -3  -3   2 26154.0 933.779  20
  -3   3   2 25936.3 1724.79   4
   3  -3  -1 333.978 223.455   3
   3  -3  -1 170.963 85.3323  15
  -3   3   1 338.264 113.725  11
  -3  -3   1 368.753 125.455  20
  -3   3   1 246.199 171.116   4
   3  -3   0 7259.66 501.662  15
   3  -3   0 8636.14 1109.98   3
  -3   3   0 7413.93 452.467  11
  -3  -3   0 8526.13 544.320  20
   3  -3   1 537.244 130.347  15
  -3   3  -1 954.874 171.124  27
  -3  -3  -1 1021.80 213.574  25
  -3  -3  -1 1153.83 392.912   5
  -3  -3  -1 549.494 126.705  19
   3  -3   2 18387.3 827.754  15
  -3  -3  -2 25018.9 972.873  25
  -3   3  -2 25029.9 1670.53   7
  -3   3  -2 19759.7 698.374  27
  -3  -3  -2 23757.2 1847.49   5
  -3  -3  -2 20175.4 835.974  19
   3  -3   3 3196.76 346.804  15
  -3  -3  -3 4373.03 409.169  25
  -3   3  -3 4094.64 672.645   7
   3   3   3 3658.00 806.709   6
  -3  -3  -3 3636.05 356.177  19
  -3  -3  -3 4559.35 840.213   5
   3  -3   3 4078.83 359.308  16
  -3   3  -4 69437.7 2775.98   7
  -3  -3  -4 80285.7 1744.91  25
   3   3   4 81146.1 3876.06   6
   3   3   4 71098.9 1727.46  10
  -3  -3  -4 77000.8 3488.52   5
  -3  -3  -4 65719.9 1536.76  19
   3  -3   4 76395.4 1503.33  16
   3   3   5 53046.1 3210.64   6
   3   3   5 55079.3 1564.58  10
   3  -3   5 51509.7 1214.26  16
   3   3   6 8645.09 648.840  10
   3  -3   6 8795.71 583.019   9
   3   3   7 309.570 140.318  24
   3   3   7 443.519 197.738  10
   3  -3   8 1164.06 226.207   9
   3   3   8 850.104 213.685  24
   3   3   8 1280.48 262.096  21
   3  -3   9 422.478 153.579   9
   3   3   9 370.520 183.862  24
   3   3   9 313.078 130.666  22
   3   3   9 365.123 166.945  21
   3  -3  10 904.507 190.665   9
   3   3  10 606.402 201.191  26
   3   3  10 852.756 207.948  24
   3   3  10 880.132 159.320  22
   3   3  10 771.534 188.942  21
   3   3  11 3628.59 367.062  26
   3   3  11 3402.00 333.363  24
   3   3  11 2892.16 267.285  12
   3   3  11 3048.20 292.091  21
   3  -3  11 3539.93 310.342   9
   3   3  12 2898.13 273.858  26
   3  -3  12 3036.12 246.187   9
   3  -4 -11 2385.55 190.072  19
  -3   4  11 3189.11 215.263  18
  -3   4  10 645.179 122.370  13
  -3   4  10 567.112 122.538  11
   3  -4 -10 555.244 126.417  19
  -3   4  10 545.087 124.731  18
  -3   4   9 3842.91 267.795  27
  -3   4   9 4179.22 322.242  13
  -3   4   9 4454.07 338.510  11
   3  -4  -9 4106.44 342.268  19
  -3   4   9 4032.89 294.959  18
  -3   4   8 2466.08 265.423  13
  -3   4   8 2083.39 225.251  27
  -3   4   8 2446.34 269.532  11
   3  -4  -8 2256.34 277.237  19
  -3   4   8 1958.98 218.738  18
  -3   4   7 7853.79 457.852  27
  -3   4   7 8805.64 510.993  13
  -3   4   7 8293.32 504.783  11
   3  -4  -7 8192.63 532.954  19
  -3   4   7 7396.20 430.745  17
  -3   4   6 7255.70 474.627  13
  -3   4   6 7651.84 469.697  27
  -3   4   6 7092.90 489.524  11
   3  -4  -6 7383.71 519.417  19
  -3   4   6 6807.46 442.878  17
  -3   4   5 25977.8 896.291  13
  -3   4   5 25972.3 927.481  11
  -3  -4   5 25427.4 990.866  20
   3  -4  -5 24685.8 948.020  19
  -3   4   4 32839.2 1011.76  13
  -3   4   4 33687.3 1063.44  11
  -3  -4   4 33298.5 1146.48  20
  -3   4   3 5667.34 421.608  13
  -3   4   3 5630.48 436.495  11
  -3  -4   3 5606.52 471.547  20
  -3   4   2 8061.53 491.109  13
  -3   4   2 8742.33 531.926  11
  -3  -4   2 8963.99 586.171  20
  -3   4   1 21468.5 769.810  13
  -3   4   1 22407.6 837.072  11
  -3  -4   1 24137.4 958.357  20
  -3   4   0 15671.9 676.872  27
  -3  -4   0 16149.9 782.230  20
  -3   4  -1 9649.35 520.190  27
  -3  -4  -1 9808.21 605.740  20
   3  -4   1 10014.6 587.771  16
  -3   4  -2 30219.3 886.011  27
   3  -4   2 31662.6 1021.57  16
  -3   4  -3 38065.9 1022.20  17
   3  -4   3 37272.0 1085.24  16
   3  -4   4 1154.71 218.276   9
   3   4   4 1203.66 237.405  24
  -3  -4  -4 967.565 170.600  19
   3  -4   4 1149.14 203.934  16
   3  -4   5 599.089 176.717   9
  -3  -4  -5 397.400 122.154  19
   3   4   6 3660.94 387.778  24
   3   4   6 3582.54 391.273  21
  -3  -4  -6 3713.74 316.612  19
   3  -4   6 3817.73 350.591   9
   3   4   7 3024.92 342.867  24
   3   4   7 3449.98 344.029  22
   3   4   7 3119.08 346.051  21
  -3  -4  -7 2874.79 254.807  19
   3  -4   7 3263.91 305.574   9
   3  -4   8 1395.31 200.105   9
   3   4   8 1422.80 229.640  26
   3   4   8 1373.83 232.537  24
   3   4   8 1516.48 209.796  22
   3   4   8 1334.92 211.136  21
   3   4   9 4250.11 338.498  26
   3   4   9 5029.66 314.944   8
   3   4   9 5685.66 375.588  12
   3   4   9 5195.50 332.512  22
   3   4   9 5246.73 369.766  21
   3  -4   9 5197.41 334.539   9
   3   4  10 8046.52 376.852  12
   3   4  10 7840.60 338.906  22
   3   4  10 8538.21 397.174  21
  -3   5   8 637.635 96.8414  11
  -3   5   7 962.748 126.357  13
  -3   5   7 766.180 107.826  27
  -3   5   7 877.435 128.445  11
  -3   5   6 179.330 70.1000  13
  -3   5   6 216.289 85.0975  11
  -3   5   6 115.252 65.4964  27
  -3   5   6 157.347 59.4033  17
   3  -5  -6 62.7229 43.3006  16
  -3   5   5 1617.87 179.701  27
  -3   5   5 1511.73 177.558  13
  -3   5   5 1672.51 197.369  11
  -3   5   5 1584.40 178.804  17
   3  -5  -5 1467.58 182.196  16
  -3   5   4 13713.7 539.137  13
  -3   5   4 14422.6 574.837  11
  -3   5   4 14879.2 555.886  17
  -3   5   4 15482.8 562.713  27
   3  -5  -4 15455.6 604.768  16
  -3   5   3 596.872 120.839  13
  -3   5   3 629.439 134.232  27
  -3   5   3 544.398 127.377  11
  -3  -5   3 460.996 138.393  20
  -3   5   3 466.873 113.120  17
   3  -5  -3 479.269 127.825  16
  -3   5   2 35324.2 877.185  27
  -3   5   2 30319.2 772.317  13
  -3   5   2 30224.0 806.523  11
  -3  -5   2 33656.7 960.527  20
  -3   5   2 35731.8 905.426  17
   3  -5  -2 34416.9 923.536  16
  -3   5   1 565.577 110.253  27
  -3  -5   1 569.797 140.427  20
  -3   5   1 559.779 138.402  17
   3  -5  -1 574.021 124.482  16
  -3   5   0 27866.8 751.931  27
  -3  -5   0 28615.1 866.145  20
  -3   5   0 29729.5 833.839  17
   3  -5   0 28264.1 833.971  16
  -3   5  -1 642.263 123.834  27
  -3  -5  -1 333.854 101.831  20
  -3   5  -1 339.205 101.889  17
   3  -5   1 705.481 146.997  16
  -3  -5  -2 8398.05 441.977  20
  -3   5  -2 8373.28 415.278  17
   3  -5   2 9138.05 446.686  16
  -3  -5  -3 205.217 93.4240  20
  -3   5  -3-26.4117 46.0630  17
   3   5   4 446.181 108.606  12
   3   5   4 761.281 148.954  22
   3   5   4 481.242 112.156  21
  -3  -5  -4 785.807 125.801  20
   3   5   5 1351.37 170.552  12
   3   5   5 1178.62 160.736  21
  -3  -5  -5 1274.41 141.089  20
   3   5   6 1916.14 187.012  12
   3   5   6 2132.81 196.067  22
   3   5   6 1480.36 161.525  21
   3   5   7 4095.27 237.672   8
   3   5   7 4230.43 240.355  22
   4   0 -14 3275.05 281.231  15
  -4   0  14 3589.37 305.554  18
   4   0 -13 2926.89 312.101  15
  -4   0  13 3264.37 336.897  18
   4   0 -12 2605.89 325.555  15
  -4   0  12 2886.70 344.418  18
   4   0 -11 6773.36 522.770  15
  -4   0  11 6903.54 531.782  18
   4   0 -10 2547.70 331.292  15
  -4   0  10 2231.33 272.777  14
   4   0  -9 376.248 153.218  15
  -4   0   9 813.646 172.187  14
  -4   0   9 793.254 198.805  18
   4   0  -8 596.748 155.372  15
  -4   0   8 541.005 142.301  14
  -4   0   8 305.677 263.286   2
  -4   0   8 923.776 205.613  18
  -4   0   7 2467.72 614.598   2
  -4   0   7 2281.55 276.490  18
   4   0  -6 405.442 254.572   3
  -4   0   6 42.1659 146.672   2
   4   0  -5 3220.18 592.987   3
   4   0  -4 20232.1 1421.49   3
   4   0  -3 23420.8 1490.17   3
  -4   0   3 21940.2 1522.71   1
  -4   0   2 24291.4 1573.86   1
  -4   0   1 20086.5 1426.13   1
  -4   0   0 3002.18 557.369   1
  -4   0  -1 7206.51 876.552   3
  -4   0  -2 4353.92 685.898   3
  -4   0  -3 155353. 4372.67   3
  -4   0  -4 3286.83 683.232   3
  -4   0  -5-692.993 351.743   3
  -4   0  -6 4072.51 347.454  25
  -4   0  -6 2914.31 692.817   3
   4   0   7 531.526 137.595   9
  -4   0  -7 343.526 127.569  25
   4   0   8 497.686 163.212   9
   4   0   8 343.366 175.485  10
   4   0   9 28440.3 1111.06  10
   4   0   9 28046.6 1007.75   9
   4   0  10 72053.1 1563.79  23
   4   0  10 70366.2 1652.82  10
   4   0  10 69966.8 1584.45   9
   4   0  11 41554.7 1146.44  23
   4   0  11 38579.6 1129.70   9
   4   0  12 1095.84 181.581   9
   4   0  12 1558.37 218.043  23
   4   0  13 7570.59 388.356   9
   4  -1 -15 141.468 63.1043  15
  -4   1  15 167.689 68.9863  18
   4  -1 -14 5313.34 367.520  15
  -4   1  14 6157.19 386.695  18
   4  -1 -13 469.022 156.395  15
  -4  -1  13 357.954 137.260  18
  -4   1  13 331.664 134.303  18
   4  -1 -12 7455.98 546.210  15
  -4  -1  12 6679.51 483.412  18
  -4   1  12 8487.42 565.149  18
  -4   1  11 699.274 155.119  14
   4  -1 -11 874.824 231.245  15
  -4  -1  11 1124.96 230.126  18
   4  -1 -10 949.161 212.715  15
  -4  -1  10 1049.13 221.191  18
  -4   1  10 1034.78 231.584  18
   4  -1  -9 1612.03 265.909  15
   4  -1  -9 2175.77 653.035   3
  -4  -1   9 2030.81 274.311  18
  -4   1   9 1513.55 246.356  18
   4  -1  -8 2472.85 320.410  15
  -4  -1   8 2149.72 267.537  14
   4  -1  -8 2688.49 695.342   3
  -4   1   8 2192.54 633.178   2
  -4  -1   8 2806.42 335.825  18
  -4   1   8 2338.05 294.128  18
   4  -1  -7 1079.82 211.964  15
  -4  -1   7 1070.98 194.125  14
   4  -1  -7 1816.91 550.918   3
  -4   1   7 1797.70 612.795   2
  -4   1   7 1028.96 174.859  11
  -4  -1   7 1425.79 238.374  18
  -4   1   7 1357.05 213.182  18
   4  -1  -6 6293.59 469.581  15
   4  -1  -6 5954.88 924.869   3
  -4  -1   6 5811.08 845.143   2
  -4  -1   6 6519.07 467.963  18
  -4   1   6 6527.94 998.432   2
   4  -1  -5 4403.05 761.278   3
  -4   1   5 4973.69 592.394   7
   4  -1  -4 16435.0 1417.49   3
  -4   1   4 15056.2 1024.65   7
   4  -1  -3 16513.1 1347.72   3
  -4  -1   3 14815.5 1190.06   1
  -4   1   3 13682.4 1274.73   1
  -4   1   3 13851.3 978.891   7
   4  -1  -2 7698.86 927.364   3
  -4  -1   2 6200.55 763.783   1
  -4   1   2 7990.25 747.373   7
  -4   1   2 7239.45 891.786   1
  -4   1   1 18464.5 1420.21   1
  -4   1   1 16027.3 1050.79   7
  -4  -1   1 17268.0 1284.54   1
  -4   1   0 27588.6 1389.64   7
  -4  -1   0 26015.8 1621.71   1
  -4   1   0 25720.2 1671.29   1
  -4  -1   0 24631.8 1564.24   3
  -4   1  -1 14221.7 1024.26   7
  -4   1  -1 12213.7 1172.74   1
  -4  -1  -1 12588.5 1180.41   3
  -4   1  -2 6882.28 747.699   7
  -4  -1  -2 6823.35 928.866   3
  -4  -1  -3 3299.30 719.777   3
  -4   1  -3 3549.26 710.833   3
  -4  -1  -4 23430.7 1855.84   3
  -4   1  -4 22331.2 1771.68   3
  -4  -1  -5 42149.1 1151.18  25
  -4   1  -5 35132.8 945.808  25
  -4  -1  -5 41177.4 2591.81   3
  -4   1  -5 40392.5 2529.57   3
   4  -1   5 35459.5 1034.40   9
  -4  -1  -6 20245.0 826.298  25
  -4   1  -6 16838.5 675.547  25
  -4  -1  -6 19171.2 1845.48   3
   4  -1   6 17855.4 757.580   9
  -4   1  -6 16777.8 1692.38   3
  -4   1  -7 22514.2 804.107  25
  -4  -1  -7 25903.3 942.512  25
  -4  -1  -7 25375.8 2226.00   3
   4  -1   7 24763.8 920.610   9
  -4   1  -7 23010.2 2097.74   3
  -4  -1  -8 59154.7 1430.04  25
   4  -1   8 63216.9 1504.91  23
   4   1   8 64627.9 1717.92  10
   4  -1   8 60133.2 1473.07   9
   4   1   9 22593.5 1004.88  24
   4  -1   9 22289.6 913.159  23
   4   1   9 22734.7 1030.41  10
   4  -1   9 21561.0 900.633   9
   4   1  10 8824.60 596.338  24
   4  -1  10 9480.27 592.909  23
   4   1  10 9381.12 644.310  10
   4  -1  10 9737.42 599.620   9
   4  -1  11 1720.82 257.673   9
   4   1  11 1426.61 232.785  24
   4   1  11 1805.95 236.692  23
   4  -1  11 1612.22 251.099  23
   4   1  12 13912.1 675.026  26
   4   1  12 12670.5 532.749  23
   4  -1  12 13141.0 605.410   9
   4   1  13 4754.56 316.187  26
   4  -1  13 5632.22 347.962   9
   4  -2 -14 584.472 113.420  15
  -4   2  14 209.511 71.2551  18
   4  -2 -13 104.497 89.9553  15
  -4   2  13 150.453 86.1374  18
   4  -2 -12 572.683 168.695  15
  -4   2  12 617.203 129.724  14
  -4   2  12 454.346 142.738  18
   4  -2 -11 1373.69 265.898  15
  -4   2  11 1955.58 285.140  18
   4  -2 -10 6572.07 531.657  15
  -4   2  10 7742.59 544.494  18
   4  -2  -9 1644.61 298.787  15
  -4   2   9 1514.94 251.270  11
  -4   2   9 1691.14 268.893  18
  -4   2   8 13744.2 711.943  13
   4  -2  -8 13280.8 740.508  15
  -4   2   8 12919.0 685.436  11
  -4   2   8 12565.1 672.047  18
   4  -2  -7 5702.60 479.816  15
  -4   2   7 5893.05 457.500  13
  -4   2   7 5421.09 400.214  27
   4  -2  -7 6456.96 1110.20   3
  -4  -2   7 5393.61 454.541  14
  -4   2   7 5020.29 942.685   2
  -4   2   7 5240.97 440.302  11
  -4   2   7 5426.51 425.631  18
   4  -2  -6 1355.45 245.172  15
   4  -2  -6 1397.72 533.103   3
  -4  -2   6 1347.22 251.336  14
  -4   2   6 1525.14 234.596  13
  -4   2   6 1395.00 206.746  27
  -4   2   6 1353.45 225.654  11
  -4   2   6 992.033 179.254  18
  -4   2   6 1435.41 217.356  17
   4  -2  -5 118.098 218.566   3
   4  -2  -5 1321.75 226.785  15
  -4   2   5 1166.53 188.441  27
  -4  -2   5 1261.98 239.623  14
  -4   2   5 1884.63 565.681   2
  -4   2   5 1839.45 418.731   7
  -4   2   5 1107.90 187.431  13
  -4   2   5 1363.32 218.900  11
  -4   2   5 617.476 135.792  18
  -4   2   5 1097.79 182.202  17
   4  -2  -4 1790.33 529.295   3
   4  -2  -4 1835.89 253.611  15
  -4   2   4 1924.52 227.823  27
  -4  -2   4 2117.37 291.740  14
  -4   2   4 1475.63 376.585   7
  -4   2   4 2142.48 253.343  13
  -4   2   4 1927.78 244.844  11
  -4   2   4 1769.99 228.769  17
   4  -2  -3 939.339 367.337   3
   4  -2  -3 763.195 164.474  15
  -4  -2   3 998.073 193.522  14
  -4   2   3 459.886 214.145   7
  -4   2   3 943.443 159.523  27
  -4   2   3 928.016 170.525  11
  -4   2   3 1022.75 177.771  17
   4  -2  -2 13076.3 1339.14   3
  -4   2   2 13627.3 1122.08   7
   4  -2  -1 8778.96 1110.47   3
  -4   2   1 8299.39 869.860   7
  -4   2   1 7302.69 1019.69   1
   4  -2   0 2165.50 543.503   3
  -4   2   0 2284.50 557.930   1
  -4   2   0 1665.97 382.617   7
   4  -2   1 23540.0 1792.58   3
  -4   2  -1 23932.9 1798.47   1
  -4   2  -1 23100.6 1458.29   7
   4  -2   2 2710.22 321.188  15
  -4   2  -2 2993.42 546.239   7
  -4  -2  -2 3433.40 363.058  25
  -4   2  -2 3345.13 700.442   1
   4  -2   3 4849.92 428.705  15
  -4  -2  -3 4735.67 408.902  25
  -4   2  -3 4717.77 694.601   7
  -4   2  -3 3053.39 673.225   1
  -4  -2  -3 3735.88 736.818   3
  -4   2  -3 3576.37 306.571  17
   4  -2   4 10168.0 633.256  15
  -4  -2  -4 11532.5 655.455  25
  -4   2  -4 10566.9 1091.81   7
  -4   2  -4 9017.85 1175.91   1
  -4  -2  -4 11082.2 1340.61   3
  -4   2  -5 43373.1 1084.51  25
  -4  -2  -5 47478.7 1335.42  25
   4  -2   5 40939.9 1214.96  23
  -4  -2  -5 42148.7 2785.82   3
  -4   2  -6 15890.7 663.107  25
   4  -2   6 16033.1 790.323  23
   4   2   6 17645.6 906.905  10
  -4  -2  -6 17519.3 817.851  25
   4  -2   6 18016.3 798.244   9
  -4  -2  -7 76893.1 1705.85  25
   4  -2   7 77936.6 1771.50  23
   4   2   7 78263.3 1912.40  10
   4  -2   7 77625.3 1670.87   9
   4  -2   8 2170.30 282.212   9
   4  -2   8 1960.20 289.868  23
   4   2   8 1720.04 320.776  10
  -4  -2  -8 2196.43 293.437  25
   4  -2   9 463.025 167.520   9
  -4  -2  -9 376.512 133.172  25
   4   2   9 434.213 208.235  24
   4  -2   9 474.219 151.760  23
   4   2   9 29.2213 97.0073  21
   4   2   9 33.7130 169.530  10
   4   2  10 10658.6 649.985  24
   4   2  10 10300.5 580.701  21
   4  -2  10 11045.1 599.371   9
   4  -2  11 711.158 156.683   9
   4   2  11 330.285 127.493  24
   4   2  11 509.390 130.082  21
   4   2  12 1992.09 249.844  26
   4  -2  12 2140.83 232.399   9
   4  -2  13 471.300 103.435   9
   4  -3 -12 523.704 120.421  15
  -4   3  12 468.040 114.939  18
   4  -3 -11 1150.86 183.225  15
   4  -3 -11 768.277 140.344  19
  -4   3  11 1149.71 184.558  18
   4  -3 -10 5410.35 427.845  15
  -4   3  10 5503.84 398.667  11
  -4   3  10 5623.28 403.570  18
   4  -3  -9 3646.58 380.540  15
  -4   3   9 3969.63 362.804  13
  -4   3   9 3097.68 326.924  11
  -4   3   9 2571.60 285.108  18
  -4   3   8 4662.13 410.735  13
   4  -3  -8 4569.55 440.781  15
  -4   3   8 4002.53 337.358  27
  -4   3   8 4094.89 389.336  11
  -4   3   8 3376.62 326.024  18
   4  -3  -7 9113.48 623.819  15
  -4   3   7 8638.86 514.485  27
  -4   3   7 9833.12 584.785  13
  -4   3   7 8886.82 571.230  11
  -4   3   7 8059.75 492.152  18
  -4   3   7 8842.87 529.033  17
  -4   3   6 10327.2 571.037  27
   4  -3  -6 10822.8 679.808  15
  -4   3   6 11075.2 623.925  13
  -4   3   6 10098.4 599.011  11
  -4   3   6 9779.77 570.073  17
   4  -3  -5 2522.01 336.982  15
  -4   3   5 2267.34 286.547  27
  -4   3   5 2405.11 296.933  13
  -4   3   5 2488.48 302.293  11
  -4   3   5 2562.00 296.628  17
   4  -3  -4 8901.64 603.667  15
  -4   3   4 9106.17 542.918  13
  -4   3   4 7587.51 974.009   7
  -4   3   4 9230.28 559.381  11
  -4  -3   4 8044.26 539.003  20
  -4   3   4 8762.78 520.593  27
  -4   3   4 8882.37 537.363  17
   4  -3  -3 1048.22 440.126   3
   4  -3  -3 1697.30 279.935  15
  -4   3   3 1493.23 215.388  27
  -4   3   3 1549.99 227.102  13
  -4   3   3 1558.28 243.134  11
  -4  -3   3 986.347 185.448  20
  -4   3   3 1402.22 418.372   7
  -4   3   3 1761.19 242.706  17
   4  -3  -2 2180.34 621.897   3
   4  -3  -2 1972.46 289.089  15
  -4   3   2 1917.42 238.254  27
  -4   3   2 2161.24 248.517  13
  -4   3   2 2414.21 542.935   7
  -4   3   2 1900.97 252.650  11
  -4  -3   2 1964.55 261.063  20
  -4   3   2 2184.24 270.464  17
   4  -3  -1 5042.72 456.606  15
   4  -3  -1 5306.89 996.441   3
  -4   3   1 4826.26 369.442  27
  -4   3   1 4172.24 340.992  13
  -4   3   1 3814.65 670.112   7
  -4   3   1 5123.38 416.519  11
  -4   3   1 5084.60 386.562  17
   4  -3   0 5.79070 102.582  15
  -4   3   0 152.712 102.345  27
  -4   3   0-176.333 149.417   7
  -4  -3   0 199.090 136.631  25
  -4   3   0 259.689 106.496  11
  -4   3   0 285.525 102.525  17
   4  -3   1 6454.09 512.515  15
   4  -3   1 6234.85 1051.85   3
  -4   3  -1 6692.53 431.992  27
  -4   3  -1 6530.12 914.498   7
  -4  -3  -1 6939.37 533.475  25
  -4   3  -1 6771.64 453.689  17
   4  -3   2 7913.11 578.398  15
  -4  -3  -2 8912.93 625.940  25
  -4   3  -2 8388.63 483.461  27
  -4   3  -2 7318.80 968.184   7
  -4   3  -2 8727.92 503.395  17
   4  -3   2 8264.29 530.847  16
   4  -3   3 21826.1 958.942  15
   4   3   3 22893.7 1000.75  10
  -4   3  -3 24215.1 833.159  17
   4  -3   3 23080.3 856.078  16
  -4  -3  -4 4118.97 414.174  25
   4   3   4 3677.74 419.904  10
   4  -3   4 3342.54 326.825  16
  -4  -3  -5 30894.7 1096.60  25
   4   3   5 28013.8 1142.97  10
   4  -3   5 26319.8 836.532  16
   4  -3   5 30618.1 1051.84   9
  -4   3  -6 4634.27 361.420  25
   4   3   6 5373.99 513.010  10
   4  -3   6 5734.49 460.465   9
   4   3   7 9565.03 651.120  10
   4  -3   7 9952.17 585.978   9
   4   3   8 6495.06 530.452  24
   4   3   8 5957.43 427.158  22
   4   3   8 6449.32 516.451  21
   4  -3   8 6202.48 454.769   9
   4   3   9 3293.31 351.367  24
   4   3   9 3416.84 285.103  22
   4   3   9 3747.09 359.588  21
   4  -3   9 3917.67 348.329   9
   4   3  10 4658.90 400.183  26
   4   3  10 4827.70 382.849  24
   4   3  10 4777.62 357.963  21
   4  -3  10 4861.12 347.296   9
   4   3  11 3153.28 283.193  26
   4   3  11 2408.57 202.928  21
   4  -3  11 2573.91 223.171   9
   4  -4  -9 2797.57 240.277  15
  -4   4   9 1986.07 164.387  27
   4  -4  -8 3005.43 281.190  15
  -4   4   8 2975.43 269.371  13
  -4   4   8 2705.10 235.361  27
  -4   4   8 3474.81 296.795  11
   4  -4  -7 311.827 120.518  15
  -4   4   7 274.621 104.608  27
  -4   4   7 304.521 115.380  13
  -4   4   7 213.255 115.509  11
  -4   4   7 276.357 95.1641  17
   4  -4  -6 2143.29 267.294  15
  -4   4   6 2164.35 249.927  27
  -4   4   6 1998.21 263.752  11
  -4   4   6 1942.65 229.016  17
  -4   4   6 2222.02 262.825  13
   4  -4  -5 7540.39 502.696  15
  -4   4   5 7369.59 450.108  27
  -4   4   5 7644.77 475.383  13
  -4   4   5 7671.25 499.322  11
  -4   4   5 6628.57 434.123  17
   4  -4  -4 9676.35 584.317  15
  -4   4   4 10984.6 567.920  13
  -4   4   4 10013.0 522.758  27
  -4   4   4 10489.0 579.358  11
  -4   4   4 11153.0 577.972  17
   4  -4  -3 1514.26 242.650  15
  -4   4   3 1521.14 220.492  13
  -4   4   3 1425.57 219.516  27
  -4   4   3 1683.08 243.560  11
  -4  -4   3 1267.04 217.152  20
  -4   4   3 1299.38 210.545  17
   4  -4  -2 1672.91 258.927  15
  -4   4   2 1909.89 245.183  27
  -4   4   2 1818.40 229.667  13
  -4   4   2 1666.57 237.097  11
  -4  -4   2 1828.11 247.785  20
  -4   4   2 2040.81 254.631  17
   4  -4  -1 523.529 149.021  15
  -4   4   1 473.745 134.323  27
  -4  -4   1 534.161 148.057  20
  -4   4   1 668.489 166.202  17
   4  -4   0 6423.85 480.817  15
  -4   4   0 7079.68 444.652  27
  -4  -4   0 6491.62 456.643  20
  -4   4   0 7041.88 460.804  17
   4  -4   0 7847.37 526.679  16
  -4   4  -1 5707.79 391.713  27
  -4  -4  -1 5589.67 403.640  20
  -4   4  -1 6236.05 429.724  17
   4  -4   1 6173.29 456.492  16
  -4   4  -2 1863.50 219.093  27
  -4   4  -2 1800.03 234.273  17
   4  -4   2 2226.17 277.098  16
  -4   4  -3 3896.41 318.366  17
   4  -4   3 5724.61 406.999  16
   4   4   4 5300.21 465.024  24
   4  -4   4 4911.49 359.486  16
   4  -4   4 5726.47 446.682   9
  -4   4  -5 11272.8 487.913  25
   4   4   5 12930.1 687.655  24
   4  -4   5 13439.4 639.360   9
   4  -4   6-11.5162 84.3902   9
   4   4   6 192.388 133.221  24
   4   4   7 2365.65 268.022  24
   4   4   7 2866.56 269.833  22
   4   4   7 2636.65 282.572  21
   4  -4   7 2792.22 263.452   9
   4  -4   8 840.503 145.044   9
   4   4   8 885.750 161.954  24
   4   4   8 971.745 138.374  22
   4   4   8 988.874 163.773  21
   4   4   9 4763.69 280.239  12
   4   4   9 4968.95 289.707  21
   4  -4   9 4113.75 247.333   9
  -4   5   6 683.185 99.1749  27
   4  -5  -6 547.639 87.1975  16
  -4   5   5 3635.20 231.164  27
  -4   5   5 3390.07 220.318  17
   4  -5  -5 3807.34 252.126  16
  -4   5   4 3282.97 230.858  27
  -4   5   4 3293.28 238.246  17
   4  -5  -4 3490.42 261.598  16
  -4   5   3 3025.59 232.607  27
  -4   5   3 3079.03 238.935  17
   4  -5  -3 3276.75 258.601  16
  -4   5   2 10244.6 423.630  27
  -4   5   2 11083.7 456.026  17
  -4   5   1 8079.67 371.395  27
  -4   5   1 8506.76 404.689  17
   4  -5  -1 9226.61 429.534  16
  -4   5   0 2272.44 189.414  27
  -4  -5   0 2237.12 192.768  20
  -4   5   0 2803.51 235.002  17
   4  -5   0 2931.05 244.286  16
  -4   5  -1 2045.34 193.260  17
   4  -5   1 2147.46 204.497  16
   4  -5   1 1901.53 196.644   9
   4  -5   2 1199.83 149.964   9
  -4   5  -2 1174.92 139.811  17
  -4   5  -3 3089.97 204.956  25
   4  -5   3 2849.04 212.227   9
   4   5   4 1026.64 142.616  22
   4   5   5 1737.60 156.743  22
  -5   0  14 5986.31 340.850  18
  -5   0  13 7661.90 459.381  18
  -5   0  12 768.396 186.167  18
   5   0 -11 13590.5 675.097  15
  -5   0  11 13629.3 619.767  14
  -5   0  11 15109.2 751.662  18
   5   0 -10 23237.7 910.583  15
  -5   0  10 22662.6 856.447  14
  -5   0  10 25285.4 981.770  18
   5   0  -9 11958.1 661.923  15
  -5   0   9 11640.6 632.389  14
  -5   0   9 13426.3 728.781  18
   5   0  -8 133.555 92.3850  15
  -5   0   8 19.7479 113.272  14
  -5   0   8-40.0523 133.721  18
   5   0  -7 5581.53 446.749  15
  -5   0   7 5447.80 430.571  14
  -5   0   7 5663.89 1026.49   2
  -5   0   7 6015.50 476.221  18
  -5   0   6 2130.04 260.548  14
  -5   0   6 2833.10 323.582  18
   5   0  -5 4224.50 761.749   3
  -5   0   5 4940.33 384.112  14
  -5   0   5 3899.33 326.421  27
  -5   0   5 5191.34 415.668  18
  -5   0   4 263.143 99.0027  27
  -5   0   4 158.903 79.6936  14
  -5   0   4 201.976 83.8783  18
  -5   0   3 136980. 4462.93   1
   5   0  -3 151947. 4482.45   3
   5   0  -2 443.247 392.410   3
  -5   0   2 297.531 239.309   1
  -5   0   1 2881.01 642.431   1
  -5   0   0 671.987 331.344   1
  -5   0  -1 4185.93 785.084   1
  -5   0  -2 3072.14 287.076  25
  -5   0  -2 2842.40 290.914  27
   5   0   3 368.451 111.262  15
  -5   0  -3 501.370 148.084  25
  -5   0  -3 695.173 352.335   3
  -5   0  -4 1579.88 248.744  25
  -5   0  -4 2634.35 654.868   3
  -5   0  -5 480.353 169.356  25
  -5   0  -5-199.231 194.741   3
  -5   0  -6-58.1999 118.929  25
  -5   0  -7 861.368 203.372  25
  -5   0  -8 5848.89 441.845  25
   5   0   8 5988.86 507.311  10
   5   0   9 71.1346 107.038  10
   5   0  10 28012.5 906.893  23
   5   0  10 24338.0 868.946  10
   5   0  11 193.538 100.523  23
   5   0  12 6303.96 356.442  23
  -5   1  14 4446.41 282.079  18
   5  -1 -13 6521.46 395.410  15
  -5   1  13 7108.73 428.310  18
   5  -1 -12 1737.01 242.292  15
  -5   1  12 2309.80 294.403  18
   5  -1 -11 220.886 118.258  15
  -5   1  11 249.513 101.743  14
  -5  -1  11 305.243 157.102  18
  -5   1  11 380.998 169.973  18
   5  -1 -10 3081.84 366.744  15
  -5   1  10 2944.56 328.236  14
  -5  -1  10 3829.93 395.216  18
  -5   1  10 3727.75 393.577  18
  -5  -1  10 3223.19 334.065  14
   5  -1  -9 8740.72 605.853  15
  -5  -1   9 8183.17 530.455  14
  -5  -1   9 8486.66 586.482  18
  -5   1   9 10163.2 635.426  18
   5  -1  -8 19824.9 906.961  15
  -5  -1   8 19440.0 828.292  14
  -5  -1   8 21427.5 908.294  18
  -5   1   8 21568.9 913.804  18
   5  -1  -7 7650.01 556.970  15
   5  -1  -7 6602.60 1049.73   3
  -5  -1   7 7240.56 521.759  14
  -5   1   7 7198.07 1177.97   2
  -5  -1   7 7797.03 551.800  18
  -5   1   7 8200.43 556.236  18
   5  -1  -6 19198.8 860.651  15
   5  -1  -6 19626.1 1837.38   3
  -5  -1   6 18992.1 813.496  14
  -5   1   6 17254.9 701.743  27
  -5  -1   6 21352.0 881.816  18
  -5   1   6 20627.1 835.039  18
   5  -1  -5 76338.6 1670.85  15
   5  -1  -5 76096.7 3504.17   3
  -5  -1   5 78593.4 1604.46  14
  -5   1   5 72808.0 1424.26  27
  -5  -1   5 80607.3 1686.68  18
  -5   1   5 70187.3 1486.45  18
   5  -1  -4 16210.4 761.411  15
   5  -1  -4 16974.9 1593.88   3
  -5   1   4 16588.3 669.570  27
  -5  -1   4 16750.1 727.095  14
  -5  -1   4 17672.4 783.616  18
   5  -1  -3 11273.4 626.684  15
   5  -1  -3 11448.8 1320.43   3
  -5   1   3 11455.1 550.833  27
  -5  -1   3 12301.9 609.504  14
   5  -1  -2 5023.68 417.899  15
   5  -1  -2 6387.54 991.472   3
  -5   1   2 5143.37 361.840  27
  -5  -1   2 5027.49 387.854  14
  -5  -1   2 5100.21 872.552   1
  -5   1   2 3859.26 759.639   1
   5  -1  -1 11757.8 1277.16   3
   5  -1  -1 9319.83 567.353  15
  -5  -1   1 10635.2 1241.26   1
  -5  -1   1 9845.14 540.730  14
  -5   1   1 9666.29 489.233  27
  -5   1   1 8814.21 1142.26   1
  -5   1   1 8416.63 453.247  25
   5  -1   0 5300.29 436.681  15
  -5   1   0 4825.92 854.193   1
  -5  -1   0 5005.76 407.088  25
  -5   1   0 5393.35 368.309  25
  -5   1   0 5654.47 377.290  27
  -5  -1   0 5268.70 869.312   1
  -5  -1  -1 2644.24 301.970  25
   5  -1   1 2332.50 301.207  15
  -5   1  -1 2130.67 240.342  27
  -5  -1  -1 1782.38 529.409   1
  -5   1  -1 2511.94 259.672  25
  -5   1  -1 2025.10 567.136   1
   5  -1   2 1962.39 279.599  15
  -5  -1  -2 2561.49 298.181  25
  -5   1  -2 2299.37 250.245  25
  -5   1  -2 2076.93 248.148  27
  -5   1  -2 3458.06 702.838   1
  -5  -1  -2 2488.71 623.241   3
   5  -1   3 1184.85 227.962  15
  -5   1  -3 1297.99 206.941  27
  -5   1  -3 1256.12 456.782   1
  -5   1  -3 1579.72 227.121  25
  -5  -1  -3 1463.26 238.210  25
  -5  -1  -3 1041.57 420.154   3
   5  -1   4 575.809 145.998   9
  -5   1  -4 210.824 86.0226  27
   5  -1   4 262.977 127.224  15
  -5  -1  -4 203.599 107.566  25
  -5   1  -4 236.060 121.557  25
  -5  -1  -5 2680.85 330.397  25
  -5   1  -5 2184.24 275.027  25
  -5  -1  -5 3003.92 772.236   3
   5  -1   5 2489.66 299.041   9
   5  -1   6 742.298 170.570   9
  -5  -1  -6 879.933 220.925  25
  -5   1  -6 1008.48 208.392  25
   5  -1   7 314.527 143.817   9
  -5  -1  -7 816.623 204.109  25
  -5   1  -7 513.175 168.119  25
   5  -1   7 719.049 189.062  23
   5   1   7 618.865 233.430  10
  -5   1  -8 4245.46 365.480  25
  -5  -1  -8 4530.96 414.098  25
   5  -1   8 4623.44 428.575  23
   5   1   8 4377.12 465.803  10
   5  -1   8 4584.10 407.886   9
  -5  -1  -9 3250.12 315.050  25
   5   1   9 4297.29 414.422  24
   5  -1   9 4036.95 380.800  23
   5   1   9 3414.72 390.994  10
   5  -1   9 3490.82 337.314   9
   5   1  10 2091.09 262.776  24
   5  -1  10 2584.85 291.770  23
   5   1  10 2423.34 314.845  10
   5  -1  10 2226.35 263.751   9
   5  -1  11 5185.17 367.707  23
   5   1  11 5191.13 338.431  23
   5  -1  11 4361.80 327.099   9
   5   1  12 5997.87 337.968  26
   5   1  12 7941.54 348.773  23
   5  -2 -13 3192.45 243.369  15
  -5   2  13 3292.95 243.535  18
   5  -2 -12 1615.96 212.886  15
  -5   2  12 1169.91 144.722  14
  -5   2  12 1677.75 213.178  18
   5  -2 -11 1010.12 212.306  15
  -5   2  11 1491.17 203.439  14
  -5   2  11 1140.30 196.951  18
   5  -2 -10 15975.3 749.456  15
  -5   2  10 16424.7 740.271  18
   5  -2  -9 420.920 177.160  15
  -5   2   9 537.723 158.891  18
   5  -2  -8 10208.3 650.668  15
  -5   2   8 9301.43 516.712  27
  -5  -2   8 8764.02 579.516  14
  -5   2   8 9910.06 596.723  18
   5  -2  -7 68107.9 1651.49  15
  -5  -2   7 67398.1 1617.95  14
  -5   2   7 64615.4 1404.81  27
  -5   2   7 66634.9 1497.45  18
   5  -2  -6 22606.0 946.662  15
  -5  -2   6 22476.7 959.262  14
  -5   2   6 22230.7 834.512  27
  -5   2   6 20438.6 806.344  18
   5  -2  -5 21568.4 921.876  15
  -5   2   5 21657.3 813.005  27
  -5   2   5 19033.3 1969.01   2
  -5   2   5 20530.1 860.079  17
  -5  -2   5 23202.3 994.004  14
   5  -2  -4 3392.05 367.454  15
   5  -2  -4 2885.47 726.086   3
  -5   2   4 3121.58 312.930  27
  -5  -2   4 3372.51 386.977  14
  -5   2   4 1703.33 436.984   7
  -5   2   4 3303.70 346.612  17
   5  -2  -3 7791.22 540.349  15
   5  -2  -3 7157.70 1103.16   3
  -5   2   3 8180.94 487.951  27
  -5   2   3 5839.22 807.531   7
  -5  -2   3 7809.28 554.183  14
  -5   2   3 7728.92 501.623  17
   5  -2  -2 369.597 277.197   3
   5  -2  -2 1154.55 210.653  15
  -5  -2   2 887.063 207.865  14
  -5   2   2 420.787 218.226   7
  -5   2   2 851.260 161.636  27
  -5   2   2 1133.72 198.332  17
   5  -2  -1 2377.49 636.844   3
   5  -2  -1 2331.88 305.777  15
  -5   2   1 2462.19 269.134  27
  -5  -2   1 2358.90 306.401  14
  -5  -2   1 2187.66 280.725  25
  -5   2   1 1735.95 439.299   7
  -5   2   1 3444.29 768.394   1
  -5   2   1 2394.62 277.549  17
   5  -2   0 4616.30 892.666   3
   5  -2   0 3912.06 389.883  15
  -5   2   0 3878.43 334.147  27
  -5  -2   0 3982.86 386.898  25
  -5   2   0 3225.70 794.243   1
  -5   2   0 3789.48 650.433   7
  -5   2   0 3755.30 341.322  17
   5  -2   1 8061.50 562.053  15
   5  -2   1 8789.34 1261.13   3
  -5   2  -1 6504.60 864.527   7
  -5   2  -1 8308.41 483.462  27
  -5  -2  -1 7859.02 563.735  25
  -5   2  -1 7705.42 492.554  17
  -5   2  -1 6312.26 1091.05   1
   5  -2   2 1575.96 551.462   3
   5  -2   2 1084.26 214.200  15
  -5   2  -2 1167.83 197.330  27
  -5   2  -2 1015.02 354.915   7
  -5  -2  -2 1273.82 236.442  25
  -5   2  -2 963.413 435.475   1
  -5   2  -2 763.960 171.221  17
  -5   2  -3 437.206 297.647   1
   5  -2   3 933.599 217.841  15
  -5   2  -3 829.978 175.734  27
  -5  -2  -3 1014.75 215.392  25
  -5   2  -3 967.464 204.432  25
   5  -2   4 545.015 172.641  15
  -5  -2  -4 724.793 220.387  25
  -5   2  -4 528.468 167.064  25
  -5  -2  -5 3614.90 385.464  25
  -5   2  -5 3166.50 329.090  25
   5  -2   5 2515.62 303.632  23
   5  -2   5 2946.22 336.599   9
   5  -2   6 1586.25 255.794   9
  -5   2  -6 1715.75 248.470  25
  -5  -2  -6 1858.83 287.254  25
   5  -2   6 1553.02 253.535  23
   5   2   6 1503.53 304.839  10
  -5  -2  -7 2363.20 306.935  25
  -5   2  -7 2180.86 254.499  25
   5  -2   7 2620.52 321.188  23
   5   2   7 2151.12 321.418  10
   5  -2   7 2568.77 309.796   9
   5  -2   8 366.955 144.520   9
  -5  -2  -8 709.813 179.754  25
   5  -2   8 600.480 169.055  23
   5   2   8 618.141 190.290  10
   5  -2   9 1109.46 203.788   9
   5   2   9 1190.36 211.378  24
   5   2   9 1231.69 193.533  21
   5   2   9 1235.36 258.302  10
   5  -2  10 1391.45 202.998   9
   5   2  10 1494.74 219.079  24
   5  -2  11 379.772 98.7802   9
   5   2  11 468.266 105.400  24
   5   2  11 220.436 63.2502  23
  -5   3  11 6408.72 314.905  14
  -5   3  11 6083.86 316.794  18
   5  -3 -10 16159.8 645.073  15
  -5   3  10 13824.8 540.104  18
   5  -3  -9 24174.8 858.263  15
  -5   3   9 20539.3 693.069  18
   5  -3  -8 11347.9 626.748  15
  -5   3   8 9702.27 488.221  27
   5  -3  -7 19516.3 849.854  15
  -5   3   7 17218.9 691.863  27
   5  -3  -6 3886.55 401.892  15
  -5   3   6 3903.48 347.712  27
  -5   3   6 3995.83 374.151  17
   5  -3  -5 6199.82 510.703  15
  -5   3   5 5858.83 423.489  27
  -5   3   5 6118.71 460.845  13
  -5   3   5 5188.35 426.731  17
   5  -3  -4 1028.67 223.239  15
  -5   3   4 1329.34 210.530  27
  -5   3   4 1227.19 218.463  13
  -5   3   4 1391.80 244.364  17
   5  -3  -3 1513.29 264.246  15
  -5   3   3 1617.04 228.284  27
  -5   3   3 1287.34 210.304  13
  -5   3   3 1329.13 216.553  17
   5  -3  -2 6118.71 512.452  15
  -5   3   2 5972.50 435.270  27
  -5   3   2 5700.44 440.563  17
   5  -3  -1 5976.47 498.252  15
  -5   3   1 5361.04 402.117  27
  -5   3   1 5551.85 429.339  17
   5  -3   0 5248.18 475.507  15
  -5   3   0 4918.81 389.017  27
  -5  -3   0 4348.40 406.601  25
  -5   3   0 4984.58 413.621  17
   5  -3   1 752.339 197.686  15
  -5   3  -1 859.883 179.051  27
  -5  -3  -1 722.267 205.412  25
  -5   3  -1 887.167 185.769  17
   5  -3   2 1762.52 234.282  16
   5  -3   2 1967.63 306.205  15
  -5   3  -2 2131.38 256.206  27
  -5  -3  -2 2083.84 325.428  25
  -5   3  -2 1957.10 255.821  17
   5  -3   3 1971.09 308.813  15
  -5  -3  -3 2243.24 315.994  25
   5   3   3 1974.85 299.223  10
  -5   3  -3 2007.67 253.998  17
   5  -3   3 1747.61 224.147  16
  -5  -3  -4 4311.27 413.998  25
  -5   3  -4 3964.99 336.789  25
   5   3   4 4199.37 435.071  10
   5  -3   5 1726.54 249.671   9
  -5  -3  -5 2037.60 284.971  25
  -5   3  -5 1498.64 216.577  25
   5   3   5 1706.65 277.355  10
  -5   3  -6 4697.42 335.467  25
   5   3   6 4791.38 450.002  10
   5  -3   6 4743.95 394.088   9
   5  -3   7 1007.74 202.161   9
   5   3   7 1061.80 229.573  24
   5   3   7 1185.72 226.449  10
   5   3   8 5376.53 422.423  24
   5   3   8 4906.34 384.394  21
   5  -3   8 5190.63 370.529   9
   5   3   9 2740.40 272.646  24
   5   3   9 2507.47 236.028  21
   5  -3   9 2768.74 246.631   9
   5  -3  10 144.754 70.7163   9
   5   3  10-77.8499 77.0506  26
   5   3  10-25.6953 60.6503  24
   5  -4  -8 784.088 126.696  15
  -5   4   8 751.624 104.142  27
   5  -4  -7 2348.88 235.205  15
  -5   4   7 2209.25 204.505  27
   5  -4  -6 3572.51 315.898  15
  -5   4   6 3438.78 270.564  27
  -5   4   6 2893.28 252.947  17
   5  -4  -5 508.316 154.149  15
  -5   4   5 485.132 125.472  27
  -5   4   5 467.740 129.611  17
   5  -4  -4 2065.60 256.850  15
  -5   4   4 2244.83 245.065  27
  -5   4   4 2195.77 249.182  17
   5  -4  -3 12777.2 641.580  15
  -5   4   3 12654.3 557.171  27
  -5   4   3 12102.3 565.165  17
   5  -4  -2 6774.22 477.645  15
  -5   4   2 6837.73 413.633  27
  -5   4   2 6439.16 419.086  17
   5  -4  -1 3995.31 359.753  15
  -5   4   1 4566.81 334.225  27
  -5   4   1 4781.28 366.986  17
   5  -4  -1 4857.92 391.342  16
   5  -4   0 3347.79 332.790  15
  -5   4   0 4179.53 320.597  27
  -5   4   0 3789.65 319.338  17
   5  -4   0 4464.30 356.480  16
   5  -4   1 776.375 170.062  15
  -5   4  -1 772.754 136.826  27
  -5   4  -1 819.308 156.976  17
   5  -4   1 662.575 146.662  16
  -5   4  -2 597.543 137.496  17
   5  -4   2 475.489 117.738  16
  -5   4  -3 1980.10 218.192  25
   5  -4   3 1874.26 201.962  16
   5  -4   3 2182.56 259.683   9
  -5   4  -4 2750.94 239.002  25
   5   4   4 3075.19 310.634  24
   5  -4   4 3202.91 294.241   9
  -5   4  -5 1317.27 149.707  25
   5   4   5 1237.79 192.840  24
   5  -4   5 1800.29 213.694   9
   5  -4   6 571.103 114.489   9
   5   4   6 458.896 122.073  24
   5   4   6 574.876 115.376  22
   5   4   6 491.786 120.245  21
   5  -4   7 703.588 114.273   9
   5   4   7 620.779 118.226  24
   5   4   7 395.268 79.4555  22
   5   4   7 659.486 114.393  21
  -5   5   3 1962.44 149.152  27
   5  -5  -3 2234.92 163.608  16
  -5   5   2 2283.27 160.021  27
  -5   5   2 2553.03 167.922  25
  -5   5   1 1552.25 134.468  25
   5  -5  -1 1290.34 145.517   9
  -5   5   0 28.2207 46.5140  25
  -5   5  -1 1858.90 145.871  25
  -6   0  12 6320.76 411.473  18
  -6   0  11-53.6523 77.9594  14
  -6   0  11 262.442 131.119  18
  -6   0  10 99.7181 100.615  14
  -6   0  10 165.617 130.608  18
  -6   0   9 12373.6 645.306  14
  -6   0   9 12537.0 686.749  18
  -6   0   8 4521.50 410.143  14
  -6   0   8 4436.11 425.653  18
  -6   0   7 1481.50 269.522  14
  -6   0   7 1596.98 290.148  18
  -6   0   6 1141.57 199.804  27
  -6   0   6 1216.98 232.357  14
  -6   0   6 1484.75 262.116  18
  -6   0   5 505.346 130.546  27
  -6   0   5 450.467 160.336  14
  -6   0   5 355.966 157.610  18
  -6   0   4 59667.3 1378.72  27
  -6   0   4 61284.0 1401.58  14
  -6   0   4 59480.6 1464.75  18
  -6   0   3 28061.8 941.724  27
  -6   0   3 27542.4 932.195  14
   6   0  -2 208187. 6065.03   3
  -6   0   2 226115. 2653.83  27
  -6   0   2 224569. 2622.57  14
  -6   0   2 213006. 2541.74  25
  -6   0   2 229339. 6609.41   1
   6   0  -1 1575.75 533.973   3
  -6   0   1 1365.45 320.424   1
  -6   0   1 1638.49 242.468  27
  -6   0   1 1665.67 243.706  14
  -6   0   1 1827.20 247.039  25
  -6   0   0 198.038 120.058  27
  -6   0   0 1.79394 85.8417  14
  -6   0   0 129.437 83.7670  25
  -6   0  -1 61.1873 123.016   1
  -6   0  -1 40.2036 98.3098  27
  -6   0  -1 29.5654 109.401  25
   6   0   2 1879.68 258.157  15
  -6   0  -2 1949.37 270.283  25
  -6   0  -2 1914.79 627.663   1
  -6   0  -3 8915.68 547.563  25
  -6   0  -4 1411.27 246.150  25
  -6   0  -5 3833.56 381.995  25
  -6   0  -6 4328.87 390.644  25
  -6   0  -7 1444.51 232.154  25
   6   0   7 1046.78 225.500  10
  -6   0  -8 751.700 161.367  25
   6   0   8 906.817 183.682  10
   6   0   9 10441.7 520.146  23
   6   0   9 8269.31 476.457  10
   6   0  10 236.530 96.2547  23
   6   0  11 540.083 103.247  23
  -6   1  13 3032.22 224.682  18
   6  -1 -12 2598.41 227.387  15
  -6   1  12 2226.01 191.533  14
   6  -1 -11 226.007 104.071  15
  -6   1  11 154.013 88.6191  14
   6  -1 -10 1243.61 211.345  15
  -6  -1  10 1218.81 195.879  14
  -6   1  10 1454.96 224.917  14
  -6   1  10 1382.71 233.914  18
   6  -1  -9 4787.03 415.805  15
  -6  -1   9 5165.11 414.825  14
  -6   1   9 6210.21 462.061  14
  -6   1   9 5828.10 464.671  18
   6  -1  -8 6083.46 481.176  15
  -6  -1   8 6608.85 490.231  14
  -6   1   8 7007.13 504.228  14
  -6   1   8 6652.16 500.185  18
  -6   1   7 16704.1 704.312  27
   6  -1  -7 17277.2 815.757  15
  -6  -1   7 18543.8 816.535  14
  -6   1   7 17651.1 778.356  14
  -6   1   7 18735.8 812.756  18
   6  -1  -6 2012.45 291.974  15
  -6   1   6 1999.77 282.778  14
  -6  -1   6 1612.01 260.150  14
  -6   1   6 1892.77 250.078  27
  -6   1   6 2128.83 280.347  18
   6  -1  -5 44426.4 1314.95  15
  -6   1   5 44522.1 1183.20  27
  -6  -1   5 47350.8 1292.27  14
  -6   1   5 46241.0 1214.26  14
   6  -1  -4 71167.8 1664.77  15
  -6  -1   4 74771.9 1622.84  14
  -6   1   4 69083.9 1472.53  14
  -6   1   4 72655.7 1505.50  27
   6  -1  -3 7139.47 1150.89   3
   6  -1  -3 8731.16 587.460  15
  -6   1   3 8743.90 524.327  27
  -6  -1   3 9337.70 575.549  14
  -6   1   3 7838.74 492.989  14
  -6   1   3 8331.44 497.113  25
   6  -1  -2 26592.5 1019.47  15
   6  -1  -2 24108.0 2091.82   3
  -6   1   2 26118.3 2210.85   1
  -6  -1   2 27696.0 987.042  14
  -6   1   2 25126.0 865.067  14
  -6  -1   2 22698.8 866.700  25
  -6   1   2 26662.7 888.086  25
  -6   1   2 26016.8 885.115  27
   6  -1  -1 20282.2 897.800  15
   6  -1  -1 20206.6 1922.89   3
  -6  -1   1 21594.9 873.021  14
  -6   1   1 19054.0 745.057  14
  -6   1   1 20731.0 782.503  27
  -6  -1   1 20124.9 831.599  25
  -6   1   1 21337.8 784.894  25
  -6  -1   1 17802.3 1806.93   1
  -6   1   1 20131.0 1983.82   1
   6  -1   0 51816.4 1442.15  15
   6  -1   0 51534.0 3094.15   3
  -6   1   0 52390.9 1247.42  27
  -6  -1   0 45895.5 3005.07   1
  -6  -1   0 54471.4 1377.47  25
  -6   1   0 52232.6 1236.07  25
  -6   1   0 51534.6 3189.84   1
  -6  -1   0 53976.3 1379.29  14
   6  -1   1 15237.2 792.558  15
  -6   1  -1 16131.2 702.929  27
  -6  -1  -1 16044.9 758.151  14
  -6  -1  -1 16843.3 775.197  25
  -6   1  -1 15944.3 684.079  25
   6  -1   2 386.320 150.883  15
  -6   1  -2 616.219 155.552  27
  -6  -1  -2 350.426 145.497  25
  -6   1  -2 604.121 148.673  25
  -6   1  -3 14546.5 682.206  27
  -6  -1  -3 16214.5 765.852  25
  -6   1  -3 15530.5 688.380  25
  -6  -1  -4 1843.15 284.261  25
  -6   1  -4 1904.82 260.702  25
  -6  -1  -5 7318.29 521.658  25
  -6   1  -5 7157.32 489.020  25
  -6  -1  -6 4486.60 412.936  25
  -6   1  -6 4302.73 373.670  25
   6  -1   6 3473.69 340.437  23
  -6  -1  -7 2754.75 306.955  25
  -6   1  -7 2698.43 292.102  25
   6  -1   7 2754.78 299.464  23
   6   1   7 2653.53 337.549  10
  -6  -1  -8 3375.70 311.471  25
  -6   1  -8 3574.34 297.603  25
   6  -1   8 3925.64 338.127  23
   6   1   8 3832.58 387.800  10
  -6  -1  -9 764.576 135.881  25
   6   1   9 773.404 179.954  10
   6  -1  10 36.3916 68.0789  23
   6   1  10 149.023 78.0844  23
   6  -2 -12 519.678 95.7468  15
   6  -2 -11 4618.93 316.941  15
  -6   2  11 4696.13 293.629  14
  -6   2  11 4137.10 291.202  18
   6  -2 -10 1123.35 187.524  15
  -6   2  10 998.773 173.935  14
  -6   2  10 879.750 165.395  18
   6  -2  -9 5945.24 433.211  15
  -6   2   9 5786.58 414.293  14
  -6   2   9 5477.87 386.510  18
   6  -2  -8 5249.20 430.544  15
  -6   2   8 4731.16 344.096  27
  -6   2   8 4640.55 367.423  18
   6  -2  -7 24280.3 938.784  15
  -6  -2   7 24611.3 952.508  14
  -6   2   7 21789.9 785.724  27
   6  -2  -6 32704.8 1120.61  15
  -6  -2   6 34499.3 1160.70  14
  -6   2   6 31871.1 990.594  27
   6  -2  -5 11193.5 671.787  15
  -6   2   5 11018.4 594.115  27
  -6  -2   5 12161.4 718.172  14
   6  -2  -4 14.9588 117.804  15
  -6   2   4 36.6527 93.3215  27
  -6  -2   4 189.059 141.259  14
  -6   2   4-8.03705 62.4002  25
   6  -2  -3 7154.48 545.717  15
  -6  -2   3 6975.15 536.136  14
  -6   2   3 6719.94 456.184  27
  -6   2   3 6359.51 426.851  25
   6  -2  -2 12497.2 714.906  15
  -6  -2   2 13108.3 741.599  14
  -6   2   2 12111.0 609.679  27
  -6   2   2 11550.1 579.579  25
   6  -2  -1 243.297 144.561  15
  -6   2   1 346.216 134.703  27
  -6  -2   1 40.3154 101.493  25
  -6   2   1 270.050 120.342  25
   6  -2   0 36375.3 1229.92  15
  -6   2   0 34879.5 1033.86  27
  -6  -2   0 34233.6 1138.35  25
  -6   2   0 34788.2 1006.62  25
   6  -2   1 4215.68 433.351  15
  -6   2  -1 4957.58 398.649  27
  -6  -2  -1 5220.44 461.203  25
  -6   2  -1 4642.83 370.381  25
   6  -2   2 34230.9 1209.34  15
  -6   2  -2 34392.0 1018.19  27
  -6   2  -2 34201.6 998.421  25
   6  -2   3 4678.10 458.600  15
  -6   2  -3 5258.12 398.017  27
  -6  -2  -3 5252.24 456.616  25
  -6   2  -3 5570.42 413.143  25
  -6  -2  -4 3582.92 376.604  25
  -6   2  -4 3886.92 354.373  25
   6  -2   4 3764.65 362.076   9
  -6  -2  -5 5339.83 440.889  25
  -6   2  -5 5055.86 395.386  25
   6  -2   5 5043.11 401.399   9
  -6  -2  -6 3242.01 336.815  25
  -6   2  -6 3444.82 314.467  25
   6   2   6 3025.68 368.603  10
   6  -2   6 2972.01 312.299   9
  -6  -2  -7 2036.06 261.189  25
  -6   2  -7 1870.70 220.393  25
   6   2   7 2034.76 292.915  10
   6  -2   7 1873.88 234.622   9
  -6  -2  -8 2498.71 244.020  25
   6   2   8 2840.59 306.114  24
   6   2   8 3062.15 316.578  10
   6  -2   8 2553.55 247.490   9
   6   2   9 1870.56 207.347  24
   6  -2   9 1512.85 174.821   9
   6  -3 -10 327.788 85.4996  15
  -6   3  10 281.481 83.9025  14
   6  -3  -9 4427.06 307.544  15
  -6   3   9 4340.03 283.828  14
   6  -3  -8 3091.06 291.013  15
  -6   3   8 2415.13 208.969  27
   6  -3  -7 6080.64 424.329  15
  -6   3   7 5160.20 338.208  27
   6  -3  -6 1931.47 266.952  15
  -6   3   6 1948.13 236.246  27
   6  -3  -5 21270.1 856.739  15
  -6   3   5 20499.8 736.057  27
   6  -3  -4 14737.8 724.086  15
  -6   3   4 14712.3 627.560  27
  -6   3   4 13132.5 552.182  25
  -6   3   3 4815.69 372.222  27
  -6   3   3 4129.63 330.121  25
   6  -3  -2 3953.47 404.616  15
  -6   3   2 3957.66 345.243  27
  -6   3   2 3593.31 317.215  25
   6  -3  -1 10188.1 629.812  15
  -6   3   1 10474.7 537.977  27
  -6   3   1 10077.8 513.709  25
   6  -3   0 10652.7 649.840  15
  -6   3   0 9722.43 514.878  27
  -6   3   0 10406.3 521.964  25
   6  -3   0 9121.96 496.457  16
   6  -3   1 406.468 159.706  15
  -6   3  -1 322.859 126.973  27
  -6  -3  -1 200.768 104.140  25
  -6   3  -1 444.175 148.619  25
   6  -3   2 9182.79 598.350  15
  -6   3  -2 9091.66 475.780  27
  -6  -3  -2 10957.0 619.423  25
  -6   3  -2 10340.4 518.057  25
   6   3   2 9529.19 591.755  10
   6  -3   3 662.681 174.745   9
  -6  -3  -3 592.511 158.223  25
  -6   3  -3 554.069 137.006  25
   6   3   3 498.802 149.938  10
  -6   3  -4 2292.26 233.152  25
   6   3   4 2359.12 290.409  10
   6  -3   4 2614.71 289.099   9
  -6   3  -5 4185.99 304.932  25
   6   3   5 4151.55 370.562  10
   6  -3   5 4184.08 336.361   9
  -6   3  -6 4360.38 284.434  25
   6   3   6 4300.91 350.113  10
   6  -3   6 4504.53 323.213   9
   6   3   7 5106.10 361.735  24
   6   3   7 4491.86 317.371  21
   6  -3   7 4733.90 305.235   9
   6   3   8 2220.04 206.830  24
   6  -3   8 1959.57 173.811   9
   6  -4  -6 910.070 127.495  15
  -6   4   6 892.517 113.616  27
  -6   4   6 626.384 93.6049  14
   6  -4  -5 3088.99 248.718  15
  -6   4   5 3105.11 222.674  27
   6  -4  -4 2220.40 224.662  15
  -6   4   4 2065.04 193.554  27
  -6   4   4 1559.71 148.306  25
   6  -4  -4 2288.70 218.331  16
   6  -4  -3 3145.66 277.104  15
  -6   4   3 3074.83 244.908  27
  -6   4   3 2569.77 203.615  25
   6  -4  -3 3102.31 255.092  16
   6  -4  -2 14036.4 583.981  15
  -6   4   2 14369.5 516.551  27
  -6   4   2 14120.8 488.050  25
   6  -4  -2 15699.7 552.224  16
   6  -4  -1 482.588 119.931  15
  -6   4   1 481.659 105.254  27
  -6   4   1 544.028 117.769  25
   6  -4  -1 415.026 94.7811  16
  -6   4   0 2852.17 223.695  27
  -6   4   0 3544.27 253.858  25
   6  -4   0 3283.13 234.322  16
  -6   4  -1 4895.68 272.932  27
   6  -4   1 5357.49 272.893  16
   6  -4   2 652.376 128.636   9
  -6   4  -2 563.355 102.978  25
   6   4   2 459.636 103.689  24
  -6   4  -3 1808.57 166.743  25
   6   4   3 1422.25 172.855  24
   6  -4   3 1828.51 191.008   9
  -6   4  -4 3243.20 200.010  25
   6  -4   4 4262.74 264.791   9
   6   4   5 2341.26 196.197  21
   6  -4   5 2534.06 187.893   9
  -7   0  11 21.8892 48.3105  14
  -7   0  10 156.308 96.1409  14
  -7   0   9 830.450 163.455  14
  -7   0   8 301.271 147.811  14
  -7   0   7 403.707 148.221  14
  -7   0   6 135.041 143.565  14
  -7   0   5 692.430 191.139  14
  -7   0   4 2873.82 329.225  14
  -7   0   3 10903.4 610.365  14
  -7   0   2 24194.7 886.377  14
  -7   0   2 23809.5 866.303  25
  -7   0   1 329.402 125.248  14
  -7   0   1 198.909 103.579  25
  -7   0   0 49.1922 107.673  25
  -7   0  -1 22237.6 862.140  25
  -7   0  -2 512.110 159.202  25
  -7   0  -3 1764.19 267.412  25
  -7   0  -4 1949.68 265.888  25
  -7   0  -5 7982.27 492.023  25
  -7   0  -6 2553.56 275.302  25
  -7   0  -7 6250.35 385.807  25
   7   0   7 6610.19 383.552  23
   7   0   7 6293.19 411.099  10
  -7   0  -8 456.707 103.509  25
   7   0   8 628.216 127.878  23
   7   0   9 839.558 114.085  23
  -7   1  11 1763.97 163.046  14
   7  -1 -10 93.3657 77.0836  15
  -7  -1  10-110.459 84.1612  14
  -7   1  10-23.7539 70.0364  14
   7  -1  -9 983.319 157.785  15
  -7  -1   9 1159.03 189.613  14
  -7   1   9 1158.30 182.413  14
  -7   1   9 834.532 150.694  18
   7  -1  -8 176.706 97.2820  15
  -7  -1   8 165.837 127.455  14
  -7   1   8 151.801 114.115  14
  -7   1   8 102.871 85.4460  18
   7  -1  -7 36.4292 82.9804  15
  -7  -1   7 96.2717 132.217  14
  -7   1   7 308.443 148.872  14
   7  -1  -6 165.065 113.241  15
  -7   1   6 223.239 103.803  27
  -7  -1   6 66.6589 149.794  14
  -7   1   6 223.063 147.788  14
   7  -1  -5 138.663 118.554  15
  -7   1   5 147.275 120.622  27
  -7  -1   5-63.2624 127.851  14
  -7   1   5-6.23533 105.852  14
   7  -1  -4 2249.12 281.497  15
  -7   1   4 2029.31 278.227  27
  -7  -1   4 2660.32 333.400  14
  -7   1   4 2113.98 269.963  14
   7  -1  -3 3657.99 375.448  15
  -7   1   3 3783.28 360.000  27
  -7  -1   3 3570.61 382.122  14
  -7   1   3 3440.80 328.991  14
  -7   1   3 3632.55 333.150  25
   7  -1  -2 4613.58 421.877  15
  -7   1   2 4680.49 391.379  27
  -7  -1   2 4845.15 439.274  14
  -7   1   2 4556.11 377.362  14
  -7  -1   2 4584.28 382.801  25
  -7   1   2 4609.73 373.821  25
   7  -1  -1 30406.8 1083.21  15
  -7   1   1 32324.1 999.782  27
  -7  -1   1 32222.8 1068.91  14
  -7  -1   1 29976.4 992.887  25
  -7   1   1 31898.2 990.485  25
   7  -1   0 12427.0 696.344  15
  -7   1   0 14259.3 669.844  27
  -7  -1   0 13024.4 670.973  25
  -7   1   0 13572.8 653.222  25
   7  -1   1 5405.54 468.006  15
  -7   1  -1 6621.35 467.970  27
  -7  -1  -1 6359.62 476.852  25
  -7   1  -1 6247.19 442.543  25
  -7  -1  -2 730.558 196.844  25
  -7   1  -2 931.703 205.107  25
  -7  -1  -3 11507.1 623.427  25
  -7   1  -3 12199.1 609.602  25
  -7  -1  -4 3126.87 321.082  25
  -7   1  -4 3437.64 329.642  25
  -7  -1  -5 65.1395 126.725  25
  -7   1  -5 157.764 110.170  25
  -7  -1  -6 3951.59 337.175  25
  -7   1  -6 4447.30 337.012  25
   7  -1   6 3469.39 277.311  23
   7   1   6 4918.23 427.908  10
  -7  -1  -7 612.230 131.564  25
  -7   1  -7 810.402 135.704  25
   7  -1   7 504.289 109.604  23
   7   1   7 815.222 177.099  10
  -7  -1  -8 2294.88 198.020  25
   7  -1   8 2641.01 204.586  23
   7   1   8 3384.61 241.235  23
   7   1   8 3232.00 274.560  10
   7   1   9 5887.92 273.730  23
   7  -2 -10 529.437 99.2911  15
  -7   2  10 458.483 93.6923  14
   7  -2  -9 1672.16 190.664  15
  -7   2   9 1774.58 186.492  14
   7  -2  -8 2647.06 257.257  15
  -7   2   8 2217.23 231.122  14
   7  -2  -7 643.727 153.646  15
  -7   2   7 431.435 111.807  27
  -7   2   7 510.689 137.072  14
   7  -2  -6 3103.18 307.499  15
  -7   2   6 3092.41 288.140  27
  -7   2   6 3283.40 306.162  14
   7  -2  -5 61.1097 100.934  15
  -7   2   5 26.0617 88.5956  27
  -7   2   5-156.064 91.3906  14
   7  -2  -4 1627.59 238.646  15
  -7   2   4 1498.19 215.849  27
  -7   2   4 1098.84 187.360  14
   7  -2  -3 190.024 127.348  15
  -7   2   3 98.1575 106.430  27
  -7   2   3 162.165 91.0440  14
  -7   2   3 262.167 112.336  25
   7  -2  -2 364.995 158.090  15
  -7   2   2 355.647 143.360  27
  -7   2   2 424.700 126.680  25
   7  -2  -1 343.065 150.223  15
  -7   2   1 360.924 136.502  27
  -7  -2   1 536.358 153.978  25
  -7   2   1 148.743 118.268  25
   7  -2   0 7147.59 516.031  15
  -7   2   0 6936.11 448.986  27
  -7  -2   0 7058.74 475.226  25
  -7   2   0 7253.41 445.465  25
   7  -2   1 35437.0 1137.20  15
  -7   2  -1 33523.5 956.336  27
  -7  -2  -1 34883.3 1062.02  25
  -7   2  -1 37683.2 998.278  25
  -7   2  -2 8133.45 468.777  27
  -7  -2  -2 9189.95 546.292  25
  -7   2  -2 9598.03 504.083  25
   7  -2   2 8623.16 476.371   9
  -7  -2  -3 5566.32 420.853  25
  -7   2  -3 5959.54 397.259  25
   7  -2   3 4830.77 341.941   9
  -7  -2  -4 12312.1 583.806  25
  -7   2  -4 12823.9 561.176  25
   7  -2   4 11051.6 493.452   9
   7  -2   5 729.444 130.484   9
  -7  -2  -5 1034.43 175.175  25
  -7   2  -5 1056.25 174.512  25
   7   2   5 874.520 177.426  10
  -7  -2  -6 2455.57 232.879  25
  -7   2  -6 2327.96 215.386  25
   7   2   6 2624.53 271.954  10
   7   2   7 4253.92 297.152  24
   7   2   7 4254.10 305.334  10
   7  -3  -8 112.761 51.5146  15
  -7   3   8 174.666 64.7940  14
   7  -3  -7 463.482 102.109  15
  -7   3   7 341.294 76.8190  27
  -7   3   7 308.827 73.2835  14
   7  -3  -6 441.066 104.277  15
  -7   3   6 360.472 87.0726  27
  -7   3   6 378.434 86.2559  14
   7  -3  -5 2512.00 247.078  15
  -7   3   5 2361.98 214.407  27
  -7   3   5 1748.76 176.080  14
   7  -3  -4 6183.80 395.869  15
  -7   3   4 6248.04 354.746  27
   7  -3  -3 1860.58 229.760  15
  -7   3   3 1790.15 205.421  27
  -7   3   3 1666.81 180.586  25
   7  -3  -2 711.854 162.374  15
  -7   3   2 753.312 151.908  27
  -7   3   2 794.534 141.020  25
  -7   3   1 950.216 161.844  27
  -7   3   1 796.565 135.170  25
   7  -3   0 16.8054 113.777  15
  -7   3   0-2.64987 62.9282  27
  -7   3   0-65.2998 86.6146  25
  -7   3  -1 1252.78 160.404  27
  -7   3  -1 1658.88 192.755  25
   7  -3   1 1650.65 198.595   9
   7  -3   2 147.256 75.4045   9
  -7   3  -2 41.3501 53.4446  27
  -7   3  -2 43.3463 68.1752  25
   7   3   2-34.1535 60.2545  10
  -7   3  -3 25222.7 659.076  25
   7  -3   3 23191.0 642.528   9
  -7   3  -4 2463.40 204.492  25
   7   3   4 2027.33 200.121  10
   7  -3   4 2131.11 189.820   9
  -7   3  -5 12153.3 385.526  25
   7   3   5 15279.5 541.524  24
  -8   0   9 5041.67 293.490  14
  -8   0   8 1592.16 189.347  14
  -8   0   7 7450.90 414.528  14
  -8   0   6-75.9555 90.6960  14
  -8   0   5 2044.78 243.016  14
  -8   0   4 2134.91 259.100  14
  -8   0   3 12095.1 575.495  14
  -8   0   2 1202.02 201.729  14
  -8   0   2 1327.01 185.708  25
  -8   0   1 2462.69 264.144  25
  -8   0   0 207.936 100.004  25
  -8   0  -1 269.234 110.563  25
  -8   0  -2-143.176 109.280  25
  -8   0  -3 803.837 163.194  25
  -8   0  -4 39.7520 83.6661  25
  -8   0  -5 1061.89 152.997  25
   8   0   5 1051.17 153.695  10
  -8   0  -6 90.1568 66.6315  25
  -8   1   9 1657.75 158.269  14
  -8   1   8 3270.75 240.542  14
  -8  -1   7 2341.33 238.668  14
  -8   1   7 2202.87 220.051  14
  -8  -1   6 3627.83 306.318  14
  -8   1   6 3815.32 294.227  14
  -8  -1   5 548.893 147.609  14
  -8   1   5 426.875 109.601  14
   8  -1  -4 375.097 106.026  15
  -8  -1   4 220.918 121.774  14
  -8   1   4 332.138 121.523  14
   8  -1  -3 2880.24 270.149  15
  -8   1   3 2958.28 266.491  14
   8  -1  -2 1286.59 181.220  15
  -8   1   2 1165.79 178.779  25
   8  -1  -1 3740.12 316.279  15
  -8  -1   1 4116.71 324.609  25
  -8   1   1 4527.50 341.686  25
  -8  -1   0 1287.55 194.722  25
  -8   1   0 1344.54 198.875  25
  -8  -1  -1 309.717 117.895  25
  -8   1  -1 619.902 150.266  25
  -8  -1  -2 319.560 116.878  25
  -8   1  -2 254.317 118.753  25
  -8  -1  -3 1373.34 195.984  25
  -8   1  -3 1339.86 179.539  25
  -8  -1  -4-67.3353 83.2772  25
  -8   1  -4 18.1754 76.3384  25
  -8  -1  -5 263.340 89.6549  25
  -8   1  -5 238.779 88.5216  25
   8   1   5 294.753 97.6880  10
  -8  -1  -6 845.746 115.147  25
  -8   2   7 594.476 96.1179  14
   8  -2  -6 2175.08 194.421  15
  -8   2   6 2055.80 178.532  14
   8  -2  -5 1649.17 184.240  15
  -8   2   5 1396.15 153.835  14
   8  -2  -4 5187.76 333.102  15
  -8   2   4 5211.50 318.731  27
   8  -2  -3 1559.71 196.472  15
  -8   2   3 1445.12 182.665  27
   8  -2  -2 1461.11 196.149  15
  -8   2   2 1286.80 178.341  27
  -8   2   2 1069.12 146.930  25
   8  -2  -1 93.9453 78.2874  15
  -8   2   1 223.743 89.5396  25
  -8  -2   0 1389.55 165.442  25
  -8   2   0 2094.62 209.471  25
  -8  -2  -1 42.6195 71.2943  25
  -8   2  -1 244.928 90.8929  25
  -8  -2  -2 63.8538 80.0597  25
  -8   2  -2-70.8472 72.7623  25
   8   2   2-9.42130 84.0154  10
  -8  -2  -3 2490.82 216.711  25
  -8   2  -3 3365.07 238.069  25
   8   2   3 2947.84 250.214  10
  -8   2  -4 530.552 98.6262  25
   8   2   4 584.952 110.176  10
   0   0   0    0.00    0.00   0

TITL tw1803b in P2(1)/m
REM P2(1)/m (#11 in standard setting)
CELL 1.54184   7.368542   4.873194  13.230437  90.0000  95.6786  90.0000
ZERR    2.00   0.000377   0.000204   0.000691   0.0000   0.0046   0.0000
LATT  1
SYMM -x, y+1/2,-z
SFAC C H O
UNIT 20.00 10.00 4.00
TREF
HKLF 4
END
;
_shelx_hkl_checksum              38836
loop_
_space_group_symop_operation_xyz
'x, y, z'
'-x, y+1/2, -z'
loop_
_atom_site_label
_atom_site_type_symbol
_atom_site_fract_x
_atom_site_fract_y
_atom_site_fract_z
_atom_site_U_iso_or_equiv
_atom_site_adp_type
_atom_site_occupancy
_atom_site_site_symmetry_order
_atom_site_calc_flag
_atom_site_refinement_flags_posn
_atom_site_refinement_flags_adp
C1 C 0.7658(3) 0.3432(4) 0.76257(17) 0.0212(5) Uani 1 1 d . .
C2 C 0.8020(3) 0.5329(5) 0.84180(17) 0.0240(5) Uani 1 1 d . .
C3 C 0.9742(3) 0.6443(5) 0.86468(17) 0.0282(5) Uani 1 1 d . .
H3 H 0.995826 0.769100 0.917675 0.034 Uiso 1 1 calc R U
C4 C 1.1148(3) 0.5668(5) 0.80724(17) 0.0284(5) Uani 1 1 d . .
H4 H 1.230396 0.642452 0.821248 0.034 Uiso 1 1 calc R U
C5 C 1.0826(3) 0.3784(5) 0.72975(17) 0.0251(5) Uani 1 1 d . .
H5 H 1.177372 0.325668 0.692508 0.030 Uiso 1 1 calc R U
C6 C 0.9088(3) 0.2656(4) 0.70655(15) 0.0206(5) Uani 1 1 d . .
C7 C 0.8760(3) 0.0573(4) 0.62176(16) 0.0219(4) Uani 1 1 d . .
H7 H 0.900761 -0.126185 0.650169 0.026 Uiso 1 1 calc R U
C8 C 0.6792(3) 0.0664(6) 0.57486(17) 0.0296(5) Uani 1 1 d . .
H8A H 0.659403 -0.073029 0.522604 0.035 Uiso 1 1 calc R U
H8B H 0.653056 0.244169 0.543786 0.035 Uiso 1 1 calc R U
C9 C 0.5533(3) 0.0157(5) 0.65778(18) 0.0277(5) Uani 1 1 d . .
H9A H 0.582616 -0.160032 0.689728 0.033 Uiso 1 1 calc R U
H9B H 0.427970 0.008303 0.627546 0.033 Uiso 1 1 calc R U
C10 C 0.5721(3) 0.2412(5) 0.73817(18) 0.0259(5) Uani 1 1 d . .
H10A H 0.495291 0.394675 0.714706 0.031 Uiso 1 1 calc R U
H10B H 0.527808 0.172040 0.799959 0.031 Uiso 1 1 calc R U
C11 C 0.6853(4) 0.7798(6) 0.9770(2) 0.0380(6) Uani 1 1 d . .
H11A H 0.726877 0.953581 0.954079 0.057 Uiso 1 1 calc R U
H11B H 0.776359 0.702920 1.025825 0.057 Uiso 1 1 calc R U
H11C H 0.574041 0.805330 1.007975 0.057 Uiso 1 1 calc R U
O1 O 0.6535(2) 0.5979(4) 0.89265(13) 0.0331(4) Uani 1 1 d . .
O2 O 1.0014(2) 0.1101(3) 0.54763(12) 0.0283(4) Uani 1 1 d . .
H2 H 1.008495 -0.025831 0.511689 0.042 Uiso 1 1 calc R U
loop_
_atom_site_aniso_label
_atom_site_aniso_U_11
_atom_site_aniso_U_22
_atom_site_aniso_U_33
_atom_site_aniso_U_23
_atom_site_aniso_U_13
_atom_site_aniso_U_12
C1 0.0220(10) 0.0191(10) 0.0228(11) 0.0021(8) 0.0036(8) 0.0001(8)
C2 0.0268(11) 0.0251(11) 0.0207(10) 0.0000(8) 0.0056(8) 0.0017(8)
C3 0.0297(11) 0.0308(12) 0.0235(11) -0.0049(9) -0.0008(9) -0.0034(9)
C4 0.0203(10) 0.0337(13) 0.0301(11) 0.0008(10) -0.0023(8) -0.0027(9)
C5 0.0209(10) 0.0301(12) 0.0246(11) 0.0021(9) 0.0034(8) 0.0028(9)
C6 0.0214(10) 0.0204(11) 0.0200(10) 0.0031(8) 0.0020(8) 0.0021(8)
C7 0.0253(10) 0.0206(10) 0.0206(10) 0.0028(8) 0.0068(8) 0.0021(8)
C8 0.0301(11) 0.0351(13) 0.0231(11) -0.0047(10) 0.0005(8) 0.0004(10)
C9 0.0234(11) 0.0260(12) 0.0336(12) -0.0058(9) 0.0031(9) -0.0040(8)
C10 0.0214(10) 0.0263(11) 0.0308(11) -0.0023(9) 0.0070(8) -0.0032(9)
C11 0.0461(14) 0.0371(15) 0.0327(13) -0.0122(11) 0.0137(11) -0.0006(12)
O1 0.0318(8) 0.0385(10) 0.0309(9) -0.0125(8) 0.0130(7) -0.0040(7)
O2 0.0363(8) 0.0252(8) 0.0256(8) -0.0027(7) 0.0141(6) -0.0010(7)
loop_
_atom_type_symbol
_atom_type_description
_atom_type_scat_dispersion_real
_atom_type_scat_dispersion_imag
_atom_type_scat_source
C C 0.0181 0.0091 'International Tables Vol C Tables 4.2.6.8 and 6.1.1.4'
H H 0.0000 0.0000 'International Tables Vol C Tables 4.2.6.8 and 6.1.1.4'
O O 0.0492 0.0322 'International Tables Vol C Tables 4.2.6.8 and 6.1.1.4'
loop_
_geom_angle_atom_site_label_1
_geom_angle_atom_site_label_2
_geom_angle_atom_site_label_3
_geom_angle
C6 C1 C2 118.44(19)
C6 C1 C10 122.77(19)
C2 C1 C10 118.72(19)
O1 C2 C3 123.9(2)
O1 C2 C1 114.53(19)
C3 C2 C1 121.6(2)
C2 C3 C4 119.2(2)
C2 C3 H3 120.4
C4 C3 H3 120.4
C5 C4 C3 120.1(2)
C5 C4 H4 119.9
C3 C4 H4 119.9
C4 C5 C6 120.7(2)
C4 C5 H5 119.6
C6 C5 H5 119.6
C1 C6 C5 119.9(2)
C1 C6 C7 120.02(18)
C5 C6 C7 120.08(19)
O2 C7 C6 108.63(17)
O2 C7 C8 111.63(17)
C6 C7 C8 111.01(18)
O2 C7 H7 108.5
C6 C7 H7 108.5
C8 C7 H7 108.5
C7 C8 C9 108.97(18)
C7 C8 H8A 109.9
C9 C8 H8A 109.9
C7 C8 H8B 109.9
C9 C8 H8B 109.9
H8A C8 H8B 108.3
C8 C9 C10 111.42(19)
C8 C9 H9A 109.3
C10 C9 H9A 109.3
C8 C9 H9B 109.3
C10 C9 H9B 109.3
H9A C9 H9B 108.0
C1 C10 C9 113.77(18)
C1 C10 H10A 108.8
C9 C10 H10A 108.8
C1 C10 H10B 108.8
C9 C10 H10B 108.8
H10A C10 H10B 107.7
O1 C11 H11A 109.5
O1 C11 H11B 109.5
H11A C11 H11B 109.5
O1 C11 H11C 109.5
H11A C11 H11C 109.5
H11B C11 H11C 109.5
C2 O1 C11 116.66(19)
C7 O2 H2 109.5
loop_
_geom_bond_atom_site_label_1
_geom_bond_atom_site_label_2
_geom_bond_distance
C1 C6 1.399(3)
C1 C2 1.403(3)
C1 C10 1.516(3)
C2 O1 1.377(3)
C2 C3 1.386(3)
C3 C4 1.396(3)
C3 H3 0.9300
C4 C5 1.379(3)
C4 H4 0.9300
C5 C6 1.399(3)
C5 H5 0.9300
C6 C7 1.515(3)
C7 O2 1.436(2)
C7 C8 1.520(3)
C7 H7 0.9800
C8 C9 1.525(3)
C8 H8A 0.9700
C8 H8B 0.9700
C9 C10 1.526(3)
C9 H9A 0.9700
C9 H9B 0.9700
C10 H10A 0.9700
C10 H10B 0.9700
C11 O1 1.427(3)
C11 H11A 0.9600
C11 H11B 0.9600
C11 H11C 0.9600
O2 H2 0.8200
