#------------------------------------------------------------------------------
#$Date: 2019-11-04 11:41:24 +0200 (Mon, 04 Nov 2019) $
#$Revision: 222631 $
#$URL: file:///home/coder/svn-repositories/cod/cif/4/03/40/4034071.cif $
#------------------------------------------------------------------------------
#
# This file is available in the Crystallography Open Database (COD),
# http://www.crystallography.net/
#
# All data on this site have been placed in the public domain by the
# contributors.
#
data_4034071
loop_
_publ_author_name
'Liu, Deming'
'Luo, Puying'
'Ge, Junying'
'Jiang, Zilin'
'Peng, Yiyuan'
'Ding, Qiuping'
_publ_section_title
;
 Synthesis of 2-Arylbenzothiazole and 2-Arylthiazole Derivatives via a
 Ru-Catalyzed <i>meta</i>-Selective C-H Nitration Reaction.
;
_journal_issue                   20
_journal_name_full               'The Journal of organic chemistry'
_journal_page_first              12784
_journal_page_last               12791
_journal_paper_doi               10.1021/acs.joc.9b01194
_journal_volume                  84
_journal_year                    2019
_chemical_formula_moiety         'C14 H9 Cl N2 O2 S'
_chemical_formula_sum            'C14 H9 Cl N2 O2 S'
_chemical_formula_weight         304.74
_space_group_crystal_system      triclinic
_space_group_IT_number           2
_space_group_name_Hall           '-P 1'
_space_group_name_H-M_alt        'P -1'
_atom_sites_solution_hydrogens   geom
_atom_sites_solution_primary     dual
_audit_creation_date             2017-10-14
_audit_creation_method
;
Olex2 1.2
(compiled 2017.08.10 svn.r3458 for OlexSys, GUI svn.r5381)
;
_cell_angle_alpha                102.731(7)
_cell_angle_beta                 90.884(6)
_cell_angle_gamma                112.838(8)
_cell_formula_units_Z            2
_cell_length_a                   7.4014(5)
_cell_length_b                   7.4304(7)
_cell_length_c                   13.2449(9)
_cell_measurement_reflns_used    2624
_cell_measurement_temperature    271.94(10)
_cell_measurement_theta_max      27.6610
_cell_measurement_theta_min      3.7780
_cell_volume                     650.66(10)
_computing_cell_refinement       'CrysAlisPro 1.171.38.41 (Rigaku OD, 2015)'
_computing_data_collection       'CrysAlisPro 1.171.38.41 (Rigaku OD, 2015)'
_computing_data_reduction        'CrysAlisPro 1.171.38.41 (Rigaku OD, 2015)'
_computing_molecular_graphics    'Olex2 (Dolomanov et al., 2009)'
_computing_publication_material  'Olex2 (Dolomanov et al., 2009)'
_computing_structure_refinement  'ShelXL (Sheldrick, 2015)'
_computing_structure_solution    'ShelXT (Sheldrick, 2015)'
_diffrn_ambient_environment      N~2~
_diffrn_ambient_temperature      271.94(10)
_diffrn_detector                 'CCD plate'
_diffrn_detector_area_resol_mean 8.0353
_diffrn_detector_type            EosS2
_diffrn_measured_fraction_theta_full 0.998
_diffrn_measured_fraction_theta_max 0.874
_diffrn_measurement_details
;
List of Runs (angles in degrees, time in seconds):

  # Type    Start    End  Width  t~exp~   \w     \q     \k     \f   Frames
--------------------------------------------------------------------------
  1  \w    -83.00  11.00   1.00   17.58    --  -15.84 -77.00-150.00   94
  2  \w    -83.00   1.00   1.00   17.58    --  -15.84 -57.00  60.00   84
  3  \w    -83.00   1.00   1.00   17.58    --  -15.84 -57.00 150.00   84
  4  \w    -88.00 -35.00   1.00   17.58    --  -15.84-178.00 -60.00   53
  5  \w      0.00  68.00   1.00   17.58    --   16.70  57.00  90.00   68
  6  \w     31.00  56.00   1.00   17.58    --   16.70 -99.00 -30.00   25
  7  \w    -47.00  30.00   1.00   17.58    --   16.70 -57.00 -60.00   77
;
_diffrn_measurement_device       'four-circle diffractometer'
_diffrn_measurement_device_type  'SuperNova, Single source at offset, EosS2'
_diffrn_measurement_method       '\w scans'
_diffrn_orient_matrix_type
'CrysAlisPro convention (1999,Acta A55,543-557)'
_diffrn_orient_matrix_UB_11      0.0586690000
_diffrn_orient_matrix_UB_12      0.0004081000
_diffrn_orient_matrix_UB_13      -0.0418597000
_diffrn_orient_matrix_UB_21      0.0842628000
_diffrn_orient_matrix_UB_22      0.0719382000
_diffrn_orient_matrix_UB_23      0.0339021000
_diffrn_orient_matrix_UB_31      0.0202123000
_diffrn_orient_matrix_UB_32      -0.0790076000
_diffrn_orient_matrix_UB_33      0.0122962000
_diffrn_radiation_monochromator  mirror
_diffrn_radiation_probe          x-ray
_diffrn_radiation_type           MoK\a
_diffrn_radiation_wavelength     0.71073
_diffrn_reflns_av_R_equivalents  0.0271
_diffrn_reflns_av_unetI/netI     0.0416
_diffrn_reflns_Laue_measured_fraction_full 0.998
_diffrn_reflns_Laue_measured_fraction_max 0.874
_diffrn_reflns_limit_h_max       9
_diffrn_reflns_limit_h_min       -10
_diffrn_reflns_limit_k_max       9
_diffrn_reflns_limit_k_min       -9
_diffrn_reflns_limit_l_max       11
_diffrn_reflns_limit_l_min       -17
_diffrn_reflns_number            7196
_diffrn_reflns_point_group_measured_fraction_full 0.998
_diffrn_reflns_point_group_measured_fraction_max 0.874
_diffrn_reflns_theta_full        25.242
_diffrn_reflns_theta_max         29.107
_diffrn_reflns_theta_min         3.237
_diffrn_source                   'micro-focus sealed X-ray tube'
_diffrn_source_type              'SuperNova (Mo) X-ray Source'
_exptl_absorpt_coefficient_mu    0.455
_exptl_absorpt_correction_T_max  1.00000
_exptl_absorpt_correction_T_min  0.67141
_exptl_absorpt_correction_type   multi-scan
_exptl_absorpt_process_details
;
CrysAlisPro 1.171.38.41 (Rigaku Oxford Diffraction, 2015)
Empirical absorption correction using spherical harmonics,
 implemented in SCALE3 ABSPACK scaling algorithm.
;
_exptl_crystal_colour            colourless
_exptl_crystal_colour_primary    colourless
_exptl_crystal_density_diffrn    1.555
_exptl_crystal_description       block
_exptl_crystal_F_000             312
_exptl_crystal_size_max          0.1
_exptl_crystal_size_mid          0.09
_exptl_crystal_size_min          0.06
_refine_diff_density_max         0.432
_refine_diff_density_min         -0.378
_refine_diff_density_rms         0.056
_refine_ls_extinction_method     none
_refine_ls_goodness_of_fit_ref   1.080
_refine_ls_hydrogen_treatment    constr
_refine_ls_matrix_type           full
_refine_ls_number_parameters     182
_refine_ls_number_reflns         3049
_refine_ls_number_restraints     0
_refine_ls_restrained_S_all      1.080
_refine_ls_R_factor_all          0.0734
_refine_ls_R_factor_gt           0.0548
_refine_ls_shift/su_max          0.000
_refine_ls_shift/su_mean         0.000
_refine_ls_structure_factor_coef Fsqd
_refine_ls_weighting_details
'w=1/[\s^2^(Fo^2^)+(0.0420P)^2^+0.5300P] where P=(Fo^2^+2Fc^2^)/3'
_refine_ls_weighting_scheme      calc
_refine_ls_wR_factor_gt          0.1220
_refine_ls_wR_factor_ref         0.1320
_reflns_Friedel_coverage         0.000
_reflns_number_gt                2346
_reflns_number_total             3049
_reflns_threshold_expression     'I > 2\s(I)'
_iucr_refine_instructions_details
;
TITL ldm20170320-1_a.res in P-1
REM Old TITL ldm20170320-1 in P-1
REM SHELXT solution in P-1
REM R1 0.174, Rweak 0.021, Alpha 0.041, Orientation as input
REM Formula found by SHELXT: C16 N O Cl2
CELL 0.71073 7.4014 7.4304 13.2449 102.731 90.884 112.838
ZERR 2 0.0005 0.0007 0.0009 0.007 0.006 0.008
LATT 1
SFAC C H Cl N O S
UNIT 28 18 2 4 4 2
 
L.S. 12
PLAN  20
SIZE 0.1 0.09 0.06
list 4
fmap 2
acta
REM <olex2.extras>
REM <HklSrc "%.\\ldm20170320-1.hkl">
REM </olex2.extras>
 
WGHT    0.042000    0.530000
FVAR       0.57081
S1    6    0.314605    0.721810    0.442515    11.00000    0.03628    0.04981 =
         0.02981    0.01377    0.00434    0.01679
CL02  3    0.002095    0.674875    0.814403    11.00000    0.06806    0.07297 =
         0.04410    0.02057    0.02678    0.03263
N1    4    0.637639    0.763651    0.543148    11.00000    0.03782    0.03885 =
         0.03424    0.01164    0.00374    0.01566
N2    4    0.575639    0.745626    0.080712    11.00000    0.05241    0.07071 =
         0.03360    0.01291    0.00158    0.02591
C8    1    0.669912    0.768154    0.360010    11.00000    0.03850    0.03034 =
         0.03275    0.00884    0.00511    0.01350
C7    1    0.562234    0.753725    0.451891    11.00000    0.03510    0.02913 =
         0.03304    0.00801    0.00288    0.01163
C5    1    0.498795    0.748262    0.613987    11.00000    0.04063    0.03185 =
         0.03324    0.01070    0.00393    0.01424
C1    1    0.157157    0.705149    0.633542    11.00000    0.04021    0.03759 =
         0.03641    0.01112    0.00594    0.01437
AFIX  43
H1    2    0.034521    0.690358    0.605862    11.00000   -1.20000
AFIX   0
C14   1    0.578480    0.748262    0.263969    11.00000    0.03695    0.03580 =
         0.03731    0.00928    0.00443    0.01495
AFIX  43
H14   2    0.445370    0.724181    0.256390    11.00000   -1.20000
AFIX   0
C6    1    0.312989    0.725056    0.573183    11.00000    0.03918    0.02962 =
         0.03035    0.00862    0.00208    0.01062
C9    1    0.870139    0.805352    0.368116    11.00000    0.04060    0.04629 =
         0.03293    0.01195    0.00123    0.01838
AFIX  43
H9    2    0.935574    0.822533    0.432295    11.00000   -1.20000
AFIX   0
O1    5    0.399948    0.650647    0.067999    11.00000    0.05166    0.18662 =
         0.05083    0.02919    0.00011    0.04256
C2    1    0.194051    0.708497    0.736511    11.00000    0.05206    0.03652 =
         0.03311    0.00902    0.01310    0.01689
C13   1    0.685540    0.764265    0.178873    11.00000    0.04407    0.03809 =
         0.03036    0.01144    0.00118    0.01634
C3    1    0.377525    0.735636    0.779957    11.00000    0.06289    0.04262 =
         0.03069    0.01139    0.00525    0.02165
AFIX  43
H3    2    0.397056    0.740150    0.850158    11.00000   -1.20000
AFIX   0
C11   1    0.883855    0.795790    0.183881    11.00000    0.04418    0.04086 =
         0.03768    0.01543    0.00916    0.01775
C10   1    0.971315    0.816784    0.282054    11.00000    0.03553    0.05318 =
         0.04247    0.01830    0.00764    0.01983
AFIX  43
H10   2    1.104089    0.839549    0.289669    11.00000   -1.20000
AFIX   0
O2    5    0.662396    0.824984    0.016920    11.00000    0.08108    0.17491 =
         0.06183    0.07416    0.00230    0.02269
C4    1    0.530182    0.755828    0.719761    11.00000    0.04960    0.04892 =
         0.03270    0.01050   -0.00057    0.02106
AFIX  43
H4    2    0.653193    0.774342    0.748852    11.00000   -1.20000
AFIX   0
C12   1    1.003450    0.800687    0.093031    11.00000    0.06084    0.07951 =
         0.04311    0.02297    0.02106    0.03462
AFIX 137
H12A  2    0.934863    0.682700    0.037816    11.00000   -1.50000
H12B  2    1.129332    0.803703    0.114409    11.00000   -1.50000
H12C  2    1.022527    0.918784    0.068851    11.00000   -1.50000
AFIX   0
HKLF 4
 
REM  ldm20170320-1_a.res in P-1
REM R1 =  0.0548 for    2346 Fo > 4sig(Fo)  and  0.0734 for all    3049 data
REM    182 parameters refined using      0 restraints
 
END  
     
WGHT      0.0414      0.5309 

REM Highest difference peak  0.432,  deepest hole -0.378,  1-sigma level  0.056
Q1    1   0.6533  0.6759 -0.0014  11.00000  0.05    0.43
Q2    1   0.1248  0.7273  0.8528  11.00000  0.05    0.38
Q3    1   0.4631  0.8112  0.0882  11.00000  0.05    0.34
Q4    1   0.3053  0.7159  0.5162  11.00000  0.05    0.29
Q5    1   0.6192  0.7517  0.3994  11.00000  0.05    0.26
Q6    1   0.5135  0.7673  0.6710  11.00000  0.05    0.26
Q7    1   0.7547  0.7689  0.3551  11.00000  0.05    0.24
Q8    1   0.6421  0.7361  0.2278  11.00000  0.05    0.23
Q9    1   0.9174  0.8692  0.2460  11.00000  0.05    0.23
Q10   1   0.9011  0.7585  0.2241  11.00000  0.05    0.23
Q11   1   0.4437  0.7229  0.4401  11.00000  0.05    0.22
Q12   1   0.3011  0.7419  0.7598  11.00000  0.05    0.22
Q13   1   0.7942  0.8384  0.1905  11.00000  0.05    0.22
Q14   1   0.1746  0.7477  0.4261  11.00000  0.05    0.21
Q15   1   0.6062  0.7437  0.3100  11.00000  0.05    0.21
Q16   1   0.1721  0.6674  0.6805  11.00000  0.05    0.21
Q17   1   1.1997  0.9494  0.1487  11.00000  0.05    0.21
Q18   1   0.6392  0.7568  0.1362  11.00000  0.05    0.21
Q19   1   0.4045  0.7461  0.5978  11.00000  0.05    0.20
Q20   1   0.9065  0.7587  0.0360  11.00000  0.05    0.20

  REM The information below was added by Olex2.
  REM
  REM R1 = 0.0548 for 2346 Fo > 4sig(Fo) and 0.0734 for all 7196 data
  REM n/a parameters refined using n/a restraints
  REM Highest difference peak 0.43, deepest hole -0.38
  REM Mean Shift 0, Max Shift 0.000.

  REM +++ Tabular Listing of Refinement Information +++
  REM R1_all = 0.0734
  REM R1_gt = 0.0548
  REM wR_ref = 0.1320
  REM GOOF = 1.080
  REM Shift_max = 0.000
  REM Shift_mean = 0
  REM Reflections_all = 7196
  REM Reflections_gt = 2346
  REM Parameters = n/a
  REM Hole = -0.38
  REM Peak = 0.43
  REM Flack = n/a

  
;
_cod_data_source_file            jo9b01194_si_002.cif
_cod_data_source_block           ldm20170320-1
_cod_database_code               4034071
_shelxl_version_number           2014-1
_shelx_space_group_comment
;
The symmetry employed for this shelxl refinement is uniquely defined
by the following loop, which should always be used as a source of
symmetry information in preference to the above space-group names.
They are only intended as comments.
;
_shelx_estimated_absorpt_t_max   0.973
_shelx_estimated_absorpt_t_min   0.956
_reflns_odcompleteness_completeness 99.81
_reflns_odcompleteness_iscentric 1
_reflns_odcompleteness_theta     26.32
_olex2_refinement_description
;
1. Fixed Uiso
 At 1.2 times of:
  All C(H) groups
 At 1.5 times of:
  All C(H,H,H) groups
2.a Aromatic/amide H refined with riding coordinates:
 C1(H1), C14(H14), C9(H9), C3(H3), C10(H10), C4(H4)
2.b Idealised Me refined as rotating group:
 C12(H12A,H12B,H12C)
;
_olex2_submission_special_instructions 'No special instructions were received'
_oxdiff_exptl_absorpt_empirical_details
;
Empirical correction (ABSPACK) includes:
- Absorption correction using spherical harmonics
- Frame scaling
;
_oxdiff_exptl_absorpt_empirical_full_max 1.366
_oxdiff_exptl_absorpt_empirical_full_min 0.544
loop_
_space_group_symop_operation_xyz
'x, y, z'
'-x, -y, -z'
loop_
_atom_site_label
_atom_site_type_symbol
_atom_site_fract_x
_atom_site_fract_y
_atom_site_fract_z
_atom_site_U_iso_or_equiv
_atom_site_adp_type
_atom_site_occupancy
_atom_site_site_symmetry_order
_atom_site_calc_flag
_atom_site_refinement_flags_posn
S1 S 0.31460(10) 0.72181(11) 0.44252(5) 0.0381(2) Uani 1 1 d .
Cl02 Cl 0.00210(12) 0.67487(14) 0.81440(6) 0.0591(3) Uani 1 1 d .
N1 N 0.6376(3) 0.7637(3) 0.54315(17) 0.0364(5) Uani 1 1 d .
N2 N 0.5756(4) 0.7456(4) 0.08071(19) 0.0519(7) Uani 1 1 d .
C8 C 0.6699(4) 0.7682(4) 0.3600(2) 0.0338(6) Uani 1 1 d .
C7 C 0.5622(4) 0.7537(4) 0.4519(2) 0.0328(6) Uani 1 1 d .
C5 C 0.4988(4) 0.7483(4) 0.6140(2) 0.0349(6) Uani 1 1 d .
C1 C 0.1572(4) 0.7051(4) 0.6335(2) 0.0381(6) Uani 1 1 d .
H1 H 0.0345 0.6904 0.6059 0.046 Uiso 1 1 calc R
C14 C 0.5785(4) 0.7483(4) 0.2640(2) 0.0365(6) Uani 1 1 d .
H14 H 0.4454 0.7242 0.2564 0.044 Uiso 1 1 calc R
C6 C 0.3130(4) 0.7251(4) 0.5732(2) 0.0339(6) Uani 1 1 d .
C9 C 0.8701(4) 0.8054(4) 0.3681(2) 0.0393(6) Uani 1 1 d .
H9 H 0.9356 0.8225 0.4323 0.047 Uiso 1 1 calc R
O1 O 0.3999(4) 0.6506(6) 0.0680(2) 0.0981(11) Uani 1 1 d .
C2 C 0.1941(4) 0.7085(4) 0.7365(2) 0.0407(6) Uani 1 1 d .
C13 C 0.6855(4) 0.7643(4) 0.1789(2) 0.0371(6) Uani 1 1 d .
C3 C 0.3775(5) 0.7356(4) 0.7800(2) 0.0448(7) Uani 1 1 d .
H3 H 0.3971 0.7402 0.8502 0.054 Uiso 1 1 calc R
C11 C 0.8839(4) 0.7958(4) 0.1839(2) 0.0397(6) Uani 1 1 d .
C10 C 0.9713(4) 0.8168(4) 0.2821(2) 0.0419(7) Uani 1 1 d .
H10 H 1.1041 0.8395 0.2897 0.050 Uiso 1 1 calc R
O2 O 0.6624(4) 0.8250(6) 0.0169(2) 0.1074(12) Uani 1 1 d .
C4 C 0.5302(4) 0.7558(4) 0.7198(2) 0.0433(7) Uani 1 1 d .
H4 H 0.6532 0.7743 0.7489 0.052 Uiso 1 1 calc R
C12 C 1.0034(5) 0.8007(6) 0.0930(2) 0.0576(9) Uani 1 1 d .
H12A H 0.9349 0.6827 0.0378 0.086 Uiso 1 1 calc GR
H12B H 1.1293 0.8037 0.1144 0.086 Uiso 1 1 calc GR
H12C H 1.0225 0.9188 0.0689 0.086 Uiso 1 1 calc GR
loop_
_atom_site_aniso_label
_atom_site_aniso_U_11
_atom_site_aniso_U_22
_atom_site_aniso_U_33
_atom_site_aniso_U_23
_atom_site_aniso_U_13
_atom_site_aniso_U_12
S1 0.0363(3) 0.0498(4) 0.0298(4) 0.0138(3) 0.0043(3) 0.0168(3)
Cl02 0.0681(5) 0.0730(6) 0.0441(5) 0.0206(4) 0.0268(4) 0.0326(4)
N1 0.0378(11) 0.0388(13) 0.0342(12) 0.0116(10) 0.0037(9) 0.0157(10)
N2 0.0524(15) 0.0707(19) 0.0336(13) 0.0129(13) 0.0016(11) 0.0259(14)
C8 0.0385(13) 0.0303(14) 0.0328(13) 0.0088(11) 0.0051(11) 0.0135(11)
C7 0.0351(13) 0.0291(13) 0.0330(14) 0.0080(11) 0.0029(11) 0.0116(11)
C5 0.0406(13) 0.0319(14) 0.0332(14) 0.0107(11) 0.0039(11) 0.0142(11)
C1 0.0402(14) 0.0376(15) 0.0364(14) 0.0111(12) 0.0059(11) 0.0144(12)
C14 0.0370(13) 0.0358(15) 0.0373(15) 0.0093(12) 0.0044(11) 0.0149(11)
C6 0.0392(13) 0.0296(14) 0.0303(13) 0.0086(11) 0.0021(11) 0.0106(11)
C9 0.0406(14) 0.0463(17) 0.0329(14) 0.0119(12) 0.0012(11) 0.0184(13)
O1 0.0517(15) 0.187(3) 0.0508(16) 0.0292(18) 0.0001(12) 0.0426(19)
C2 0.0521(16) 0.0365(16) 0.0331(14) 0.0090(12) 0.0131(12) 0.0169(13)
C13 0.0441(14) 0.0381(15) 0.0304(14) 0.0114(12) 0.0012(11) 0.0163(12)
C3 0.0629(18) 0.0426(17) 0.0307(14) 0.0114(13) 0.0053(13) 0.0216(15)
C11 0.0442(15) 0.0409(16) 0.0377(15) 0.0154(13) 0.0092(12) 0.0178(12)
C10 0.0355(13) 0.0532(18) 0.0425(16) 0.0183(14) 0.0076(12) 0.0198(13)
O2 0.0811(19) 0.175(3) 0.0618(18) 0.074(2) 0.0023(15) 0.023(2)
C4 0.0496(16) 0.0489(18) 0.0327(15) 0.0105(13) -0.0006(12) 0.0211(14)
C12 0.0608(19) 0.080(2) 0.0431(18) 0.0230(17) 0.0211(15) 0.0346(18)
loop_
_atom_type_symbol
_atom_type_description
_atom_type_scat_dispersion_real
_atom_type_scat_dispersion_imag
_atom_type_scat_source
C C 0.0033 0.0016 'International Tables Vol C Tables 4.2.6.8 and 6.1.1.4'
H H 0.0000 0.0000 'International Tables Vol C Tables 4.2.6.8 and 6.1.1.4'
Cl Cl 0.1484 0.1585 'International Tables Vol C Tables 4.2.6.8 and 6.1.1.4'
N N 0.0061 0.0033 'International Tables Vol C Tables 4.2.6.8 and 6.1.1.4'
O O 0.0106 0.0060 'International Tables Vol C Tables 4.2.6.8 and 6.1.1.4'
S S 0.1246 0.1234 'International Tables Vol C Tables 4.2.6.8 and 6.1.1.4'
loop_
_geom_angle_atom_site_label_1
_geom_angle_atom_site_label_2
_geom_angle_atom_site_label_3
_geom_angle
C6 S1 C7 89.19(12)
C7 N1 C5 110.5(2)
O1 N2 C13 118.5(3)
O2 N2 O1 122.1(3)
O2 N2 C13 119.4(3)
C14 C8 C7 121.5(2)
C14 C8 C9 118.2(2)
C9 C8 C7 120.3(2)
N1 C7 S1 115.68(19)
N1 C7 C8 124.5(2)
C8 C7 S1 119.85(19)
N1 C5 C6 115.2(2)
N1 C5 C4 125.9(2)
C6 C5 C4 118.9(2)
C2 C1 C6 116.6(2)
C8 C14 C13 119.9(2)
C5 C6 S1 109.45(19)
C1 C6 S1 128.2(2)
C1 C6 C5 122.3(2)
C10 C9 C8 120.5(2)
C1 C2 Cl02 118.6(2)
C1 C2 C3 122.6(3)
C3 C2 Cl02 118.9(2)
C14 C13 N2 115.7(2)
C14 C13 C11 123.2(2)
C11 C13 N2 121.1(2)
C4 C3 C2 120.3(3)
C13 C11 C10 115.2(2)
C13 C11 C12 125.5(3)
C10 C11 C12 119.3(3)
C9 C10 C11 122.9(3)
C3 C4 C5 119.3(3)
loop_
_geom_bond_atom_site_label_1
_geom_bond_atom_site_label_2
_geom_bond_distance
S1 C7 1.753(3)
S1 C6 1.726(3)
Cl02 C2 1.740(3)
N1 C7 1.298(3)
N1 C5 1.391(3)
N2 O1 1.202(3)
N2 C13 1.474(3)
N2 O2 1.190(3)
C8 C7 1.466(3)
C8 C14 1.382(4)
C8 C9 1.396(3)
C5 C6 1.402(4)
C5 C4 1.402(4)
C1 C6 1.393(4)
C1 C2 1.380(4)
C14 C13 1.388(4)
C9 C10 1.374(4)
C2 C3 1.389(4)
C13 C11 1.392(4)
C3 C4 1.372(4)
C11 C10 1.393(4)
C11 C12 1.503(4)
loop_
_refln_index_h
_refln_index_k
_refln_index_l
_refln_F_squared_meas
_refln_F_squared_sigma
0 0 3 115.61 3.25
0 0 -3 118.82 3.3
0 0 3 114.65 2.58
0 0 -3 121.46 3.1
0 0 -4 12.76 1.06
0 0 4 10.63 0.76
0 0 4 11.57 1.09
0 0 -4 11.83 1.16
0 0 5 329.57 7.56
0 0 -5 329.05 7.64
0 0 -5 314.72 7.05
0 0 5 314.26 5.99
0 0 6 151.6 5.15
0 0 -6 154.71 4.83
0 0 -6 154.21 5.24
0 0 6 152.52 3.83
0 0 -7 5.94 0.97
0 0 -7 6.83 1.18
0 0 7 5.28 0.69
0 0 -8 254.58 7.38
0 0 -8 249.59 7.97
0 0 8 244.39 5.78
0 0 -9 2.92 1
0 0 -9 1.94 0.71
0 0 -10 23.12 2.59
0 0 -10 24.47 2.41
0 0 -11 491.97 13.1
0 0 -11 518.26 14.25
0 0 -12 9.15 1.64
0 0 -12 9.03 1.89
0 0 -13 6.08 1.51
0 0 -13 6.87 1.81
0 0 -14 1.83 1.01
0 0 -14 1.68 1.08
0 0 -15 5.28 1.85
0 0 -15 4.04 1.33
0 0 -16 30.82 3.88
0 0 -16 25.32 3.77
0 0 -17 9.53 2.47
0 1 -16 10.42 2.38
0 1 -15 0.1 0.66
0 1 -15 -0.02 0.84
0 1 -14 54.01 4.78
0 1 -14 45.76 3.91
0 1 -13 25.69 3.14
0 1 -13 22.7 2.59
0 1 -12 46.84 4.02
0 1 -12 47.88 3.5
0 1 -11 46.99 3.77
0 1 -11 47.6 3.27
0 1 -10 0.79 0.53
0 1 -10 1.34 0.5
0 1 -10 0.4 0.67
0 1 -9 0.38 0.6
0 1 -9 0.57 0.34
0 1 -9 0.31 0.37
0 -1 8 133.62 4.31
0 1 -8 146.57 5.73
0 -1 8 148.85 4.5
0 1 -8 142.89 4.73
0 1 -8 139.41 4.33
0 1 -7 4.52 0.76
0 1 -7 5.22 0.98
0 -1 7 3.37 0.59
0 -1 7 4.9 0.74
0 1 -7 3.97 0.61
0 -1 6 124.46 4.64
0 -1 6 118.53 3.6
0 1 -6 130.61 3.44
0 1 -6 127.18 4.61
0 1 -6 119.04 3.6
0 -1 6 123.17 3.5
0 -1 5 380.2 7.42
0 1 -5 402.93 6.97
0 -1 5 388.99 8.64
0 -1 5 377.2 6.98
0 1 -5 395.2 7.12
0 1 -5 396.54 8.65
0 -1 4 306.68 5.41
0 1 -4 313.33 5.44
0 -1 4 301.32 6.92
0 -1 4 305.52 6.14
0 1 -4 321.45 6.99
0 1 -4 326.2 5.76
0 -1 3 520.81 9.42
0 -1 3 510.1 8.81
0 -1 3 510.17 7.55
0 1 -3 530.82 9.35
0 1 -3 518.56 8.47
0 1 -2 33.34 1.26
0 -1 2 29.05 1.35
0 -1 2 32.34 1.52
0 1 -2 29.65 1.3
0 1 -2 29.25 1.42
0 1 1 22.37 1.19
0 -1 -1 20.43 1.13
0 -1 -2 74.16 2.12
0 -1 -2 77.55 2.66
0 -1 -3 1230.64 19.87
0 1 3 1302.2 20.08
0 -1 -4 281.2 6.92
0 1 4 284.42 6.95
0 -1 -5 80.57 3.68
0 -1 -5 84.31 3.66
0 1 5 82.39 3.65
0 -1 -6 45.65 2.84
0 -1 -6 44.09 2.87
0 1 7 30.66 1.98
0 -1 -7 36.65 2.82
0 -1 -7 37.02 2.73
0 -1 -8 0.33 0.58
0 -1 -8 -0.05 0.13
0 -1 -8 -0.2 0.38
0 -1 -9 2.81 1.02
0 -1 -9 1.26 0.29
0 -1 -9 1.96 0.9
0 -1 -10 0.23 0.19
0 -1 -10 1.1 0.9
0 -1 -10 0.7 0.71
0 -1 -11 62.42 4.49
0 -1 -11 61.28 4.69
0 -1 -12 16.38 2.4
0 -1 -13 6.72 1.75
0 -1 -13 4.98 1.56
0 -1 -14 36.02 3.98
0 -1 -14 30.24 3.74
0 -1 -15 2.77 1.3
0 -1 -15 2.5 1.44
0 -1 -16 0.14 0.91
0 -1 -16 -0.63 0.73
0 2 -16 5.22 1.77
0 2 -15 9.42 2.13
0 2 -14 1.64 1.13
0 2 -13 7.76 1.73
0 2 -13 6.17 1.23
0 2 -13 7.76 1.39
0 2 -12 23.13 2.77
0 2 -12 17.98 1.96
0 2 -12 17.43 1.83
0 2 -11 687.85 16.7
0 2 -11 687.84 13.94
0 2 -11 679.57 13.68
0 2 -10 132.88 6.05
0 -2 10 128.41 4.08
0 2 -10 132.77 4.53
0 2 -10 126.14 4.54
0 2 -9 0.1 0.26
0 2 -9 0.43 0.69
0 -2 9 0.21 0.18
0 2 -9 0.56 0.39
0 2 -8 40.59 2
0 2 -8 46.37 3.15
0 2 -8 44.27 2.12
0 -2 8 42.8 1.88
0 2 -7 78.21 2.91
0 2 -7 81.08 2.54
0 -2 7 85.76 2.47
0 -2 7 81.78 3.69
0 2 -7 81.67 4.03
0 -2 6 0.56 0.4
0 2 -6 1.17 0.56
0 2 -6 0.57 0.19
0 -2 6 1.1 0.26
0 2 -6 1.32 0.41
0 -2 6 0.1 0.37
0 2 -5 5.83 0.96
0 2 -5 6.11 0.79
0 -2 5 6.72 0.98
0 -2 5 6.35 1.07
0 -2 5 6.39 0.41
0 -2 4 23.61 1.75
0 2 -4 27.76 1.89
0 2 -4 26.06 1.56
0 2 -4 25.89 1.66
0 -2 3 318.41 7.4
0 2 -3 318.46 7.14
0 2 -3 324.88 7.41
0 -2 3 337.44 6.64
0 2 -2 0.84 0.45
0 -2 2 0.54 0.19
0 -2 2 0.78 0.45
0 2 -1 27.5 1.28
0 -2 1 27.94 1.34
0 2 -1 24.13 1.69
0 -2 0 9999 133.59
0 2 1 1663.66 23.5
0 -2 -1 1674.93 25.34
0 -2 -1 1677.82 23.44
0 -2 -2 39.17 1.53
0 2 2 37.68 1.53
0 -2 -2 40.09 2.28
0 2 3 1.02 0.19
0 -2 -3 1.05 0.36
0 -2 -3 1.12 0.47
0 -2 -4 45.09 2.79
0 2 4 44.6 2.78
0 -2 -4 41.83 2.06
0 -2 -5 333.67 8.95
0 -2 -5 310.46 7.35
0 -2 -6 264.97 8.26
0 -2 -6 261.52 6.95
0 -2 -7 1.82 0.62
0 -2 -7 1.14 0.54
0 -2 -8 118.21 5.84
0 -2 -8 112.09 4.94
0 -2 -9 7.38 1.49
0 -2 -9 7.9 1.36
0 -2 -10 0.31 0.57
0 -2 -10 0.25 0.51
0 -2 -11 108.44 6.49
0 -2 -11 111.4 5.86
0 -2 -12 45.3 3.91
0 -2 -12 37.67 4.04
0 -2 -13 9.82 1.97
0 -2 -13 9.53 2.09
0 -2 -14 7.2 1.96
0 -2 -15 1.66 1.02
0 3 -16 28.9 2.93
0 3 -16 29.33 3.76
0 3 -15 6.88 1.4
0 3 -15 6.61 1.83
0 3 -14 13.76 1.79
0 3 -14 9.76 2.12
0 3 -13 15.53 1.76
0 3 -13 16.89 2.53
0 3 -12 83.44 3.91
0 3 -12 92.58 5.62
0 3 -11 25.15 1.98
0 3 -11 20.95 1.51
0 3 -11 20.28 2.5
0 3 -10 17.32 2.19
0 3 -10 19.37 1.67
0 3 -10 17.82 1.22
0 -3 10 19.47 1.19
0 3 -9 5.37 1.24
0 3 -9 6.77 0.99
0 -3 9 6.3 0.61
0 3 -9 6.34 0.61
0 3 -8 250.77 7.13
0 3 -8 265.88 8.43
0 3 -8 248.99 6.67
0 -3 8 256.45 4.64
0 -3 7 17.18 0.74
0 3 -7 16.81 1.57
0 3 -7 21.94 2.18
0 3 -7 15.2 1.54
0 3 -6 82.92 3.64
0 3 -6 73.98 3.38
0 3 -6 83.48 4.12
0 3 -5 99.81 4.41
0 -3 5 94.53 4.37
0 3 -5 92.64 3.95
0 -3 4 11.15 1.2
0 3 -4 11 1.39
0 -3 4 10.18 1.43
0 -3 3 6.53 0.93
0 3 -3 7.76 1.16
0 -3 3 9.3 0.78
0 3 -2 1.5 0.62
0 -3 2 1.32 0.36
0 3 -1 0.05 0.48
0 -3 1 0.54 0.31
0 -3 0 59.51 2.84
0 3 0 59.64 2.29
0 -3 -1 19.46 1.72
0 3 1 20.6 1.26
0 -3 -2 16.38 1.69
0 -3 -2 16.77 1.09
0 3 2 15.69 1.06
0 -3 -3 250.03 5.47
0 -3 -3 258.31 7.78
0 3 3 260.63 5.43
0 -3 -4 8.35 1.42
0 3 4 8.09 0.57
0 -3 -4 7.34 0.86
0 -3 -5 21.8 2.33
0 -3 -5 15.51 1.35
0 -3 -6 7.88 1.58
0 -3 -6 6.67 1.06
0 -3 -7 21.86 2.6
0 -3 -7 16.91 1.66
0 -3 -8 8.13 1.63
0 -3 -8 5.47 1.03
0 -3 -9 5.63 1.14
0 -3 -9 9.5 2.04
0 -3 -10 0.12 0.68
0 -3 -10 0.08 0.45
0 -3 -11 23.18 2.51
0 -3 -11 22.48 3.2
0 -3 -12 18.45 3.05
0 -3 -13 0.74 0.82
0 -3 -14 7.58 2.26
0 4 -16 2.06 0.84
0 4 -16 3.74 1.54
0 4 -15 2.6 0.86
0 4 -15 3.16 1.28
0 4 -14 1.05 0.83
0 4 -14 1.33 0.69
0 4 -13 36 2.61
0 4 -13 32.54 3.56
0 4 -12 14.85 2.38
0 4 -12 12.47 1.5
0 4 -11 202.06 6.42
0 4 -11 197.48 8.36
0 4 -10 213.71 6.73
0 4 -10 242.85 9.02
0 4 -9 4.41 0.96
0 4 -9 6.79 1.42
0 4 -9 6.69 1.2
0 4 -8 0.21 0.45
0 4 -8 2.3 0.94
0 4 -7 37.58 2.8
0 4 -7 35.93 3.04
0 4 -6 3.99 1.17
0 4 -6 3.77 1.08
0 4 -5 61.56 3.87
0 -4 5 59.65 3.23
0 4 -5 59.36 3.58
0 -4 4 4.41 0.88
0 -4 4 3.73 0.58
0 4 -4 4.27 1.05
0 -4 3 91.67 3.37
0 4 -3 100.69 4.82
0 4 -2 31.18 2.72
0 -4 2 29.85 2.03
0 4 -1 2.09 0.57
0 -4 1 1.37 0.51
0 4 -1 1.64 0.78
0 -4 0 778.49 15.24
0 4 0 757.57 13.31
0 -4 -1 853.04 16.85
0 4 1 825.07 14.06
0 4 2 4.1 0.64
0 -4 -2 4.05 1.05
0 4 3 2.28 0.52
0 -4 -3 4.33 1.15
0 4 4 3.46 0.55
0 -4 -4 5.15 1.28
0 -4 -4 2.58 0.52
0 4 5 60.86 1.65
0 -4 -5 68.77 2.82
0 -4 -5 69.97 4.63
0 -4 -6 175.58 5.19
0 -4 -6 173.46 7.86
0 -4 -7 9.02 1.19
0 -4 -7 10.08 2
0 -4 -8 13.13 1.53
0 -4 -8 11.03 2.17
0 -4 -9 14.05 2.61
0 -4 -10 -0.64 0.65
0 -4 -11 10.21 2.41
0 -4 -12 20.22 3.52
0 5 -16 9.56 1.68
0 5 -15 24.72 2.43
0 5 -15 20.53 3.16
0 5 -14 -0.3 0.92
0 5 -14 0.68 0.46
0 5 -13 2.14 1.26
0 5 -13 2.49 0.8
0 5 -12 40.14 2.95
0 5 -12 41.95 4.06
0 5 -11 22.16 2.24
0 5 -11 19.66 2.72
0 5 -10 46.34 3.36
0 5 -10 42.89 3.88
0 5 -9 -0.52 0.56
0 5 -9 -0.07 0.48
0 5 -8 69.04 4.25
0 5 -8 68.36 4.69
0 5 -7 94.77 5.08
0 5 -7 92.76 5.46
0 5 -6 19.63 2.31
0 5 -6 17.12 2.37
0 5 -5 10.24 0.56
0 5 -5 10.55 0.6
0 5 -5 6.53 1.35
0 -5 5 10.83 1.02
0 -5 5 10.73 1.52
0 -5 4 17.73 2.02
0 5 -4 21.33 2.44
0 -5 4 21.69 1.7
0 5 -3 5.55 1.29
0 -5 3 6.37 1.03
0 5 -2 15.62 2.25
0 5 -2 19.9 1.85
0 -5 2 18.84 1.89
0 5 -1 2.43 0.66
0 -5 1 2.41 0.8
0 5 -1 3.87 1.3
0 5 0 17 1.54
0 -5 0 20.61 2.2
0 5 0 19.73 2.65
0 -5 -1 37.49 3.21
0 5 1 39.83 2.24
0 5 2 2.84 0.62
0 -5 -2 4.43 1.1
0 -5 -3 20.43 2.55
0 5 3 21.22 1.82
0 -5 -4 41.38 3.76
0 -5 -5 11.73 2.12
0 -5 -6 3.89 1.45
0 -5 -7 3.82 1.36
0 -5 -8 0.71 1.03
0 -5 -9 8.38 2.21
0 -5 -10 -0.2 0.91
0 6 -16 9.87 1.69
0 6 -15 0.78 0.67
0 6 -14 -0.09 0.66
0 6 -14 1.84 0.8
0 6 -13 19.02 2.97
0 6 -13 24.97 2.57
0 6 -12 1.5 1.04
0 6 -12 0.13 1.07
0 6 -11 11.89 2.3
0 6 -11 12.99 1.95
0 6 -10 108.13 6.7
0 6 -10 106.02 5.75
0 6 -9 9.8 1.81
0 6 -9 11.15 2.19
0 6 -8 0.46 0.88
0 6 -8 0.5 0.8
0 6 -7 1.21 1.11
0 6 -7 0.81 0.89
0 -6 6 0.54 0.46
0 6 -6 1.04 0.62
0 -6 5 50.09 2.68
0 6 -5 52.03 4.17
0 -6 5 45.18 3.54
0 -6 4 4.79 0.94
0 -6 4 5.07 1.17
0 6 -4 5.83 1.44
0 -6 3 6.65 1.25
0 6 -3 7.16 1.76
0 6 -2 22.76 2.92
0 -6 2 22.68 2.36
0 -6 1 1.1 0.74
0 6 -1 0.46 1.12
0 -6 0 84 5.13
0 6 0 100.33 6.65
0 6 1 126.14 7.52
0 -6 -1 127.41 6.5
0 -6 -2 3.76 1.29
0 -6 -3 12.53 2.26
0 -6 -4 2.06 1.14
0 -6 -5 11.85 2.38
0 -6 -6 76.38 6.16
0 -6 -7 12.69 2.67
0 -6 -8 -0.13 0.81
0 7 -14 2.49 1.07
0 7 -13 0.62 0.78
0 7 -13 0.62 0.47
0 7 -12 9.1 1.83
0 7 -12 5.67 1.81
0 7 -11 19.51 2.64
0 7 -11 18 3.01
0 7 -10 24.27 3.45
0 7 -10 22.8 2.9
0 7 -9 10.56 2.02
0 7 -9 8.48 2.16
0 7 -8 4.06 1.51
0 7 -8 2.35 1.06
0 7 -7 43.95 4.09
0 7 -7 52.28 5.01
0 -7 6 15.36 2.23
0 7 -6 15.24 2.57
0 7 -5 0.6 0.86
0 -7 5 -0.24 0.47
0 -7 4 0.48 0.76
0 7 -4 0.19 0.62
0 -7 3 0.26 0.5
0 7 -3 -0.76 0.92
0 7 -2 16.88 2.88
0 -7 2 17.38 2.34
0 7 -1 4.15 1.61
0 -7 1 5.74 1.46
0 -7 0 81.75 5.49
0 7 0 87.55 6.77
0 -7 -1 15.33 2.58
0 7 1 17.64 3.12
0 -7 -2 -0.67 0.76
0 7 2 -1.76 1.33
0 -7 -3 1.29 0.94
0 7 3 1.35 1.28
0 -7 -4 5.38 1.72
0 -7 -5 0.78 0.93
0 -7 -6 4.67 1.84
0 8 -10 11.3 2.25
0 8 -10 11.42 2.66
0 8 -9 6.21 1.78
0 8 -9 8.32 2.37
0 8 -8 0.82 0.75
0 8 -8 0.87 1.09
0 8 -7 3.29 1.6
0 8 -7 1.75 1.13
0 8 -6 2.84 1.31
0 8 -5 9.04 2.14
0 -8 5 9.24 2.04
0 8 -4 7.99 2.07
0 -8 4 4.95 1.5
0 8 -3 1.93 1.19
0 -8 3 2.72 1.31
0 8 -2 1.38 1
0 -8 1 1 0.88
0 8 -1 1.69 1.43
0 -8 0 36.77 4
0 8 0 44.09 5.2
0 8 1 8.11 2.2
0 -8 -1 9.15 2.14
0 8 2 2.9 1.41
0 -8 -2 2.36 1.3
0 -8 -3 1.59 1.22
0 -8 -4 6.35 2.04
0 -9 2 3.9 1.64
1 -9 -2 -0.15 1.17
1 -9 -1 2.66 1.63
1 -9 2 0.88 1.23
1 -9 3 1.79 1.25
1 -9 4 0.39 0.68
1 -9 5 2.31 1.17
-1 9 -6 3.61 1.6
-1 9 -7 4.05 1.59
-1 9 -8 1.06 0.94
1 -8 -4 -1.07 1.09
1 -8 -3 -1.5 1.08
-1 8 2 2.33 1.44
1 -8 -2 -0.91 1.16
1 -8 -1 22.11 3.28
-1 8 1 22.71 3.7
-1 8 0 144.45 9.16
1 -8 0 145.07 8.12
1 -8 1 18.78 2.84
-1 8 -1 21.84 3.69
1 -8 2 2.06 1.13
-1 8 -2 -0.92 0.93
1 -8 3 5.93 1.76
-1 8 -3 4.95 1.78
1 -8 4 -0.54 0.7
-1 8 -4 0.11 0.97
1 -8 5 4.57 1.52
-1 8 -5 6.52 2.25
-1 8 -6 0.04 0.72
1 -8 6 1.62 0.98
-1 8 -7 4.08 1.51
-1 8 -7 5.5 1.81
-1 8 -8 6.08 1.78
-1 8 -8 6.26 1.86
-1 8 -9 -0.35 0.69
-1 8 -9 -0.13 0.74
-1 8 -10 12.39 2.33
-1 8 -10 12.16 2.54
-1 8 -11 72.36 5.42
-1 8 -11 70.18 6.03
-1 8 -12 6.82 1.75
-1 8 -12 3.79 1.58
1 -7 -7 3.59 1.83
1 -7 -6 7.58 2.26
1 -7 -5 0.98 0.86
1 -7 -4 -1.2 0.87
1 -7 -3 13.35 2.52
1 -7 -2 0.59 0.89
1 -7 -1 0.42 0.8
1 -7 0 6.24 1.59
-1 7 0 8.15 2.07
-1 7 -1 0.2 0.94
1 -7 1 0.41 0.65
1 -7 2 2.44 1.05
-1 7 -2 2.58 1.38
-1 7 -3 2.84 1.04
1 -7 3 3.83 1.27
1 -7 3 3.77 1.08
-1 7 -4 -0.29 0.85
1 -7 4 1.05 0.62
-1 7 -5 2.97 1.28
1 -7 5 4.1 1.36
1 -7 5 2.77 0.79
-1 7 -6 22.09 2.95
-1 7 -6 19.67 2.87
1 -7 6 21.86 2.7
-1 7 -7 2.6 1.09
-1 7 -7 0.86 1
-1 7 -8 15.74 2.59
-1 7 -8 14.03 2.31
-1 7 -9 1.28 0.91
-1 7 -9 -0.61 0.71
-1 7 -10 -0.29 0.79
-1 7 -10 1.21 1.04
-1 7 -11 4.46 1.56
-1 7 -11 1.98 0.95
-1 7 -12 13.16 2.14
-1 7 -12 14.98 2.66
-1 7 -13 11.03 2.43
-1 7 -13 11.75 1.89
-1 7 -14 3.39 1.48
-1 7 -14 3.11 0.97
-1 7 -15 2.45 1.13
1 -6 -9 0.2 0.92
1 -6 -8 7.63 2.27
1 -6 -7 2.2 1.11
1 -6 -6 2.14 1.2
1 -6 -5 9.73 2.17
1 -6 -4 0.65 0.86
1 -6 -3 17.45 2.68
1 -6 -2 1.4 1.11
1 -6 -1 14.42 2.33
1 -6 0 568.77 14.87
1 -6 1 242.02 8.66
-1 6 -1 225.42 6.01
-1 6 -1 255.57 10.33
-1 6 -2 19.16 2.71
1 -6 2 17.16 2.09
-1 6 -2 14.92 1.58
1 -6 3 19.46 2.13
1 -6 3 17.78 2.35
-1 6 -3 18.41 2.67
-1 6 -4 0.17 0.47
1 -6 4 0.19 0.48
1 -6 4 -0.32 0.29
-1 6 -5 67.46 4.73
1 -6 5 59.2 4.17
1 -6 6 29.83 3
-1 6 -6 27.18 2.92
-1 6 -6 23.13 2.78
-1 6 -6 27.1 1.22
-1 6 -7 12.47 2.03
-1 6 -7 10.99 1.92
-1 6 -8 37.06 3.31
-1 6 -8 37.02 3.6
-1 6 -9 4.85 1.31
-1 6 -9 7.25 1.65
-1 6 -10 1.39 0.98
-1 6 -10 -0.16 0.6
-1 6 -11 181.44 8.52
-1 6 -11 166.93 6.99
-1 6 -12 34.17 2.96
-1 6 -12 36.91 3.9
-1 6 -13 9.49 2.09
-1 6 -13 9.33 1.48
-1 6 -14 2.29 0.8
-1 6 -14 0.9 0.84
-1 6 -15 1.14 1.01
-1 6 -15 1.73 0.77
1 -5 -11 11.07 2.61
1 -5 -10 1.82 1.29
1 -5 -9 3.85 1.62
1 -5 -8 12.77 2.51
1 -5 -7 7.34 1.84
1 -5 -6 12.64 2.38
1 -5 -5 29.37 3.38
-1 5 4 0.18 0.29
1 -5 -4 0.1 0.53
-1 5 3 11.75 1.31
1 -5 -3 13.96 2.1
-1 5 2 8.15 1.19
1 -5 -2 7.98 1.66
1 -5 -1 4.81 1.22
-1 5 0 0.4 0.24
1 -5 0 0.35 0.42
-1 5 -1 1.07 0.39
1 -5 1 1.45 0.69
1 -5 2 14.41 1.7
-1 5 -2 16.05 2.18
-1 5 -2 15.28 1.55
1 -5 3 49.63 3.53
-1 5 -3 49.62 2.64
-1 5 -3 46.75 3.61
1 -5 3 49.84 2.98
1 -5 4 5.72 1.19
-1 5 -4 6.51 0.89
1 -5 4 5.55 0.96
-1 5 -4 5.89 1.37
-1 5 -5 15.59 1
-1 5 -5 13.38 1.88
-1 5 -5 14 1.16
-1 5 -5 12.41 1.81
1 -5 5 17.5 2.05
-1 5 -6 82.55 4.73
-1 5 -6 79.93 2.49
-1 5 -6 76.86 1.99
-1 5 -6 84.16 4.63
-1 5 -7 0.89 0.71
-1 5 -7 0.19 0.47
-1 5 -7 0.75 0.16
-1 5 -8 3.6 1.03
-1 5 -8 1.28 0.46
-1 5 -9 -0.05 0.57
-1 5 -9 0.36 0.54
-1 5 -10 1.4 0.67
-1 5 -10 0.62 0.74
-1 5 -11 16.39 2.38
-1 5 -11 13.95 1.73
-1 5 -12 22.55 2.12
-1 5 -12 23.65 2.95
-1 5 -13 2.85 0.79
-1 5 -13 2.2 0.92
-1 5 -14 26.05 3.41
-1 5 -14 21.49 2.04
-1 5 -15 0.46 0.75
-1 5 -15 1.79 0.72
-1 5 -16 1.61 1.11
1 -4 -13 0.06 0.92
1 -4 -12 0.3 0.71
1 -4 -11 50.81 5.19
1 -4 -10 113.78 7.45
1 -4 -9 2.43 1.17
1 -4 -8 12.14 2.33
1 -4 -8 12.3 1.29
1 -4 -7 15.33 2.35
1 -4 -7 15.35 1.26
1 -4 -6 2.6 1.01
1 -4 -6 2.73 0.45
1 -4 -5 0.18 0.12
1 -4 -5 -0.17 0.67
1 -4 -4 0.9 0.76
-1 4 4 0.12 0.17
1 -4 -3 61.2 3.98
-1 4 3 54.41 2.45
-1 4 2 30.71 1.99
1 -4 -2 34.24 2.83
-1 4 1 32.75 2.22
1 -4 -1 30.62 2.57
-1 4 0 1436.24 20.86
1 -4 0 1462.33 24.95
-1 4 0 1445.89 24
1 -4 1 1583.39 26.01
-1 4 -1 1560.8 25.13
1 -4 2 50.6 2.8
-1 4 -2 49.07 2.53
-1 4 -3 -0.13 0.4
-1 4 -3 0.18 0.24
1 -4 3 -0.05 0.41
1 -4 3 0.03 0.28
-1 4 -4 24.96 2.23
1 -4 4 25.09 2.21
-1 4 -4 26.04 1.55
-1 4 -5 257.92 7.7
-1 4 -5 254.12 4.71
-1 4 -5 253.24 5.39
-1 4 -5 261.45 7.82
-1 4 -6 280.73 8.37
-1 4 -6 273.37 4.83
-1 4 -6 277.29 7.97
-1 4 -6 276.59 8.29
-1 4 -6 270.53 5.38
-1 4 -7 43.64 1.62
-1 4 -7 44.27 2.88
-1 4 -7 51.27 3.42
-1 4 -7 43.98 1.58
-1 4 -8 32.49 2.87
-1 4 -8 34.97 2.49
-1 4 -8 37.4 1.52
-1 4 -9 83.58 2.59
-1 4 -9 89.63 2.45
-1 4 -9 92.04 4.98
-1 4 -9 91.2 4.01
-1 4 -10 38.42 3.39
1 -4 10 36.64 1.78
-1 4 -10 34.13 2.31
-1 4 -10 33.69 1.57
-1 4 -11 155.63 5.13
-1 4 -11 160.35 7.24
-1 4 -12 73.38 5.04
-1 4 -12 80.11 3.54
-1 4 -13 4.7 0.98
-1 4 -13 5.42 1.45
-1 4 -14 22.53 2.09
-1 4 -14 23.33 3.08
-1 4 -15 2.58 1.36
-1 4 -16 36.65 4.23
1 -3 -14 0.68 0.96
1 -3 -13 14.01 2.79
1 -3 -12 21.08 3.23
1 -3 -11 21.56 3.1
1 -3 -11 21.8 2.37
1 -3 -10 0.35 0.55
1 -3 -10 0.12 0.67
1 -3 -9 9.62 1.37
1 -3 -9 13.79 2.27
1 -3 -8 37.43 2.52
1 -3 -8 46.2 3.92
1 -3 -7 93.5 3.74
1 -3 -7 90.46 5.32
1 -3 -6 0.15 0.28
1 -3 -6 1.17 0.75
1 -3 -5 184.12 4.43
1 -3 -5 180.49 7.05
-1 3 4 0.21 0.17
1 -3 -4 0.26 0.13
1 -3 -4 0.07 0.39
1 -3 -3 -0.24 0.57
-1 3 3 0.55 0.25
-1 3 2 0.38 0.28
1 -3 -2 0.57 0.6
-1 3 2 0.19 0.35
-1 3 1 21.18 1.74
1 -3 -1 22.88 1.94
-1 3 1 20.66 1.5
1 -3 0 0.48 0.42
-1 3 0 0.71 0.41
-1 3 0 0.68 0.28
-1 3 -1 36.58 2.02
1 -3 1 36.24 2.14
-1 3 -2 17.26 1.31
1 -3 2 18.44 1.71
1 -3 2 14.27 1.25
-1 3 -3 346.4 8.39
1 -3 3 355.9 8.56
-1 3 -3 364.59 7.16
-1 3 -4 59.5 2.24
-1 3 -4 56.39 1.73
-1 3 -4 56.25 3.04
-1 3 -4 56.62 2.88
-1 3 -4 61.46 3.01
-1 3 -5 120.83 2.7
-1 3 -5 114.7 4.55
-1 3 -5 119.58 4.24
-1 3 -5 116.29 4.44
-1 3 -5 115.29 3.28
1 -3 5 119.65 4.62
1 -3 6 12.22 1.45
-1 3 -6 17.01 1.52
-1 3 -6 16.15 1.68
1 -3 6 14.2 0.96
-1 3 -6 14.77 0.92
-1 3 -6 13.92 1.58
1 -3 7 19.01 1.87
-1 3 -7 19.91 1.57
-1 3 -7 15.34 1.72
1 -3 7 17.68 1.1
-1 3 -8 2.87 0.9
-1 3 -8 3.59 0.7
1 -3 8 3.34 0.52
1 -3 9 21.28 1.39
-1 3 -9 20.68 2.29
-1 3 -9 19.95 1.52
-1 3 -10 0.42 0.28
-1 3 -10 1.16 0.56
-1 3 -10 0.8 0.38
1 -3 10 0.74 0.36
-1 3 -11 25.22 2.75
-1 3 -11 26.93 2.01
-1 3 -11 28.08 1.91
-1 3 -12 55.92 3.16
-1 3 -12 50.63 2.84
-1 3 -12 51.64 4.11
-1 3 -13 5.17 1
-1 3 -13 6.68 1.59
-1 3 -14 21.32 2.14
-1 3 -14 23.29 3.06
-1 3 -15 2.22 1.11
-1 3 -16 2.35 1.41
1 -2 -16 3.98 1.8
1 -2 -15 0.33 0.85
1 -2 -14 0.47 0.84
1 -2 -14 0.63 0.69
1 -2 -13 26.94 3.13
1 -2 -13 28.67 3.63
1 -2 -12 3.75 1.34
1 -2 -11 23.2 2.96
1 -2 -10 331.77 11.32
1 -2 -9 1.32 0.7
1 -2 -9 1.2 0.24
1 -2 -8 0.14 0.13
1 -2 -8 0.44 0.57
1 -2 -7 19.01 2.16
1 -2 -7 16.84 0.88
1 -2 -6 7.86 0.6
1 -2 -6 8.14 1.38
1 -2 -5 97.26 4.49
-1 2 5 92.96 4.11
1 -2 -5 90.31 2.35
-1 2 4 61.31 3.04
-1 2 4 60.71 3.14
1 -2 -4 56.28 3.23
1 -2 -4 55.13 1.81
1 -2 -3 1.95 0.63
-1 2 3 1.43 0.5
1 -2 -3 1.81 0.34
-1 2 3 1.36 0.49
1 -2 -2 716.5 13.55
-1 2 2 716.32 11.3
-1 2 2 737.59 13.3
1 -2 -2 741.13 11.64
-1 2 1 613.63 10.32
1 -2 -1 624.04 10.51
1 -2 -1 626.35 11.64
-1 2 1 630.34 11.41
-1 2 0 2122.3 30.73
-1 2 0 2121.15 28.65
-1 2 0 2074.47 30.26
1 -2 0 2078.23 30.87
-1 2 -1 4155.8 57.19
1 -2 1 4178.98 57.3
-1 2 -1 4143.34 57.64
1 -2 1 4161.94 58.14
1 -2 2 60.48 2.63
-1 2 -2 60.51 2.67
-1 2 -2 62.3 2.27
-1 2 -3 195.23 5.3
-1 2 -3 191.29 3.71
-1 2 -3 196.78 4.8
-1 2 -3 192.74 4.81
1 -2 4 84.68 3.04
1 -2 4 83.84 2.31
-1 2 -4 85.42 2.87
-1 2 -4 88.22 3.22
1 -2 4 86.76 3.33
-1 2 -4 87.67 2.22
-1 2 -5 258.61 6.45
1 -2 5 240.36 5.86
-1 2 -5 238.45 4.85
1 -2 5 248.89 4.82
1 -2 5 241.41 6.51
-1 2 -5 236.43 5.3
-1 2 -6 1283.58 21.77
1 -2 6 1330.73 19.33
1 -2 6 1297.59 20.77
1 -2 6 1284.08 22.09
-1 2 -7 73.66 3.63
1 -2 7 74.21 3.18
-1 2 -7 73.12 2.46
1 -2 7 74.32 2.61
-1 2 -8 20.15 1.31
1 -2 8 19.73 1.4
1 -2 8 20.15 1.72
-1 2 -8 21.08 2.02
1 -2 9 143.23 4.94
1 -2 9 137.71 4.27
-1 2 -9 129.05 3.95
-1 2 -9 135.13 5.73
-1 2 -10 20.5 2.33
-1 2 -10 17.63 1.47
-1 2 -10 15.77 1.64
-1 2 -11 9.2 1.34
-1 2 -11 10.96 1.3
-1 2 -11 11.35 1.86
-1 2 -12 53.55 3.48
-1 2 -12 51.38 4.09
-1 2 -13 -0.15 0.55
-1 2 -13 0.67 0.65
-1 2 -14 49.72 3.82
-1 2 -14 56.86 4.84
-1 2 -15 0.91 0.65
-1 2 -16 15.8 2.86
1 -1 -16 10.33 2.38
1 -1 -15 33.29 4.07
1 -1 -15 29.84 3.91
1 -1 -14 2.39 1.34
1 -1 -14 3 1.4
1 -1 -13 3.11 1.38
1 -1 -13 3.7 1.48
1 -1 -12 36.56 3.74
1 -1 -12 37.99 3.72
1 -1 -11 58.24 4.36
1 -1 -11 54.54 4.32
1 -1 -10 39.7 3.46
1 -1 -10 41.45 3.51
1 -1 -9 7.75 1.48
1 -1 -9 7.95 1.49
1 -1 -8 74.57 4.16
1 -1 -8 71.19 4.09
1 -1 -7 369.41 9.74
1 -1 -7 370.11 9.7
1 -1 -6 1.02 0.49
-1 1 6 0.7 0.4
1 -1 -6 3.22 0.8
-1 1 6 1.48 0.49
-1 1 5 132.72 4.53
-1 1 5 124.19 4.39
1 -1 -5 125.06 4.62
1 -1 -5 127.02 4.49
-1 1 5 126.69 3.95
1 -1 -4 46.54 2.52
-1 1 4 45.62 2.29
-1 1 4 41.52 2.28
1 -1 -4 46.78 2.35
-1 1 3 0.39 0.32
1 -1 -3 0.05 0.32
1 -1 -3 0.82 0.52
-1 1 3 0.23 0.32
1 -1 -2 213.42 5.24
1 -1 -2 224.21 3.99
1 -1 -2 211.78 4.61
-1 1 2 217.91 5.18
-1 1 2 223.37 4.61
-1 1 1 67.69 1.78
-1 1 1 72.57 2.49
1 -1 -1 68.09 2.46
-1 1 1 66.39 1.69
1 -1 -1 65.64 1.72
1 -1 -1 67.92 1.89
-1 1 1 67.74 1.83
-1 1 0 5.24 0.61
1 -1 0 4.82 0.61
1 -1 0 5.63 0.55
-1 1 -1 482.26 8.43
1 -1 1 465.58 8.1
-1 1 -1 474.94 8.1
-1 1 -1 478.97 7.46
1 -1 1 483.33 8.19
-1 1 -1 477.75 7.07
1 -1 2 276.67 5.09
-1 1 -2 292.65 5.1
1 -1 2 274.24 4.9
-1 1 -2 277.74 4.82
-1 1 -2 284.05 5.66
-1 1 -2 277.52 4.72
1 -1 3 520.26 9.11
-1 1 -3 531.66 8.47
1 -1 3 531.8 8.42
-1 1 -3 538.1 9.5
1 -1 3 526.31 8.19
-1 1 -3 536.4 9.12
-1 1 -3 536.62 7.94
1 -1 4 79.67 2.18
-1 1 -4 76.54 1.78
-1 1 -4 80.41 2.88
-1 1 -4 79.7 2.47
1 -1 4 73.9 2.81
1 -1 4 82.35 2.39
-1 1 -5 1.67 0.3
1 -1 5 1.23 0.54
1 -1 5 1.89 0.41
-1 1 -5 0.86 0.35
1 -1 5 1.51 0.33
-1 1 -6 322.81 6.14
-1 1 -6 329.84 8.03
1 -1 6 329.14 6.87
1 -1 6 335.03 6.36
1 -1 6 318.59 8.01
1 -1 7 73.15 2.9
-1 1 -7 63.75 2.43
-1 1 -7 74.17 3.64
1 -1 7 69.87 2.53
-1 1 -8 15.77 1.81
1 -1 8 17.25 1.31
-1 1 -9 75.31 4.3
1 -1 9 84.75 3.17
-1 1 -9 83.34 3.98
-1 1 -10 0.22 0.41
1 -1 10 0.55 0.37
-1 1 -10 -0.06 0.39
-1 1 -10 -0.15 0.34
-1 1 -11 18.92 2.13
-1 1 -11 19.37 2.44
-1 1 -11 20.61 2.1
-1 1 -12 55.61 4.37
-1 1 -12 50.42 3.71
-1 1 -13 5.8 1.52
-1 1 -13 8.89 1.67
-1 1 -14 0.41 0.55
-1 1 -14 0.74 0.59
-1 1 -15 9.25 2.36
-1 1 -15 4.78 1.51
-1 1 -15 6.19 1.74
-1 1 -16 4.7 1.7
-1 1 -16 -0.17 0.79
-1 1 -17 48.02 5.7
1 0 -16 15.56 2.98
1 0 -15 16.03 2.69
1 0 -15 17.93 3.08
1 0 -14 2.33 1
1 0 -14 1.58 1.27
1 0 -13 121.69 7.09
1 0 -13 117.16 6.49
1 0 -12 0.54 0.58
1 0 -12 0.83 0.84
1 0 -11 -0.24 0.55
1 0 -11 -0.33 0.7
1 0 -10 192.42 7.62
1 0 -10 187.41 7.11
1 0 -9 118.02 5.56
1 0 -9 121.42 5.23
1 0 -8 42.13 3.02
1 0 -8 41.62 2.77
-1 0 7 -0.2 0.23
1 0 -7 -0.34 0.5
-1 0 7 0.57 0.42
1 0 -7 -0.12 0.37
1 0 -7 0.69 0.46
1 0 -6 1.15 0.44
-1 0 6 1.66 0.52
-1 0 6 1.19 0.44
1 0 -6 0.88 0.39
-1 0 6 1.4 0.4
1 0 -6 1.05 0.39
1 0 -5 557.29 11.16
1 0 -5 554.7 10.78
-1 0 5 569.38 10.47
-1 0 5 566.53 11.24
-1 0 5 585.18 9.75
1 0 -5 572.69 10.27
-1 0 4 306.45 5.79
-1 0 4 311.45 6.9
-1 0 4 304.35 6.33
1 0 -4 303.4 6.12
1 0 -4 296.33 6.73
1 0 -4 301.99 6.57
1 0 -3 1.37 0.29
-1 0 3 1.67 0.33
-1 0 3 1.82 0.42
-1 0 3 2.49 0.49
1 0 -3 1.44 0.45
1 0 -3 1.9 0.44
-1 0 2 822.17 12.89
-1 0 2 850.82 12.14
1 0 -2 815.91 12.91
1 0 -2 826.97 12.83
1 0 -2 816.35 12.21
-1 0 2 845.28 12.88
-1 0 1 142.4 3.39
1 0 1 1773.26 25.04
1 0 1 1734.57 23.75
-1 0 -1 1686.32 24.92
-1 0 -1 1740.08 24
1 0 1 1755.48 23.98
1 0 2 647.6 10.68
-1 0 -2 654.05 11.28
1 0 2 672.06 10.29
1 0 2 643.47 11.36
-1 0 -2 653.95 9.73
-1 0 -2 660.11 10.4
1 0 2 669.55 9.95
-1 0 -3 471.98 7.45
-1 0 -3 445.11 8.67
1 0 3 473.66 7.68
-1 0 -3 464.03 9.2
-1 0 -3 459.69 8.37
1 0 3 463.2 8.7
1 0 3 472.04 8.2
-1 0 -4 33.65 1.36
-1 0 -4 35.67 2.07
-1 0 -4 36.17 2.19
1 0 4 35.55 1.32
1 0 4 36.31 1.81
1 0 4 36.55 2.03
1 0 5 58.45 1.89
-1 0 -5 62.08 2.04
1 0 5 60.21 2.92
1 0 5 60.3 2.6
-1 0 -5 59.08 2.93
-1 0 -5 61.06 3.19
-1 0 -6 1255.02 18.77
1 0 6 1256.7 18.51
-1 0 -6 1246.36 22.3
1 0 6 1248.47 21.52
1 0 6 1267.61 20.45
-1 0 -6 1258.74 21.63
-1 0 -7 113.57 3.34
-1 0 -7 121.66 5.01
1 0 7 115.95 3.19
1 0 8 13.38 1.03
-1 0 -8 14.13 1.83
-1 0 -8 14.73 1.16
-1 0 -8 13.02 1.59
-1 0 -9 7.18 1.28
-1 0 -9 7.71 1.47
-1 0 -9 7.71 0.88
1 0 9 7.98 0.86
-1 0 -10 9.1 1.01
-1 0 -10 9.54 1.55
-1 0 -10 14.58 2.23
-1 0 -10 9.73 1.74
-1 0 -11 26.45 3
-1 0 -11 20.57 2.42
-1 0 -11 21.3 2.81
-1 0 -12 12.56 2.35
-1 0 -12 7.05 1.64
-1 0 -12 5.98 1.6
-1 0 -13 3.45 1.28
-1 0 -13 1.01 0.81
-1 0 -13 1.82 1.25
-1 0 -14 30.51 3.88
-1 0 -14 26.27 3.21
-1 0 -15 3.23 1.52
-1 0 -15 1.23 0.99
-1 0 -16 2.41 1.16
-1 0 -16 2.9 1.6
-1 0 -17 23.92 3.89
1 1 -16 3.89 1.45
1 1 -15 52.22 4.98
1 1 -14 16.3 2.63
1 1 -14 15.98 2.31
1 1 -13 7.6 1.84
1 1 -13 10.33 1.75
1 1 -12 21.88 2.37
1 1 -12 19.48 2.61
1 1 -11 132.4 5.64
1 1 -11 128.38 6.39
1 1 -11 128.12 5.34
1 1 -10 119.75 4.97
1 1 -10 110.76 4.66
1 1 -10 119.42 5.82
1 1 -9 20.29 1.87
1 1 -9 17.51 2.04
1 1 -9 20.57 1.8
1 1 -8 63.52 3.72
1 1 -8 65.57 3.14
1 1 -8 67.91 3.01
1 1 -7 243.81 5.88
1 1 -7 238.14 7.31
1 1 -7 239.51 6.08
-1 -1 6 432.53 7.93
-1 -1 6 419.3 8.81
1 1 -6 414.78 8.23
1 1 -6 433.99 10.05
1 1 -6 430.96 8.4
-1 -1 6 432.01 10.16
1 1 -5 82.08 2.68
-1 -1 5 80.11 2.44
1 1 -5 94.99 2.89
-1 -1 5 84.72 3.15
-1 -1 5 89.74 3.81
1 1 -5 84.19 3.59
1 1 -4 123.51 3.02
-1 -1 4 121.96 2.89
-1 -1 4 120.18 3.71
-1 -1 4 123.1 4.23
1 1 -4 115.3 4.06
1 1 -4 113.39 3.28
1 1 -3 0.46 0.41
-1 -1 3 0.03 0.16
1 1 -3 0.09 0.23
-1 -1 3 0.18 0.27
-1 -1 2 405.36 7.7
1 1 -2 378.46 7.26
-1 -1 2 384.52 5.81
1 1 -1 120.1 3.34
-1 -1 1 127.37 2.52
-1 -1 1 129.34 3.62
1 1 -1 126.4 2.49
1 1 -1 119.98 3.64
1 1 0 0.79 0.38
-1 -1 0 0.48 0.3
1 1 0 1.11 0.4
-1 -1 0 0.71 0.24
1 1 0 0.59 0.19
-1 -1 0 0.99 0.4
1 1 1 275.2 5.97
1 1 1 292.38 5.5
1 1 1 286.73 6.23
-1 -1 -1 277.39 6.1
-1 -1 -2 8.3 0.95
1 1 2 8.53 0.93
1 1 2 9.23 0.88
1 1 3 2.97 0.57
-1 -1 -3 2.63 0.62
1 1 3 3.4 0.73
1 1 3 3.17 0.31
1 1 4 37.45 2.41
1 1 4 34.79 1.1
1 1 4 35.3 2.07
-1 -1 -4 35.44 2.19
-1 -1 -5 66.12 3.3
-1 -1 -6 439.26 10.51
-1 -1 -7 0.4 0.45
-1 -1 -7 0.66 0.43
-1 -1 -8 2.73 0.89
1 1 8 3.22 0.62
-1 -1 -8 4.55 1.21
-1 -1 -9 63.35 4.15
-1 -1 -9 67.91 4.3
-1 -1 -10 8.18 1.61
-1 -1 -10 7.1 1.51
-1 -1 -11 2.78 1.17
-1 -1 -11 3.31 1.32
-1 -1 -12 16.99 2.6
-1 -1 -12 13.31 2.3
-1 -1 -13 0.63 0.57
-1 -1 -13 2.14 0.99
-1 -1 -14 25.18 3.43
-1 -1 -14 19.13 3.04
-1 -1 -15 0.43 0.86
-1 -1 -15 1.02 1.08
-1 -1 -16 0.46 0.77
1 2 -16 32.57 4.01
1 2 -15 63.14 5.41
1 2 -14 0.63 0.81
1 2 -14 -0.58 0.52
1 2 -13 82.15 4.54
1 2 -13 85.21 5.66
1 2 -12 31.85 3.4
1 2 -12 31.11 2.39
1 2 -12 30.18 2.52
1 2 -11 2.86 0.74
1 2 -11 4.87 1.44
-1 -2 11 2.6 0.61
1 2 -11 3.69 0.88
1 2 -10 0.49 0.5
1 2 -10 -0.02 0.28
1 2 -10 0.08 0.52
-1 -2 10 -0.06 0.22
1 2 -9 189.48 5.57
1 2 -9 188.75 7.27
1 2 -9 193.28 5.12
-1 -2 9 188.57 4.68
1 2 -8 30.11 2.66
1 2 -8 28.92 1.58
1 2 -8 30.57 1.93
1 2 -7 34.87 2.73
1 2 -7 30.76 1.39
1 2 -7 29.49 1.88
1 2 -6 2.32 0.75
1 2 -6 3.05 0.49
1 2 -6 3.63 0.73
1 2 -5 393.68 9.73
1 2 -5 402.38 8.66
-1 -2 5 407.78 9.64
1 2 -5 414.51 7.22
-1 -2 4 302.81 7.88
1 2 -4 309.49 8.01
1 2 -4 311.38 7.28
-1 -2 3 71.27 2.2
1 2 -3 72.96 3.13
-1 -2 3 68.2 3.26
1 2 -2 18.13 1.54
-1 -2 2 15.81 1.54
1 2 -2 18.02 0.76
1 2 -1 139.22 4.54
1 2 -1 126.09 4.22
1 2 -1 137.71 3.1
-1 -2 1 142.24 4.8
1 2 0 9.52 0.81
-1 -2 0 8.94 1.03
1 2 0 10.33 1.08
1 2 0 9.52 1.16
1 2 1 46.86 2.37
-1 -2 -1 50.24 2.43
1 2 1 52.48 2.22
1 2 2 89.92 3.3
-1 -2 -2 88.76 3.35
1 2 2 92.89 3.41
-1 -2 -3 55.6 2.7
1 2 3 53.74 2.68
1 2 3 48.57 2.57
-1 -2 -4 11.17 1.5
-1 -2 -4 12.53 1.35
1 2 4 9.74 1.18
-1 -2 -5 8.91 1.43
-1 -2 -5 7.38 1.14
-1 -2 -6 283.06 8.04
-1 -2 -6 311.6 9.24
-1 -2 -7 106.27 4.82
-1 -2 -7 120.92 5.71
-1 -2 -8 2.69 0.81
-1 -2 -8 1.88 0.86
-1 -2 -9 3.57 1.22
-1 -2 -9 3.09 1.15
-1 -2 -10 5.29 1.26
-1 -2 -10 7.73 1.74
-1 -2 -11 7.24 1.58
-1 -2 -11 6.49 1.68
-1 -2 -12 1.53 0.78
-1 -2 -12 0.99 0.67
-1 -2 -13 -0.24 0.87
-1 -2 -13 2.12 1.08
-1 -2 -14 4.16 1.84
1 3 -16 -0.06 0.62
1 3 -16 -0.55 0.86
1 3 -15 23.03 3.29
1 3 -15 25.24 2.69
1 3 -14 23.63 2.47
1 3 -14 26.49 3.32
1 3 -13 10.24 1.99
1 3 -13 11.76 1.6
1 3 -12 1.33 0.89
1 3 -12 1.37 0.62
1 3 -11 117.28 6.28
1 3 -11 112.7 4.58
1 3 -10 42.16 3.62
1 3 -10 39.77 2.5
-1 -3 10 44.18 1.53
1 3 -10 43.02 2.65
-1 -3 9 96.76 2.08
1 3 -9 105.11 3.96
1 3 -9 113.06 5.72
1 3 -9 105.21 4.2
1 3 -8 11.14 1.34
1 3 -8 14.94 1.99
1 3 -8 11.47 1.2
1 3 -7 30.99 2.79
1 3 -7 31.45 2.3
1 3 -6 507.21 11.29
1 3 -6 502.27 12.48
1 3 -5 44.59 3.16
1 3 -5 45.71 2.85
-1 -3 4 2.1 0.48
1 3 -4 2.41 0.75
-1 -3 4 2.32 0.35
1 3 -3 0.26 0.44
-1 -3 3 0.74 0.28
1 3 -3 -0.04 0.09
1 3 -2 60.5 3.38
-1 -3 2 66.86 2.61
1 3 -2 74.46 3.54
1 3 -2 64.7 2.03
-1 -3 1 138.99 4.31
1 3 -1 129.93 3.56
1 3 -1 128.71 5.17
1 3 -1 135.5 4.72
1 3 0 0.58 0.54
1 3 0 1.15 0.48
1 3 0 1.09 0.38
-1 -3 0 0.62 0.4
1 3 1 51.95 2.71
1 3 1 47.42 2.42
1 3 1 47.93 3.24
-1 -3 -1 45.09 2.5
-1 -3 -1 50.13 2.9
-1 -3 -2 40.32 2.8
1 3 2 37.97 2.32
-1 -3 -2 32.58 2.14
-1 -3 -3 32.57 2.64
1 3 3 33.01 2.2
-1 -3 -3 29.95 2.1
-1 -3 -4 0.07 0.41
-1 -3 -4 -0.41 0.39
-1 -3 -5 23.84 2.57
-1 -3 -5 18.01 1.75
-1 -3 -6 63.79 3.5
-1 -3 -6 64.16 4.33
-1 -3 -7 51.34 4.11
-1 -3 -7 47.99 3.22
-1 -3 -8 -0.13 0.49
-1 -3 -8 0.5 0.48
-1 -3 -9 19.48 2.22
-1 -3 -9 21.32 2.87
-1 -3 -10 5.51 1.38
-1 -3 -10 5.03 1.58
-1 -3 -11 1.49 0.92
-1 -3 -12 4.06 1.5
-1 -3 -13 0.11 0.74
1 4 -17 0.84 0.83
1 4 -16 16.55 2.28
1 4 -15 69.46 4.39
1 4 -15 59.31 5.33
1 4 -14 12.56 2.41
1 4 -14 16.12 2.02
1 4 -13 16.32 1.88
1 4 -13 17.43 2.71
1 4 -12 64.29 5
1 4 -12 64.19 3.65
1 4 -11 0.64 0.7
1 4 -11 0.9 0.5
1 4 -10 44.48 3.9
1 4 -10 42.89 2.95
1 4 -9 5.37 1.41
1 4 -9 6.52 1.24
1 4 -8 -0.55 0.68
1 4 -8 0.54 0.47
1 4 -7 61.86 4.26
1 4 -7 55.33 3.56
1 4 -6 10.52 1.57
1 4 -6 13.77 1.98
-1 -4 5 57.09 1.92
1 4 -5 59.61 3.75
-1 -4 5 60.48 2.97
-1 -4 4 112.09 4.32
-1 -4 4 112.72 3.47
1 4 -4 115.97 5.34
1 4 -4 117.19 2.43
1 4 -3 44.13 3.23
1 4 -3 46.3 1.69
-1 -4 3 42.23 2.24
1 4 -2 2.71 0.73
1 4 -2 2.98 1.01
1 4 -2 3.81 0.57
-1 -4 2 2.85 0.67
1 4 -1 34.56 3
-1 -4 1 36.49 2.43
1 4 -1 33.58 1.91
1 4 -1 30.95 2.4
1 4 0 0.54 0.62
1 4 0 -0.01 0.35
-1 -4 0 0.16 0.56
1 4 0 1.16 0.5
1 4 1 18.05 2.28
-1 -4 -1 15.97 1.85
1 4 1 14.12 1.57
1 4 2 8.35 1.2
-1 -4 -2 8.52 1.44
1 4 3 0.2 0.48
-1 -4 -3 0.09 0.43
-1 -4 -3 0.26 0.3
-1 -4 -4 15.2 2.09
1 4 4 16.91 1.76
-1 -4 -4 15.14 1.59
-1 -4 -5 2.56 0.79
-1 -4 -5 2.49 0.9
1 4 5 1.8 0.35
-1 -4 -6 29.92 3.26
-1 -4 -6 27.74 2.39
-1 -4 -7 20.85 2.86
-1 -4 -7 19.9 2.07
-1 -4 -8 0.96 0.76
-1 -4 -9 6.88 1.88
-1 -4 -10 0.84 1.03
-1 -4 -11 2.85 1.46
1 5 -16 -0.17 0.55
1 5 -15 1.48 1
1 5 -15 2.12 0.89
1 5 -14 6.43 1.29
1 5 -14 9.27 2.13
1 5 -13 0 0.39
1 5 -13 0.13 0.64
1 5 -12 8.87 1.99
1 5 -12 8.23 1.41
1 5 -11 32.18 3.66
1 5 -11 34.09 2.95
1 5 -10 0.53 0.69
1 5 -10 2.14 0.95
1 5 -9 97.06 6.08
1 5 -9 100.72 5.3
1 5 -8 4.82 1.39
1 5 -8 5.72 1.34
1 5 -7 1.71 1.03
1 5 -7 0.99 0.81
-1 -5 6 122.75 4.99
1 5 -6 130.12 6.94
1 5 -6 120.12 6
1 5 -5 8.17 1.56
-1 -5 5 6.38 0.82
-1 -5 5 7.74 1.26
1 5 -4 60.98 1.9
1 5 -4 59.83 4.2
-1 -5 4 54.31 2.81
1 5 -3 0.58 0.31
1 5 -3 0.1 0.61
-1 -5 3 0.75 0.56
1 5 -2 6.93 0.88
-1 -5 2 7.5 1.21
1 5 -2 12.72 2
-1 -5 1 31.03 2.58
1 5 -1 36.92 3.47
-1 -5 0 0.98 0.55
1 5 0 1.17 0.79
1 5 0 0.14 0.57
-1 -5 -1 0.68 0.71
1 5 1 0.88 0.58
1 5 1 2.61 1.11
-1 -5 -2 15.44 2.17
1 5 2 16.92 2.57
1 5 3 1.84 0.95
-1 -5 -3 2.3 0.97
-1 -5 -4 14.68 2.31
-1 -5 -5 3.04 1.25
-1 -5 -6 3.01 1.37
-1 -5 -7 28.64 3.66
-1 -5 -8 1.82 1.29
-1 -5 -9 1.27 1.17
1 6 -14 20.65 2.46
1 6 -13 3.82 1.22
1 6 -13 2.03 1.16
1 6 -12 18.12 2.95
1 6 -12 24.74 2.7
1 6 -11 1.73 0.84
1 6 -11 0.66 0.87
1 6 -10 33 3.88
1 6 -10 32.36 3.2
1 6 -9 22.1 3.21
1 6 -9 24.73 2.81
1 6 -8 0.54 0.74
1 6 -8 1 0.68
1 6 -7 19.82 2.64
1 6 -7 20.74 3.1
1 6 -6 15.88 2.4
-1 -6 6 11.9 1.69
-1 -6 5 10.97 1.71
1 6 -5 10.15 1.97
-1 -6 4 12.26 1.52
1 6 -4 7.54 1.69
1 6 -3 9.53 1.97
-1 -6 3 10.74 1.59
-1 -6 2 2.83 0.91
1 6 -2 0.86 0.68
1 6 -1 0.38 0.77
-1 -6 1 1.87 0.85
1 6 0 5.2 1.67
-1 -6 0 4.73 1.23
1 6 1 15.84 2.72
-1 -6 -1 12.99 2.11
1 6 2 16.42 2.84
-1 -6 -2 14.17 2.25
1 6 3 1.02 1.28
-1 -6 -3 0.22 0.76
-1 -6 -4 -0.26 0.7
1 6 4 1.56 1.33
1 6 5 0.21 0.79
-1 -6 -5 1.4 1.11
-1 -6 -6 5.11 1.74
-1 -6 -7 -0.15 0.94
1 7 -12 0.77 0.78
1 7 -11 2.28 1.37
1 7 -11 4.66 1.32
1 7 -10 2.59 1.66
1 7 -10 1.27 0.85
1 7 -9 25.08 3.74
1 7 -9 17.53 2.66
1 7 -8 5.7 1.61
1 7 -8 5.78 1.88
1 7 -7 6.82 1.73
1 7 -7 4.53 1.71
1 7 -6 10.59 2.11
1 7 -5 15.94 2.64
-1 -7 5 19.02 2.47
-1 -7 4 14.94 2.32
1 7 -4 21.41 3.12
1 7 -3 5.37 1.67
-1 -7 2 2.29 1.04
1 7 -2 0.23 0.82
1 7 -1 0.02 0.94
-1 -7 1 0.52 0.67
-1 -7 0 -1.34 0.92
1 7 0 -0.42 0.73
-1 -7 -1 -0.65 0.78
1 7 1 1.75 1.4
-1 -7 -2 0.67 1.08
1 7 2 2.24 1.23
1 7 3 2.23 1.33
-1 -7 -3 1.15 1.2
-1 -7 -4 5.67 1.97
1 7 4 3.59 1.85
1 7 5 0.79 1.12
-1 -7 -5 0.78 0.86
1 7 6 1.09 1.48
1 8 -7 0.98 1.34
1 8 -6 3.78 1.65
1 8 -5 2.54 1.27
1 8 -4 -1.74 1.13
1 8 -3 -0.07 0.93
1 8 -2 -1.17 1.46
1 8 -1 3.22 1.45
1 8 0 0.5 0.84
-1 -8 -1 0.38 0.69
-1 -8 -2 5.1 1.72
-1 -8 -3 3.46 1.79
2 -9 -2 1.15 1.3
2 -9 -1 0.93 1.36
2 -9 0 0.43 0.95
2 -9 1 2.12 1.5
-2 9 -1 -0.3 1.21
2 -9 2 3.28 1.51
-2 9 -2 0.63 1.03
-2 9 -3 4.03 1.85
2 -9 3 3.74 1.65
-2 9 -4 2.57 1.53
2 -9 4 0.8 0.94
-2 9 -5 2.17 1.28
2 -9 5 -1.16 1.04
2 -9 6 0.28 0.7
-2 9 -6 0.42 0.98
-2 9 -6 0.03 1.06
-2 9 -7 -0.93 1.01
-2 9 -7 2.91 1.58
-2 9 -8 -0.99 0.8
-2 9 -8 0.85 1.12
-2 9 -9 1.5 0.88
-2 9 -9 2.73 1.39
-2 9 -10 0.09 0.66
2 -8 -5 6.89 2.28
2 -8 -4 0.23 0.82
2 -8 -3 3.39 1.58
2 -8 -2 7.25 2.05
2 -8 -1 2.36 1.4
-2 8 0 6.01 2.08
2 -8 0 7.49 1.9
2 -8 1 77.35 5.74
-2 8 -1 89.8 7.03
2 -8 2 6.43 1.86
-2 8 -2 7.82 2.15
2 -8 2 7.61 1.8
2 -8 3 8.59 1.75
2 -8 3 6.09 1.84
-2 8 -3 8.52 2.11
-2 8 -4 0.22 0.89
2 -8 4 0.78 1.01
2 -8 5 4.52 1.44
-2 8 -5 6.2 1.88
-2 8 -6 61.45 5.04
2 -8 6 56.4 4.92
-2 8 -6 62.28 5.3
-2 8 -7 9.95 2.08
-2 8 -7 14.27 2.54
-2 8 -8 2.56 1.22
-2 8 -8 1.31 0.9
-2 8 -9 5.87 1.78
-2 8 -9 8.37 1.92
-2 8 -10 2.46 1.31
-2 8 -10 2.28 1.2
-2 8 -11 0.78 0.56
-2 8 -11 -0.16 0.62
-2 8 -12 15.28 2.38
-2 8 -12 13.98 2.6
-2 8 -13 0.8 1.03
-2 8 -13 0.63 0.74
2 -7 -7 14.66 3.11
2 -7 -6 7.05 2.08
2 -7 -5 0.78 0.7
2 -7 -4 2.14 1.16
2 -7 -3 1.91 1.07
2 -7 -2 3.63 1.36
2 -7 -1 1.75 0.91
2 -7 0 2.27 1.04
2 -7 1 1.41 0.81
2 -7 2 0.12 0.54
-2 7 -2 1.6 1.13
2 -7 3 2.13 0.91
-2 7 -3 3.33 1.39
2 -7 3 3.91 1.39
-2 7 -4 26.07 3.27
2 -7 4 19.44 2.25
2 -7 4 20.78 2.79
2 -7 5 1.43 0.82
-2 7 -5 3.27 1.32
-2 7 -6 5.19 1.33
-2 7 -6 6.78 1.58
2 -7 6 6.37 1.55
-2 7 -7 0 0.55
-2 7 -7 1.44 0.99
-2 7 -8 0.24 0.58
-2 7 -8 0.4 0.72
-2 7 -9 16.66 2.35
-2 7 -9 18.44 2.6
-2 7 -10 4.53 1.47
-2 7 -10 2.29 1.07
-2 7 -11 3.19 1.41
-2 7 -11 1.05 0.7
-2 7 -12 7.34 1.81
-2 7 -12 6.36 1.34
-2 7 -13 1.16 0.71
-2 7 -13 1.01 0.74
-2 7 -14 2.68 1.32
2 -6 -9 18.49 3.4
2 -6 -8 0.19 0.87
2 -6 -7 1.84 1.09
2 -6 -6 1.47 1.15
2 -6 -5 32.15 3.9
2 -6 -4 15.7 2.68
2 -6 -3 2.82 1.21
2 -6 -2 20.59 2.87
2 -6 -1 1.54 0.91
2 -6 0 5.61 1.38
-2 6 -1 76.31 2.86
2 -6 1 74.57 4.74
2 -6 2 39.39 3.64
2 -6 2 37.02 3.18
2 -6 3 32.22 3.23
-2 6 -3 34.02 3.45
2 -6 3 33.09 2.85
2 -6 4 3.19 1.06
-2 6 -4 2.36 1.11
-2 6 -4 2.33 0.77
-2 6 -5 1.2 0.57
-2 6 -5 1.92 0.52
2 -6 5 2.73 1.04
-2 6 -5 0.78 0.53
-2 6 -5 1.5 1
-2 6 -6 161.07 6.87
-2 6 -6 168.19 7.29
-2 6 -6 168.7 4.49
-2 6 -7 92.58 2.82
-2 6 -7 89.62 5.07
-2 6 -7 87.29 5.14
-2 6 -8 1.54 0.82
-2 6 -8 3.13 1.08
-2 6 -9 11.62 1.93
-2 6 -9 13.61 1.96
-2 6 -10 0.57 0.58
-2 6 -10 2.51 0.99
-2 6 -11 2.07 0.85
-2 6 -11 3.32 1.01
-2 6 -12 0.6 0.58
-2 6 -12 0.67 0.83
-2 6 -13 6.64 1.17
-2 6 -13 7.74 1.84
-2 6 -14 18.07 2.87
-2 6 -15 2.81 1.36
2 -5 -11 14.03 2.99
2 -5 -10 2.33 1.6
2 -5 -9 24.52 3.65
2 -5 -8 4.14 1.59
2 -5 -7 37.19 4.1
2 -5 -6 32.56 3.82
2 -5 -5 1.02 0.77
-2 5 4 0.59 0.36
2 -5 -4 0.46 0.58
2 -5 -3 1.31 0.86
-2 5 3 0.6 0.33
2 -5 -2 43.23 3.65
2 -5 -1 18.88 2.33
-2 5 0 1.26 0.25
2 -5 0 2.11 0.89
2 -5 1 27.03 2.58
-2 5 -1 28.05 1.71
2 -5 2 4.27 0.97
2 -5 2 5.37 1.31
-2 5 -2 4.36 0.9
2 -5 3 0.7 0.41
-2 5 -3 0.97 0.46
-2 5 -3 1.8 0.85
2 -5 3 2.47 0.86
-2 5 -4 27.75 2.13
2 -5 4 26.96 2.64
-2 5 -4 24.79 2.5
-2 5 -5 6.89 0.82
-2 5 -5 10.41 1.59
-2 5 -5 6.72 1.04
-2 5 -5 7.14 1.22
-2 5 -6 49.25 3.41
-2 5 -6 47.25 3.3
-2 5 -6 52.54 2.71
-2 5 -6 51.54 2.11
-2 5 -7 30.1 1.96
-2 5 -7 28.19 1.48
-2 5 -7 29.93 2.72
-2 5 -7 29.64 2.63
-2 5 -8 0.48 0.37
-2 5 -8 1.05 0.63
-2 5 -8 0.4 0.26
-2 5 -8 0.61 0.65
-2 5 -9 58.46 4.01
-2 5 -9 53.97 2.34
-2 5 -9 58.61 3.48
-2 5 -10 7.54 1.51
-2 5 -10 5.63 1.04
-2 5 -11 0.91 0.55
-2 5 -11 2.5 1.01
-2 5 -12 20.71 2.68
-2 5 -12 18.15 1.69
-2 5 -13 6.74 1.67
-2 5 -13 6.69 1.06
-2 5 -14 11.94 2.25
-2 5 -15 7.24 1.88
-2 5 -16 2.97 1.28
2 -4 -13 10.19 2.69
2 -4 -12 19.57 3.37
2 -4 -11 12.32 2.6
2 -4 -10 3.18 1.49
2 -4 -9 27.17 3.48
2 -4 -8 1.89 1.11
2 -4 -8 0.7 0.41
2 -4 -7 28.8 1.58
2 -4 -7 27.89 3.31
2 -4 -6 0.42 0.19
2 -4 -6 -0.44 0.6
2 -4 -6 0.2 0.12
2 -4 -5 40.18 3.63
2 -4 -4 193.4 7.85
-2 4 4 184.61 4.68
2 -4 -3 0.8 0.74
-2 4 3 0.58 0.32
2 -4 -2 48.57 3.54
-2 4 2 48.83 2.54
2 -4 -1 4.55 1.03
-2 4 1 4.65 0.83
-2 4 0 1.26 0.51
-2 4 0 1.82 0.34
-2 4 0 2.4 0.69
2 -4 0 1.47 0.65
2 -4 1 24.03 2.17
2 -4 1 20.5 2.19
-2 4 -1 20.75 1.47
-2 4 -1 20.38 1.91
-2 4 -1 22.06 2
2 -4 2 40.54 3.1
2 -4 2 42.25 2.76
-2 4 -2 43.51 2.71
2 -4 3 32.05 2.7
-2 4 -3 30.65 2.2
-2 4 -4 65.3 3.56
-2 4 -4 66.61 3.22
-2 4 -4 64.76 3.23
-2 4 -4 62.37 2.45
-2 4 -5 7.56 1.06
-2 4 -5 7.47 1.15
-2 4 -5 7.15 0.77
-2 4 -5 5.37 1.02
-2 4 -6 238.77 7.17
-2 4 -6 226.57 5.07
-2 4 -6 231.67 6.45
-2 4 -6 229.42 6.84
-2 4 -7 208.96 6.91
-2 4 -7 203.62 4.88
-2 4 -7 215.95 6.39
-2 4 -7 212.06 6.03
-2 4 -8 1.76 0.58
-2 4 -8 2.87 0.9
-2 4 -8 2.78 0.56
-2 4 -9 1.25 0.45
-2 4 -9 2.53 0.86
2 -4 9 0.49 0.34
-2 4 -9 0.78 0.41
-2 4 -10 -0.49 0.54
2 -4 10 0.16 0.32
-2 4 -10 0.23 0.34
-2 4 -11 1.02 0.73
-2 4 -11 1.23 0.45
-2 4 -12 49.65 4.01
-2 4 -12 47.36 2.52
-2 4 -13 2.32 0.68
-2 4 -13 1.76 0.86
-2 4 -14 7.24 1.78
-2 4 -15 11.61 2.31
-2 4 -16 1.02 1.04
2 -3 -14 10.13 2.49
2 -3 -13 2.86 1.26
2 -3 -12 1.04 1.04
2 -3 -11 55.25 4.99
2 -3 -10 1.53 1.01
2 -3 -9 90.85 5.91
2 -3 -9 92.65 2.97
2 -3 -8 3.75 0.58
2 -3 -8 2.54 1.04
2 -3 -7 28.59 3.11
2 -3 -7 27.2 1.62
2 -3 -6 166.75 7.16
2 -3 -6 165.83 4.49
2 -3 -5 26.67 2.68
2 -3 -5 29.37 1.76
2 -3 -4 103.41 5.14
-2 3 4 114.63 4.47
2 -3 -4 99.43 2.71
2 -3 -4 97.32 3.44
-2 3 3 25.38 1.45
2 -3 -3 24.95 1.7
2 -3 -3 21.94 2.25
2 -3 -3 24.67 1
-2 3 3 24.39 1.86
-2 3 2 111.15 3.53
2 -3 -2 114.94 4.97
2 -3 -2 118.66 3.98
-2 3 2 109.77 4.62
2 -3 -2 102.55 2.27
-2 3 1 184.8 3.65
-2 3 1 175.15 5.92
-2 3 1 181.06 5.01
2 -3 -1 182.12 5.33
2 -3 -1 182.57 6.22
2 -3 0 75.56 3.69
2 -3 0 76.99 3.4
-2 3 0 81.06 3.68
-2 3 0 73.11 2.34
-2 3 0 77.93 3.22
-2 3 -1 112.62 3.51
2 -3 1 107.1 4.56
-2 3 -1 119.22 4.44
-2 3 -1 107.17 4.06
2 -3 1 105.98 4.33
2 -3 2 0.34 0.53
-2 3 -2 0.6 0.43
-2 3 -2 0.19 0.35
-2 3 -2 0.13 0.29
-2 3 -3 6.44 1.06
-2 3 -3 5.43 0.92
-2 3 -3 5.94 1.14
-2 3 -3 6.6 0.73
-2 3 -3 5.55 0.79
-2 3 -4 119.71 4.98
-2 3 -4 128.02 4.12
-2 3 -4 128.87 3.49
-2 3 -4 128.13 4.97
-2 3 -4 126.93 4.24
2 -3 5 205.25 6
-2 3 -5 194.57 5.61
-2 3 -5 191.41 4.54
-2 3 -5 193.56 6.54
2 -3 5 200.51 4.99
-2 3 -5 204.97 5.42
2 -3 6 91.64 3.22
2 -3 6 93.63 4.13
-2 3 -6 87.91 3.79
-2 3 -6 97.26 3.38
-2 3 -6 95.64 3.05
-2 3 -7 169.72 5.77
2 -3 7 166.48 5.34
-2 3 -7 176.71 4.68
2 -3 7 165.17 4.64
-2 3 -7 170.63 4.57
-2 3 -8 0.15 0.29
2 -3 8 0.17 0.36
-2 3 -8 0.57 0.49
-2 3 -8 -0.05 0.17
2 -3 8 0.28 0.28
-2 3 -9 49.55 2.09
2 -3 9 48.33 2.88
-2 3 -9 54.62 3.51
-2 3 -10 21.53 1.44
2 -3 10 25.92 2.17
-2 3 -10 24.85 2.5
-2 3 -11 8.01 0.96
-2 3 -11 9.43 1.68
-2 3 -12 7.85 1.59
-2 3 -12 5.55 0.87
-2 3 -13 3.17 0.93
-2 3 -13 6.76 1.62
-2 3 -14 25.47 3.25
-2 3 -15 44 4.45
-2 3 -16 5.19 2.22
-2 3 -16 6.3 1.85
2 -2 -16 5.55 2.11
2 -2 -15 56.31 5.67
2 -2 -14 8.98 2.23
2 -2 -13 14.41 2.69
2 -2 -12 48.99 4.6
2 -2 -11 -0.6 0.8
2 -2 -11 0.16 0.91
2 -2 -10 104.2 5.91
2 -2 -10 107.12 6.27
2 -2 -10 106.62 3.32
2 -2 -9 0.71 0.63
2 -2 -9 1.16 0.78
2 -2 -9 1.1 0.33
2 -2 -8 13.15 2.01
2 -2 -8 10.9 1.69
2 -2 -8 12.21 1.01
2 -2 -7 161.61 4.13
2 -2 -7 151.97 6.6
2 -2 -7 159.78 6.2
2 -2 -6 4.01 0.96
2 -2 -6 3.79 1.01
2 -2 -6 4.36 0.62
2 -2 -5 54.82 3.49
2 -2 -5 45.81 2.79
2 -2 -5 54.1 2.18
-2 2 5 53.08 2.85
2 -2 -4 372.89 9.81
-2 2 4 379.69 8.34
2 -2 -4 380.36 7.39
-2 2 4 366.35 9.33
-2 2 3 26.01 1.62
-2 2 3 26.2 2.09
2 -2 -3 23.98 1.47
2 -2 -3 21.91 1.33
2 -2 -3 27.43 2.24
2 -2 -2 23.23 2
-2 2 2 26.39 2.04
-2 2 2 28.33 1.49
-2 2 2 26.01 1.36
2 -2 -2 28.15 1.42
2 -2 -2 25.92 1.55
2 -2 -1 31.31 1.78
2 -2 -1 35.76 2.35
-2 2 1 34.42 2.26
2 -2 -1 29.86 1.46
-2 2 1 32.52 1.4
-2 2 1 31.19 1.52
-2 2 1 31.33 1.64
2 -2 0 268.72 6.32
2 -2 0 277.85 6.97
-2 2 0 264.86 5.72
-2 2 0 281.79 7.06
2 -2 0 267.88 5.75
-2 2 0 270.43 6.05
2 -2 0 265.15 6.94
2 -2 1 938.3 15.44
-2 2 -1 930.33 15.2
2 -2 1 950.9 16.37
-2 2 -1 918.6 16.45
-2 2 -1 930.29 15.52
2 -2 1 945.88 15.88
-2 2 -1 921.73 16.31
-2 2 -2 35.56 1.64
-2 2 -2 33.8 1.33
-2 2 -2 36.22 2.07
-2 2 -2 34.3 2.07
2 -2 2 32.93 2.07
-2 2 -2 31.02 2.12
2 -2 3 19.65 1.24
-2 2 -3 20.53 1.22
2 -2 3 20.85 1.31
-2 2 -3 21.07 1.23
-2 2 -3 20.53 1.21
-2 2 -3 19.89 1.69
-2 2 -3 20.28 1.61
2 -2 3 19.02 1.63
-2 2 -4 152.29 5.38
2 -2 4 146.98 4.2
-2 2 -4 145.57 4.05
-2 2 -4 142.01 3.72
2 -2 4 150.69 3.99
-2 2 -4 149.36 3.5
-2 2 -4 145.14 4.8
2 -2 5 26 1.81
-2 2 -5 27.22 1.54
2 -2 5 27.85 1.6
-2 2 -5 27.43 2.35
-2 2 -5 29.65 1.85
-2 2 -5 27.95 1.23
-2 2 -5 24.61 1.92
-2 2 -6 204.38 4.01
2 -2 6 202.98 6.06
2 -2 6 210.15 5.22
-2 2 -6 210.33 6.01
-2 2 -6 218.06 5.36
2 -2 6 212.44 4.93
-2 2 -6 213.72 6.43
-2 2 -7 53.68 1.75
-2 2 -7 58.44 2.74
-2 2 -7 54.74 3.08
2 -2 7 54.63 2.5
-2 2 -7 55.22 3.2
2 -2 7 49.66 2.23
-2 2 -8 23.53 2.15
-2 2 -8 22.2 1.24
2 -2 8 23.7 1.58
-2 2 -9 87.86 4.6
-2 2 -9 83.67 2.9
2 -2 9 92.09 3.47
-2 2 -10 1.19 0.67
2 -2 10 0.26 0.29
-2 2 -11 2 0.88
2 -2 11 0.24 0.39
-2 2 -12 56.44 3.84
-2 2 -12 51.87 4.95
-2 2 -12 56.73 4.36
-2 2 -13 7.46 1.71
-2 2 -13 6.75 1.41
-2 2 -13 5.54 1.77
-2 2 -14 1.06 0.8
-2 2 -14 0.1 0.81
-2 2 -14 0.83 0.9
-2 2 -15 8.59 2.4
-2 2 -15 5.01 1.65
-2 2 -15 8.59 1.85
-2 2 -16 2.57 1.29
-2 2 -16 2.86 1.6
2 -1 -16 9.26 2.39
2 -1 -15 3.72 1.61
2 -1 -15 1.88 1.54
2 -1 -14 13.91 2.59
2 -1 -14 11.59 2.4
2 -1 -13 2.45 1.32
2 -1 -13 2.98 1.15
2 -1 -12 38.52 3.76
2 -1 -12 37.02 3.7
2 -1 -11 76.69 5.06
2 -1 -11 72.44 4.95
2 -1 -10 -0.8 0.76
2 -1 -10 0.59 0.53
2 -1 -9 112.01 5.68
2 -1 -9 112.26 5.5
2 -1 -8 81.29 4.36
2 -1 -8 77.74 4.46
2 -1 -7 68.91 3.68
2 -1 -7 71.2 4.06
-2 1 6 398.49 9.48
-2 1 6 408.48 9.82
2 -1 -6 423.35 10.46
2 -1 -6 392.81 9.47
-2 1 5 293.25 7.28
2 -1 -5 293.16 7.28
-2 1 5 298.77 6.71
2 -1 -5 300.49 8.18
-2 1 5 287.92 7.72
2 -1 -4 522.49 10.15
-2 1 4 538.91 10.24
2 -1 -4 537.73 11.55
-2 1 4 529.27 11.22
-2 1 4 543.63 9.91
2 -1 -3 1.41 0.41
2 -1 -3 0.79 0.39
-2 1 3 0.93 0.36
2 -1 -3 1.67 0.59
-2 1 3 1.52 0.6
-2 1 3 1.27 0.36
2 -1 -2 76.95 3.33
-2 1 2 77.36 3.3
-2 1 2 79.93 2.39
2 -1 -2 80.85 2.92
-2 1 2 82.88 2.62
2 -1 -2 80.14 2.34
-2 1 1 258.78 4.44
2 -1 -1 255.26 5.77
2 -1 -1 258.6 5.3
2 -1 -1 256.23 5.85
-2 1 1 258.46 6.48
2 -1 -1 251.22 4.33
-2 1 1 251.68 5.81
-2 1 1 259.92 5.11
-2 1 0 78.41 2.15
-2 1 0 80.39 2.55
-2 1 0 80.99 2.94
2 -1 0 77.65 2.91
-2 1 0 77.64 2.9
2 -1 0 81.95 2.64
-2 1 -1 13.91 0.69
-2 1 -1 15.08 1.03
2 -1 1 16.01 1.34
-2 1 -1 16.1 1.32
-2 1 -1 18.19 1.14
2 -1 1 14.19 1.11
2 -1 1 15.12 1.07
2 -1 2 1.57 0.37
2 -1 2 1.57 0.3
-2 1 -2 0.86 0.44
-2 1 -2 1.39 0.37
2 -1 2 1.4 0.6
2 -1 2 0.97 0.39
-2 1 -2 1.53 0.39
2 -1 3 161.64 5.2
-2 1 -3 152.57 3.88
2 -1 3 159.17 3.97
-2 1 -3 155.63 4.16
-2 1 -3 159.54 5.11
2 -1 3 149.35 3.79
-2 1 -3 153.42 3.86
2 -1 3 149.7 4.35
-2 1 -4 899.02 14.7
-2 1 -4 911.17 15.04
2 -1 4 907.22 14.62
-2 1 -4 903.25 16.92
-2 1 -4 900.22 14.94
2 -1 4 899.67 15.4
2 -1 4 920.34 14.97
-2 1 -5 228.89 5.57
-2 1 -5 214.94 6.94
2 -1 5 225.95 5.35
2 -1 5 225.03 5.87
2 -1 5 202.32 3.69
-2 1 -5 212.88 5.44
-2 1 -5 218.66 5.83
-2 1 -6 9.78 1.27
-2 1 -6 10.38 1.19
2 -1 6 11.36 1.13
2 -1 6 9.7 0.67
2 -1 6 8.79 1.17
-2 1 -6 10.79 1.13
-2 1 -6 9.57 1.53
2 -1 7 184.73 3.95
-2 1 -7 175.15 6
-2 1 -7 170.07 5.13
-2 1 -7 166.94 6.78
-2 1 -8 20.01 1.68
-2 1 -8 19.42 2.06
2 -1 8 22.19 1.27
-2 1 -8 21.62 2.46
2 -1 9 9.95 0.92
-2 1 -9 11 1.67
-2 1 -9 10.11 1.84
-2 1 -9 9.52 1.22
-2 1 -10 9.54 1.67
2 -1 10 9.8 1
-2 1 -10 8.87 1.77
-2 1 -10 8.21 1.14
-2 1 -11 3.46 1.13
-2 1 -11 4.35 1.43
-2 1 -12 6.27 1.48
-2 1 -12 3.97 1.22
-2 1 -12 7.27 1.82
-2 1 -13 0.86 0.51
-2 1 -13 0.9 0.87
-2 1 -13 1.04 0.94
-2 1 -14 21.92 2.83
-2 1 -14 24.05 3.27
-2 1 -14 19.88 3.27
-2 1 -15 45.35 4.28
-2 1 -15 51.56 5.48
-2 1 -16 1.64 1.47
-2 1 -16 2.71 1.64
2 0 -16 3.1 1.42
2 0 -15 70.31 5.92
2 0 -14 30.58 3.46
2 0 -14 34.1 3.85
2 0 -13 16.4 2.44
2 0 -13 16.51 2.57
2 0 -12 8.77 1.71
2 0 -12 7.65 1.71
2 0 -11 55.78 4.01
2 0 -11 51.42 4.04
2 0 -10 260.32 9.01
2 0 -10 257.6 8.7
2 0 -9 182 6.79
2 0 -9 166.78 6.07
2 0 -9 166.48 6.71
2 0 -8 12.02 1.58
-2 0 8 10.88 1.35
2 0 -8 8.91 1.42
2 0 -8 11.23 1.44
-2 0 7 163.93 5.32
2 0 -7 157.4 5.21
2 0 -7 160.92 5.79
2 0 -7 165.87 5.92
-2 0 6 36.87 2.53
-2 0 6 31.85 2.12
2 0 -6 28.76 2.18
2 0 -6 33.88 2.37
2 0 -6 35.85 2.15
-2 0 5 97.45 3.16
-2 0 5 94.42 3.87
2 0 -5 94.42 3.81
-2 0 5 94.7 3.71
2 0 -5 95.22 3.38
2 0 -5 95.54 3.88
-2 0 4 12.66 1.23
2 0 -4 12.93 1.28
2 0 -4 13.43 1.08
-2 0 4 13.57 1.31
2 0 -4 12.68 1.29
-2 0 4 15.07 1.1
-2 0 3 251.5 6.02
2 0 -3 266.4 6.11
2 0 -3 265.09 5.47
2 0 -3 255.44 4.89
-2 0 3 269.94 5.47
2 0 -3 259.05 6.73
-2 0 3 266.17 6.41
2 0 -2 25.41 1.47
2 0 -2 20.66 1.12
2 0 -2 20.03 1.58
-2 0 2 22.58 1.21
2 0 -1 147 3.24
-2 0 1 153.29 3.62
2 0 -1 162.15 4.69
-2 0 1 148.81 4.53
-2 0 1 153.76 3.54
-2 0 0 356.88 6.58
2 0 0 364.57 6.73
-2 0 0 366 8.05
2 0 0 359.13 8
-2 0 0 361.46 6.46
2 0 0 358.56 6.02
2 0 1 497.76 10.1
-2 0 -1 479.05 8.45
2 0 1 493.85 8.57
-2 0 -1 499.96 8.12
-2 0 -1 490.7 10.03
2 0 1 486.81 7.65
-2 0 -2 793.73 14.47
2 0 2 816.26 14.57
-2 0 -2 771.56 12.82
2 0 2 783.2 12.71
2 0 2 799.68 12.56
2 0 2 784.01 11.48
2 0 3 24.97 1.68
-2 0 -3 26.25 2.01
-2 0 -3 26.85 1.64
2 0 3 26.82 1.47
2 0 3 24.73 1.02
2 0 3 27.97 2.09
2 0 3 28.45 1.58
-2 0 -4 40.03 2.18
2 0 4 35.13 1.94
2 0 4 33.57 2.11
2 0 4 36.83 2.55
-2 0 -4 34.83 2.46
2 0 4 37.26 1.81
-2 0 -5 0.79 0.25
2 0 5 0.89 0.36
-2 0 -5 0.62 0.55
2 0 5 1.59 0.55
2 0 6 41.27 1.53
-2 0 -6 41.25 3.03
-2 0 -6 44.93 1.81
2 0 7 5.07 0.55
-2 0 -7 5.06 0.63
-2 0 -7 2.16 0.88
2 0 8 10.33 0.81
-2 0 -8 10.21 0.9
-2 0 -8 11 1.78
2 0 9 73.56 2.41
-2 0 -9 80.38 4.96
-2 0 -9 70.62 2.54
2 0 10 16.17 1.16
-2 0 -10 19.99 2.64
-2 0 -11 0.5 0.57
-2 0 -11 0.97 0.91
-2 0 -12 6.03 1.46
-2 0 -12 6.78 1.77
-2 0 -13 15.34 2.44
-2 0 -13 17.16 2.9
-2 0 -14 -0.13 0.54
-2 0 -14 1.62 1.62
-2 0 -15 1.26 1.03
-2 0 -15 0.24 0.68
-2 0 -16 1.86 1.26
-2 0 -16 1.58 1.2
2 1 -16 8.52 2.17
2 1 -15 10.48 2.22
2 1 -14 1.59 1
2 1 -13 0.54 0.68
2 1 -13 0.01 0.66
2 1 -12 42.15 3.3
2 1 -12 47.65 4.1
2 1 -12 41.59 3.27
2 1 -11 29.71 2.62
2 1 -11 28.64 2.99
2 1 -11 34.62 2.82
2 1 -10 8.87 1.37
2 1 -10 12.07 1.86
2 1 -10 8.25 1.32
2 1 -9 31.29 2.82
2 1 -9 27.93 2.25
2 1 -9 31.5 2.32
-2 -1 9 31.55 2.1
2 1 -8 277.18 8.63
2 1 -8 277.76 7.21
-2 -1 8 269.32 6.69
2 1 -8 267.11 7.28
2 1 -7 307.09 7.28
2 1 -7 303.56 8.77
-2 -1 7 303.12 6.95
2 1 -7 301.23 7.45
2 1 -6 119.26 3.86
2 1 -6 115.33 4.82
-2 -1 6 116.7 3.82
2 1 -5 506.94 9.49
2 1 -5 471.53 10.87
-2 -1 5 489.99 9.55
-2 -1 5 513.34 10.43
-2 -1 4 155.93 4.45
2 1 -4 153.36 4.2
2 1 -4 144.75 5.03
-2 -1 4 159.25 4.87
2 1 -3 273.62 7.09
2 1 -3 293.01 7.78
-2 -1 3 285.92 5.39
-2 -1 3 290.16 7.01
2 1 -3 291.06 6.33
-2 -1 2 0.86 0.42
2 1 -2 0.35 0.49
2 1 -2 0.35 0.28
-2 -1 2 0.26 0.19
2 1 -2 0.74 0.24
-2 -1 1 40.93 1.63
2 1 -1 42.05 1.7
-2 -1 1 41.65 2.23
2 1 -1 43.26 2.04
2 1 -1 48.07 2.63
-2 -1 1 45.35 2.55
-2 -1 0 13.78 1.44
-2 -1 0 12.88 0.97
-2 -1 0 14.04 1.28
2 1 0 13.34 0.95
2 1 0 12.06 1.06
2 1 0 11.51 1.33
-2 -1 -1 70.48 2.65
2 1 1 80.59 2.65
2 1 1 74.67 2.78
2 1 1 80.22 3.56
-2 -1 -1 81.16 3.54
2 1 2 1.08 0.57
2 1 2 0.47 0.36
-2 -1 -2 0.27 0.25
2 1 2 0.5 0.25
-2 -1 -2 -0.17 0.47
2 1 3 48.1 2.33
-2 -1 -3 51.21 2.97
2 1 3 48.67 2.36
2 1 3 49.97 1.81
2 1 3 53.95 3.03
2 1 4 266.33 5.46
2 1 4 276.54 7.9
-2 -1 -4 274.49 7.83
2 1 5 20.63 1.2
-2 -1 -5 17.15 1.9
2 1 5 16.53 1.87
2 1 6 37.28 1.66
-2 -1 -6 42.18 3.11
-2 -1 -7 55.53 3.73
-2 -1 -8 40.4 3.34
2 1 9 0.7 0.38
-2 -1 -9 -0.4 0.71
-2 -1 -9 0.87 0.73
-2 -1 -10 0.59 0.85
-2 -1 -10 0.25 0.48
-2 -1 -11 5.78 1.59
-2 -1 -11 4.3 1.27
-2 -1 -12 7.91 1.8
-2 -1 -12 4.77 1.54
-2 -1 -13 6.85 1.79
-2 -1 -13 4.56 1.42
-2 -1 -14 5.68 1.7
-2 -1 -14 9.99 2.22
-2 -1 -15 19.92 3.18
-2 -1 -15 19.45 3.25
2 2 -16 10.86 2.35
2 2 -15 13.48 2.18
2 2 -15 19.95 3.02
2 2 -14 39.73 3.5
2 2 -14 41.28 4.22
2 2 -13 13.88 2.39
2 2 -13 15.83 2.08
2 2 -12 0.24 0.55
2 2 -12 1.3 0.64
2 2 -11 34.88 3.36
2 2 -11 28.42 2.03
2 2 -11 31.91 2.53
2 2 -10 67.71 3.51
2 2 -10 69.32 4.62
2 2 -9 442.07 9.96
2 2 -9 446.22 12.44
2 2 -8 14.68 1.45
-2 -2 8 12.58 0.99
2 2 -8 16.75 2.07
2 2 -8 13.03 0.89
2 2 -7 31.5 2.71
-2 -2 7 31.13 1.55
2 2 -7 34.69 2.19
2 2 -6 64.47 3.78
-2 -2 6 61.18 2.29
-2 -2 6 59.95 1.8
2 2 -6 62.78 2.95
2 2 -5 63.88 3.02
2 2 -5 61.21 3.65
-2 -2 5 62.3 1.74
-2 -2 5 63.73 2.46
2 2 -4 62.11 3.53
-2 -2 4 64.21 1.8
2 2 -4 59.82 2.95
-2 -2 3 48.64 2.99
-2 -2 3 44.59 1.62
2 2 -3 43.54 1.68
2 2 -3 44.96 2.57
2 2 -3 42.92 2.93
2 2 -2 21.08 1.17
-2 -2 2 22.13 2
2 2 -2 19.01 1.65
2 2 -2 16.22 1.73
-2 -2 2 20.29 1.19
-2 -2 1 131.5 3.75
-2 -2 1 134.98 5.1
2 2 -1 128.44 4.58
2 2 -1 135.95 5.05
2 2 -1 136.47 3.48
2 2 0 0.47 0.46
-2 -2 0 0.39 0.36
2 2 0 0.68 0.3
2 2 0 1.36 0.6
2 2 1 1.23 0.43
2 2 1 1.54 0.63
2 2 1 1.09 0.55
-2 -2 -1 0.55 0.35
2 2 2 668.27 13.56
2 2 2 690.31 12.53
2 2 2 689.92 14.08
-2 -2 -2 678.52 13.94
2 2 3 32 2.35
2 2 3 36.3 2.62
-2 -2 -3 31.42 2.43
-2 -2 -4 0.61 0.52
2 2 4 0.83 0.48
2 2 5 0.36 0.21
-2 -2 -5 0.61 0.55
-2 -2 -6 3.11 0.96
2 2 6 3.67 0.43
-2 -2 -7 25.44 2.55
-2 -2 -8 25.15 2.85
-2 -2 -8 24.67 2.62
-2 -2 -9 9.48 1.73
-2 -2 -9 6.67 1.6
-2 -2 -10 38.97 3.87
-2 -2 -10 30.88 3.16
-2 -2 -11 1.38 0.85
-2 -2 -11 2.22 1.27
-2 -2 -12 -0.49 0.59
-2 -2 -12 0.95 0.84
-2 -2 -13 2.2 1.07
-2 -2 -13 5.71 1.87
2 3 -17 1.1 0.9
2 3 -16 9.08 1.91
2 3 -15 0.93 0.73
2 3 -15 1.07 0.86
2 3 -14 23.21 2.58
2 3 -14 23.11 3.2
2 3 -13 1.54 0.76
2 3 -13 0.73 0.75
2 3 -12 9.84 1.93
2 3 -12 8.25 1.39
2 3 -11 6.56 1.56
2 3 -11 5.3 1.09
2 3 -10 20.25 1.9
-2 -3 10 16.9 0.78
2 3 -10 20.21 2.63
2 3 -9 0.9 0.69
2 3 -9 0.35 0.63
2 3 -8 103.79 5.68
2 3 -8 112.55 4.64
2 3 -7 60.31 4.12
2 3 -7 60.62 3.38
2 3 -6 37.88 3.25
2 3 -6 38.3 2.67
-2 -3 6 37.86 1.6
2 3 -5 215.22 7.87
2 3 -5 216.57 6.88
2 3 -4 2.8 0.74
2 3 -3 223.09 4.67
2 3 -3 223.21 7.15
2 3 -2 1.98 0.72
2 3 -2 2.85 0.48
2 3 -1 3.49 0.55
2 3 -1 4.01 0.93
2 3 0 13.85 1.69
2 3 0 13.89 1.21
2 3 0 12.84 1.66
2 3 1 38.32 2.81
-2 -3 -1 36.88 2.7
2 3 1 38.17 2.89
2 3 2 30.88 2.69
2 3 2 29.74 2.51
-2 -3 -2 28.53 2.42
-2 -3 -3 4.44 0.95
2 3 3 5.57 1.28
2 3 4 12.69 1.9
-2 -3 -4 10.71 1.54
-2 -3 -5 87.27 5.11
2 3 5 76.37 2.29
-2 -3 -5 74 4.18
-2 -3 -6 28.72 3
-2 -3 -6 24.11 2.42
2 3 6 21.51 0.88
-2 -3 -7 0.85 0.55
-2 -3 -7 2.94 1.17
-2 -3 -8 10.45 1.79
-2 -3 -8 10.62 2.12
-2 -3 -9 5.26 1.64
-2 -3 -9 3.76 1.2
-2 -3 -10 8.04 1.74
-2 -3 -10 6.78 1.81
-2 -3 -11 12.56 2.54
-2 -3 -12 3.2 1.56
2 4 -16 10.48 1.92
2 4 -15 5.5 1.4
2 4 -15 5.55 1.77
2 4 -14 6.25 1.84
2 4 -14 10.23 1.67
2 4 -13 11.06 2.23
2 4 -13 11.37 1.67
2 4 -12 0.39 0.55
2 4 -12 3.52 1.43
2 4 -11 0.3 0.4
2 4 -11 -0.78 0.79
2 4 -10 2.45 0.88
2 4 -10 1.43 0.89
2 4 -9 255.17 10.06
2 4 -9 246.46 8
2 4 -8 54.55 4.45
2 4 -8 56.73 3.63
2 4 -7 9.17 1.84
2 4 -7 9.07 1.48
-2 -4 6 9.01 0.72
2 4 -6 11.71 1.73
2 4 -6 7.95 1.7
-2 -4 5 28.71 1.83
-2 -4 5 26.59 1.56
2 4 -5 28.47 2.69
2 4 -4 30.95 2.79
-2 -4 4 28.46 1.85
2 4 -4 29.19 1.36
-2 -4 3 26.45 1.95
2 4 -3 28.16 2.68
2 4 -3 24.33 1.36
-2 -4 2 -0.32 0.38
2 4 -2 0.2 0.22
2 4 -2 -0.5 0.69
2 4 -1 91.63 5.03
-2 -4 1 101.4 4.54
2 4 -1 96.35 3.46
-2 -4 0 8.94 1.41
2 4 0 8.66 1.61
-2 -4 -1 6.22 1.3
2 4 1 4.2 1.16
2 4 2 120.26 6.14
-2 -4 -2 122.01 5.81
-2 -4 -2 101.48 4.92
2 4 3 37.7 3.47
-2 -4 -3 37.36 3.3
-2 -4 -3 32.08 2.72
-2 -4 -4 0.87 0.73
2 4 4 -0.55 0.76
-2 -4 -4 1.15 0.73
-2 -4 -5 5.1 1.47
2 4 5 7.84 1.74
-2 -4 -5 5.01 1.2
-2 -4 -6 1.45 0.6
-2 -4 -6 1.42 0.82
-2 -4 -7 11.82 1.81
-2 -4 -7 17.17 2.65
-2 -4 -8 41.95 4.33
-2 -4 -9 3.39 1.45
-2 -4 -10 6.6 1.94
2 5 -14 20.24 2.38
2 5 -14 21.33 3.39
2 5 -13 10.86 2.4
2 5 -13 6.73 1.43
2 5 -12 0.37 0.51
2 5 -12 0.25 0.71
2 5 -11 10.74 2.32
2 5 -11 9.73 1.67
2 5 -10 8.48 1.87
2 5 -10 8.78 1.63
2 5 -9 8.99 2.03
2 5 -9 4.32 1.17
2 5 -8 2.97 1.22
2 5 -8 4.31 1.26
2 5 -7 1.91 1.02
2 5 -7 0.08 0.81
-2 -5 6 63.08 3.17
2 5 -6 62.35 4.39
-2 -5 5 30.9 1.97
-2 -5 5 27.99 2.23
2 5 -5 33.46 3.21
2 5 -4 3.85 1.18
-2 -5 4 4.59 0.91
-2 -5 3 27.63 2.27
2 5 -3 28.33 3.08
2 5 -2 22.84 2.73
-2 -5 2 22.49 2.2
2 5 -1 9.3 1.8
-2 -5 1 9.74 1.52
-2 -5 0 29.99 2.87
2 5 0 27.54 3.09
-2 -5 -1 12.47 1.93
2 5 1 12.02 2.18
-2 -5 -2 26.34 2.97
2 5 2 34.85 3.64
-2 -5 -3 1.86 0.97
2 5 3 0.39 0.59
-2 -5 -4 2.01 1.54
2 5 4 -0.15 0.7
-2 -5 -5 10.16 2.09
2 5 5 12.97 2.35
2 5 6 1.27 0.74
-2 -5 -6 5.14 1.72
-2 -5 -7 4.31 1.57
2 5 7 3.54 1.47
-2 -5 -8 -0.26 0.84
2 5 8 0.65 0.84
2 6 -12 0.55 0.82
2 6 -12 1.58 0.92
2 6 -11 7.03 1.64
2 6 -11 5.81 2
2 6 -10 -0.41 0.9
2 6 -10 0.19 0.82
2 6 -9 46.08 4.97
2 6 -9 51.71 4.18
2 6 -8 36.3 4.37
2 6 -8 38.77 3.67
2 6 -7 5.62 1.52
2 6 -7 2.87 1.49
2 6 -6 0.45 0.56
2 6 -5 3.38 1.2
2 6 -4 4.23 1.42
-2 -6 3 38.88 3.02
2 6 -3 34.67 3.73
-2 -6 2 0.38 0.63
2 6 -2 2.52 1.12
-2 -6 1 19.47 2.43
2 6 -1 23.75 3.24
2 6 0 10.01 2.14
-2 -6 0 6.78 1.48
-2 -6 -1 -0.38 0.67
2 6 1 1.66 1.1
-2 -6 -2 2.74 1.13
2 6 2 1.84 1.02
-2 -6 -3 11.12 2.27
2 6 3 11.84 2.48
-2 -6 -4 1.05 1.04
2 6 4 0.71 0.81
-2 -6 -5 6.09 1.77
2 6 5 4.88 1.67
-2 -6 -6 0.18 0.97
2 6 6 -1.48 1.22
2 6 7 6.22 1.91
2 7 -9 8.68 2.54
2 7 -9 5.42 1.52
2 7 -8 0.59 0.85
2 7 -8 3.29 1.4
2 7 -7 0 0.84
2 7 -7 0.29 0.58
2 7 -6 8.24 1.94
2 7 -5 3.04 1.37
2 7 -4 7.38 1.97
2 7 -3 1.84 1.07
2 7 -2 5.81 1.69
2 7 -1 0.53 0.84
-2 -7 1 1.22 0.81
-2 -7 0 17.44 2.61
2 7 0 16.54 3.04
-2 -7 -1 5.32 1.34
2 7 1 8.56 2.3
2 7 2 8.88 2.46
-2 -7 -2 7.5 2.02
2 7 3 0.81 1.06
-2 -7 -3 3.8 1.59
-2 -7 -4 -0.76 1.11
2 7 4 0.04 0.86
2 7 5 1.23 1.35
3 -9 -3 2.26 1.7
3 -9 -2 2.4 1.34
3 -9 -1 6.79 2.22
3 -9 0 -0.31 0.79
3 -9 0 0.54 0.82
3 -9 1 -0.97 1.05
-3 9 -1 0.87 0.88
3 -9 1 -0.94 0.9
3 -9 2 0.84 1
3 -9 2 -0.94 0.97
-3 9 -3 1.75 1.4
3 -9 3 -2.25 1.27
3 -9 4 2.84 1.38
-3 9 -4 0.42 0.98
-3 9 -5 1.7 1.41
3 -9 5 2.33 1.46
-3 9 -5 0.36 0.9
-3 9 -6 0.46 0.9
-3 9 -6 3.18 1.53
-3 9 -7 9.06 2
-3 9 -7 6.67 1.91
-3 9 -8 2.08 0.92
-3 9 -8 1.78 1.16
-3 9 -9 2.91 1.24
-3 9 -9 2.3 1.08
-3 9 -10 2.83 1.38
-3 9 -10 0.86 0.72
-3 9 -11 -0.6 0.94
-3 9 -11 2.39 1.55
3 -8 -5 2.44 1.57
3 -8 -4 7.05 2.26
3 -8 -3 1.65 1.4
3 -8 -2 0.68 1.17
3 -8 -1 1.36 1.22
3 -8 0 1 0.84
3 -8 0 2.87 1.38
3 -8 1 9.07 2.25
3 -8 1 9.21 2.19
3 -8 2 8.47 1.94
3 -8 2 7.78 2.1
-3 8 -2 5.46 1.85
3 -8 3 1.14 0.72
-3 8 -3 -0.31 1.01
3 -8 3 0.92 0.73
-3 8 -4 6.03 1.82
3 -8 4 4.99 1.61
3 -8 5 0.84 0.91
-3 8 -5 0.51 1
-3 8 -5 -0.57 0.67
-3 8 -6 2.08 1.26
-3 8 -6 0.38 0.51
-3 8 -7 10.37 1.9
-3 8 -7 8.09 1.84
-3 8 -8 1.14 0.85
-3 8 -8 -0.09 0.7
-3 8 -9 4.14 1.42
-3 8 -9 5.81 1.55
-3 8 -10 3.97 1.32
-3 8 -10 3.34 1.28
-3 8 -11 0.5 0.75
-3 8 -11 0.27 0.72
-3 8 -12 6.9 1.78
-3 8 -13 1.14 1.09
-3 8 -14 7.18 2.27
3 -7 -7 2.3 1.61
3 -7 -6 3.28 1.56
3 -7 -5 27.14 4.04
3 -7 -4 6.15 2.02
3 -7 -3 5.26 1.8
3 -7 -2 3.4 1.48
3 -7 -1 17.22 2.81
3 -7 0 0.82 0.97
3 -7 1 5.08 1.66
3 -7 1 3.95 1.15
3 -7 2 3.4 1.21
3 -7 2 3.71 1.29
3 -7 3 -0.36 0.47
-3 7 -3 -0.35 0.81
3 -7 3 0.97 0.99
-3 7 -3 -0.29 0.37
-3 7 -4 15.83 2.55
3 -7 4 15.03 2.46
-3 7 -4 14.67 1.78
3 -7 5 4.16 1.4
-3 7 -5 2.77 1.2
-3 7 -5 2.17 0.9
-3 7 -5 1.16 0.51
-3 7 -5 0.25 0.39
-3 7 -6 9.7 1.77
-3 7 -6 10.68 1.28
-3 7 -6 7.32 1.8
-3 7 -7 21.57 2.52
-3 7 -7 20.41 2.72
-3 7 -8 7.8 1.58
-3 7 -8 9.61 1.78
-3 7 -9 2.76 1.29
-3 7 -9 1.42 0.85
-3 7 -10 5.2 1.4
-3 7 -10 5.47 1.47
-3 7 -11 7.75 1.53
-3 7 -11 8.39 1.84
-3 7 -12 3.53 1.37
-3 7 -13 0.88 0.82
-3 7 -14 6.77 1.89
-3 7 -15 26.89 3.6
3 -6 -9 38.26 4.92
3 -6 -8 0.87 1.15
3 -6 -7 8.9 2.29
3 -6 -6 17.35 3.03
3 -6 -5 0.49 0.69
3 -6 -4 3.29 1.37
3 -6 -3 5.92 1.76
3 -6 -2 0.26 0.89
3 -6 -1 23.64 2.98
3 -6 0 10.03 1.96
-3 6 0 2.2 0.3
3 -6 1 22.33 2.69
-3 6 -1 19.67 1.45
3 -6 1 21.33 2.87
3 -6 2 168.42 7.29
3 -6 2 152.97 7.54
-3 6 -2 162.22 5.31
3 -6 3 24.47 3.06
-3 6 -3 21.89 2.12
-3 6 -4 5.21 1.09
-3 6 -4 3.27 1.11
3 -6 4 7.04 1.6
-3 6 -4 5.69 1.22
-3 6 -5 1.12 0.8
-3 6 -5 2.12 0.88
-3 6 -5 1.21 0.5
-3 6 -5 0.62 0.57
-3 6 -6 4.28 1.04
-3 6 -6 5.09 1.32
-3 6 -6 4.26 0.77
-3 6 -7 -0.39 0.54
-3 6 -7 0.16 0.33
-3 6 -7 1.02 0.89
-3 6 -8 11.72 1.79
-3 6 -8 10.06 1.07
-3 6 -8 12.26 1.87
-3 6 -9 10.9 1.67
-3 6 -9 10.55 1.12
-3 6 -9 12.13 1.87
-3 6 -10 41.2 3.57
-3 6 -10 40.51 3.04
-3 6 -11 0.21 0.42
-3 6 -11 2.7 1.18
-3 6 -12 2.53 1.05
-3 6 -13 12.45 2.19
-3 6 -14 2.32 1.14
-3 6 -15 3.45 1.44
-3 6 -16 2.6 1.39
3 -5 -11 3.61 1.84
3 -5 -10 15.69 3.1
3 -5 -9 8.43 2.39
3 -5 -8 22.52 3.4
3 -5 -7 5.23 1.68
3 -5 -6 7.68 2.03
3 -5 -5 108.46 6.76
3 -5 -4 10.15 2
3 -5 -3 74.24 5.2
3 -5 -2 0.13 0.61
3 -5 -1 28.53 2.95
3 -5 0 7.98 1.62
3 -5 0 14.44 2.08
-3 5 0 12.48 1.04
3 -5 1 27.02 2.91
3 -5 1 28.73 2.83
-3 5 -1 28.92 1.88
-3 5 -2 9.18 1.21
3 -5 2 8.9 1.66
3 -5 3 19.69 2.42
-3 5 -3 20.36 1.95
-3 5 -4 67.89 3.43
3 -5 4 65.82 4.45
-3 5 -4 63.77 2.97
-3 5 -4 70.47 4.23
-3 5 -4 65.44 3.81
-3 5 -5 55.73 3.19
-3 5 -5 57.58 3.58
-3 5 -5 59.11 3.72
-3 5 -5 60.22 2.79
-3 5 -5 54.79 3.66
-3 5 -6 56.57 3.33
-3 5 -6 55.97 3.91
-3 5 -6 53.25 3.42
-3 5 -6 57.2 2.64
-3 5 -6 51.77 3.36
-3 5 -7 4.99 0.79
-3 5 -7 6.03 1.17
-3 5 -7 6.24 1.2
-3 5 -7 6.49 1.18
-3 5 -8 39.63 3
-3 5 -8 39.35 2.19
-3 5 -8 33.21 2.71
-3 5 -8 39.39 2.73
-3 5 -9 0.3 0.39
-3 5 -9 1.21 0.64
-3 5 -9 1.26 0.48
-3 5 -10 2.24 0.58
-3 5 -10 1.69 0.81
-3 5 -10 1.8 0.65
-3 5 -11 24.3 2.68
-3 5 -11 20.52 1.65
-3 5 -12 9.52 1.79
-3 5 -13 15.76 3.05
-3 5 -13 14.93 2.34
-3 5 -14 2.37 0.91
-3 5 -14 2.6 1.07
-3 5 -15 42.94 4.38
-3 5 -15 43.06 5.19
-3 5 -16 6.81 1.87
3 -4 -13 2.62 1.47
3 -4 -12 0.45 1.17
3 -4 -11 -0.3 0.91
3 -4 -10 6.93 1.95
3 -4 -9 173.38 9.1
3 -4 -8 15.26 2.63
3 -4 -8 13.86 1.45
3 -4 -7 3.23 0.75
3 -4 -7 4.68 1.52
3 -4 -7 3.55 0.67
3 -4 -6 63.46 4.84
3 -4 -6 50.31 2.21
3 -4 -6 50.35 2.87
3 -4 -5 0.27 0.35
3 -4 -5 1.01 0.49
3 -4 -5 0.07 0.18
3 -4 -4 5.05 0.96
3 -4 -4 4.58 1.4
3 -4 -4 4.6 0.51
3 -4 -3 11.32 1.42
-3 4 3 12.59 1.43
3 -4 -3 9.85 1.7
3 -4 -3 12.25 0.82
-3 4 3 12.74 1.24
3 -4 -2 9.53 1.33
3 -4 -2 7.48 1.49
-3 4 2 8.45 1.1
3 -4 -1 263.79 8.83
-3 4 1 265.36 5.66
3 -4 -1 249.99 7.59
3 -4 0 0.16 0.43
3 -4 0 0.07 0.45
3 -4 0 0.8 0.77
-3 4 0 0.26 0.35
3 -4 1 0.83 0.64
-3 4 -1 0.4 0.32
3 -4 1 0.99 0.72
3 -4 1 0.42 0.52
-3 4 -2 531.49 12.86
3 -4 2 551.12 13.49
-3 4 -2 546.17 11.4
-3 4 -3 88.77 3.34
3 -4 3 99.84 5.06
-3 4 -3 88.95 3.48
-3 4 -3 90.47 4.22
-3 4 -3 97.32 4.68
-3 4 -4 1.01 0.38
-3 4 -4 1.88 0.51
-3 4 -4 0.64 0.53
-3 4 -4 0.74 0.42
-3 4 -5 2.88 0.63
-3 4 -5 3.01 0.63
-3 4 -5 3.09 0.65
-3 4 -5 1.95 0.7
-3 4 -5 1.95 0.83
-3 4 -6 0.15 0.27
-3 4 -6 1.7 0.59
-3 4 -6 0.99 0.47
-3 4 -6 1.03 0.51
-3 4 -7 72.89 3.65
-3 4 -7 66.2 2.9
-3 4 -7 66.68 3.06
-3 4 -7 67.85 4.6
-3 4 -8 47.14 3.12
-3 4 -8 45.63 2.47
-3 4 -8 43.7 3.78
-3 4 -8 45.97 2.36
-3 4 -9 23.42 1.88
-3 4 -9 28.26 1.69
-3 4 -9 22.91 2.88
-3 4 -9 24.7 2.36
-3 4 -10 62.75 4.04
-3 4 -10 64.59 5.15
-3 4 -10 70.79 3.53
-3 4 -10 64.94 2.48
-3 4 -11 2.05 0.82
-3 4 -11 3.42 0.59
-3 4 -11 3.17 1.4
-3 4 -12 5.62 1.37
-3 4 -12 6.57 2.01
-3 4 -13 9.46 1.97
-3 4 -13 11.27 2.56
-3 4 -14 0.04 0.73
-3 4 -14 0.93 1.03
-3 4 -15 0.82 0.71
-3 4 -15 2.28 1.42
-3 4 -16 7.99 2.03
3 -3 -15 1.79 1.69
3 -3 -14 10.82 2.59
3 -3 -13 0.1 0.92
3 -3 -12 10.14 2.27
3 -3 -11 3.94 1.6
3 -3 -10 23.89 3.21
3 -3 -9 0.56 1.06
3 -3 -9 2.05 0.58
3 -3 -8 53.5 4.44
3 -3 -8 39.58 2.39
3 -3 -7 8.05 1.92
3 -3 -7 6.96 1.08
3 -3 -7 7.04 1.01
3 -3 -6 165.07 5.16
3 -3 -6 156.72 5.08
3 -3 -6 160.72 7.36
3 -3 -5 236.74 8.84
3 -3 -5 228.86 6.32
3 -3 -5 235.58 6.14
-3 3 4 21.01 1.7
3 -3 -4 21.39 2.46
3 -3 -4 18.75 1.49
3 -3 -4 18.81 1.63
3 -3 -3 249.46 8.46
-3 3 3 262.95 6.34
3 -3 -3 257.09 6.04
3 -3 -3 235.68 6.63
3 -3 -2 6.86 0.86
-3 3 2 5.67 0.72
3 -3 -2 7.06 1.36
-3 3 2 5.53 0.76
-3 3 2 7.14 0.9
3 -3 -2 4.94 0.9
3 -3 -1 0.05 0.32
3 -3 -1 0.48 0.38
-3 3 1 0.44 0.39
-3 3 1 0.55 0.34
3 -3 -1 -0.16 0.52
-3 3 1 0.67 0.26
-3 3 1 0.81 0.42
3 -3 -1 0.21 0.48
-3 3 0 101.27 4.77
3 -3 0 101.72 4.77
3 -3 0 104.75 3.77
-3 3 0 105.39 3.73
-3 3 0 106.35 4
3 -3 0 101.76 4.27
3 -3 1 56.58 3.42
3 -3 1 51.54 2.73
-3 3 -1 50.1 2.62
-3 3 -1 52.25 2.83
3 -3 1 57.53 3.18
-3 3 -1 53 3.32
-3 3 -2 283.24 5.3
-3 3 -2 288.97 8.34
-3 3 -2 288.77 8.52
-3 3 -2 278.06 6.65
-3 3 -2 276.28 7.42
-3 3 -2 281.2 7.55
3 -3 2 285.6 7.99
-3 3 -3 118.34 3.14
-3 3 -3 112.83 4.7
-3 3 -3 112.98 3.75
3 -3 3 111.89 4.9
-3 3 -4 72.82 2.64
-3 3 -4 72.36 2.88
-3 3 -4 67.54 2.85
-3 3 -4 73.13 3.95
3 -3 5 159.71 4.91
3 -3 5 154.32 4.96
-3 3 -5 157.96 4.54
-3 3 -5 156.69 4.26
-3 3 -5 164.66 6.5
-3 3 -5 158.76 4.61
3 -3 6 30.95 2.2
-3 3 -6 28.47 2
-3 3 -6 30.82 1.91
-3 3 -6 32.82 2.91
-3 3 -6 29.04 1.53
-3 3 -7 49.94 2.88
-3 3 -7 49.83 2.59
-3 3 -7 45.41 3.71
-3 3 -7 50.82 1.84
-3 3 -8 29.22 1.26
-3 3 -8 33.08 2.53
-3 3 -8 32.33 2.2
-3 3 -8 29.94 3.12
-3 3 -9 8.62 0.73
-3 3 -9 9.69 1.51
-3 3 -9 10.13 1.36
-3 3 -9 10.22 1.88
-3 3 -10 12.29 1.8
-3 3 -10 9.24 0.84
-3 3 -10 8.07 1.83
-3 3 -11 26.66 2.8
-3 3 -11 24.71 3.41
-3 3 -12 26.38 2.99
-3 3 -12 27.08 3.69
-3 3 -13 22.16 2.84
-3 3 -13 27.54 3.83
-3 3 -14 6.81 1.76
-3 3 -14 7.72 1.57
-3 3 -14 6.91 2.16
-3 3 -15 16.85 2.77
-3 3 -15 8.41 2.37
-3 3 -16 12.92 2.62
3 -2 -16 1.24 1.28
3 -2 -15 4.6 1.63
3 -2 -14 0.71 1.05
3 -2 -14 1.47 1.02
3 -2 -13 12.46 2.5
3 -2 -13 13.39 2.47
3 -2 -12 6.97 1.93
3 -2 -12 8.66 1.85
3 -2 -11 6.67 1.7
3 -2 -11 4.72 1.41
3 -2 -10 0.36 0.69
3 -2 -10 0.78 0.65
3 -2 -9 258.77 9.98
3 -2 -9 272.44 9.2
3 -2 -8 154.17 7.2
3 -2 -8 145.7 6.16
3 -2 -7 5.56 1.3
3 -2 -7 5.83 1.15
3 -2 -6 20.32 1.93
3 -2 -6 17.28 2.21
3 -2 -6 21.05 1.57
3 -2 -6 22 1.98
-3 2 5 36.96 2.33
3 -2 -5 38.07 3.15
3 -2 -5 41.35 2.52
3 -2 -5 39.5 2.17
3 -2 -5 42.62 2.6
-3 2 4 123.46 4.08
3 -2 -4 126.69 5.58
3 -2 -4 129.22 4.22
3 -2 -4 130.85 4.17
3 -2 -4 125.96 4.51
-3 2 3 215.71 5.14
-3 2 3 224.44 7.32
3 -2 -3 211.97 5.23
-3 2 3 213.56 5.82
3 -2 -3 213.67 5.68
3 -2 -3 210.42 7.3
3 -2 -3 224.13 6.08
3 -2 -2 1.75 0.56
-3 2 2 1.65 0.33
3 -2 -2 1.56 0.66
-3 2 2 1.36 0.51
3 -2 -2 1.76 0.67
-3 2 2 1.6 0.68
3 -2 -2 1.57 0.37
-3 2 2 1.25 0.39
3 -2 -2 1.71 0.51
-3 2 1 399.67 6.61
3 -2 -1 429.9 9.73
3 -2 -1 434.83 9.18
3 -2 -1 415.2 8.98
-3 2 1 421.22 9.03
-3 2 1 427.18 10.44
-3 2 0 205.8 6.68
3 -2 0 204.73 6.17
-3 2 0 203.8 6.27
3 -2 0 202.41 5.82
-3 2 0 205.92 5.86
-3 2 0 199.68 5.2
3 -2 0 199.55 5.72
-3 2 -1 85.49 3.9
-3 2 -1 81.53 3.1
3 -2 1 79.61 3.59
-3 2 -1 86.11 3.64
-3 2 -1 91.68 3.42
3 -2 1 86.32 3.63
3 -2 2 411.3 6.66
-3 2 -2 434.08 8.52
3 -2 2 433.06 10.04
-3 2 -2 413.46 9.69
-3 2 -2 436.65 9.12
-3 2 -2 409.08 9.91
3 -2 2 416.04 9.51
3 -2 3 340.1 7.79
3 -2 3 365.47 6.53
-3 2 -3 365.08 7.5
3 -2 3 334.99 9.08
-3 2 -3 336.21 8.92
-3 2 -3 343.55 8.13
3 -2 3 344.82 8.63
-3 2 -3 351.44 6.39
-3 2 -4 -0.8 0.69
3 -2 4 0.13 0.39
-3 2 -4 -0.2 0.27
-3 2 -4 0.18 0.11
-3 2 -4 0.04 0.25
3 -2 4 0.38 0.38
3 -2 4 0.14 0.21
-3 2 -4 -0.24 0.28
3 -2 5 84.92 3.25
-3 2 -5 73.44 3
-3 2 -5 73.77 3.07
-3 2 -5 77.98 4.33
-3 2 -5 76.56 3.52
3 -2 5 77.9 3.86
3 -2 6 31.82 2.17
-3 2 -6 29.82 2.09
-3 2 -6 29.16 1.95
-3 2 -6 29.72 2.81
-3 2 -7 180.34 5.98
-3 2 -7 190.13 5.74
-3 2 -7 189.71 7.66
-3 2 -8 150.31 5.79
-3 2 -8 144.57 5.33
-3 2 -8 149.18 7.08
-3 2 -9 71.15 4.12
-3 2 -9 76.04 5.21
-3 2 -10 16.97 2.12
-3 2 -10 17.11 2.59
-3 2 -11 34.76 3.95
-3 2 -11 35.39 3.32
-3 2 -12 18.59 2.58
-3 2 -12 27.55 3.65
-3 2 -13 0.72 0.76
-3 2 -13 -0.08 0.78
-3 2 -14 2.81 1.22
-3 2 -14 1.86 0.96
-3 2 -14 1.46 1.07
-3 2 -15 5.34 1.56
-3 2 -15 8.15 2.01
-3 2 -15 7.95 2.54
3 -1 -15 2.91 1.44
3 -1 -15 2.51 1.34
3 -1 -14 30.48 3.77
3 -1 -14 29.93 3.74
3 -1 -13 13.39 2.56
3 -1 -13 20.59 2.93
3 -1 -12 3.98 1.31
3 -1 -12 3.87 1.21
3 -1 -11 12.44 2.08
3 -1 -11 7.68 1.76
3 -1 -10 6.74 1.4
3 -1 -10 6.38 1.52
3 -1 -9 58.81 3.93
3 -1 -9 63.5 4.45
3 -1 -8 24.35 2.64
3 -1 -8 26.03 2.39
3 -1 -7 1.48 0.69
3 -1 -7 2.37 0.87
-3 1 6 248.76 7.22
3 -1 -6 238.7 8.04
3 -1 -6 249.87 7.08
-3 1 5 11.01 1.28
3 -1 -5 12.05 1.66
-3 1 5 9.69 1.41
3 -1 -5 11.66 1.28
3 -1 -5 11.44 1.47
-3 1 4 406.81 8.72
-3 1 4 417.78 8.26
3 -1 -4 404.81 8.48
-3 1 4 398.14 10.2
3 -1 -4 412.68 9.82
3 -1 -4 410.76 10.48
-3 1 3 240.4 5.71
-3 1 3 250.62 5.51
3 -1 -3 240.64 5.55
-3 1 3 225.97 7.14
3 -1 -3 241.36 6.12
3 -1 -3 240.06 6.89
-3 1 2 116.4 3.22
3 -1 -2 113.95 3.13
-3 1 2 111 4.72
3 -1 -2 110.09 3.63
3 -1 -2 114.7 3.87
3 -1 -2 111.65 4.36
-3 1 2 112.16 4.28
-3 1 1 73.43 2.27
3 -1 -1 74.15 2.16
3 -1 -1 69.67 3.38
-3 1 1 73.78 3.14
-3 1 1 67.47 2.76
3 -1 -1 68.61 2.75
-3 1 1 66.41 3.27
-3 1 0 251.43 4.68
-3 1 0 242.2 6.38
3 -1 0 234.04 6.85
3 -1 0 245.23 5.95
-3 1 0 247.59 6.93
-3 1 0 240.24 5.71
-3 1 -1 215.77 5.29
3 -1 1 222.68 5.65
3 -1 1 215.23 6.54
-3 1 -1 218.37 6.52
3 -1 1 206.04 5.57
-3 1 -1 221.13 4.05
3 -1 2 360.14 6.76
-3 1 -2 380.14 7.67
3 -1 2 395.97 8.02
3 -1 2 358.45 9.23
-3 1 -2 364.08 9.16
3 -1 2 367.82 8.14
-3 1 -2 357.48 5.91
-3 1 -3 2.07 0.67
3 -1 3 4.34 0.63
-3 1 -3 3.66 0.65
3 -1 3 2.31 0.52
-3 1 -3 3.24 0.6
3 -1 3 2.53 0.61
3 -1 3 2.67 0.79
3 -1 4 9.03 1.14
-3 1 -4 8.09 1.37
3 -1 4 8.19 0.97
-3 1 -4 6.42 0.9
-3 1 -4 7.57 0.92
-3 1 -5 118.41 4.2
3 -1 5 113.74 4.14
-3 1 -5 119.29 5.41
-3 1 -5 115.24 3.85
3 -1 5 112.66 4.34
3 -1 6 0.21 0.36
-3 1 -6 0.89 0.66
3 -1 6 -0.3 0.45
-3 1 -6 0.51 0.42
-3 1 -6 0.07 0.22
-3 1 -7 167.89 5.84
-3 1 -7 169.64 7.16
-3 1 -7 165.21 4.96
-3 1 -8 2.51 1.08
-3 1 -8 1.13 0.45
-3 1 -9 14.02 2.26
3 -1 9 11.14 0.72
-3 1 -9 10.75 1.23
-3 1 -10 19.88 2.74
-3 1 -11 50.97 4.67
-3 1 -12 28.34 3.57
-3 1 -13 7.61 2.04
-3 1 -13 7.25 1.71
-3 1 -14 14.25 2.8
-3 1 -14 16 2.54
-3 1 -15 -0.57 0.74
-3 1 -15 -1.2 1.1
-3 1 -16 2.14 1.24
3 0 -15 4.69 1.47
3 0 -14 10.46 2.17
3 0 -14 6.75 1.6
3 0 -13 2.94 1.17
3 0 -13 3.3 1.13
3 0 -12 4.21 1.42
3 0 -12 4.7 1.33
3 0 -11 66.74 4.75
3 0 -11 66.81 4.5
3 0 -10 1.05 0.83
3 0 -10 0.34 0.69
3 0 -10 0.53 0.5
3 0 -9 72.58 4.37
3 0 -9 76.89 4.49
3 0 -9 69.12 4.04
3 0 -8 291.37 8.93
3 0 -8 274.76 8.11
3 0 -8 272.34 8.68
3 0 -7 20.73 2.06
3 0 -7 17.97 2
-3 0 7 18.74 1.92
3 0 -7 20.75 1.91
-3 0 6 10.29 1.41
3 0 -6 11.49 1.47
3 0 -6 9.77 1.26
-3 0 5 93.42 4.1
3 0 -5 88.09 3.92
-3 0 5 97.01 4.31
3 0 -5 91.66 3.56
3 0 -5 90.46 2.81
3 0 -4 182.34 5.55
3 0 -4 182.3 4.99
-3 0 4 176.49 5.96
3 0 -4 180.24 6.36
3 0 -3 390.45 8.42
3 0 -3 370.04 7.58
-3 0 3 375.94 9.35
-3 0 3 365.01 7.64
3 0 -3 371.31 9.56
-3 0 3 386.66 7.86
3 0 -2 181.02 5.06
3 0 -2 186 4.46
-3 0 2 178.92 4.61
-3 0 2 183.59 4.69
3 0 -2 179.68 6.08
-3 0 2 184.34 4.8
-3 0 2 196.95 6.25
3 0 -1 36.05 1.59
-3 0 1 33.5 1.78
3 0 -1 35.7 2.55
-3 0 1 36.78 1.89
-3 0 1 36.97 2.57
3 0 0 862.18 13.2
3 0 0 854.39 16.72
3 0 0 873.55 14.64
-3 0 0 875.23 14.23
-3 0 0 844.8 14.19
-3 0 0 861.35 16.64
-3 0 -1 100.95 3.37
3 0 1 108.42 3.56
-3 0 -1 104.38 3.22
3 0 1 102.24 4.54
-3 0 -1 101.44 4.5
3 0 1 104.15 2.67
3 0 2 51.42 2.43
3 0 2 54.65 3.33
-3 0 -2 47.65 3.08
3 0 2 55.31 2.44
3 0 2 54.45 1.73
-3 0 -2 54.16 2.13
-3 0 -2 50.43 2.41
-3 0 -3 219.66 5.91
-3 0 -3 221.77 7.32
3 0 3 235.65 5.84
3 0 3 225.57 4.26
-3 0 -4 0.08 0.52
3 0 4 0.43 0.27
3 0 4 0.27 0.13
-3 0 -4 0.68 0.47
3 0 4 0.46 0.21
-3 0 -5 98.76 4.16
3 0 5 92.47 2.3
-3 0 -5 94.77 4.9
3 0 5 90.46 3.55
3 0 6 6.93 1.01
-3 0 -6 4.32 1.29
3 0 6 4.9 0.54
-3 0 -6 4.43 1.06
3 0 6 2.69 0.35
3 0 7 29.11 1.1
3 0 7 30.43 1.45
-3 0 -7 30.69 2.99
3 0 7 32.04 2.11
3 0 8 230.13 4.22
-3 0 -8 248.09 9.17
-3 0 -9 83.18 5.39
-3 0 -10 2.98 1.15
-3 0 -11 16.89 2.65
-3 0 -12 3.98 1.46
-3 0 -12 11.2 2.14
-3 0 -13 9.49 2.24
-3 0 -13 9.91 2.07
-3 0 -14 6.79 1.96
-3 0 -14 10.47 2.21
-3 0 -15 8.52 2.39
-3 0 -15 7.62 2.06
3 1 -16 28.38 3.93
3 1 -15 4.49 1.59
3 1 -14 12.3 2.39
3 1 -13 50.63 4.51
3 1 -13 58.19 4.33
3 1 -12 3.93 1.04
3 1 -12 3.18 1.29
3 1 -12 3.97 1.11
3 1 -11 33.67 2.92
3 1 -11 26.08 2.47
3 1 -11 31.14 3.22
-3 -1 10 11.91 1.49
3 1 -10 15.69 2.22
3 1 -10 13.58 1.72
3 1 -9 41.64 3.45
3 1 -9 40.48 2.82
-3 -1 9 39.1 2.55
3 1 -8 22.06 2.38
3 1 -8 23.57 1.99
-3 -1 8 22.01 1.9
-3 -1 7 0.22 0.24
3 1 -7 0.53 0.61
3 1 -7 0.25 0.41
3 1 -6 79.87 3.33
3 1 -6 73.86 4.03
-3 -1 6 78.67 3.67
3 1 -5 68.59 2.94
3 1 -5 67.52 3.68
-3 -1 5 68.95 3.44
-3 -1 5 66.38 2.54
3 1 -4 313.35 7.05
3 1 -4 310.87 8.44
-3 -1 4 308.64 6.46
3 1 -3 3.39 0.63
-3 -1 3 2.25 0.35
-3 -1 3 2.58 0.47
-3 -1 2 105.2 3.21
3 1 -2 102.98 3.45
-3 -1 2 107.48 4.22
3 1 -2 103.56 3.56
-3 -1 1 19.63 1.33
3 1 -1 22.89 1.53
-3 -1 1 21.97 1.83
3 1 -1 19.55 1.44
-3 -1 1 19.89 2.05
-3 -1 0 306.62 6.84
3 1 0 305.72 6.81
-3 -1 0 302.6 7.67
3 1 0 313.72 6.9
-3 -1 0 294.39 8.62
-3 -1 -1 256.35 6.38
-3 -1 -1 265.67 6.94
3 1 1 264.16 6.22
3 1 1 242.21 5.97
-3 -1 -1 259.52 7.97
-3 -1 -2 98.69 3.8
3 1 2 99.47 3.4
-3 -1 -2 91.35 4.57
-3 -1 -3 172.51 6.62
3 1 3 174.53 4.66
-3 -1 -3 174.25 5.7
3 1 3 184.31 4.88
-3 -1 -4 49.02 2.99
3 1 4 49.18 2.37
-3 -1 -4 48.16 3.46
3 1 4 50.83 2.38
-3 -1 -5 15.51 2.04
3 1 5 15.12 1.32
3 1 5 14.47 1.27
3 1 6 0.04 0.21
-3 -1 -6 0.13 0.45
3 1 6 0.7 0.47
3 1 7 69.94 3.15
-3 -1 -7 65.43 4.48
3 1 7 64.88 2.79
-3 -1 -8 54.89 4.26
-3 -1 -9 2.29 1.07
-3 -1 -10 1.35 0.78
-3 -1 -11 51.74 4.6
-3 -1 -11 54.24 4.66
-3 -1 -12 10.45 2.14
-3 -1 -12 10.76 2.2
-3 -1 -13 2.98 1.37
-3 -1 -13 1.82 1.22
-3 -1 -14 8.97 2.23
-3 -1 -14 6.77 2.02
-3 -1 -15 -0.41 1.36
3 2 -16 2.36 1.06
3 2 -15 1.7 0.85
3 2 -15 2.87 1.25
3 2 -14 14.2 2.22
3 2 -14 11.69 2.3
3 2 -13 20.44 2.97
3 2 -13 15.61 2.14
3 2 -12 3.6 1
3 2 -12 4.13 1.44
3 2 -11 97.58 6.03
3 2 -11 98.57 4.86
3 2 -10 8.76 1.75
3 2 -10 5.66 1.14
-3 -2 9 4.55 0.75
3 2 -9 4.83 1.31
3 2 -9 5.58 1.03
3 2 -8 78.51 3.71
3 2 -8 75.11 4.76
-3 -2 8 74.57 3.15
-3 -2 8 76.29 2.64
3 2 -7 30.66 2.21
3 2 -7 31.94 2.95
-3 -2 7 34.11 2.15
-3 -2 7 35.84 1.65
3 2 -6 22.83 2.41
-3 -2 6 20.76 1.77
-3 -2 6 22.65 1.26
3 2 -6 20.5 1.78
-3 -2 5 0.87 0.26
3 2 -5 1.37 0.66
3 2 -5 0.31 0.32
-3 -2 4 7.86 0.77
3 2 -4 10.14 1.28
-3 -2 3 285.86 6.06
3 2 -3 282.14 6.38
3 2 -3 284.31 7.5
-3 -2 2 187.67 4.84
3 2 -2 168.26 5.61
3 2 -2 190.02 4.9
3 2 -1 5.13 0.88
-3 -2 1 6.51 0.89
3 2 -1 6.46 0.84
-3 -2 1 5.08 1.1
3 2 0 281.6 6.56
-3 -2 0 270.75 6.94
3 2 0 264.74 7.28
-3 -2 0 265.81 8.53
3 2 1 1.39 0.55
-3 -2 -1 1.49 0.68
-3 -2 -1 1.68 0.6
-3 -2 -2 0.18 0.52
3 2 2 -0.01 0.4
-3 -2 -3 6.88 1.38
3 2 3 6.93 1.12
-3 -2 -4 0.58 0.6
3 2 4 -0.25 0.32
3 2 4 0.08 0.19
3 2 5 65.85 3.54
-3 -2 -5 60.59 4.18
3 2 5 64.23 2.66
-3 -2 -6 2.89 1.02
3 2 6 3.63 0.87
3 2 6 3.53 0.61
3 2 7 0.28 0.26
-3 -2 -7 -0.37 0.48
3 2 7 0.86 0.54
3 2 8 129.72 5.48
-3 -2 -8 135.16 6.95
-3 -2 -9 55.06 4.65
-3 -2 -9 41.26 3.88
-3 -2 -10 5.35 1.49
-3 -2 -10 7.56 1.9
-3 -2 -11 -0.38 0.99
-3 -2 -11 1.79 1.2
-3 -2 -12 -0.57 1
-3 -2 -12 0.21 0.72
3 3 -15 0.45 0.65
3 3 -15 0.64 0.69
3 3 -14 0.06 0.47
3 3 -14 0.95 0.99
3 3 -13 27.17 2.74
3 3 -13 21.78 3.1
3 3 -12 16.69 2.69
3 3 -12 14.89 1.91
3 3 -11 39.13 3
3 3 -11 30.35 3.53
3 3 -10 51.71 3.26
3 3 -10 50.8 4.35
3 3 -9 4.78 1.05
3 3 -9 4.8 1.28
3 3 -8 105.12 5.98
-3 -3 8 88.64 2.19
3 3 -8 100.17 4.51
-3 -3 7 1.05 0.37
3 3 -7 2.59 1.06
-3 -3 7 0.54 0.2
3 3 -7 1.08 0.59
-3 -3 6 7.47 1.08
3 3 -6 9.5 1.79
-3 -3 6 10.52 0.82
3 3 -6 7.52 1.3
3 3 -5 17.01 2.28
-3 -3 5 15.35 1.1
3 3 -5 13.85 1.66
3 3 -4 12.56 1.63
-3 -3 4 12.9 1.11
3 3 -3 53.81 2.4
3 3 -3 51.04 3.33
3 3 -2 7.32 1.3
3 3 -2 6.95 0.88
3 3 -1 1.86 0.78
3 3 0 157.83 6.15
-3 -3 0 176.19 7.01
3 3 1 118.22 5.33
-3 -3 -1 118.74 5.67
3 3 2 42.63 3.14
-3 -3 -2 40.65 3.29
3 3 3 64.38 3.99
-3 -3 -3 65.21 4.27
-3 -3 -4 0.15 0.48
3 3 4 1.55 0.81
-3 -3 -5 7.3 1.48
3 3 5 7.98 1.48
3 3 5 6.55 0.8
3 3 6 8.13 1.58
-3 -3 -6 10.66 1.92
-3 -3 -7 10.47 2.06
3 3 7 16.45 2.16
-3 -3 -7 15.02 2.24
3 3 8 65.74 4.37
-3 -3 -8 62.96 5.16
-3 -3 -8 69.11 4.96
-3 -3 -9 0.35 0.71
-3 -3 -9 0.7 0.88
-3 -3 -10 1.25 0.84
-3 -3 -10 -0.18 1.01
3 4 -14 0.84 0.96
3 4 -14 3.48 1.14
3 4 -13 33.88 3.06
3 4 -13 36.4 4.19
3 4 -12 -0.14 0.85
3 4 -12 -0.09 0.45
3 4 -11 33.28 2.84
3 4 -11 35.09 3.97
3 4 -10 15.22 1.94
3 4 -10 16.2 2.65
3 4 -9 1.18 0.99
3 4 -9 0.47 0.54
3 4 -8 0.92 1.07
3 4 -8 0.26 0.62
3 4 -7 5.4 1.41
3 4 -7 5.99 1.24
3 4 -6 11.01 2.09
3 4 -6 10.7 1.72
-3 -4 5 15.51 1.22
3 4 -5 17.51 2.15
3 4 -4 0.35 0.72
3 4 -3 67.62 2.83
3 4 -3 77.76 4.6
3 4 -2 58.15 4.03
3 4 -1 18.13 2.26
3 4 0 10.08 1.72
3 4 1 6.18 1.4
-3 -4 -2 4.27 1.16
3 4 2 5.2 1.33
-3 -4 -3 3.31 1.03
3 4 3 3.39 1.08
-3 -4 -4 3.56 1.43
-3 -4 -4 1.37 0.77
3 4 4 2.28 0.92
-3 -4 -5 36.74 3.83
3 4 5 29.88 3.15
-3 -4 -5 27.24 2.93
-3 -4 -6 1.23 0.88
-3 -4 -6 1.13 0.67
3 4 6 1.81 0.93
-3 -4 -7 1.32 1.18
-3 -4 -7 0.53 0.73
3 4 7 0.44 0.59
-3 -4 -8 27.15 3.69
-3 -4 -9 20.04 3.3
3 5 -13 0.75 0.57
3 5 -12 9.98 1.69
3 5 -12 9.99 2.37
3 5 -11 7.91 1.6
3 5 -11 12.72 2.62
3 5 -10 52.07 5.09
3 5 -10 49.29 3.8
3 5 -9 2.59 1.42
3 5 -9 4.11 1.2
3 5 -8 33.93 4.09
3 5 -8 33.9 3.19
3 5 -7 21.11 3.16
3 5 -7 22.85 2.68
3 5 -6 -0.12 0.52
3 5 -6 1.41 1.23
3 5 -5 1.94 0.97
3 5 -4 1.49 0.88
-3 -5 4 1.46 0.65
-3 -5 3 29.62 2.53
3 5 -3 30.36 3.2
3 5 -2 6.41 1.58
-3 -5 2 6.33 1.29
3 5 -1 0.47 0.68
-3 -5 1 0.04 0.5
-3 -5 0 29.76 3.01
3 5 0 32.12 3.49
-3 -5 -1 47.46 4.01
3 5 1 48.51 4.21
-3 -5 -2 17.92 2.64
3 5 2 15.62 2.48
-3 -5 -3 8.08 1.9
3 5 3 7.61 1.79
-3 -5 -4 5.86 1.77
3 5 4 5.69 1.61
3 5 5 6.61 1.74
-3 -5 -5 10.27 2.23
3 5 6 15.86 2.64
-3 -5 -6 16.92 2.93
-3 -5 -7 7.45 2.21
3 6 -10 9.57 2.46
3 6 -10 6.23 1.49
3 6 -9 0.1 1.07
3 6 -9 -0.33 0.82
3 6 -8 3.56 1.54
3 6 -8 2.89 1.1
3 6 -7 3.1 1.57
3 6 -7 1.9 1.08
3 6 -6 7.38 1.75
3 6 -5 12.28 2.25
3 6 -4 1.93 1.15
3 6 -3 5.92 1.79
3 6 -2 6.97 1.83
-3 -6 2 9.79 1.75
3 6 -1 9.58 2.05
-3 -6 1 7.81 1.63
-3 -6 0 0.2 0.67
3 6 0 -0.57 1
-3 -6 -1 0.35 0.6
3 6 1 0.76 0.92
-3 -6 -2 1.88 1.27
3 6 2 0.39 0.74
-3 -6 -3 1.74 1.25
3 6 3 3.39 1.55
-3 -6 -4 4.13 1.68
3 6 4 2.3 1.3
-3 -6 -5 7.97 2.13
3 6 5 6.35 1.92
3 7 -5 9.47 2.28
3 7 -4 0.33 1.02
3 7 -3 3.02 1.27
3 7 -2 8.28 2.12
3 7 -1 1.96 1.45
3 7 0 4.4 1.87
-3 -7 -1 6.38 1.9
3 7 1 6.26 2.03
-3 -7 -2 4.39 1.69
3 7 2 2.71 1.49
4 -9 -2 0.45 1.17
4 -9 -1 1.02 1.22
4 -9 0 2.99 1.66
4 -9 0 1.1 1.12
4 -9 1 12.01 2.62
4 -9 1 11 2.65
4 -9 2 5.47 1.84
-4 9 -2 3.61 1.69
-4 9 -3 -0.2 0.77
4 -9 3 -0.26 1.1
-4 9 -4 -1 1.06
4 -9 4 -0.09 0.83
4 -9 5 13.87 2.81
-4 9 -5 8.17 2.12
-4 9 -6 1.65 1.31
-4 9 -7 11.36 2.48
-4 9 -8 0.69 0.98
-4 9 -9 0.52 0.75
4 -8 -5 1.12 0.95
4 -8 -4 10.3 2.79
4 -8 -3 10.2 2.47
4 -8 -2 0.07 0.87
4 -8 -1 9.73 2.46
4 -8 -1 11 2.52
4 -8 0 29.05 3.89
4 -8 0 27.19 3.91
4 -8 1 0.64 1
4 -8 1 1.82 1.2
4 -8 2 3.39 1.47
4 -8 3 20.44 3.26
-4 8 -4 14.77 2.07
4 -8 4 18.05 3.07
-4 8 -4 18.26 2.94
-4 8 -4 9.74 1.48
-4 8 -5 1.92 0.78
-4 8 -5 3.65 1.41
-4 8 -5 3.21 0.89
-4 8 -6 2.06 0.87
-4 8 -6 1.89 1.19
-4 8 -7 10.04 1.72
-4 8 -7 11.83 2.32
-4 8 -7 9.21 1.8
-4 8 -8 46.58 3.83
-4 8 -8 52.38 4.45
-4 8 -8 55.03 4.8
-4 8 -9 11.89 2.32
-4 8 -9 12.08 2.24
-4 8 -10 8.64 2.05
-4 8 -11 4.3 1.59
-4 8 -12 3.08 1.28
4 -7 -7 0.34 1.2
4 -7 -6 16.16 3.2
4 -7 -5 0.9 0.93
4 -7 -4 21.29 3.47
4 -7 -3 4.19 1.58
4 -7 -2 13.78 2.66
4 -7 -1 -0.1 0.81
4 -7 -1 0.98 1.18
4 -7 0 13.52 2.41
4 -7 0 14.33 2.63
4 -7 1 27.29 3.34
4 -7 1 25.44 3.43
4 -7 2 33.84 3.88
-4 7 -3 5.17 1.12
4 -7 3 5.01 1.6
-4 7 -4 1.05 0.7
-4 7 -4 1.48 0.7
-4 7 -4 2.82 0.87
4 -7 4 2.23 1.23
-4 7 -4 1.29 0.55
-4 7 -5 17.15 2.61
-4 7 -5 13.63 1.8
-4 7 -5 15.1 1.69
-4 7 -5 15.88 2.19
-4 7 -6 0.4 0.46
-4 7 -6 0.46 0.61
-4 7 -6 0.14 0.38
-4 7 -6 -0.22 0.54
-4 7 -7 38.97 3.15
-4 7 -7 44.77 2.77
-4 7 -7 54.57 4.3
-4 7 -7 37.52 3.58
-4 7 -8 7.85 1.54
-4 7 -8 10.55 1.29
-4 7 -8 9.64 1.81
-4 7 -8 6.91 1.65
-4 7 -9 3.07 0.99
-4 7 -9 2.24 0.93
-4 7 -9 1.28 0.82
-4 7 -10 -0.46 0.5
-4 7 -10 -0.09 0.62
-4 7 -11 25.35 2.9
-4 7 -11 21.85 3.15
-4 7 -12 6.37 1.61
-4 7 -12 7.53 2.02
-4 7 -13 6.19 1.95
4 -6 -9 1.02 0.97
4 -6 -8 28.42 4.26
4 -6 -7 1.88 1.41
4 -6 -6 0.44 0.73
4 -6 -5 -0.23 0.68
4 -6 -4 3.24 1.22
4 -6 -3 88.52 6.34
4 -6 -2 7.44 1.84
4 -6 -1 15.94 2.63
4 -6 -1 19.5 2.82
4 -6 0 85.76 5.75
4 -6 0 95.33 6.21
-4 6 0 94.53 3.39
-4 6 -1 -0.1 0.4
4 -6 1 -0.62 0.53
4 -6 1 0.73 0.73
-4 6 -2 0.78 0.55
4 -6 2 2.15 1.11
-4 6 -3 36.59 2.49
-4 6 -3 38.52 2.91
4 -6 3 47.78 4.27
-4 6 -4 -0.21 0.3
-4 6 -4 0.22 0.33
-4 6 -5 50.45 3.07
-4 6 -5 46.01 3.76
-4 6 -5 43.34 2.72
-4 6 -5 47.52 3.63
-4 6 -6 0.68 0.55
-4 6 -6 0.3 0.76
-4 6 -6 0.5 0.44
-4 6 -6 -0.77 0.77
-4 6 -7 12.54 1.67
-4 6 -7 13.26 1.43
-4 6 -7 13.2 1.86
-4 6 -7 9.01 1.81
-4 6 -8 152.04 6.17
-4 6 -8 149.07 5.12
-4 6 -8 148.07 7.5
-4 6 -8 144.94 6.06
-4 6 -9 57.28 3.86
-4 6 -9 56.4 3.07
-4 6 -9 56.71 4.73
-4 6 -9 54.6 3.42
-4 6 -10 10.05 1.68
-4 6 -10 5.33 0.93
-4 6 -10 7.43 1.77
-4 6 -11 11.1 1.89
-4 6 -11 7.61 1.9
-4 6 -12 0.77 0.74
-4 6 -12 0.95 0.87
-4 6 -13 20.27 2.76
-4 6 -13 15.8 2.95
-4 6 -14 10.2 2.11
-4 6 -14 9.79 2.47
4 -5 -11 3.65 1.64
4 -5 -10 11.07 2.75
4 -5 -9 8.21 2.23
4 -5 -8 13.78 2.74
4 -5 -7 0.79 0.51
4 -5 -7 1.24 1.02
4 -5 -6 29.24 3.68
4 -5 -6 20.87 2.18
4 -5 -5 22.69 3.2
4 -5 -5 20.47 2.17
4 -5 -4 32.35 3.64
4 -5 -4 34.94 2.88
4 -5 -3 7.28 1.32
4 -5 -3 7.62 1.79
-4 5 2 21.14 1.83
4 -5 -2 25.21 3.03
4 -5 -2 20.46 2.29
4 -5 -1 0.41 0.42
-4 5 1 0.44 0.33
-4 5 1 -0.14 0.29
4 -5 -1 -0.48 0.59
4 -5 -1 0.42 0.65
4 -5 0 128.21 6.62
4 -5 0 134.03 6.86
-4 5 0 132.97 4.65
4 -5 0 121.01 5.84
4 -5 1 67.23 4.75
-4 5 -1 63.21 3.3
4 -5 2 132.48 6.79
-4 5 -2 132.63 5.23
-4 5 -3 36.14 2.08
-4 5 -3 38.02 2.52
-4 5 -3 36.74 2.84
-4 5 -4 1.89 0.91
-4 5 -4 0.48 0.32
-4 5 -4 0.33 0.31
-4 5 -5 0.71 0.79
-4 5 -5 1.24 0.5
-4 5 -5 1.28 0.65
-4 5 -5 1.74 0.53
-4 5 -6 3.74 0.8
-4 5 -6 1.7 0.68
-4 5 -6 3.36 0.74
-4 5 -6 2.64 1.07
-4 5 -7 78.39 3.83
-4 5 -7 76.65 3.47
-4 5 -7 71.93 3.68
-4 5 -7 67.52 4.78
-4 5 -8 98.49 4.56
-4 5 -8 95.84 4.01
-4 5 -8 99.08 6.02
-4 5 -8 89.79 3.87
-4 5 -9 1.35 0.49
-4 5 -9 0.49 0.55
-4 5 -9 0.38 0.44
-4 5 -9 1.31 0.84
-4 5 -10 0.2 0.44
-4 5 -10 0.23 0.5
-4 5 -10 0.56 0.82
-4 5 -11 43.65 3.59
-4 5 -11 38.23 2.84
-4 5 -11 44.66 4.54
-4 5 -12 17.65 2.39
-4 5 -12 18.36 3.05
-4 5 -13 4.58 1.38
-4 5 -13 5.59 2.01
-4 5 -14 3.64 1.38
-4 5 -14 2.4 1.52
-4 5 -15 3.75 1.62
-4 5 -16 1.82 1.38
4 -4 -13 6.73 2.37
4 -4 -12 1.19 1.05
4 -4 -11 26.52 3.95
4 -4 -10 15.88 3.04
4 -4 -9 1.1 1.18
4 -4 -9 2.36 0.79
4 -4 -8 14.35 1.72
4 -4 -8 16.28 2.69
4 -4 -7 17.61 2.81
4 -4 -7 16.02 1.82
4 -4 -6 23.06 3.06
4 -4 -6 18.17 1.69
4 -4 -6 22.36 2.14
4 -4 -5 6.68 1.01
4 -4 -5 8.83 1.92
4 -4 -5 5.38 1.08
4 -4 -4 0.48 0.42
4 -4 -4 0.72 0.69
-4 4 4 0.64 0.44
4 -4 -4 1.1 0.52
4 -4 -3 213.74 8.78
-4 4 3 217.32 5.87
4 -4 -3 219.93 5.95
4 -4 -3 216.69 7.23
4 -4 -2 92.97 5.59
-4 4 2 96.08 3.35
4 -4 -2 105.94 5.69
4 -4 -2 102.68 3.9
4 -4 -2 100.28 4.75
-4 4 2 102.75 3.89
-4 4 1 15.82 1.15
4 -4 -1 20.03 2.47
4 -4 -1 16.82 2.26
4 -4 -1 17.18 1.63
-4 4 1 17.18 1.6
4 -4 -1 17.26 1.96
-4 4 0 140.82 3.5
4 -4 0 145.94 6.53
4 -4 0 147.15 5.21
-4 4 0 138.86 5.02
4 -4 0 143.65 5.91
-4 4 -1 35.28 1.47
4 -4 1 34.69 3.12
4 -4 1 37.21 2.64
-4 4 -1 39.21 2.64
4 -4 1 38.09 3.03
-4 4 -2 31.35 1.36
-4 4 -2 30.19 2.2
-4 4 -2 32.3 2.55
4 -4 2 32.7 2.89
4 -4 3 2.29 0.94
-4 4 -3 2.36 0.81
-4 4 -3 2.27 0.4
-4 4 -3 2.76 0.65
-4 4 -4 13.24 1.91
4 -4 4 13.47 1.95
-4 4 -4 12.24 1.03
-4 4 -4 8.51 1.13
-4 4 -5 197.36 5.13
-4 4 -5 196.56 5.91
-4 4 -5 182.79 5.6
-4 4 -5 198.27 7.64
-4 4 -6 2.61 1.05
-4 4 -6 2.91 0.64
-4 4 -6 2.31 0.67
-4 4 -6 2.37 0.57
-4 4 -7 4.8 0.71
4 -4 7 6.68 1.15
-4 4 -7 6.17 1.02
-4 4 -7 5.13 0.96
-4 4 -7 4.22 1.25
-4 4 -8 135.92 5.26
-4 4 -8 133.1 4.91
-4 4 -8 139.23 7.21
-4 4 -8 124.01 3.4
-4 4 -9 199.42 6.94
-4 4 -9 190.68 6.32
-4 4 -9 200.97 9.1
-4 4 -9 181.04 3.9
-4 4 -10 0.23 0.42
-4 4 -10 0.63 0.55
-4 4 -10 0.29 0.83
-4 4 -11 1.32 0.74
-4 4 -11 2.52 0.86
-4 4 -11 5.13 1.78
-4 4 -12 2.77 1.03
-4 4 -12 0.99 1.06
-4 4 -13 24.11 3.03
-4 4 -13 23.05 3.59
-4 4 -14 38.06 4
-4 4 -14 34.86 4.66
-4 4 -15 10.65 2.34
-4 4 -16 26.68 3.77
4 -3 -14 2.05 1.44
4 -3 -13 6.28 1.75
4 -3 -12 15.78 2.93
4 -3 -11 23.24 3.44
4 -3 -10 26.35 3.57
4 -3 -10 21.68 2.03
4 -3 -9 14.16 2.49
4 -3 -9 8.7 1.26
4 -3 -8 45.7 4.36
4 -3 -8 41.85 2.8
4 -3 -7 20.81 1.96
4 -3 -7 19.83 2.76
4 -3 -6 0.96 0.84
4 -3 -6 0.5 0.5
4 -3 -6 -0.18 0.36
-4 3 5 35.88 2.36
4 -3 -5 32.19 2.47
4 -3 -5 37.15 2.6
4 -3 -5 33.35 3.37
4 -3 -4 2.25 0.67
4 -3 -4 1.61 1.12
-4 3 4 2.48 0.55
4 -3 -4 1.68 0.53
-4 3 3 138.77 4.05
4 -3 -3 138.37 6.6
4 -3 -3 140.7 6.03
4 -3 -3 136.84 5.12
4 -3 -3 133.29 5.17
4 -3 -2 5.37 0.97
-4 3 2 4.58 0.58
-4 3 2 3.47 0.81
4 -3 -2 4.34 1.08
4 -3 -2 4.52 0.93
4 -3 -1 4.96 0.98
-4 3 1 4.65 0.43
-4 3 1 4.68 0.9
4 -3 -1 4.15 1.01
4 -3 -1 4.97 1
4 -3 0 227.56 7.64
4 -3 0 214.4 6.81
-4 3 0 212.04 6.7
4 -3 0 218.3 7.02
-4 3 -1 265.92 7.09
4 -3 1 270.34 8
-4 3 -1 266.34 7.82
4 -3 1 260.2 7.94
-4 3 -2 138.31 4.66
-4 3 -2 137.08 5.52
4 -3 2 137.21 5.6
-4 3 -3 86.65 3.62
-4 3 -3 93.73 4.67
4 -3 3 93.42 4.67
4 -3 4 12.82 1.75
4 -3 4 15.14 1.13
-4 3 -4 12.23 1.77
-4 3 -4 11.84 0.92
-4 3 -4 14.8 1.42
4 -3 5 75.26 3.01
-4 3 -5 72.3 2.81
-4 3 -5 73.64 3.27
-4 3 -5 66.34 2.3
-4 3 -5 74.15 4.51
4 -3 5 73.89 4.34
-4 3 -6 7.94 1.52
4 -3 6 7.86 1.08
-4 3 -6 7.35 1
-4 3 -6 8.61 1.15
-4 3 -6 6.98 0.49
4 -3 7 46.68 2.89
-4 3 -7 47.1 2.79
-4 3 -7 52.59 2.96
-4 3 -7 49.08 3.99
-4 3 -8 238.23 7.33
-4 3 -8 226.69 7
-4 3 -8 245.72 9.75
-4 3 -9 10.85 2.2
-4 3 -9 9.93 1.52
-4 3 -9 12.09 1.66
-4 3 -10 0.76 0.72
-4 3 -10 -1.05 0.57
-4 3 -10 1.11 1.55
-4 3 -11 23.2 2.64
-4 3 -11 18.51 3.02
-4 3 -12 35.98 3.49
-4 3 -12 41.19 4.7
-4 3 -13 3.36 1.28
-4 3 -13 1.81 1.25
-4 3 -14 4.25 1.9
-4 3 -14 0.45 0.77
4 -2 -15 1.3 1.24
4 -2 -15 -1.44 1.27
4 -2 -14 3.48 1.73
4 -2 -14 4.43 1.61
4 -2 -13 33.57 4.19
4 -2 -13 41.54 4.24
4 -2 -12 3.54 1.38
4 -2 -12 1.91 1.06
4 -2 -11 9.81 2.13
4 -2 -11 11.17 1.98
4 -2 -10 80.11 5.8
4 -2 -10 78.74 4.99
4 -2 -9 1.39 0.87
4 -2 -9 1.82 0.84
4 -2 -8 16.73 2.49
4 -2 -8 12.73 1.74
4 -2 -7 25.39 2.91
4 -2 -7 24.81 2.24
4 -2 -6 76.63 4.96
4 -2 -6 76.44 3.75
-4 2 5 45.35 2.64
4 -2 -5 39.84 3.43
4 -2 -5 38.28 2.4
4 -2 -5 42.02 2.52
-4 2 4 19.28 1.56
4 -2 -4 18.53 1.49
4 -2 -4 14.06 1.67
4 -2 -4 17.93 1.64
4 -2 -4 15.88 1.88
-4 2 3 72.5 2.78
4 -2 -3 72.87 2.67
4 -2 -3 67.75 3.64
4 -2 -3 71.3 3.86
4 -2 -3 81.54 3.61
-4 2 2 405.41 8.35
4 -2 -2 408.49 7.19
4 -2 -2 400.64 10.02
4 -2 -2 398.13 10.2
4 -2 -2 409.95 9.52
-4 2 2 397.11 9.98
4 -2 -1 8.59 1.35
-4 2 1 8.09 0.9
4 -2 -1 7.98 0.51
-4 2 1 7.2 1.2
-4 2 1 10.19 1.19
4 -2 -1 7.3 1.1
-4 2 0 83.07 2.77
-4 2 0 84.4 4.21
-4 2 0 80.95 3.47
4 -2 0 78.71 4.12
-4 2 0 82.07 4.11
4 -2 0 78.49 3.76
-4 2 -1 81.02 2.51
-4 2 -1 74.97 4.01
-4 2 -1 87 3.5
-4 2 -1 84.87 4.23
4 -2 1 76.27 3.74
-4 2 -2 32.1 1.28
4 -2 2 23.79 0.96
-4 2 -2 34.47 2.11
-4 2 -2 27.84 2.5
4 -2 2 29.04 2.31
-4 2 -3 35.61 1.16
4 -2 3 33.84 1.51
-4 2 -3 37.56 2.24
-4 2 -3 36.16 2.91
4 -2 3 34.04 2.58
4 -2 4 0.7 0.58
-4 2 -4 0.87 0.6
4 -2 4 0.6 0.3
-4 2 -4 1.24 0.52
4 -2 5 174.22 5.06
-4 2 -5 176.79 5.56
-4 2 -5 181.29 7.32
4 -2 5 170.24 6.33
4 -2 6 37.06 2.39
-4 2 -6 38.92 2.56
-4 2 -6 34.98 3.24
4 -2 6 37.31 2.91
-4 2 -7 -0.08 0.62
-4 2 -7 0.74 0.49
-4 2 -8 44.86 3.08
-4 2 -8 41.84 3.88
-4 2 -9 190.97 7.1
-4 2 -9 201.81 9.12
-4 2 -10 3.03 1.33
-4 2 -11 5.1 1.72
-4 2 -12 -0.69 0.8
-4 2 -13 6.6 1.95
-4 2 -14 49.44 5.5
-4 2 -15 24.47 3.35
4 -1 -15 25.99 3.65
4 -1 -14 8.39 2.2
4 -1 -14 6.81 1.91
4 -1 -13 0.53 0.94
4 -1 -13 -0.87 0.85
4 -1 -12 30.92 3.59
4 -1 -12 25.39 3.09
4 -1 -11 17.33 2.62
4 -1 -11 21.42 2.68
4 -1 -10 73.24 5.17
4 -1 -10 73.26 4.69
4 -1 -9 8.67 1.57
4 -1 -9 9.81 1.82
4 -1 -8 28 2.96
4 -1 -8 24.63 2.38
4 -1 -7 172.14 6.25
4 -1 -7 168.71 7.28
4 -1 -6 8.91 1.26
4 -1 -6 9.19 1.19
-4 1 5 2.97 0.71
4 -1 -5 3.82 0.78
4 -1 -5 3.64 0.73
4 -1 -4 14.11 1.35
4 -1 -4 12.44 1.42
4 -1 -4 11.64 1.28
4 -1 -3 165.45 4.69
4 -1 -3 152.82 5.08
-4 1 2 66.1 2.58
4 -1 -2 67.87 2.59
4 -1 -2 60.4 2.9
-4 1 2 64.95 3.03
-4 1 2 63.26 3.71
-4 1 1 0.7 0.3
4 -1 -1 0.64 0.29
4 -1 -1 0.28 0.3
-4 1 1 0.06 0.44
-4 1 1 0.89 0.45
-4 1 1 0.46 0.25
4 -1 -1 0.98 0.47
4 -1 0 44.34 2.13
-4 1 0 45.85 2.79
-4 1 0 47.3 2.47
4 -1 0 45.27 2.58
-4 1 0 46.36 3.2
-4 1 0 43.4 1.9
-4 1 -1 602.65 11.65
-4 1 -1 613.53 14.02
4 -1 1 586.23 12.15
-4 1 -1 619.24 10.33
-4 1 -2 39.82 2.28
-4 1 -2 38 1.65
-4 1 -2 38.78 3.03
4 -1 2 36.27 2.44
4 -1 3 104.13 3.59
-4 1 -3 110.83 4.1
-4 1 -3 100.74 2.62
-4 1 -3 107.76 5.34
4 -1 3 103.78 4.34
-4 1 -4 11.43 1.76
4 -1 4 18.16 1.54
-4 1 -4 15.95 1.6
4 -1 4 15.91 1.66
4 -1 5 33.93 2.3
-4 1 -5 32.69 2.36
-4 1 -5 30.26 2.99
4 -1 5 30.19 2.39
-4 1 -6 174.59 6.02
-4 1 -6 159.69 7.27
4 -1 6 162.82 5.98
-4 1 -7 24.71 2.32
-4 1 -7 30.96 3.18
4 -1 7 24.4 2.23
-4 1 -8 162.73 6.6
-4 1 -8 162.47 7.77
-4 1 -9 63.5 4.96
-4 1 -10 1.41 1.09
-4 1 -11 8.04 1.95
-4 1 -12 17.35 2.97
-4 1 -13 1.9 1.17
-4 1 -14 1.9 1.06
-4 1 -15 1.12 1.06
4 0 -15 6.71 1.99
4 0 -14 -1.21 1.05
4 0 -13 49.11 4.17
4 0 -13 55.43 4.76
4 0 -12 18.97 2.5
4 0 -12 22.49 2.95
4 0 -11 0.35 0.74
4 0 -10 54.72 4.11
4 0 -10 60.91 4.19
4 0 -9 8.05 1.38
4 0 -9 9.48 1.68
4 0 -8 113.74 5.48
4 0 -8 102.03 4.92
4 0 -8 104.29 3.55
4 0 -7 5.1 1.05
4 0 -7 6.97 1.32
4 0 -7 5.5 0.74
4 0 -6 62.11 3.6
4 0 -6 56.12 3.22
4 0 -5 135.05 5.21
4 0 -5 129.25 4.72
-4 0 5 124.92 4.39
4 0 -4 54.26 3.1
-4 0 4 52.89 2.68
4 0 -4 59.98 2.9
4 0 -3 2.42 0.57
4 0 -3 1.81 0.6
-4 0 3 1.24 0.46
4 0 -2 209.29 6.16
4 0 -2 223.08 5.52
-4 0 2 215.55 5.9
-4 0 2 229.07 5.92
-4 0 2 226.32 6.19
-4 0 2 214.89 7.61
4 0 -1 10.81 1.02
-4 0 1 13.16 1.78
-4 0 1 10.7 1.16
-4 0 1 10.69 1.23
4 0 0 18.22 1.2
-4 0 0 18.24 1.51
-4 0 0 20.28 1.61
-4 0 0 19.88 2.24
-4 0 -1 1.4 0.85
4 0 1 0.69 0.3
-4 0 -1 0.7 0.4
-4 0 -1 0.04 0.29
4 0 2 1.11 0.28
-4 0 -2 2.41 0.99
-4 0 -2 1.29 0.47
-4 0 -2 0.69 0.38
4 0 2 2.29 0.68
-4 0 -3 86.18 3.8
-4 0 -3 85.11 4.88
4 0 3 75.72 3.51
4 0 3 85.84 2.28
-4 0 -4 35.89 2.53
-4 0 -4 41.11 3.47
4 0 4 41.85 2.65
4 0 4 35.86 1.26
-4 0 -5 77.65 4.09
-4 0 -5 85.36 5.16
4 0 5 87.76 3.92
4 0 5 75.59 1.76
-4 0 -6 75.51 4.17
-4 0 -6 76.31 5.06
4 0 6 71.49 3.62
4 0 7 9.63 1.32
-4 0 -7 10.48 1.92
4 0 8 12.03 1.49
-4 0 -8 13.38 2.27
-4 0 -9 28.77 3.37
-4 0 -10 17.02 2.67
-4 0 -11 6.88 1.81
-4 0 -12 2.58 1.23
-4 0 -13 -0.92 0.91
-4 0 -14 21.31 3.44
-4 0 -14 17.47 3.1
4 1 -15 30.36 3.98
4 1 -14 1.58 0.98
4 1 -13 22.92 3.13
4 1 -13 25 2.99
4 1 -12 4.94 1.33
4 1 -12 3.38 1.1
4 1 -11 -0.24 0.43
4 1 -11 -0.36 0.59
4 1 -10 131.6 6.68
4 1 -10 129.74 5.89
4 1 -9 8.34 1.44
4 1 -9 6.19 1.4
4 1 -8 8.71 1.36
4 1 -8 6.07 1.4
4 1 -7 124.4 5.86
4 1 -7 129.4 4.95
-4 -1 7 120.98 4.2
4 1 -6 14.89 1.54
-4 -1 6 16.85 1.95
4 1 -6 14.95 1.96
-4 -1 6 16.03 1.4
4 1 -5 154.48 5
4 1 -5 160.22 6.31
-4 -1 5 157.1 6.31
-4 -1 5 158.94 4.66
4 1 -4 0.67 0.39
4 1 -4 1.71 0.55
-4 -1 4 1.52 0.41
4 1 -3 13.75 1.3
-4 -1 3 12.94 1.1
-4 -1 3 12.66 1.19
-4 -1 2 217.02 5.66
-4 -1 2 215.29 8.02
4 1 -2 212.54 5.68
-4 -1 1 5.58 1.28
-4 -1 1 6.54 0.92
4 1 -1 6.04 0.87
-4 -1 0 6.77 1.42
-4 -1 0 4.45 1.01
-4 -1 0 4.04 0.77
4 1 0 4.73 0.82
-4 -1 -1 221.32 6.39
-4 -1 -1 218.3 6.83
-4 -1 -1 225.01 8.25
4 1 1 222.58 5.73
-4 -1 -2 35.29 2.43
-4 -1 -2 34.44 3.1
4 1 2 31.58 1.88
-4 -1 -3 12.03 1.93
-4 -1 -3 14.12 1.64
4 1 3 15.95 1.33
4 1 3 16.2 1.49
4 1 4 3.42 0.63
-4 -1 -4 4.74 1.05
-4 -1 -4 5.45 1.31
4 1 4 3.3 0.71
4 1 5 0.87 0.43
-4 -1 -5 1.38 0.84
4 1 5 0.87 0.48
4 1 6 245.7 5.87
-4 -1 -6 260.99 9.88
4 1 6 244.92 7
4 1 7 29.46 1.74
-4 -1 -7 34.14 3.58
4 1 7 28.54 2.16
-4 -1 -8 64.68 5.11
-4 -1 -9 60.78 5.03
-4 -1 -10 2.54 1.31
-4 -1 -11 0.09 0.96
-4 -1 -12 0.69 0.9
-4 -1 -12 2.97 1.23
-4 -1 -13 0.42 1.21
-4 -1 -14 12.37 2.8
4 2 -15 27.52 3.79
4 2 -14 -0.3 0.78
4 2 -14 0.3 0.93
4 2 -13 19.83 3.05
4 2 -13 17.6 2.4
4 2 -12 31.51 3.64
4 2 -12 34.47 3.18
4 2 -11 4.24 1.17
4 2 -11 3.06 1.16
4 2 -10 1.22 0.77
-4 -2 10 1.82 0.52
4 2 -10 2.43 0.88
4 2 -9 21.72 2.14
4 2 -9 21.77 2.72
-4 -2 9 19.77 1.43
4 2 -8 72.59 3.76
4 2 -8 72.69 4.86
-4 -2 8 65.02 2.64
4 2 -7 75.98 3.79
4 2 -7 79.72 4.97
-4 -2 7 77.2 4.07
-4 -2 7 82.63 2.93
4 2 -6 51.41 3
4 2 -6 51.94 3.91
-4 -2 6 54.55 3.53
-4 -2 6 47.02 2.17
4 2 -5 139.42 6.44
-4 -2 5 133.62 3.98
4 2 -5 132.87 4.94
-4 -2 4 29.63 1.3
-4 -2 4 31.9 1.86
4 2 -4 34.14 2.37
-4 -2 3 6.47 0.87
4 2 -3 5.81 1.01
-4 -2 2 0.35 0.42
4 2 -2 0.38 0.54
-4 -2 1 18.38 1.69
-4 -2 1 20.2 2.46
4 2 -1 16.34 1.66
4 2 0 0.36 0.38
-4 -2 0 0.4 0.65
-4 -2 0 -0.27 0.42
-4 -2 -1 16.49 2.23
-4 -2 -1 16.55 1.77
4 2 1 18.21 1.79
4 2 2 0.89 0.41
-4 -2 -2 1.56 0.8
-4 -2 -2 -0.36 0.51
4 2 3 24.29 2.05
-4 -2 -3 23.77 2.78
-4 -2 -4 16.12 2.32
4 2 4 19.84 1.82
4 2 4 19.9 1.68
4 2 5 63.05 3.36
-4 -2 -5 69.88 4.95
4 2 5 65.99 3.19
-4 -2 -6 21.3 2.82
4 2 6 22.57 1.97
4 2 6 23.86 1.92
-4 -2 -7 2.92 1.15
-4 -2 -8 0.98 1.13
-4 -2 -9 -0.58 0.69
-4 -2 -10 6.28 1.78
-4 -2 -11 7.61 2.07
-4 -2 -11 5.17 1.84
-4 -2 -12 0.14 0.97
4 3 -14 4.36 1.36
4 3 -14 7.52 2.08
4 3 -13 34.35 3.26
4 3 -13 28.17 3.72
4 3 -12 4.11 1.5
4 3 -12 7.23 1.46
4 3 -11 1.16 1.04
4 3 -11 1.44 0.64
4 3 -10 43.88 3.16
4 3 -10 41.88 4.16
4 3 -9 15.51 1.84
4 3 -9 14.06 2.35
4 3 -8 0.01 0.44
4 3 -8 0.72 0.88
4 3 -7 20.29 2.79
-4 -3 7 21.66 1.34
4 3 -7 20.66 2.08
4 3 -6 64.7 4.84
-4 -3 6 66.19 2.64
4 3 -6 63.48 3.69
4 3 -5 143.69 7.27
-4 -3 5 144.46 4.41
4 3 -5 148.44 5.8
-4 -3 4 14.16 1.37
4 3 -4 12.37 1.65
4 3 -3 0.24 0.62
-4 -3 3 0.6 0.38
-4 -3 2 77.29 3.74
4 3 -2 72.02 4.07
4 3 -1 30.57 2.69
4 3 0 3.79 1.08
-4 -3 0 1.55 0.75
4 3 1 14.5 1.86
-4 -3 -1 12.34 2.04
4 3 2 32.65 2.74
-4 -3 -2 32.81 3.26
4 3 3 1.52 0.7
-4 -3 -3 1.3 0.91
-4 -3 -4 0.85 0.7
4 3 4 0.82 0.57
-4 -3 -5 2.89 1.07
4 3 5 1.14 0.66
-4 -3 -6 87.73 5.86
-4 -3 -7 35.55 3.74
-4 -3 -8 13.35 2.5
-4 -3 -8 16.7 2.86
-4 -3 -9 11.8 2.32
-4 -3 -9 16.85 2.91
4 4 -13 -0.14 0.84
4 4 -12 10.22 2.32
4 4 -12 8.91 1.62
4 4 -11 4.52 1.54
4 4 -11 1.84 0.65
4 4 -10 1.85 0.77
4 4 -10 3.07 1.34
4 4 -9 2.16 0.83
4 4 -9 2.44 1.22
4 4 -8 12.51 1.8
4 4 -8 11.02 2.3
4 4 -7 45.58 4.48
4 4 -7 48.73 3.54
4 4 -6 59.64 5.11
4 4 -6 52.48 3.76
4 4 -5 57.84 3.99
4 4 -4 13.56 1.97
4 4 -3 8.14 1.55
4 4 -2 20.04 2.38
4 4 -1 1.1 0.77
4 4 0 2.42 0.92
4 4 1 11.1 1.78
4 4 2 4.91 1.26
-4 -4 -2 4.3 1.31
4 4 3 0.73 0.79
-4 -4 -3 0.58 0.58
-4 -4 -4 0.5 0.83
4 4 4 2.2 0.87
-4 -4 -5 33.85 3.92
4 4 5 30.91 3.07
-4 -4 -5 26.78 3.22
-4 -4 -6 11.84 2.46
-4 -4 -6 7.15 1.79
-4 -4 -7 2.27 1.31
4 5 -11 2.49 1.49
4 5 -10 2.16 0.96
4 5 -10 3.9 1.64
4 5 -9 10.46 2.38
4 5 -9 9.81 1.77
4 5 -8 1.7 1.33
4 5 -8 1.29 0.86
4 5 -7 1.02 1.01
4 5 -7 0.99 0.8
4 5 -6 24.32 3.58
4 5 -6 30.17 3.16
4 5 -5 27.99 3.03
4 5 -4 33.72 3.39
4 5 -3 0.74 0.84
4 5 -2 6.56 1.57
4 5 -1 21.09 2.74
-4 -5 1 27.05 3.02
4 5 0 2.37 1.18
-4 -5 0 2.55 1.26
4 5 1 0.8 0.96
-4 -5 -1 0.51 0.85
4 5 2 3.96 1.35
-4 -5 -2 8.05 2
4 5 3 -0.11 0.62
-4 -5 -3 1.84 1.13
-4 -5 -4 1.23 1.04
4 5 4 -0.83 0.82
-4 -5 -5 2.12 1.34
4 6 -7 10.94 2.74
4 6 -7 8.64 1.82
4 6 -6 30.58 4.36
4 6 -6 28.1 3.33
4 6 -5 23.52 3.05
4 6 -4 8.63 1.97
4 6 -3 5.43 1.62
4 6 -2 6.35 1.66
4 6 -1 7.97 2.13
4 6 0 -0.39 0.73
-4 -6 0 2.08 1.09
4 6 1 1.66 1.13
-4 -6 -1 -0.29 0.64
4 6 2 5.55 1.73
-4 -6 -2 2.75 1.34
-4 -6 -3 0.31 0.96
5 -9 -2 0.38 1.29
5 -9 -1 -0.33 1.06
5 -9 1 13.5 3.08
5 -9 2 8.22 2.45
-5 9 -3 7.21 2.18
5 -9 3 10.05 2.54
-5 9 -4 -0.23 0.97
5 -9 4 1.28 1.23
-5 9 -5 1.65 0.85
-5 9 -6 4.79 1.62
-5 9 -7 6.84 2.09
5 -8 -5 15.12 3.26
5 -8 -4 3 1.64
5 -8 -4 1.98 1.39
5 -8 -3 2.54 1.25
5 -8 -3 7.95 2.35
5 -8 -2 11.69 2.71
5 -8 -2 13.96 3.03
5 -8 -1 1.62 1.08
5 -8 -1 0.41 0.95
5 -8 0 1.19 0.92
5 -8 1 4.72 1.83
5 -8 2 1.91 1.11
5 -8 3 12.11 2.57
-5 8 -3 7.95 1.44
-5 8 -4 2.04 1.23
-5 8 -4 0.35 0.56
-5 8 -5 20.5 3.02
-5 8 -5 22.32 2.29
-5 8 -6 20.34 3.06
-5 8 -6 15.88 1.93
-5 8 -7 3.08 1.27
-5 8 -7 1.13 0.96
-5 8 -8 8.09 1.88
-5 8 -8 8.82 1.94
-5 8 -9 22.73 3.25
-5 8 -10 4.23 1.56
-5 8 -11 1.34 1.19
-5 8 -12 0.41 1.16
5 -7 -7 11.49 2.9
5 -7 -6 1.29 1.24
5 -7 -5 1.61 1.36
5 -7 -4 -0.1 1.01
5 -7 -4 2.18 1.41
5 -7 -3 3.31 1.56
5 -7 -3 5.71 1.9
5 -7 -2 23.32 3.51
5 -7 -2 27.76 3.84
5 -7 -1 0.65 1.03
5 -7 -1 1.77 1.25
5 -7 0 11.05 2.41
5 -7 1 34.43 4.08
5 -7 2 22.88 3.3
-5 7 -3 5.97 1.26
5 -7 3 6.31 1.81
-5 7 -3 5.77 1.19
-5 7 -4 5.64 1.32
-5 7 -4 6.3 1.24
-5 7 -5 0.56 0.71
-5 7 -5 0.47 0.45
-5 7 -6 49.15 3.25
-5 7 -6 50.89 4.32
-5 7 -6 45.13 3.98
-5 7 -7 15.52 2.49
-5 7 -7 17.41 1.88
-5 7 -7 15.96 2.29
-5 7 -8 38.2 2.76
-5 7 -8 35.2 3.23
-5 7 -8 35.68 3.78
-5 7 -9 28.04 3.48
-5 7 -9 40.88 2.92
-5 7 -10 1.57 1.14
-5 7 -11 0.49 0.99
-5 7 -12 3.3 1.59
5 -6 -9 2.26 1.66
5 -6 -8 26.33 4.08
5 -6 -7 9.89 2.52
5 -6 -6 7.27 1.59
5 -6 -6 5.06 1.8
5 -6 -5 61.15 5.73
5 -6 -5 57.3 4.23
5 -6 -4 6.79 1.57
5 -6 -4 9.18 2.34
5 -6 -4 6.96 1.97
5 -6 -3 3.09 1.48
5 -6 -3 1.07 0.9
5 -6 -2 11.11 2.43
5 -6 -2 7.08 1.6
5 -6 -2 12.47 2.34
5 -6 -1 6.39 1.55
-5 6 1 8.13 1.09
5 -6 -1 6.92 1.72
-5 6 0 0.68 0.59
5 -6 0 2.29 1.18
-5 6 -1 1.27 0.77
5 -6 1 1.26 0.91
-5 6 -2 1.54 0.78
-5 6 -2 0.25 0.31
5 -6 2 0.21 0.72
-5 6 -3 43.07 2.28
-5 6 -3 39.61 2.89
-5 6 -3 46.93 3.5
-5 6 -4 10.11 1.74
-5 6 -4 8.29 1.03
-5 6 -4 8.68 1.32
-5 6 -5 47.93 2.59
-5 6 -5 50.23 3.9
-5 6 -5 48.71 3.13
-5 6 -5 47.28 3.88
-5 6 -6 52.46 2.88
-5 6 -6 52.73 3.22
-5 6 -6 53.23 3.88
-5 6 -6 52.13 4.29
-5 6 -7 1.72 1.04
-5 6 -7 1.19 0.47
-5 6 -7 1.37 0.84
-5 6 -7 2.11 0.7
-5 6 -8 -0.47 0.69
-5 6 -8 -0.04 0.33
-5 6 -9 20.52 3.02
-5 6 -9 24.34 2.26
-5 6 -10 3.4 1.35
-5 6 -10 4.51 1.05
-5 6 -11 5.71 1.83
-5 6 -11 4.67 1.1
-5 6 -12 0.63 1.06
-5 6 -13 1.9 1.37
5 -5 -11 2.98 1.7
5 -5 -10 21.74 3.68
5 -5 -9 7.42 2.21
5 -5 -8 0.39 0.48
5 -5 -8 -0.28 0.8
5 -5 -7 32.91 4.3
5 -5 -7 24.42 2.59
5 -5 -6 18.99 2.28
5 -5 -6 24.82 3.51
5 -5 -5 35.65 4.09
5 -5 -5 40.86 3.35
5 -5 -4 1.63 0.84
5 -5 -4 0.95 0.88
5 -5 -3 0.62 0.61
5 -5 -3 0.35 0.74
5 -5 -3 0.85 0.94
5 -5 -3 1.21 0.53
5 -5 -2 93.82 5.94
5 -5 -2 87.61 4.09
5 -5 -2 88.51 5.12
-5 5 2 90.5 4.02
5 -5 -1 9.13 1.71
-5 5 1 6.58 1.14
5 -5 -1 8.35 1.84
-5 5 1 6.04 0.73
5 -5 -1 6.73 1.22
5 -5 0 4.3 1.18
-5 5 0 4.65 1.07
5 -5 0 4.01 1.33
-5 5 0 3.63 0.49
-5 5 -1 42.46 1.52
-5 5 -1 38.59 1.43
5 -5 1 57.34 4.5
-5 5 -1 59.27 3.65
5 -5 1 47.36 3.83
-5 5 -2 51.8 3.24
-5 5 -2 54.19 3.64
5 -5 2 54.36 4.16
5 -5 3 -0.18 0.51
-5 5 -3 1.01 0.79
-5 5 -3 0.02 0.12
-5 5 -3 -0.09 0.38
-5 5 -4 6.49 1.45
-5 5 -4 7.15 0.72
-5 5 -4 7.61 1.19
-5 5 -5 2.14 0.84
-5 5 -5 2.88 0.55
-5 5 -5 2.39 0.77
-5 5 -6 153.26 4.69
-5 5 -6 151.67 5.51
-5 5 -6 151.12 5.62
-5 5 -6 153.53 7.45
-5 5 -7 75.6 3.45
-5 5 -7 73.7 3.74
-5 5 -7 69.48 3.27
-5 5 -7 69.06 5.11
-5 5 -8 41.67 2.78
-5 5 -8 36.04 2.68
-5 5 -8 36.51 3.84
-5 5 -9 63.25 3.75
-5 5 -9 67.28 3.81
-5 5 -9 67.43 5.45
-5 5 -10 1.48 1.08
-5 5 -10 2.28 0.82
-5 5 -10 2.12 0.73
-5 5 -11 1.01 1.11
-5 5 -11 2.49 0.88
-5 5 -11 1.89 0.81
-5 5 -12 5.55 1.88
-5 5 -12 3.87 1.16
-5 5 -13 0.78 1.31
5 -4 -12 14.21 3.09
5 -4 -11 4.42 1.74
5 -4 -10 -1.3 1.1
5 -4 -9 16.08 2.92
5 -4 -9 11.76 1.73
5 -4 -8 39.03 4.4
5 -4 -8 32.97 2.89
5 -4 -7 61.85 5.39
5 -4 -7 54.41 3.73
5 -4 -6 26.97 3.48
5 -4 -6 26.46 2.55
-5 4 5 114.35 4.6
5 -4 -5 124.41 7.25
5 -4 -5 114.29 6.42
5 -4 -5 125.41 5.71
-5 4 4 60.8 2.96
5 -4 -4 65.63 5.09
5 -4 -4 67.61 4.78
5 -4 -4 58.31 3.58
5 -4 -4 63.38 3.98
5 -4 -3 -0.19 0.33
-5 4 3 0.55 0.36
5 -4 -3 0.05 0.5
5 -4 -3 0.18 0.42
-5 4 2 1.58 0.38
5 -4 -2 0.57 0.58
-5 4 2 1.6 0.69
5 -4 -2 2.26 0.87
-5 4 1 6.25 1.21
5 -4 -1 6.19 1.42
5 -4 -1 5.17 1.21
5 -4 0 1.06 0.66
-5 4 0 0.64 0.65
5 -4 0 0.33 0.59
-5 4 -1 28.58 2.35
-5 4 -1 28.42 2.62
5 -4 1 27.91 2.83
5 -4 2 0.98 0.63
-5 4 -2 1.16 0.85
-5 4 -2 0.72 0.49
-5 4 -3 34.65 2.5
-5 4 -3 33.59 3.05
5 -4 3 36.05 3.31
-5 4 -4 34.51 2.45
-5 4 -4 34.96 3.29
5 -4 4 32 3.12
-5 4 -5 70.36 3.52
-5 4 -5 67.15 4.64
5 -4 5 69.53 4.71
-5 4 -6 75.42 3.06
-5 4 -6 75.57 3.71
-5 4 -6 76.74 2.79
-5 4 -6 79.85 5.31
5 -4 7 -0.57 0.48
-5 4 -7 0.04 0.36
-5 4 -8 10.19 2.19
-5 4 -8 8.79 1.29
-5 4 -8 11.51 1.56
-5 4 -9 2.3 1.12
-5 4 -9 0.26 0.49
-5 4 -9 3.24 0.93
-5 4 -10 0.63 1
-5 4 -10 0.22 0.45
-5 4 -10 0.45 0.57
-5 4 -11 4.55 1.59
-5 4 -11 1.94 0.79
-5 4 -11 2.64 0.95
-5 4 -12 13.17 2.82
-5 4 -12 13.42 2.11
-5 4 -12 11.53 1.89
-5 4 -13 -0.78 0.75
-5 4 -13 0.61 0.68
5 -3 -14 13.57 3.06
5 -3 -13 17.46 3.3
5 -3 -12 7.14 2.09
5 -3 -11 0.66 1.04
5 -3 -11 1.43 0.88
5 -3 -11 0.6 0.42
5 -3 -10 13.91 2.75
5 -3 -10 13.59 2.13
5 -3 -10 14.6 1.89
5 -3 -9 29.43 3.88
5 -3 -9 28.54 2.95
5 -3 -9 29 2.63
5 -3 -8 5.9 1.89
5 -3 -8 4.38 1.06
5 -3 -8 4.38 1.06
5 -3 -7 12.84 2.39
5 -3 -7 12.74 1.7
5 -3 -7 14.78 1.85
5 -3 -6 100.75 6.36
5 -3 -6 101.19 4.53
5 -3 -6 98.79 5.42
5 -3 -6 97.73 4.77
-5 3 5 81.41 3.72
5 -3 -5 78.09 4.72
5 -3 -5 89.56 4.58
-5 3 4 90.78 3.55
5 -3 -4 93.72 5.04
5 -3 -4 96.08 4.78
-5 3 3 22.97 1.49
5 -3 -3 26.53 2.59
5 -3 -3 22.43 2.26
5 -3 -2 73.55 4.41
5 -3 -2 76.88 4.28
-5 3 2 86.31 4.51
-5 3 1 127.62 5.13
5 -3 -1 127.65 5.57
-5 3 1 122.25 5.57
-5 3 0 1.06 0.59
-5 3 0 1.52 0.56
5 -3 0 0.82 0.47
-5 3 -1 27.09 1.67
-5 3 -1 27.45 2.2
-5 3 -1 29.84 2.74
5 -3 1 27.93 2.59
-5 3 -2 36.4 1.79
-5 3 -2 34.72 2.44
-5 3 -2 32.91 2.96
5 -3 2 30.44 2.77
5 -3 3 0.74 0.69
-5 3 -3 0.68 0.65
-5 3 -3 0.09 0.17
-5 3 -3 0.32 0.43
5 -3 4 15.46 2.06
5 -3 4 14.49 1
-5 3 -4 13.85 0.8
-5 3 -4 13.6 2.05
-5 3 -4 17.64 1.7
5 -3 5 35.69 1.93
-5 3 -5 34.92 2.44
-5 3 -5 28.75 1.13
-5 3 -5 37.66 3.46
5 -3 5 34.71 3.17
5 -3 6 155.27 4.96
-5 3 -6 164.12 5.75
-5 3 -6 160.82 7.67
5 -3 6 137.26 6.58
5 -3 7 190.04 6.15
-5 3 -7 194.43 6.63
-5 3 -7 191.86 8.68
5 -3 7 192.75 7.97
-5 3 -8 22.54 3.01
-5 3 -8 18.91 2.04
-5 3 -9 41.49 3.18
-5 3 -9 41.47 4.26
-5 3 -10 6.28 1.79
-5 3 -10 8.16 1.57
-5 3 -11 4.4 1.5
-5 3 -11 5.3 1.37
-5 3 -12 0.04 0.92
-5 3 -13 10.84 2.55
5 -2 -15 18.76 3.26
5 -2 -14 3.2 1.54
5 -2 -14 2.29 1.21
5 -2 -13 3.61 1.58
5 -2 -13 1.72 0.96
5 -2 -12 7.81 2.2
5 -2 -12 6.52 1.61
5 -2 -12 10.22 1.57
5 -2 -11 5.12 1.73
5 -2 -11 7.06 1.58
5 -2 -10 7.15 1.76
5 -2 -10 9.66 1.7
5 -2 -9 2.23 1.01
5 -2 -9 3.06 0.99
5 -2 -8 8.93 1.57
5 -2 -8 7.46 1.35
5 -2 -7 141.47 5.61
5 -2 -7 136.82 5.89
5 -2 -6 89.56 4.06
5 -2 -6 85.62 4.48
5 -2 -6 90.74 4.28
-5 2 5 141.76 5.13
5 -2 -5 141.37 4.84
5 -2 -5 138.18 5.7
5 -2 -5 150.4 5.64
5 -2 -4 151.35 4.59
5 -2 -4 146.86 5.81
5 -2 -4 152.35 5.7
5 -2 -3 2.2 0.48
-5 2 3 2.28 0.79
5 -2 -3 3.02 0.82
5 -2 -2 32.11 1.47
-5 2 2 28.39 2.31
5 -2 -2 31.13 2.52
-5 2 2 27.75 2.67
5 -2 -1 42.58 1.4
-5 2 1 46.06 2.82
5 -2 -1 51.86 3.31
-5 2 1 46.29 3.46
-5 2 0 6.72 0.76
-5 2 0 5.31 1.21
-5 2 0 5.11 0.92
5 -2 0 5.93 1.16
-5 2 -1 134.5 4.89
-5 2 -1 132.62 6.12
5 -2 1 132.88 5.6
-5 2 -1 131.89 3.54
5 -2 2 10.95 0.75
-5 2 -2 8.99 1.66
-5 2 -2 11.31 1.36
-5 2 -2 9.77 0.81
5 -2 2 8.51 1.4
-5 2 -3 2.73 1.06
-5 2 -3 2.68 0.42
5 -2 3 1.92 0.38
-5 2 -3 3.85 0.81
5 -2 3 2.52 0.83
5 -2 4 38.39 2.01
-5 2 -4 38.44 2.58
-5 2 -4 41.12 3.61
5 -2 4 36.64 2.99
5 -2 5 30.92 2.04
-5 2 -5 35.01 2.56
-5 2 -5 32.1 3.27
5 -2 5 29.19 2.72
5 -2 6 116.36 4.55
-5 2 -6 120.29 5.06
-5 2 -6 112.77 6.43
5 -2 6 112.31 5.58
5 -2 7 5.33 1.23
-5 2 -7 3.16 1.23
-5 2 -7 5.37 1.14
5 -2 8 1.82 0.87
-5 2 -8 -0.1 0.58
-5 2 -8 2.02 0.79
-5 2 -9 9.69 2.22
-5 2 -9 11.35 1.79
-5 2 -10 5.85 1.72
-5 2 -10 4.01 1.25
-5 2 -11 3.24 1.37
-5 2 -12 14.97 2.92
-5 2 -13 -0.82 1.37
5 -1 -15 15.99 2.9
5 -1 -14 19.47 3.13
5 -1 -13 7.74 1.89
5 -1 -12 69.92 5.25
5 -1 -11 2.52 1.02
5 -1 -10 4.29 1.2
5 -1 -9 24.28 2.64
5 -1 -9 22.57 2.06
5 -1 -8 0.08 0.4
5 -1 -8 0.46 0.49
5 -1 -7 15.22 1.57
5 -1 -7 12.64 1.64
5 -1 -6 135.64 5.33
5 -1 -5 18.29 1.76
5 -1 -5 19.61 2.05
5 -1 -4 360.59 8.59
5 -1 -4 348.63 9.42
-5 1 4 360.32 9.15
5 -1 -3 17.4 1.58
5 -1 -3 18.52 1.81
-5 1 3 21.63 1.9
-5 1 3 25.09 2.67
5 -1 -2 5.48 0.82
-5 1 2 4.72 1.2
-5 1 2 3.83 0.9
5 -1 -2 4.12 0.78
-5 1 2 4.16 0.88
5 -1 -1 192.47 5.18
5 -1 -1 191.36 5.7
-5 1 1 176.62 6.43
-5 1 1 189.87 5.9
5 -1 -1 184.64 6.21
-5 1 1 199.75 7.78
-5 1 0 1.48 0.99
-5 1 0 1.28 0.47
5 -1 0 0.74 0.4
-5 1 0 1.13 0.45
5 -1 0 3.86 0.99
-5 1 -1 0.44 0.41
-5 1 -1 -0.91 0.53
5 -1 1 1.12 0.43
-5 1 -1 0.86 0.44
5 -1 1 1.58 0.65
-5 1 -2 -0.29 0.61
-5 1 -2 1.15 0.59
5 -1 2 -0.11 0.38
-5 1 -2 0.11 0.2
-5 1 -3 7.03 1.54
-5 1 -3 6.58 0.74
5 -1 3 7.87 1.07
-5 1 -3 8.49 1.21
5 -1 3 8.02 1.31
5 -1 4 119.3 4.5
-5 1 -4 119.47 4.9
-5 1 -4 113.53 6.25
5 -1 4 109.27 5.06
-5 1 -5 47.05 3.13
-5 1 -5 47.63 4.09
5 -1 5 43.34 3.22
-5 1 -6 55.8 3.62
-5 1 -6 54.05 4.55
5 -1 6 53.43 3.64
-5 1 -7 182.47 7.22
-5 1 -7 192.32 8.95
5 -1 7 190.75 7.25
-5 1 -8 17.48 2.74
-5 1 -8 14.33 2.03
5 -1 8 17.75 2.15
-5 1 -9 12.94 2.38
-5 1 -10 1.63 1.23
-5 1 -11 0.26 0.82
-5 1 -12 11.72 2.56
-5 1 -13 2.32 1.41
5 0 -15 42.16 4.69
5 0 -14 11.6 2.39
5 0 -13 0.91 0.86
5 0 -12 4.88 1.43
5 0 -11 18.12 2.55
5 0 -10 17.42 2.4
5 0 -10 14.83 2.18
5 0 -9 15.82 2.12
5 0 -9 14.92 2.11
5 0 -8 0.31 0.38
5 0 -8 -0.73 0.58
5 0 -7 91.3 4.86
5 0 -7 87.95 4.65
-5 0 7 83.85 3.98
5 0 -6 89.7 4.67
5 0 -6 97.22 4.66
-5 0 6 91.41 4.05
5 0 -5 193.53 6.83
5 0 -5 203.57 6.6
-5 0 5 190.28 6.04
5 0 -4 55 3.32
5 0 -4 58.06 3.16
-5 0 4 57.55 3.01
5 0 -3 27.72 2.29
5 0 -3 33.07 2.23
-5 0 3 29.77 2.16
-5 0 3 28.48 2.08
5 0 -2 56.09 3.23
5 0 -2 58.72 2.85
-5 0 2 52.09 3.05
-5 0 2 58.05 3.01
-5 0 2 56.62 4.2
5 0 -1 187.73 5.19
-5 0 1 183.67 5.75
-5 0 1 182.05 7.78
-5 0 0 0.85 0.66
-5 0 0 0.49 0.33
5 0 0 1.51 0.45
-5 0 0 0.63 0.4
5 0 1 92.83 3.07
-5 0 -1 92.67 4.03
-5 0 -1 87.93 3.87
5 0 1 91.59 4.15
-5 0 -1 81.25 5.13
5 0 2 45.88 1.94
-5 0 -2 41.94 2.79
-5 0 -2 45.03 2.62
5 0 2 47.08 3
-5 0 -2 42.88 3.73
-5 0 -3 4.28 1.15
5 0 3 3.32 0.47
-5 0 -3 2.69 0.74
5 0 3 2.98 0.81
-5 0 -4 1.46 1.38
-5 0 -4 -0.11 0.43
5 0 4 0.07 0.16
5 0 4 0.2 0.75
5 0 5 4.61 0.41
-5 0 -5 4.38 1.36
-5 0 -5 4.31 1.09
5 0 5 5.46 1.15
-5 0 -6 79.98 4.81
-5 0 -6 79.46 5.68
5 0 6 84.38 4.46
5 0 7 9.03 1.46
-5 0 -7 10.67 2.19
-5 0 -7 11 1.85
5 0 8 -0.12 0.49
-5 0 -8 2.02 1.22
-5 0 -9 19.8 3.12
-5 0 -10 5.87 1.86
-5 0 -11 8.55 2.28
-5 0 -12 1.64 1.05
5 1 -14 1.53 1.03
5 1 -13 1.08 0.89
5 1 -13 0.78 0.64
5 1 -12 70.59 5.41
5 1 -12 57.64 4.64
5 1 -11 13.46 2.08
5 1 -11 11.12 2.11
5 1 -10 -0.1 0.59
5 1 -10 -0.15 0.48
-5 -1 10 0.27 0.39
5 1 -9 -0.03 0.44
5 1 -9 0.18 0.48
-5 -1 9 0.21 0.28
5 1 -8 4.09 1.01
5 1 -8 3.46 1.17
-5 -1 8 3.88 0.76
5 1 -7 80.08 4.89
5 1 -7 95.43 4.52
-5 -1 7 83.73 3.66
5 1 -6 47.69 3.67
5 1 -6 51.58 3.19
-5 -1 6 48.38 2.69
5 1 -5 0.77 0.76
-5 -1 5 0.21 0.3
5 1 -4 243.54 8.43
5 1 -4 259.14 6.98
-5 -1 4 242.34 6.59
5 1 -3 0.29 0.49
5 1 -3 1.96 0.62
-5 -1 3 0.74 0.48
-5 -1 3 1.84 0.57
5 1 -2 8.66 1.09
-5 -1 2 10.45 1.88
-5 -1 2 8.13 1.11
5 1 -1 33.06 2.1
-5 -1 1 35.95 2.44
-5 -1 1 32.46 3.35
-5 -1 0 36.52 2.55
-5 -1 0 43.69 3.84
5 1 0 37.56 2.17
-5 -1 -1 13.66 2.19
-5 -1 -1 15.02 1.68
5 1 1 15.79 1.37
-5 -1 -2 8.71 1.79
-5 -1 -2 5.87 1.14
5 1 2 5.43 1.01
5 1 2 7.61 0.93
-5 -1 -3 -0.24 0.6
-5 -1 -3 0.2 0.47
5 1 3 0.51 0.32
5 1 3 0.77 0.53
-5 -1 -4 60.95 4.03
-5 -1 -4 73.6 5.28
5 1 4 69.87 3.79
5 1 4 63.45 2.58
-5 -1 -5 5.88 1.63
-5 -1 -5 4.21 1.21
5 1 5 3.18 0.54
5 1 5 3.75 0.92
-5 -1 -6 4.45 1.54
5 1 6 6.37 1.22
-5 -1 -7 53.27 4.93
5 1 7 51.91 3.35
-5 -1 -8 17.06 2.81
-5 -1 -9 1.96 1.2
-5 -1 -10 -0.85 1
-5 -1 -11 0.21 1.03
-5 -1 -12 10.84 2.65
5 2 -14 8.89 2.23
5 2 -13 -0.49 0.77
5 2 -13 0.87 0.87
5 2 -12 29.02 3.12
5 2 -12 23.14 3.26
5 2 -11 1 0.7
5 2 -11 0.89 0.99
5 2 -10 4.08 1.08
5 2 -10 3.92 1.41
5 2 -9 27.39 3.25
5 2 -9 28.47 2.64
5 2 -8 7.8 1.72
5 2 -8 5.6 1.15
-5 -2 8 5.95 0.84
5 2 -7 11.83 2.05
5 2 -7 11.11 1.54
-5 -2 7 9.19 1.07
5 2 -6 28.16 2.29
5 2 -6 30.91 3.22
-5 -2 6 22.33 1.68
5 2 -5 152.36 5.5
5 2 -5 148.12 7.19
-5 -2 5 141.85 4.67
5 2 -4 9.04 1.27
5 2 -4 12.3 1.93
-5 -2 4 10.63 1.23
-5 -2 3 24.51 1.95
5 2 -3 25.58 2.11
-5 -2 2 27.93 2.18
5 2 -2 25.76 2.12
-5 -2 1 125.19 4.99
-5 -2 1 120.34 6.79
5 2 -1 120.48 4.75
-5 -2 0 22.42 2.17
-5 -2 0 27.19 3.28
5 2 0 26.07 2.12
-5 -2 -1 9.37 1.91
5 2 1 8.68 1.23
-5 -2 -1 8.5 1.42
-5 -2 -2 27.77 2.7
5 2 2 29.74 2.26
-5 -2 -2 35.51 3.68
-5 -2 -3 9.64 1.95
5 2 3 10.38 1.3
5 2 3 11.46 1.45
-5 -2 -4 17.35 2.63
5 2 4 15.43 1.58
5 2 4 13.69 1.65
-5 -2 -5 1.77 1.02
5 2 5 0.92 0.6
-5 -2 -6 15.11 2.56
-5 -2 -7 1.11 1.38
-5 -2 -8 2.75 1.34
-5 -2 -9 2.86 1.62
-5 -2 -10 4.8 1.87
-5 -2 -11 6.77 2.28
5 3 -13 0.33 0.76
5 3 -12 9.64 1.81
5 3 -12 14.4 2.74
5 3 -11 24.05 2.68
5 3 -11 22.14 3.29
5 3 -10 0.35 0.72
5 3 -10 0.37 0.45
5 3 -9 9.65 2.08
5 3 -9 11.95 1.73
5 3 -8 0.74 0.8
5 3 -8 -0.5 0.59
5 3 -7 46.89 3.24
5 3 -7 44.46 4.3
5 3 -6 0.3 0.38
5 3 -6 1.75 0.94
5 3 -5 5.11 1.16
5 3 -5 4.57 1.48
-5 -3 5 4.1 0.86
-5 -3 4 48.17 2.91
5 3 -4 42.82 3.11
-5 -3 3 13.11 1.61
5 3 -3 8.48 1.41
-5 -3 2 11.88 1.63
5 3 -2 15.79 1.92
5 3 -1 0.75 0.65
5 3 0 19.81 2.11
5 3 1 8.76 1.42
-5 -3 -1 9.19 2
5 3 2 6.59 1.25
-5 -3 -2 9.26 2.02
5 3 3 1 0.63
-5 -3 -3 3.25 1.02
-5 -3 -4 6.46 1.75
-5 -3 -5 4.56 1.62
-5 -3 -6 1.01 1.07
-5 -3 -7 7.7 1.95
-5 -3 -8 0.74 1.21
5 4 -11 5.08 1.68
5 4 -10 -1.4 1.09
5 4 -10 0.3 0.45
5 4 -9 9.63 1.65
5 4 -9 7.37 2.03
5 4 -8 15.82 2.08
5 4 -8 11.89 2.47
5 4 -7 0.45 0.57
5 4 -7 0.98 0.85
5 4 -6 1.31 1.14
5 4 -6 0.88 0.56
5 4 -5 42.7 4.47
5 4 -5 47.61 3.62
5 4 -4 10.09 1.72
5 4 -3 1.29 0.77
5 4 -2 3.18 1.08
5 4 -1 37.99 3.27
5 4 0 33.97 3.12
5 4 1 2.72 1
5 4 2 7.82 1.59
-5 -4 -3 7.9 1.91
-5 -4 -4 3.56 1.49
-5 -4 -5 6.7 1.96
5 5 -8 3.28 1.54
5 5 -7 6.48 2.14
5 5 -7 8.94 1.78
5 5 -6 1.88 1.2
5 5 -6 3.14 1.24
5 5 -5 0.69 0.73
5 5 -4 2.29 1
5 5 -3 1.35 0.85
5 5 -2 6.94 1.6
5 5 -1 4.01 1.39
5 5 0 2.14 1.14
5 5 1 1.02 1.03
-5 -5 -1 2.18 1.21
-5 -5 -2 3.69 1.43
-5 -5 -3 1.72 1.11
-6 9 -2 1.9 0.85
-6 9 -3 0.78 0.57
-6 9 -4 2.36 1.38
-6 9 -4 1.73 0.82
-6 9 -5 1.79 0.87
6 -8 -4 17.28 3.59
6 -8 -3 1.14 1.51
6 -8 -3 1.67 1.36
6 -8 -2 4.73 1.71
6 -8 -1 8.14 2.35
6 -8 0 0.53 0.78
6 -8 1 9.42 2.4
6 -8 2 2.16 1.34
-6 8 -2 4.73 1.24
-6 8 -3 0.66 0.53
-6 8 -4 2.24 0.82
-6 8 -5 2.38 1.25
-6 8 -5 0.77 0.57
-6 8 -6 17.48 2.14
-6 8 -7 2.21 0.84
-6 8 -8 1.53 0.98
-6 8 -9 4.95 1.61
-6 8 -10 6.58 1.92
-6 8 -11 0.66 1.12
6 -7 -7 3.21 1.78
6 -7 -6 11.11 2.74
6 -7 -6 10.95 2.77
6 -7 -5 2.06 1.43
6 -7 -5 0.48 1.06
6 -7 -4 37.28 4.81
6 -7 -4 39.73 4.8
6 -7 -3 1.46 1.34
6 -7 -2 1.35 0.93
6 -7 -1 17.61 3.04
6 -7 0 7.09 2.07
6 -7 1 4.19 1.62
-6 7 -2 2.35 0.93
-6 7 -3 0.99 0.85
-6 7 -3 -0.05 0.41
-6 7 -4 15.87 2.37
-6 7 -4 13.93 1.83
-6 7 -5 0.8 0.71
-6 7 -5 1.41 0.98
-6 7 -5 1.47 0.74
-6 7 -6 -0.54 0.64
-6 7 -6 0.84 0.6
-6 7 -7 58.83 3.78
-6 7 -7 61.69 5.21
-6 7 -8 13.26 2.44
-6 7 -8 14.5 1.85
-6 7 -9 0.4 1.15
-6 7 -9 -0.07 0.51
-6 7 -10 0.48 0.83
-6 7 -11 -0.25 0.91
6 -6 -8 -0.96 1.08
6 -6 -7 14.25 3.12
6 -6 -7 14.43 2.91
6 -6 -6 16.22 2.45
6 -6 -6 10.17 2.51
6 -6 -6 13.51 2.76
6 -6 -5 28.58 4.07
6 -6 -5 32.02 4.05
6 -6 -5 28.77 3.22
6 -6 -4 36.05 4.22
6 -6 -4 35.52 3.59
6 -6 -3 5.55 1.55
6 -6 -3 10.8 2.38
6 -6 -2 17.14 2.54
6 -6 -2 15.73 2.71
6 -6 -1 70.52 5.72
-6 6 1 65.97 3.93
6 -6 -1 61.73 4.88
6 -6 0 8.86 1.91
-6 6 0 5.91 1.2
6 -6 0 7.65 2.03
6 -6 1 14.6 2.43
-6 6 -1 17.14 2.2
-6 6 -1 15.17 1.97
-6 6 -2 27.22 2.58
-6 6 -2 26.57 2.84
6 -6 2 30.91 3.61
-6 6 -3 4.31 1.31
-6 6 -3 6.31 1.27
-6 6 -4 1.97 1.05
-6 6 -4 2.65 0.87
-6 6 -5 0.71 0.9
-6 6 -5 0.34 0.45
-6 6 -6 18.65 2.74
-6 6 -6 18.67 2.02
-6 6 -7 3.91 1.37
-6 6 -7 5.6 1.18
-6 6 -8 5.92 1.79
-6 6 -8 4.05 1.04
-6 6 -9 4.16 1.51
-6 6 -9 4.69 1.14
-6 6 -10 16.33 2.93
-6 6 -10 19.51 2.27
-6 6 -11 8.26 2.25
-6 6 -11 6.93 1.43
-6 6 -12 2.9 1.57
-6 6 -12 2.96 1.08
6 -5 -10 0.64 1.13
6 -5 -9 0.5 0.82
6 -5 -8 0.5 0.9
6 -5 -8 0.07 0.72
6 -5 -8 -0.63 0.58
6 -5 -7 24.4 3.72
6 -5 -7 20.35 3.08
6 -5 -7 19.79 2.58
6 -5 -6 0.6 0.77
6 -5 -6 1.13 1.03
6 -5 -6 0.74 0.54
6 -5 -5 19.03 2.86
6 -5 -5 18.71 2.52
6 -5 -4 80.12 5.78
6 -5 -4 82.94 5.3
6 -5 -3 9.39 1.8
6 -5 -3 11.16 2.1
6 -5 -2 34.64 3.71
6 -5 -2 38.29 3.6
-6 5 2 32.52 2.89
6 -5 -1 10.94 1.94
-6 5 1 14.09 1.93
6 -5 -1 14.84 2.51
6 -5 0 20.64 2.73
-6 5 0 22.16 2.38
-6 5 0 24.81 2.63
6 -5 1 11.57 2.08
-6 5 -1 7.91 1.53
-6 5 -1 10.03 1.6
6 -5 2 10.16 1.99
-6 5 -2 7.96 1.54
-6 5 -2 9.73 1.48
6 -5 3 0.23 0.5
-6 5 -3 1.47 0.88
-6 5 -3 0.13 0.4
-6 5 -4 38.96 2.9
-6 5 -4 38.1 3.67
6 -5 4 39.42 3.88
-6 5 -5 1.3 0.86
-6 5 -5 1.93 0.75
-6 5 -6 6.67 1.73
-6 5 -6 7.85 1.38
-6 5 -7 49.45 3.32
-6 5 -7 48.82 4.59
-6 5 -8 25.28 3.46
-6 5 -8 24.16 2.37
-6 5 -9 5.83 1.78
-6 5 -9 2.67 0.84
-6 5 -10 0.66 1.06
-6 5 -10 0.97 0.7
-6 5 -11 1.82 1.2
-6 5 -11 0.99 0.67
-6 5 -12 11.05 2.63
-6 5 -12 10.78 1.93
-6 5 -13 10.9 2.01
6 -4 -12 14.13 3.2
6 -4 -11 1.41 1.12
6 -4 -10 1.86 1.19
6 -4 -10 0.06 0.54
6 -4 -9 19.91 3.35
6 -4 -9 17.27 2.73
6 -4 -9 26.79 2.85
6 -4 -8 5.63 1.92
6 -4 -8 3.78 1.41
6 -4 -8 4.69 1.36
6 -4 -7 4.14 1.38
6 -4 -7 2.35 0.95
6 -4 -6 19.13 2.67
6 -4 -6 17.1 2.29
6 -4 -5 35.96 3.58
6 -4 -5 45.71 3.71
6 -4 -4 47.11 4.07
6 -4 -4 54.09 4.06
6 -4 -3 7.9 1.74
6 -4 -3 9.96 1.79
6 -4 -2 4.56 1.36
-6 4 2 5.09 1.31
6 -4 -2 6.05 1.37
-6 4 1 208.66 7.53
6 -4 -1 209.77 8.36
-6 4 1 218.29 8.29
-6 4 0 45.07 3.23
-6 4 0 43.22 3.55
6 -4 0 43.04 3.68
6 -4 1 7.17 1.5
-6 4 -1 6.59 1.45
-6 4 -1 7.33 1.3
-6 4 -2 64.79 3.8
-6 4 -2 64.44 4.56
6 -4 2 68.85 4.81
6 -4 3 10.17 1.88
-6 4 -3 10.96 1.97
-6 4 -3 10.87 1.54
6 -4 4 9.97 1.92
-6 4 -4 9.19 1.84
-6 4 -4 8.59 1.35
6 -4 5 23.07 2.88
-6 4 -5 20.23 2.89
-6 4 -5 20.45 2.06
6 -4 6 10.7 1.98
-6 4 -6 15.3 2.54
-6 4 -6 13.65 1.69
6 -4 7 1.35 0.94
-6 4 -7 1.82 1.18
-6 4 -7 -0.05 0.42
-6 4 -8 0.96 1.02
-6 4 -8 2.39 0.88
-6 4 -9 1.92 1.29
-6 4 -9 2.41 0.92
-6 4 -10 20.8 3.39
-6 4 -10 29.34 2.95
-6 4 -11 18.64 3.25
-6 4 -11 16.02 2.32
-6 4 -12 2.11 1.42
-6 4 -12 3.33 1.22
6 -3 -13 0.77 1.11
6 -3 -12 3.94 1.78
6 -3 -12 6.4 1.71
6 -3 -11 25.17 3.05
6 -3 -11 31.05 3.08
6 -3 -10 1.85 0.9
6 -3 -10 0.72 0.66
6 -3 -9 8.27 1.69
6 -3 -9 9.16 1.66
6 -3 -9 14.02 2.02
6 -3 -8 -0.52 0.67
6 -3 -8 0.06 0.45
6 -3 -8 0.08 0.52
6 -3 -7 32.38 2.69
6 -3 -7 27.28 2.95
6 -3 -7 31.55 3
6 -3 -6 24.58 2.12
6 -3 -6 24.07 2.72
6 -3 -6 20.54 2.39
6 -3 -5 41.08 2.51
6 -3 -5 46.48 3.7
6 -3 -5 49.08 3.72
6 -3 -4 38.01 3.33
6 -3 -4 34 3.05
-6 3 3 55.09 3.67
6 -3 -3 60.2 4.09
-6 3 3 57.36 4.13
-6 3 2 63.98 3.91
6 -3 -2 71.18 4.5
-6 3 2 68.4 4.56
-6 3 1 3.98 1.37
-6 3 1 2.94 0.87
6 -3 -1 3.43 1.14
-6 3 0 15.74 2.23
-6 3 0 14.99 1.82
6 -3 0 15.9 2.14
-6 3 -1 0.14 0.59
-6 3 -1 0.04 0.63
6 -3 1 -1.02 0.87
-6 3 -2 88.73 2.89
-6 3 -2 94.46 4.46
-6 3 -2 97.54 5.68
6 -3 2 96.65 5.4
-6 3 -3 0.68 0.63
-6 3 -3 2.72 0.79
6 -3 3 4.56 1.23
-6 3 -4 39.86 2.83
-6 3 -4 37.05 3.75
6 -3 4 48.69 3.92
6 -3 5 11.75 1.97
-6 3 -5 14.29 2.37
-6 3 -5 12.64 1.62
6 -3 6 5.97 1.44
-6 3 -6 6.93 1.78
-6 3 -6 9.63 1.47
6 -3 7 8.99 1.77
-6 3 -7 8.48 2.02
-6 3 -7 5.86 1.2
6 -3 8 13.13 2.2
-6 3 -8 11.98 2.32
-6 3 -8 12.84 1.87
-6 3 -9 5.23 1.77
-6 3 -9 3.97 1.11
-6 3 -10 13.78 2.81
-6 3 -10 15.64 2.27
-6 3 -11 0.56 0.92
-6 3 -11 0.57 0.75
-6 3 -12 10.6 2.63
6 -2 -14 6.19 2.18
6 -2 -13 4.45 1.54
6 -2 -12 21.39 2.95
6 -2 -12 24.4 2.69
6 -2 -11 26.19 3.05
6 -2 -11 24.54 2.63
6 -2 -10 1.34 0.78
6 -2 -10 0.68 0.58
6 -2 -9 23.92 2.61
6 -2 -9 25.71 2.6
6 -2 -8 35.53 2.94
6 -2 -8 27.74 2.62
6 -2 -8 26.77 2.63
6 -2 -7 0.8 0.55
6 -2 -7 1.35 0.68
6 -2 -7 0.17 0.58
6 -2 -6 1.71 0.66
6 -2 -6 2.05 0.77
6 -2 -5 43.85 2.62
6 -2 -5 45.6 3.32
6 -2 -4 36.37 2.16
-6 2 4 39.2 2.97
6 -2 -4 37.7 3.06
6 -2 -3 1.79 0.46
-6 2 3 1.1 0.68
-6 2 3 1.07 0.57
6 -2 -3 1.04 0.57
6 -2 -2 0.66 0.28
-6 2 2 0.24 0.67
-6 2 2 0.59 0.44
6 -2 -2 0.71 0.65
6 -2 -1 184.42 3.98
-6 2 1 198.63 6.63
6 -2 -1 199.49 7.46
-6 2 1 185.36 8.02
-6 2 0 116.51 4.92
6 -2 0 124.35 5.82
-6 2 0 134.71 6.66
6 -2 1 5.74 0.56
6 -2 1 5.51 0.54
-6 2 -1 9.01 1.73
-6 2 -1 6.62 0.9
-6 2 -1 6.53 1.14
6 -2 1 6.47 1.35
6 -2 2 18.88 1.16
-6 2 -2 21.1 2.73
-6 2 -2 20.78 1.99
-6 2 -2 21.1 1.51
6 -2 2 24.3 2.57
6 -2 3 23.79 1.49
-6 2 -3 27.52 2.37
-6 2 -3 27.36 3.17
6 -2 3 25.67 2.67
-6 2 -4 5.03 1.5
-6 2 -4 3.59 0.9
6 -2 4 2.94 0.98
-6 2 -5 100.64 4.88
-6 2 -5 92.82 6.26
6 -2 5 110.77 5.87
6 -2 6 8.14 1.6
-6 2 -6 6.11 1.65
-6 2 -6 7.92 1.39
6 -2 7 3.37 1.11
-6 2 -7 2.99 1.43
-6 2 -7 3.34 1
6 -2 8 -0.82 0.53
-6 2 -8 -0.58 0.87
-6 2 -8 0.75 0.61
-6 2 -9 2.34 1.38
-6 2 -9 0.25 0.7
-6 2 -10 1.81 1.32
-6 2 -10 3.51 1.22
-6 2 -11 15.38 3
-6 2 -12 2.93 1.69
6 -1 -14 32.51 3.97
6 -1 -13 0.73 0.68
6 -1 -12 1.84 1.16
6 -1 -11 19.79 2.67
6 -1 -10 7.26 1.66
6 -1 -9 51.04 3.86
6 -1 -8 6.27 1.39
6 -1 -7 24.05 2.37
-6 1 7 25.24 2.39
6 -1 -6 56.46 3.48
-6 1 6 52.54 3.45
6 -1 -5 7.18 1.18
-6 1 5 7.85 1.29
6 -1 -4 -0.39 0.66
6 -1 -4 0.02 0.28
-6 1 4 -0.14 0.37
6 -1 -3 22.96 1.91
6 -1 -3 19.97 2.06
-6 1 3 19.93 2.6
-6 1 3 25.09 2.18
6 -1 -2 17.89 1.6
6 -1 -2 17.04 1.83
-6 1 2 19.61 2.63
-6 1 2 14.9 1.71
6 -1 -2 17.55 1.98
6 -1 -1 70.1 3.24
6 -1 -1 84.07 3.88
-6 1 1 74.1 3.8
6 -1 -1 86.03 4.5
-6 1 1 67.08 4.9
-6 1 0 4.53 1.54
-6 1 0 2.98 0.77
6 -1 0 2.18 0.85
-6 1 -1 -0.33 0.44
-6 1 -1 -0.12 0.59
-6 1 -1 0.08 0.31
6 -1 1 0.87 0.61
-6 1 -2 98.47 4.55
-6 1 -2 91.19 5.87
6 -1 2 98.47 5.11
-6 1 -3 1.39 0.99
6 -1 3 1.35 0.61
-6 1 -3 0.44 0.51
6 -1 3 0.7 0.52
-6 1 -4 14.25 2.42
-6 1 -4 14.41 1.86
6 -1 4 10.76 1.75
-6 1 -5 3.17 1.36
-6 1 -5 3.36 0.96
6 -1 5 4.42 1.19
6 -1 6 -0.77 0.64
-6 1 -6 -0.74 0.94
-6 1 -6 -0.3 0.56
6 -1 7 3.98 1.11
-6 1 -7 1.59 1.15
-6 1 -7 3.99 1.17
6 -1 8 0.33 0.54
-6 1 -8 1.04 1.2
-6 1 -8 -0.18 0.57
6 -1 9 3.05 0.97
-6 1 -9 3.42 1.45
-6 1 -9 5.02 1.49
-6 1 -10 24 3.69
-6 1 -11 -1.32 1.21
6 0 -14 -0.61 0.93
6 0 -13 3.4 1.49
6 0 -12 7.58 1.88
6 0 -11 55.02 4.52
-6 0 11 45.12 3.36
6 0 -10 1.77 0.88
-6 0 10 3.04 0.89
6 0 -10 1.11 0.67
6 0 -9 2.17 0.97
6 0 -9 2.1 0.85
-6 0 9 2.94 0.88
6 0 -8 35.12 3.22
6 0 -8 34.4 3.23
-6 0 8 34.24 2.69
6 0 -7 7.19 1.4
6 0 -7 7.07 1.43
-6 0 7 7.85 1.31
6 0 -6 45.6 3.4
6 0 -6 46.38 3.47
-6 0 6 41.58 2.84
6 0 -5 10.76 1.67
6 0 -5 8.4 1.44
-6 0 5 12.37 1.52
6 0 -4 12.79 1.75
6 0 -4 8.17 1.3
-6 0 4 8.57 1.25
6 0 -3 2.64 0.8
6 0 -3 3.14 0.88
-6 0 3 1.99 0.59
6 0 -2 2.35 0.88
6 0 -2 2.1 0.69
-6 0 2 1.14 0.86
-6 0 2 0.77 0.37
6 0 -1 35.85 2.36
-6 0 1 36.61 2.6
-6 0 1 36.38 3.75
6 0 0 125.06 4.35
-6 0 0 126.9 5.17
6 0 0 126.58 5.49
-6 0 0 126.42 7.06
6 0 1 19.93 1.56
-6 0 -1 20.99 2.86
-6 0 -1 22.08 2.14
6 0 1 23.46 2.35
6 0 2 1.08 0.39
-6 0 -2 3.23 1.34
-6 0 -2 1.36 0.72
6 0 2 1.78 0.75
6 0 3 24.55 1.51
-6 0 -3 24.68 3.19
-6 0 -3 21.03 2.27
6 0 3 26.08 2.59
-6 0 -4 1.85 1
-6 0 -4 1.5 0.62
6 0 4 2.19 0.93
-6 0 -5 77.22 4.76
-6 0 -5 72.22 5.76
6 0 5 73.12 4.49
-6 0 -6 1.95 1.09
-6 0 -6 5.35 1.41
6 0 6 6.98 1.46
6 0 7 1.75 0.89
-6 0 -7 2.35 1.39
-6 0 -7 1.17 0.69
-6 0 -8 0.99 1.11
-6 0 -9 1.19 1.27
-6 0 -10 2.43 1.09
-6 0 -11 12.05 2.91
6 1 -14 9.27 2.17
6 1 -13 6.23 1.7
6 1 -12 2.41 1.07
6 1 -12 2.63 1.23
6 1 -11 1.13 0.93
6 1 -11 0.25 0.71
6 1 -10 8.44 1.7
6 1 -10 9.19 1.87
6 1 -9 25.97 2.84
6 1 -9 23.08 2.89
-6 -1 9 21.44 1.99
6 1 -8 25.54 2.67
6 1 -8 22.26 2.76
-6 -1 8 22.13 2.01
6 1 -7 17.51 2.19
6 1 -7 17.05 2.38
-6 -1 7 15.25 1.63
6 1 -6 17.99 2.03
6 1 -6 18.2 2.37
-6 -1 6 16.55 1.69
6 1 -5 6.78 1.52
-6 -1 5 4.66 0.9
6 1 -5 5.29 1.09
6 1 -4 4.4 1.22
-6 -1 4 5.81 1.07
6 1 -4 6.3 1.13
6 1 -3 1.12 0.77
6 1 -3 0.88 0.49
-6 -1 3 -0.01 0.31
6 1 -2 6.21 1.01
-6 -1 2 4.94 0.99
6 1 -1 85.38 3.67
-6 -1 1 85.97 4.31
-6 -1 1 86.68 5.98
6 1 0 1.32 0.53
-6 -1 0 1.24 1.04
-6 -1 0 0.21 0.38
6 1 1 3.36 0.67
-6 -1 -1 1.15 1.03
-6 -1 -1 3.17 1.07
6 1 1 5.35 1.17
6 1 2 22.04 1.58
-6 -1 -2 21.31 3.06
-6 -1 -2 19.88 2.29
6 1 2 19.92 2.18
-6 -1 -3 10.7 2.21
-6 -1 -3 11.39 1.8
6 1 3 9.85 1.59
-6 -1 -4 0.31 0.55
6 1 4 -0.13 0.4
-6 -1 -5 2.87 1.24
-6 -1 -5 1.85 0.91
6 1 5 1.27 0.62
-6 -1 -6 1.16 1.04
-6 -1 -7 4.65 1.68
-6 -1 -8 2.06 1.38
-6 -1 -9 6.42 1.96
-6 -1 -10 9.25 2.49
6 2 -13 0.57 0.89
6 2 -12 1.53 0.98
6 2 -11 24.17 2.91
6 2 -11 27.42 3.55
6 2 -10 19.32 2.51
6 2 -10 16.86 2.82
6 2 -9 2.45 0.96
6 2 -9 2.26 1.09
6 2 -8 7.21 1.78
6 2 -8 6.22 1.42
6 2 -7 10.12 2.04
6 2 -7 13.93 1.86
6 2 -6 31.07 3.39
6 2 -6 24.87 2.35
-6 -2 6 23.41 1.94
6 2 -5 3.02 1.13
6 2 -5 4.19 1.02
-6 -2 5 2.7 0.7
6 2 -4 1.57 0.79
6 2 -4 2.21 0.66
-6 -2 4 1.45 0.6
6 2 -3 1.65 0.57
-6 -2 3 2.47 0.84
6 2 -2 4.84 1.04
-6 -2 2 5.4 1.14
6 2 -1 -0.26 0.35
-6 -2 1 0.52 0.46
-6 -2 0 34 2.98
-6 -2 0 31.9 3.86
6 2 0 37.07 2.51
-6 -2 -1 19.81 3.06
-6 -2 -1 19.33 2.34
6 2 1 19.8 1.83
-6 -2 -2 0.73 0.65
-6 -2 -2 2.95 1.06
6 2 2 2.18 0.79
6 2 2 1.19 0.54
-6 -2 -3 2.52 1.44
6 2 3 1.65 0.74
-6 -2 -4 -1.77 1.16
6 2 4 0.55 0.58
-6 -2 -5 17.09 2.96
-6 -2 -6 11.87 2.61
-6 -2 -7 1.72 1.07
-6 -2 -8 1.69 1.25
-6 -2 -9 -0.66 1.09
6 3 -11 2.35 1.27
6 3 -10 0.71 1.05
6 3 -10 0.8 0.65
6 3 -9 5.4 1.72
6 3 -9 3.13 1.06
6 3 -8 22.39 2.47
6 3 -8 18.62 2.99
6 3 -7 8.93 2.02
6 3 -7 10.02 1.65
6 3 -6 2.91 1.36
6 3 -6 0.42 0.49
6 3 -5 3.51 1.05
6 3 -5 4 1.45
6 3 -4 0.89 0.52
6 3 -4 1.3 1.15
6 3 -3 6.47 1.25
-6 -3 3 5.21 1.14
-6 -3 2 11.64 1.76
6 3 -2 8.32 1.39
6 3 -1 27.77 2.48
6 3 0 5.38 1.16
-6 -3 -1 2.43 1.22
6 3 1 2.54 0.79
-6 -3 -2 3.97 1.4
-6 -3 -3 7.16 1.99
-6 -3 -4 3.31 1.61
-6 -3 -5 2.41 1.24
-6 -3 -6 0.03 0.93
-6 -3 -7 0.77 1.2
6 4 -9 1.34 1.47
6 4 -8 1.5 1.06
6 4 -7 1.39 0.83
6 4 -7 2.18 1.38
6 4 -6 4.42 1.29
6 4 -6 1.29 0.72
6 4 -5 9.09 1.66
6 4 -5 8.68 2.14
6 4 -4 1.56 0.88
6 4 -3 -0.68 0.68
6 4 -2 0.67 0.57
6 4 -1 -0.02 0.54
6 4 0 -0.41 0.56
-6 -4 -4 -1.47 1.22
6 5 -3 2.99 1.08
6 5 -2 7.81 1.64
-7 9 -1 -0.17 0.61
-7 9 -2 2.42 1.07
-7 9 -3 0.19 0.6
-7 9 -4 0.66 0.67
-7 9 -5 2.74 1.05
7 -8 -1 17.75 3.49
7 -8 0 15.16 3.27
-7 8 -1 2.86 1.18
-7 8 -2 0.55 0.64
-7 8 -3 6.35 1.36
-7 8 -4 2.66 1.11
-7 8 -5 17.65 2.27
-7 8 -6 5.04 1.28
-7 8 -7 1.52 0.85
-7 8 -8 0.06 0.83
-7 8 -8 0.41 0.58
-7 8 -9 -1.75 1.4
-7 8 -10 0.15 1.37
7 -7 -6 3.53 1.67
7 -7 -5 0.5 0.75
7 -7 -5 0.97 1.23
7 -7 -4 2.27 1.22
7 -7 -4 3.97 1.71
7 -7 -3 3.16 1.3
7 -7 -3 1.29 1.12
7 -7 -2 1.53 1.19
7 -7 -2 4.4 1.63
7 -7 -1 26.21 3.56
7 -7 -1 25.57 3.78
7 -7 0 2.47 1.3
-7 7 0 1.69 0.92
7 -7 1 -0.39 1.02
-7 7 -1 1.84 0.85
-7 7 -2 16.87 2.25
-7 7 -3 2.74 1.13
-7 7 -3 1.84 0.96
-7 7 -4 3.22 1.39
-7 7 -4 0.19 0.5
-7 7 -5 3.16 1.48
-7 7 -5 1.71 0.81
-7 7 -6 0.6 0.97
-7 7 -6 1.36 0.78
-7 7 -7 7.34 2.03
-7 7 -7 7.64 1.48
-7 7 -8 3.7 1.48
-7 7 -8 0.81 0.62
-7 7 -9 2.29 0.95
-7 7 -9 3.44 1.08
-7 7 -10 19.61 3.37
-7 7 -10 13.86 2.15
7 -6 -9 0.04 0.96
7 -6 -8 3.53 1.64
7 -6 -7 1.51 0.84
7 -6 -7 1.27 0.94
7 -6 -6 9.94 2.11
7 -6 -6 6.88 2.12
7 -6 -5 2.13 1.05
7 -6 -5 0.67 1.01
7 -6 -4 2.6 1.11
7 -6 -4 3.22 1.43
7 -6 -3 0.11 0.7
7 -6 -3 -0.53 0.96
7 -6 -2 -0.03 0.6
7 -6 -2 0.7 0.89
7 -6 -1 13.55 2.5
-7 6 1 7.33 1.63
-7 6 0 41.34 3.51
-7 6 0 40.95 3.76
7 -6 0 32.62 3.82
7 -6 1 15.66 2.66
-7 6 -1 15.14 2.3
-7 6 -1 15.27 2.18
7 -6 2 -0.13 0.63
-7 6 -2 0.84 0.78
-7 6 -2 0.98 0.67
7 -6 3 4.64 1.66
-7 6 -3 6.8 1.77
-7 6 -3 6.15 1.33
7 -6 4 -0.22 0.71
-7 6 -4 -0.84 0.78
-7 6 -4 0.51 0.57
-7 6 -5 50.55 3.65
-7 6 -5 48.04 4.62
-7 6 -6 13.96 2.65
-7 6 -6 13.12 1.83
-7 6 -7 0.73 0.71
-7 6 -7 0.27 0.46
-7 6 -8 1.69 1.26
-7 6 -8 0.8 0.74
-7 6 -9 1.54 1.22
-7 6 -9 0.36 0.54
-7 6 -10 2.91 1.55
-7 6 -10 1.05 0.83
-7 6 -11 1.72 0.92
-7 6 -12 5.85 1.63
7 -5 -9 5.79 1.92
7 -5 -8 11.92 2.48
7 -5 -8 13.14 2.37
7 -5 -7 3.42 1.44
7 -5 -7 3.03 1.19
7 -5 -6 6.24 1.75
7 -5 -6 5.74 1.55
7 -5 -5 4.42 1.51
7 -5 -5 1.88 1.06
7 -5 -4 6.07 1.69
7 -5 -4 8.39 1.86
7 -5 -3 5.93 1.67
7 -5 -3 4.01 1.36
-7 5 2 3.25 1.15
-7 5 2 1.17 0.73
7 -5 -2 1.93 1.08
-7 5 1 51.39 3.94
7 -5 -1 55.44 4.71
-7 5 1 58.29 4.43
7 -5 0 17.07 2.63
-7 5 0 12.76 2.22
-7 5 0 14.62 2.1
7 -5 1 0.48 0.81
-7 5 -1 0.78 0.78
-7 5 -1 1.06 0.74
-7 5 -2 34.36 3.02
-7 5 -2 27.53 3.23
7 -5 2 31.33 3.64
7 -5 3 5.9 1.58
-7 5 -3 4.77 1.55
-7 5 -3 7.7 1.45
7 -5 4 0.01 0.73
-7 5 -4 1.37 0.86
-7 5 -4 0.05 0.47
7 -5 5 2.4 1.06
-7 5 -5 2.47 1.28
-7 5 -5 3.88 1.08
7 -5 6 1.78 1.12
-7 5 -6 -1.4 1.02
-7 5 -6 0.38 0.65
-7 5 -7 7.16 2.01
-7 5 -7 6.11 1.36
-7 5 -8 13.4 2.69
-7 5 -8 17.34 2.22
-7 5 -9 8.09 2.21
-7 5 -9 7.33 1.57
-7 5 -10 26.31 3.96
-7 5 -10 27.69 2.99
-7 5 -11 1.73 0.96
-7 5 -12 -0.7 0.71
7 -4 -10 15.11 2.44
7 -4 -9 1.5 0.67
7 -4 -8 1.15 0.95
7 -4 -8 1.45 1
7 -4 -7 10.32 2.07
7 -4 -7 11.5 2.09
7 -4 -6 21.73 2.95
7 -4 -6 19.38 2.69
7 -4 -5 16.11 2.52
7 -4 -5 20.62 2.71
7 -4 -4 0.86 0.88
-7 4 3 0.29 0.49
7 -4 -3 -0.29 0.55
-7 4 2 0.99 0.63
-7 4 2 1.21 0.84
7 -4 -2 0.63 0.76
-7 4 1 1.32 0.85
-7 4 1 2.48 0.88
7 -4 -1 2.27 1.06
-7 4 0 11.84 2.14
-7 4 0 11.21 1.76
7 -4 0 13.11 2.24
-7 4 -1 31.48 2.83
-7 4 -1 36.42 3.66
7 -4 1 36.22 3.69
7 -4 2 3.48 1.22
-7 4 -2 4.34 1.46
-7 4 -2 3 1.04
7 -4 3 2.28 1.23
-7 4 -3 1.68 0.92
-7 4 -3 3.4 1.03
7 -4 4 2.29 1.04
-7 4 -4 5.11 1.59
-7 4 -4 3.82 1.05
-7 4 -5 63.31 3.94
-7 4 -5 68.57 5.62
7 -4 5 68.73 5.35
7 -4 6 22.07 3.1
-7 4 -6 18.68 3.02
-7 4 -6 15.42 2.01
7 -4 7 8.48 1.98
-7 4 -7 4.81 1.64
-7 4 -7 8.25 1.54
-7 4 -8 1.58 1.02
-7 4 -8 0.13 0.45
-7 4 -9 1.19 1.28
-7 4 -9 0.2 0.47
-7 4 -10 9.71 2.55
-7 4 -10 6.62 1.58
-7 4 -11 1.05 0.81
7 -3 -11 8.09 1.83
7 -3 -10 2.6 1.45
7 -3 -9 2.32 1.1
7 -3 -8 27.76 3.11
7 -3 -7 14.44 2.25
7 -3 -6 1.96 0.98
-7 3 5 3.26 1.06
7 -3 -5 4.42 1.25
-7 3 4 -0.07 0.54
7 -3 -4 -0.82 0.7
-7 3 3 36.95 3.19
7 -3 -3 45.69 3.95
-7 3 3 39.84 3.86
-7 3 2 9 2
-7 3 2 7.12 1.39
7 -3 -2 8.89 1.79
-7 3 1 58.29 3.82
7 -3 -1 53.88 4.31
-7 3 1 56.75 4.66
-7 3 0 43.1 3.25
7 -3 0 45.52 3.99
-7 3 0 48.84 4.34
-7 3 -1 1.11 0.86
-7 3 -1 0.63 0.55
7 -3 1 1.06 0.81
-7 3 -2 25.58 3.2
-7 3 -2 24.47 2.38
7 -3 2 27.56 3.11
-7 3 -3 4.12 1.55
-7 3 -3 2.8 0.86
7 -3 3 2.3 1.13
7 -3 4 1.92 0.86
-7 3 -4 0.65 0.86
-7 3 -4 -0.22 0.35
-7 3 -5 27.54 3.67
-7 3 -5 27.9 2.68
7 -3 5 34.26 3.63
7 -3 6 3.19 1.1
-7 3 -6 0.13 0.78
-7 3 -6 4.08 1.12
7 -3 7 0.09 0.8
-7 3 -7 0.52 0.89
-7 3 -7 1.78 0.71
-7 3 -8 39.26 3.49
-7 3 -8 44.62 4.98
7 -3 8 34.99 3.89
-7 3 -9 9.9 2.48
-7 3 -9 11.88 2.03
-7 3 -10 32.79 3.54
-7 3 -10 41.87 5.06
7 -2 -12 0.79 0.69
7 -2 -11 0.67 0.62
7 -2 -10 26.87 3.01
7 -2 -9 1.01 0.9
-7 2 8 14.19 2.09
7 -2 -8 15.75 2.29
-7 2 7 12.91 1.97
7 -2 -7 14.54 2.17
-7 2 6 20.92 2.42
7 -2 -6 19.9 2.48
-7 2 5 31.08 2.86
7 -2 -5 36.23 3.29
-7 2 4 8.75 1.48
7 -2 -4 7.23 1.58
-7 2 3 -0.7 0.91
-7 2 3 0.14 0.5
7 -2 -3 0.83 0.84
-7 2 2 5.83 1.59
-7 2 2 5.95 1.22
7 -2 -2 5.38 1.36
-7 2 1 0.73 0.66
-7 2 1 1.26 0.66
7 -2 -1 1.95 1.02
-7 2 0 4.96 1.44
-7 2 0 8.21 1.39
7 -2 0 10.03 1.95
-7 2 -1 23.74 3.16
-7 2 -1 26.14 2.43
7 -2 1 32.14 3.25
-7 2 -2 4.11 1.41
-7 2 -2 0.64 0.43
7 -2 2 2.4 1.07
-7 2 -3 14.95 2.62
-7 2 -3 15.6 1.93
7 -2 3 11.1 2
-7 2 -4 0.56 1
-7 2 -4 -0.08 0.45
7 -2 4 0.1 0.69
-7 2 -5 29.75 3.8
-7 2 -5 29.23 2.85
7 -2 5 26.84 3.15
7 -2 6 8.58 1.9
-7 2 -6 8.91 2.26
-7 2 -6 10.2 1.77
7 -2 7 10.03 1.99
-7 2 -7 5.32 1.72
-7 2 -7 8.45 1.81
7 -2 8 3.17 1.38
-7 2 -8 3.66 1.56
-7 2 -8 3.2 1.2
7 -2 9 2.01 1.09
-7 2 -9 0.67 1.08
-7 2 -9 1.94 0.93
-7 2 -10 7.97 2.44
-7 2 -10 9.91 2.09
-7 1 11 11.1 1.87
-7 1 10 -0.23 0.53
-7 1 9 0.92 0.53
-7 1 8 8.23 1.56
7 -1 -7 29.23 2.71
-7 1 7 30.71 2.78
7 -1 -6 2.97 0.9
-7 1 6 3.06 0.93
7 -1 -5 2.1 0.69
-7 1 5 1.47 0.7
7 -1 -4 6.71 1.18
-7 1 4 5.19 1.15
7 -1 -4 6.15 1.37
7 -1 -3 55.83 3.16
-7 1 3 56.84 3.59
7 -1 -3 55.64 4
7 -1 -2 23.17 1.97
-7 1 2 28.57 3.48
-7 1 2 24.89 2.39
7 -1 -2 24.74 2.68
7 -1 -1 52.58 2.95
-7 1 1 56.59 3.55
7 -1 -1 57.9 4.17
-7 1 1 59.01 4.98
-7 1 0 16.92 2.74
-7 1 0 14.74 1.84
7 -1 0 16.76 2.28
-7 1 -1 7.1 1.81
-7 1 -1 7.06 1.31
7 -1 1 6.5 1.5
-7 1 -2 8.69 2.08
-7 1 -2 6.45 1.25
7 -1 2 8.61 1.63
-7 1 -3 0.32 0.63
-7 1 -3 -0.19 0.39
7 -1 3 0.23 0.46
-7 1 -4 -0.98 1.04
-7 1 -4 -0.03 0.47
7 -1 4 -0.06 0.6
-7 1 -5 41.9 3.59
-7 1 -5 47.83 4.92
7 -1 5 40.1 3.74
-7 1 -6 13.67 2.74
-7 1 -6 16.28 2.36
7 -1 6 16.38 2.5
7 -1 7 2.1 0.96
-7 1 -7 0.44 0.94
-7 1 -7 0.74 0.7
-7 1 -8 10.47 2.59
-7 1 -8 16.19 2.53
-7 1 -9 12.78 2.87
7 0 -10 11.7 2.09
7 0 -9 4.27 1.3
7 0 -9 2.2 0.9
-7 0 9 2.23 0.74
7 0 -8 32.03 3.23
7 0 -8 36.13 3.64
-7 0 8 29.4 2.62
7 0 -7 1.06 0.69
-7 0 7 0.67 0.5
7 0 -7 0.52 0.7
7 0 -6 5.87 1.35
7 0 -6 6.35 1.5
-7 0 6 3.52 0.98
7 0 -5 16.51 2.19
7 0 -5 14.38 1.99
-7 0 5 14.37 1.77
7 0 -4 22.71 2.4
7 0 -4 26.7 2.62
-7 0 4 27.02 2.4
7 0 -3 3.5 0.91
7 0 -3 3.61 1.06
-7 0 3 3.16 0.85
7 0 -2 3.08 0.96
-7 0 2 3.78 1.43
-7 0 2 2.3 0.88
7 0 -2 2.49 0.77
7 0 -1 -0.06 0.46
-7 0 1 0.17 0.83
-7 0 1 -0.7 0.61
7 0 -1 1.12 0.61
7 0 -1 0.82 0.6
7 0 0 32.45 2.41
-7 0 0 31.29 2.81
7 0 0 34.29 3.18
-7 0 0 33.15 3.94
-7 0 -1 0.12 0.67
-7 0 -1 1.33 0.69
7 0 1 0.09 0.49
7 0 1 0.22 0.31
-7 0 -2 0.68 0.84
-7 0 -2 -0.19 0.41
7 0 2 0.53 0.62
-7 0 -3 9.27 2.22
-7 0 -3 4.08 1.08
7 0 3 10.95 1.91
-7 0 -4 6.12 1.88
-7 0 -4 6.1 1.41
7 0 4 7.16 1.58
-7 0 -5 5.68 1.87
-7 0 -5 3.08 1.01
7 0 5 7.22 1.65
-7 0 -6 0.54 1.33
-7 0 -6 0.69 0.71
7 0 6 0.45 0.54
-7 0 -7 4.42 1.92
-7 0 -7 5.28 1.57
-7 0 -8 3.92 1.55
7 1 -12 -1.42 1.21
7 1 -11 1 0.95
7 1 -10 5.36 1.49
7 1 -10 5.59 1.63
7 1 -9 1.57 0.91
7 1 -9 1.33 0.83
7 1 -8 0.36 0.63
7 1 -8 2.06 0.78
7 1 -7 18.88 2.62
-7 -1 7 17.86 1.9
7 1 -7 16.66 2.27
7 1 -6 0.56 0.68
7 1 -6 1.17 0.67
-7 -1 6 1.97 0.66
7 1 -5 20.56 2.3
7 1 -5 18.7 2.52
-7 -1 5 19.45 2.04
7 1 -4 1.27 0.74
7 1 -4 0.05 0.7
-7 -1 4 -0.29 0.57
7 1 -3 12.33 1.66
7 1 -3 11.71 1.98
-7 -1 3 10.89 1.61
7 1 -2 25.47 2.87
7 1 -2 31.82 2.51
-7 -1 2 27.1 2.58
7 1 -1 41.22 2.74
-7 -1 1 36.16 3.08
-7 -1 1 43.04 4.61
-7 -1 0 4.62 1.64
-7 -1 0 1.86 0.83
7 1 0 1.53 0.65
7 1 0 1.92 0.77
-7 -1 -1 4.6 1.49
-7 -1 -1 3.7 1.13
7 1 1 4.65 1.26
-7 -1 -2 1.48 0.83
-7 -1 -2 -0.18 0.55
7 1 2 0.35 0.57
-7 -1 -3 1.08 1.23
-7 -1 -3 0.74 0.76
7 1 3 0.8 0.62
-7 -1 -4 2.06 1.44
-7 -1 -4 0.83 0.8
7 1 4 3.18 1.11
-7 -1 -5 17.98 3.26
-7 -1 -5 18.98 2.83
-7 -1 -6 30.46 4.26
-7 -1 -7 4.29 1.73
7 2 -11 21.22 3.29
7 2 -10 1.9 1.2
7 2 -9 3.06 1.27
7 2 -9 2.58 1.04
7 2 -8 13.56 2.11
7 2 -8 13.84 2.51
7 2 -7 17.81 2.27
7 2 -7 13.94 2.44
7 2 -6 1.19 1.11
7 2 -6 1.35 0.91
7 2 -5 1.79 0.96
7 2 -5 0.11 0.43
7 2 -4 8.65 1.91
-7 -2 4 6.94 1.29
7 2 -4 8.62 1.5
7 2 -3 0.89 1.03
7 2 -3 0.66 0.46
-7 -2 3 -0.37 0.54
7 2 -2 0.21 0.45
-7 -2 2 0.11 0.57
7 2 -1 1.38 0.62
-7 -2 1 0.62 0.63
-7 -2 0 16.62 3.04
-7 -2 0 14.38 2.16
-7 -2 -1 10.31 2.45
-7 -2 -1 4.78 1.32
7 2 1 8.78 1.61
-7 -2 -2 0.22 0.73
-7 -2 -2 0.11 0.54
7 2 2 0.49 0.6
-7 -2 -3 0.18 0.88
7 2 3 2.32 0.96
-7 -2 -4 0.2 0.95
-7 -2 -5 4.89 1.96
7 3 -9 1.94 1.31
7 3 -8 -2.07 1.42
7 3 -7 1.9 1.38
7 3 -7 1.94 0.95
7 3 -6 0.64 0.8
7 3 -6 0.11 0.45
7 3 -5 22.92 2.47
7 3 -5 16.56 2.9
7 3 -4 3.56 1.48
7 3 -4 3.43 1.04
7 3 -3 1.81 0.76
7 3 -2 9.49 1.57
7 3 1 0 0.49
7 4 -4 0.09 0.71
7 4 -3 0.61 0.71
-8 8 -2 -0.44 0.47
-8 8 -3 5.88 1.48
-8 8 -4 -0.78 0.77
-8 8 -5 2.5 1.01
-8 8 -6 3.52 1.13
-8 8 -7 0.11 0.6
8 -7 -5 3.5 1.47
8 -7 -4 0.02 1.03
8 -7 -4 0.32 1.33
8 -7 -3 6.15 1.86
8 -7 -3 8.2 2.3
8 -7 -2 15.95 2.92
-8 7 2 8.07 1.83
8 -7 -1 6.03 1.8
-8 7 1 6.63 1.64
8 -7 0 9.81 2.45
-8 7 0 9.16 1.81
8 -7 1 -0.72 0.91
-8 7 -1 0.41 0.65
8 -7 2 1.08 1.18
-8 7 -2 0.07 0.44
8 -7 3 0.31 0.71
-8 7 -3 0.7 0.75
-8 7 -4 0.38 0.97
-8 7 -4 1.05 0.7
-8 7 -5 7.85 2.15
-8 7 -5 10.34 1.8
-8 7 -6 15.97 3.06
-8 7 -6 16.34 2.27
-8 7 -7 1.63 1.3
-8 7 -7 0.82 0.62
-8 7 -8 7.83 2.32
-8 7 -8 7.98 1.65
8 -6 -7 1.31 1.19
8 -6 -7 1.48 1.38
8 -6 -6 1.04 1.15
8 -6 -6 0.67 0.91
8 -6 -5 12.19 2.53
8 -6 -5 12.09 2.65
8 -6 -4 2.75 1.14
8 -6 -3 0.78 0.94
-8 6 3 0.27 0.78
8 -6 -2 3.46 1.49
-8 6 2 0.12 0.58
8 -6 -1 3.67 1.53
-8 6 1 1.83 1.03
8 -6 0 16.53 2.93
-8 6 0 17.93 2.76
-8 6 0 16.51 2.34
8 -6 1 3.53 1.48
-8 6 -1 5.33 1.61
-8 6 -1 4.59 1.23
8 -6 2 0.08 0.58
-8 6 -2 0.65 0.68
-8 6 -2 1.32 0.79
8 -6 3 12.6 2.72
-8 6 -3 10.14 2.21
-8 6 -3 7.78 1.58
8 -6 4 2.83 1.3
-8 6 -4 2.98 1.31
-8 6 -4 1.42 0.8
8 -6 5 3.85 1.47
-8 6 -5 6.86 2.16
-8 6 -5 3.55 1.1
-8 6 -6 0.79 1.51
-8 6 -6 3.07 1.11
-8 6 -7 1.14 1.21
-8 6 -7 0.91 0.89
-8 6 -8 0.2 0.79
-8 6 -8 2.61 1.04
-8 6 -9 0.53 0.63
8 -5 -9 1.09 1.38
8 -5 -8 1.23 1
8 -5 -7 3.93 1.49
8 -5 -6 1.2 1.01
8 -5 -6 0.77 0.75
8 -5 -5 21.27 3.23
-8 5 4 -0.31 0.52
8 -5 -4 -0.5 0.82
-8 5 3 3.4 1.35
8 -5 -3 4.67 1.62
-8 5 2 29.36 3.2
8 -5 -2 34.32 4.04
-8 5 2 35.55 3.85
-8 5 1 12.96 2.38
-8 5 1 11.04 1.93
8 -5 -1 16.22 2.79
8 -5 0 9.13 2.11
-8 5 0 11.41 2.3
-8 5 0 8.66 1.71
8 -5 1 0.45 0.77
-8 5 -1 -0.65 0.62
-8 5 -1 0.29 0.51
8 -5 2 2.05 1.03
-8 5 -2 0.73 1
-8 5 -2 2.61 0.87
8 -5 3 2.41 1.31
-8 5 -3 1.99 1.22
-8 5 -3 1.93 0.8
8 -5 4 0.86 0.88
-8 5 -4 1.85 1.06
-8 5 -4 0.48 0.41
8 -5 5 12.97 2.65
-8 5 -5 15.12 2.81
-8 5 -5 15.41 2.14
-8 5 -6 43.81 3.64
-8 5 -6 52.6 5.4
8 -5 6 40.41 4.61
8 -5 7 3.52 1.71
-8 5 -7 4.41 1.69
-8 5 -7 4.72 1.21
-8 5 -8 6.79 2.29
-8 5 -8 5.06 1.27
-8 5 -9 4.3 1.28
8 -4 -10 14.25 2.68
8 -4 -9 4.72 1.38
8 -4 -8 10.25 2.19
8 -4 -7 20.26 3.03
-8 4 6 3.74 1.23
8 -4 -6 2.87 1.22
-8 4 5 4.3 1.33
8 -4 -5 2.16 1.16
-8 4 4 9.32 1.84
8 -4 -4 5.64 1.67
-8 4 3 0.77 0.7
8 -4 -3 2.84 1.25
-8 4 2 1.93 1.45
-8 4 2 3.23 1.1
8 -4 -2 3.48 1.47
-8 4 1 3.89 1.32
-8 4 1 6.5 1.38
8 -4 -1 6.31 1.77
-8 4 0 15.41 2.65
-8 4 0 23.18 2.67
-8 4 -1 36.55 3.27
-8 4 -1 40.97 4.23
8 -4 1 37.42 4.1
-8 4 -2 -0.07 0.92
-8 4 -2 0.93 0.56
8 -4 2 0.02 0.73
8 -4 3 1.58 1.17
-8 4 -3 6.94 1.97
-8 4 -3 6.23 1.4
8 -4 4 8.74 2.02
-8 4 -4 6.87 2.05
-8 4 -4 7.5 1.46
8 -4 5 11.55 2.39
-8 4 -5 11.28 2.47
-8 4 -5 9.58 1.74
8 -4 6 -0.3 0.68
-8 4 -6 3 1.5
-8 4 -6 2.92 1.06
8 -4 7 0.4 1.15
-8 4 -7 -1.03 1.2
-8 4 -7 0.98 0.7
8 -4 8 7.07 1.96
-8 4 -8 5.92 1.99
-8 4 -8 7.84 1.66
8 -3 -10 2.68 1.26
-8 3 9 1.83 0.82
8 -3 -9 1.23 0.88
-8 3 8 2.16 1.03
8 -3 -8 3.77 1.33
-8 3 7 0.88 0.77
8 -3 -7 0.83 0.97
-8 3 6 2.36 1.07
8 -3 -6 3.2 1.21
-8 3 5 51.4 4.09
8 -3 -5 52.27 4.58
-8 3 4 11.73 1.98
8 -3 -4 9.91 2.05
-8 3 3 2.21 0.88
8 -3 -3 1.63 1.03
-8 3 2 18.18 2.97
-8 3 2 20.88 2.46
8 -3 -2 20.23 2.87
-8 3 1 22.65 3.25
-8 3 1 24.82 2.66
8 -3 -1 22.56 3.03
-8 3 0 1.25 1.1
-8 3 0 1.52 0.82
8 -3 0 -0.32 0.71
-8 3 -1 3.86 1.61
-8 3 -1 1.72 0.85
8 -3 1 1.61 0.91
-8 3 -2 1.09 1.01
-8 3 -2 1.25 0.73
8 -3 2 -0.52 0.76
-8 3 -3 13.14 2.62
-8 3 -3 8.44 1.56
8 -3 3 9.29 2.11
8 -3 4 1.53 1.13
-8 3 -4 3.69 1.62
-8 3 -4 4.3 1.16
8 -3 5 9.32 2.13
-8 3 -5 11.33 2.61
-8 3 -5 12.22 1.96
-8 3 -6 43.94 3.72
-8 3 -6 42.86 5.06
8 -3 6 36.83 4.14
8 -3 7 19.82 3.1
-8 3 -7 18.82 3.34
-8 3 -7 15.82 2.32
8 -3 8 3.99 1.51
8 -3 9 0.92 0.82
-8 2 11 2.09 1.02
-8 2 10 46.77 4.17
-8 2 9 0.36 0.71
8 -2 -9 -0.68 0.6
-8 2 8 2.61 1.04
8 -2 -8 5.59 1.64
-8 2 7 32.73 3.22
8 -2 -7 33.38 3.64
-8 2 6 15.8 2.2
8 -2 -6 17.13 2.6
-8 2 5 1.2 0.89
8 -2 -5 -0.1 0.64
-8 2 4 1.82 0.86
8 -2 -4 0.7 0.82
-8 2 3 0.47 0.57
8 -2 -3 0.72 0.67
-8 2 2 4.08 1.68
-8 2 2 3.47 1.04
8 -2 -2 3.68 1.21
-8 2 1 1.35 1.14
-8 2 1 -0.15 0.41
8 -2 -1 1.13 0.9
-8 2 0 11.6 2.46
-8 2 0 12.91 1.88
8 -2 0 10.69 2.13
-8 2 -1 42.13 3.4
8 -2 1 43.07 4.18
-8 2 -1 40.65 4.48
-8 2 -2 14.22 2.72
-8 2 -2 15.14 2.09
8 -2 2 12.25 2.25
-8 2 -3 -1.66 1.11
-8 2 -3 -0.33 0.55
8 -2 3 0.1 0.66
-8 2 -4 8.56 2.23
-8 2 -4 7.16 1.59
8 -2 4 7.14 1.8
-8 2 -5 11.31 2.7
-8 2 -5 9.27 1.71
8 -2 5 8.63 1.99
8 -2 6 4.39 1.57
-8 2 -6 7.44 2.34
-8 2 -6 2.41 1.03
8 -2 7 8.48 2.13
-8 2 -7 8.07 2.31
-8 2 -7 7.17 1.67
8 -2 8 7.01 1.92
-8 1 10 1.17 0.9
-8 1 9 2.08 0.78
-8 1 8 1.9 0.79
8 -1 -8 5.31 1.5
-8 1 7 1.28 0.71
8 -1 -7 3.55 1.37
-8 1 6 1.93 0.86
8 -1 -6 1.04 0.83
-8 1 5 28.92 2.77
8 -1 -5 26.46 3.08
-8 1 4 37.99 3.15
8 -1 -4 46.64 4.1
-8 1 3 3.77 1.05
8 -1 -3 4.55 1.51
-8 1 2 1.23 0.95
-8 1 2 0.72 0.5
8 -1 -2 1.22 0.77
-8 1 1 20.09 3.16
-8 1 1 23.35 2.49
8 -1 -1 22.2 2.85
-8 1 0 0.4 0.98
-8 1 0 1.14 0.7
8 -1 0 0.75 0.62
-8 1 -1 4.11 1.58
-8 1 -1 7.21 1.53
8 -1 1 5.9 1.61
-8 1 -2 3.07 1.51
-8 1 -2 2.51 1.04
8 -1 2 1.14 0.94
-8 1 -3 1.04 0.93
-8 1 -3 4.23 1.2
8 -1 3 3.82 1.34
-8 1 -4 7.31 2.08
-8 1 -4 10.56 1.89
8 -1 4 11.43 2.18
-8 1 -5 8.13 2.35
-8 1 -5 4.3 1.27
8 -1 5 4.9 1.52
8 -1 6 17.27 2.78
8 0 -8 -0.13 0.99
8 0 -7 21.76 2.89
-8 0 7 14.44 1.95
8 0 -6 27.96 3.16
-8 0 6 25.83 2.54
8 0 -5 -0.72 0.92
-8 0 5 0.12 0.51
8 0 -4 4.73 1.3
-8 0 4 3.64 1.07
8 0 -4 7.12 1.68
-8 0 3 0.98 0.67
8 0 -3 0.46 0.45
8 0 -3 2.59 1.09
-8 0 2 3.58 1.02
8 0 -2 2.04 0.92
8 0 -2 1.6 0.81
-8 0 1 4.09 1.32
-8 0 1 4.41 1.17
8 0 -1 5.07 1.5
-8 0 0 1.8 1.27
-8 0 0 6.3 1.4
8 0 0 3.4 1.17
-8 0 -1 18.36 3.35
-8 0 -1 16.52 2.29
8 0 1 21.61 2.86
-8 0 -2 21.73 3.59
-8 0 -2 18.23 2.44
8 0 2 18.92 2.7
-8 0 -3 -1.1 1.05
-8 0 -3 -0.43 0.64
8 0 3 -0.5 0.7
-8 0 -4 0.89 0.93
-8 0 -4 2.07 1.01
8 0 4 2.87 1.14
8 0 5 4.13 1.34
8 1 -7 7.79 1.76
8 1 -6 0.47 0.74
-8 -1 5 4.26 1.11
8 1 -5 6.15 1.4
8 1 -4 35.44 3.21
-8 -1 4 37.13 3.15
8 1 -3 11.44 1.79
-8 -1 3 6.94 1.4
-8 -1 2 1.14 0.76
8 1 -2 -0.26 0.7
-8 -1 1 0.96 0.66
8 1 -1 0.35 0.49
-8 -1 0 4.65 1.85
-8 -1 0 1.98 0.99
8 1 0 2.05 1.06
-8 -1 -1 7.71 2.32
-8 -1 -1 6.91 1.55
8 1 1 10.54 2.04
-8 -1 -2 4.28 1.37
8 1 2 7.04 1.74
8 1 3 0.99 0.81
8 2 -6 11.01 1.98
8 2 -5 2.32 0.98
8 2 -4 9.42 1.7
-8 -2 2 0.37 0.52
-8 -2 1 1.53 0.85
8 2 -1 6.37 1.6
-8 -2 0 2.42 1.2
8 2 0 3.26 1.34
-8 -2 -1 2.6 1.16
8 2 1 5.49 1.57
-9 7 -5 0.39 1.42
-9 6 -1 11.97 2.6
-9 6 -2 17.43 3.11
-9 6 -3 0.76 0.94
-9 6 -4 -1.29 0.98
-9 6 -5 9.75 2.6
9 -5 -3 8.61 2.3
-9 5 2 -1.51 1.35
-9 5 2 1.4 0.82
9 -5 -2 0.55 0.99
-9 5 1 1.1 0.94
-9 5 1 0.73 0.7
9 -5 -1 -0.32 0.67
9 -5 0 2.47 1.57
-9 5 0 2.37 1.06
-9 5 0 1.59 0.86
9 -5 1 14.27 2.9
-9 5 -1 17.65 3.13
-9 5 -1 20.33 2.73
9 -5 2 3.4 1.64
-9 5 -2 3.9 1.56
-9 5 -2 3.36 1.12
9 -5 3 9.41 2.38
-9 5 -3 7.66 2.27
-9 5 -3 7.05 1.57
-9 5 -4 9.06 2.44
-9 5 -5 4.14 1.88
-9 4 4 10.02 1.97
9 -4 -4 9.05 2.25
-9 4 3 5.81 1.58
9 -4 -3 6.02 1.79
-9 4 2 4.06 1.31
9 -4 -2 2.8 1.33
-9 4 1 3 1.39
-9 4 1 5.06 1.38
9 -4 -1 5.16 1.67
-9 4 0 5.67 1.75
-9 4 0 6.26 1.47
9 -4 0 5.42 1.85
-9 4 -1 2.47 1.49
-9 4 -1 1.91 0.92
9 -4 1 4.7 1.82
-9 4 -2 15.8 3.08
-9 4 -2 14.17 2.23
9 -4 2 15.05 2.89
-9 4 -3 2.6 1.23
-9 4 -3 2.09 0.83
9 -4 4 2.83 1.4
-9 4 -4 2.4 1.59
9 -4 5 4.67 1.74
9 -4 6 -0.88 0.74
-9 3 6 4.2 1.33
-9 3 5 0.86 0.74
-9 3 4 4.93 1.35
9 -3 -4 6.95 1.91
-9 3 3 27.63 3.08
9 -3 -3 32.68 4.06
-9 3 2 -1.03 1.21
-9 3 2 1.93 0.82
9 -3 -2 0.88 0.85
-9 3 1 -1.43 1.15
-9 3 1 -0.4 0.54
9 -3 -1 -0.39 1.11
-9 3 0 7.38 2.14
-9 3 0 4.58 1.24
9 -3 0 8.72 2.02
-9 3 -1 26.49 3.84
-9 3 -1 20.76 2.55
9 -3 1 22.7 3.4
-9 3 -2 19.12 3.38
-9 3 -2 12.61 2.08
9 -3 2 16.38 2.93
-9 3 -3 5.16 2.08
-9 3 -3 12.95 2.08
9 -3 3 12.5 2.69
9 -3 4 5.73 1.9
9 -3 5 2.59 1.36
9 -3 6 3.17 1.54
9 -3 7 -0.97 0.88
-9 2 7 -0.1 0.69
-9 2 6 5.79 1.46
-9 2 5 5.32 1.35
-9 2 4 2.74 0.97
-9 2 3 16.12 2.25
9 -2 -3 22.66 3.31
-9 2 2 2.66 1.26
-9 2 2 0.28 0.49
9 -2 -2 2.63 1.45
-9 2 1 0.69 1.29
-9 2 1 1.64 0.84
-9 2 0 17.05 3.22
-9 2 0 13.11 2.1
9 -2 0 20.14 3.13
-9 2 -1 1.28 1.45
-9 2 -1 0.38 0.66
9 -2 1 0.08 0.63
-9 2 -2 3.34 1.12
9 -2 2 0.89 0.94
9 -2 3 1.52 1.21
9 -2 4 4.22 1.6
9 -2 5 0.21 0.81
9 -2 6 -1.54 1.18
-9 1 8 6.85 1.59
-9 1 7 3.97 1.24
-9 1 6 4.74 1.27
-9 1 5 0.97 0.72
-9 1 4 1 0.69
-9 1 3 11.67 1.93
-9 1 2 0 0.5
-9 1 1 1.13 0.89
9 -1 -1 0.56 0.94
-9 1 0 7.25 1.62
9 -1 0 12.27 2.43
-9 1 -1 19.85 2.62
9 -1 1 18.54 3.05
9 -1 2 14.76 2.68
9 -1 3 4.47 1.47
9 -1 4 2.13 0.94
9 -1 5 1.01 1.21
-9 0 5 0.79 0.75
-9 0 4 1.81 0.92
-9 0 3 12.15 1.99
-9 0 2 2.08 0.91
-9 0 1 -0.67 0.72
-10 5 1 0.99 1.71
