#------------------------------------------------------------------------------
#$Date: 2019-11-11 15:38:19 +0200 (Mon, 11 Nov 2019) $
#$Revision: 226406 $
#$URL: file:///home/coder/svn-repositories/cod/cif/4/03/48/4034886.cif $
#------------------------------------------------------------------------------
#
# This file is available in the Crystallography Open Database (COD),
# http://www.crystallography.net/
#
# All data on this site have been placed in the public domain by the
# contributors.
#
data_4034886
loop_
_publ_author_name
'Kim, Simon J.'
'Lough, Alan J.'
'Batey, Robert A.'
_publ_section_title
;
 An Approach to the 9-Oxo-10-oxabicyclo[5.3.0]dec-2-ene Core of the
 Guaianolide and Pseudoguaianolide Sesquiterpenes via a Domino
 Electrocyclic Ring-Opening/Carboxylic Acid Trapping of a
 gem-Dibromocyclopropane.
;
_journal_issue                   22
_journal_name_full               'The Journal of organic chemistry'
_journal_page_first              13799
_journal_page_last               13810
_journal_paper_doi               10.1021/acs.joc.8b02081
_journal_volume                  83
_journal_year                    2018
_chemical_formula_moiety         'C8 H9 Br O2'
_chemical_formula_sum            'C8 H9 Br O2'
_chemical_formula_weight         217.06
_space_group_crystal_system      monoclinic
_space_group_IT_number           14
_space_group_name_Hall           '-P 2ybc'
_space_group_name_H-M_alt        'P 1 21/c 1'
_atom_sites_solution_hydrogens   geom
_audit_creation_method           SHELXL-2014/7
_cell_angle_alpha                90
_cell_angle_beta                 97.883(2)
_cell_angle_gamma                90
_cell_formula_units_Z            4
_cell_length_a                   8.6931(6)
_cell_length_b                   10.0516(7)
_cell_length_c                   9.0312(7)
_cell_measurement_reflns_used    5235
_cell_measurement_temperature    150(2)
_cell_measurement_theta_max      27.54
_cell_measurement_theta_min      2.37
_cell_volume                     781.69(10)
_computing_cell_refinement       APEX2
_computing_data_collection       'APEX2 (Bruker, 2014)'
_computing_data_reduction        'SAINT (Bruker, 2014)'
_computing_molecular_graphics    'PLATON (Spek, 2009)'
_computing_publication_material  'SHELXTL (Sheldrick, 2008)'
_computing_structure_refinement  'SHELXL-2014/7 (Sheldrick, 2015b)'
_computing_structure_solution    'SHELXT (Sheldrick, 2015a)'
_diffrn_ambient_temperature      150(2)
_diffrn_measured_fraction_theta_full 1.000
_diffrn_measured_fraction_theta_max 0.999
_diffrn_measurement_device_type  'Bruker Kappa APEX-DUO CCD'
_diffrn_measurement_method       '\f and \w scans'
_diffrn_radiation_type           MoK\a
_diffrn_radiation_wavelength     0.71073
_diffrn_reflns_av_R_equivalents  0.0276
_diffrn_reflns_av_unetI/netI     0.0215
_diffrn_reflns_Laue_measured_fraction_full 1.000
_diffrn_reflns_Laue_measured_fraction_max 0.999
_diffrn_reflns_limit_h_max       11
_diffrn_reflns_limit_h_min       -11
_diffrn_reflns_limit_k_max       13
_diffrn_reflns_limit_k_min       -13
_diffrn_reflns_limit_l_max       9
_diffrn_reflns_limit_l_min       -11
_diffrn_reflns_number            8709
_diffrn_reflns_point_group_measured_fraction_full 1.000
_diffrn_reflns_point_group_measured_fraction_max 0.999
_diffrn_reflns_theta_full        25.242
_diffrn_reflns_theta_max         27.545
_diffrn_reflns_theta_min         2.365
_diffrn_source
'sealed tube with Bruker Triumph monochromator'
_exptl_absorpt_coefficient_mu    5.200
_exptl_absorpt_correction_T_max  0.7456
_exptl_absorpt_correction_T_min  0.5333
_exptl_absorpt_correction_type   multi-scan
_exptl_absorpt_process_details   'SADABS (Bruker, 2014)'
_exptl_crystal_colour            colourless
_exptl_crystal_density_diffrn    1.844
_exptl_crystal_description       plate
_exptl_crystal_F_000             432
_exptl_crystal_size_max          0.270
_exptl_crystal_size_mid          0.230
_exptl_crystal_size_min          0.100
_refine_diff_density_max         0.337
_refine_diff_density_min         -0.430
_refine_diff_density_rms         0.070
_refine_ls_extinction_method     none
_refine_ls_goodness_of_fit_ref   1.079
_refine_ls_hydrogen_treatment    constr
_refine_ls_matrix_type           full
_refine_ls_number_parameters     100
_refine_ls_number_reflns         1800
_refine_ls_number_restraints     0
_refine_ls_restrained_S_all      1.079
_refine_ls_R_factor_all          0.0233
_refine_ls_R_factor_gt           0.0176
_refine_ls_shift/su_max          0.001
_refine_ls_shift/su_mean         0.000
_refine_ls_structure_factor_coef Fsqd
_refine_ls_weighting_details
'w=1/[\s^2^(Fo^2^)+(0.0221P)^2^+0.2673P] where P=(Fo^2^+2Fc^2^)/3'
_refine_ls_weighting_scheme      calc
_refine_ls_wR_factor_gt          0.0438
_refine_ls_wR_factor_ref         0.0460
_reflns_Friedel_coverage         0.000
_reflns_number_gt                1586
_reflns_number_total             1800
_reflns_threshold_expression     'I > 2\s(I)'
_cod_data_source_file            jo8b02081_si_003.cif
_cod_data_source_block           d16140
_cod_original_sg_symbol_H-M      'P 21/c'
_cod_database_code               4034886
_shelx_shelxl_version_number     2014/7
_shelx_space_group_comment
; 
The symmetry employed for this shelxl refinement is uniquely defined 
by the following loop, which should always be used as a source of 
symmetry information in preference to the above space-group names. 
They are only intended as comments. 
;
_shelx_estimated_absorpt_t_min   0.334
_shelx_estimated_absorpt_t_max   0.624
_shelx_res_file
; 
  
    d16140.res created by SHELXL-2014/7 
  
  
TITL mo_d16140_0m in P2(1)/c 
CELL 0.71073 8.6931 10.0516 9.0312 90.000 97.883 90.000 
ZERR 4.00 0.0006 0.0007 0.0007 0.000 0.002 0.000 
LATT 1 
SYMM -x, y+1/2, -z+1/2 
SFAC C H O BR 
UNIT 32 36 8 4 
TEMP -123.390 
SIZE 0.100 0.230 0.270 
ACTA 
L.S. 4 
FMAP 2 
PLAN 20 
HTAB 
BOND $H 
CONF 
WGHT    0.022100    0.267300 
FVAR       0.19905 
BR1   4    0.632111    0.091024    0.219296    11.00000    0.01806    0.02298 = 
         0.01875    0.00119    0.00326   -0.00226 
O1    3    0.299045   -0.044210    0.132873    11.00000    0.01888    0.01898 = 
         0.01254   -0.00313    0.00154   -0.00236 
O2    3    0.094444   -0.131742   -0.009233    11.00000    0.02617    0.02656 = 
         0.01901   -0.00660   -0.00225   -0.00175 
C1    1    0.449443    0.098160    0.314442    11.00000    0.01539    0.01680 = 
         0.01301    0.00293   -0.00105   -0.00092 
C2    1    0.419275    0.202402    0.395149    11.00000    0.02506    0.01733 = 
         0.01456    0.00005   -0.00172   -0.00401 
AFIX  43 
H2A   2    0.493971    0.271636    0.412437    11.00000   -1.20000 
AFIX   0 
C3    1    0.269491    0.213925    0.460209    11.00000    0.02858    0.02011 = 
         0.02004   -0.00701    0.00399    0.00109 
AFIX  23 
H3A   2    0.234194    0.307659    0.455043    11.00000   -1.20000 
H3B   2    0.286757    0.187031    0.566650    11.00000   -1.20000 
AFIX   0 
C4    1    0.144163    0.125548    0.374711    11.00000    0.02100    0.02081 = 
         0.01942   -0.00322    0.00476    0.00443 
AFIX  23 
H4A   2    0.050318    0.126965    0.425628    11.00000   -1.20000 
H4B   2    0.115397    0.161127    0.272445    11.00000   -1.20000 
AFIX   0 
C5    1    0.201011   -0.017383    0.365618    11.00000    0.01785    0.01639 = 
         0.01342    0.00161    0.00130   -0.00157 
AFIX  13 
H5A   2    0.218645   -0.058289    0.467470    11.00000   -1.20000 
AFIX   0 
C6    1    0.090557   -0.103564    0.259434    11.00000    0.01759    0.01920 = 
         0.01783   -0.00096    0.00096   -0.00264 
AFIX  23 
H6A   2    0.090019   -0.196352    0.296122    11.00000   -1.20000 
H6B   2   -0.016578   -0.068012    0.249331    11.00000   -1.20000 
AFIX   0 
C7    1    0.153725   -0.097035    0.112398    11.00000    0.01876    0.01287 = 
         0.01882   -0.00040    0.00000    0.00121 
C8    1    0.349821   -0.023742    0.292401    11.00000    0.01848    0.01336 = 
         0.01247   -0.00051   -0.00072    0.00111 
AFIX  13 
H8A   2    0.412288   -0.102471    0.332819    11.00000   -1.20000 
  
AFIX   0 
HKLF 4 1 1 0 0 0 1 0 0 0 1 
  
REM  mo_d16140_0m in P2(1)/c 
REM R1 =  0.0176 for    1586 Fo > 4sig(Fo)  and  0.0233 for all    1800 data 
REM    100 parameters refined using      0 restraints 
  
END 
  
WGHT      0.0214      0.2820 
  
REM Instructions for potential hydrogen bonds 
EQIV $1 -x+1, y+1/2, -z+1/2 
HTAB C2 O1_$1 
EQIV $2 -x+1, -y, -z+1 
HTAB C5 Br1_$2 
EQIV $3 x, -y-1/2, z+1/2 
HTAB C6 O2_$3 
EQIV $4 -x+1, y-1/2, -z+1/2 
HTAB C8 Br1_$4 
  
REM Highest difference peak  0.337,  deepest hole -0.430,  1-sigma level  0.070 
Q1    1   0.3993  0.0445  0.2984  11.00000  0.05    0.34 
Q2    1   0.1862  0.0564  0.3716  11.00000  0.05    0.31 
Q3    1   0.2675  0.0007  0.3240  11.00000  0.05    0.28 
Q4    1   0.4591  0.1257  0.3942  11.00000  0.05    0.26 
Q5    1   0.3227 -0.1583  0.4969  11.00000  0.05    0.24 
Q6    1   0.1399 -0.0469  0.3079  11.00000  0.05    0.22 
Q7    1   0.2214  0.1621  0.4198  11.00000  0.05    0.21 
Q8    1   0.2867  0.3911  0.4472  11.00000  0.05    0.21 
Q9    1   0.4059  0.1561  0.3179  11.00000  0.05    0.20 
Q10   1   0.3848  0.3573  0.5161  11.00000  0.05    0.20 
Q11   1  -0.0571  0.1766  0.4187  11.00000  0.05    0.19 
Q12   1   0.3228 -0.0327  0.2184  11.00000  0.05    0.19 
Q13   1   0.4961  0.3512  0.4518  11.00000  0.05    0.19 
Q14   1   0.2153 -0.0374  0.4039  11.00000  0.05    0.19 
Q15   1   0.1000 -0.1113 -0.0701  11.00000  0.05    0.18 
Q16   1   0.1029 -0.0973  0.1835  11.00000  0.05    0.18 
Q17   1   0.2269  0.0732  0.0663  11.00000  0.05    0.18 
Q18   1   0.0041 -0.1265 -0.0056  11.00000  0.05    0.18 
Q19   1  -0.1035 -0.1147 -0.0797  11.00000  0.05    0.18 
Q20   1  -0.0063  0.1036  0.4028  11.00000  0.05    0.17 
;
_shelx_res_checksum              38813
_shelx_hkl_file
; 
   1   0   0  194.94    6.40 
  -1   0   0  204.99    6.41 
   1   0   0  204.04    6.48 
  -1   0   0  196.77    6.40 
  -1   0   0  188.56    6.44 
  -2   0   0   53.32    1.81 
  -2   0   0   57.99    1.79 
   2   0   0   56.14    1.78 
  -2   0   0   56.23    1.80 
   2   0   0   48.24    1.79 
   2   0   0   51.43    1.81 
   3   0   0  176.35    5.81 
   3   0   0  174.26    5.85 
  -3   0   0  193.74    5.82 
  -3   0   0  183.85    5.83 
  -3   0   0  174.07    5.85 
  -4   0   0  581.30   18.48 
   4   0   0  529.13   18.41 
   4   0   0  573.27   18.71 
  -4   0   0  592.51   18.54 
  -4   0   0  571.94   18.47 
   4   0   0  596.27   18.43 
  -5   0   0   12.94    0.65 
   5   0   0   14.20    0.58 
   5   0   0   14.26    0.70 
  -5   0   0   14.56    0.60 
  -5   0   0   15.52    0.67 
   6   0   0    3.30    0.35 
  -6   0   0    3.73    0.37 
  -6   0   0    3.04    0.32 
  -6   0   0    3.37    0.40 
  -6   0   0    2.81    0.30 
  -7   0   0   83.84    2.84 
   7   0   0   86.46    2.88 
  -7   0   0   78.78    2.79 
   8   0   0   79.10    2.69 
  -8   0   0   73.39    2.67 
  -8   0   0   77.01    2.62 
   9   0   0    6.87    0.61 
  -9   0   0    6.48    0.51 
  -9   0   0    7.38    0.62 
  10   0   0   10.20    0.89 
 -10   0   0   10.84    0.81 
 -10   0   0    9.11    0.76 
 -11   0   0   65.28    2.48 
   0  -1   0   -0.08    0.04 
   0   1   0   -0.20    0.04 
   0   1   0   -0.17    0.04 
   1  -1   0   72.02    2.34 
  -1  -1   0   70.57    2.35 
  -1  -1   0   71.04    2.34 
  -1  -1   0   71.66    2.35 
   1  -1   0   77.67    2.37 
   1   1   0   71.92    2.34 
  -1   1   0   75.19    2.35 
  -1   1   0   72.63    2.36 
   1   1   0   71.74    2.34 
  -1   1   0   72.06    2.34 
  -1   1   0   71.53    2.34 
   1   1   0   73.83    2.35 
  -2  -1   0   18.42    0.65 
   2  -1   0   19.16    0.68 
   2  -1   0   20.11    0.67 
  -2  -1   0   19.63    0.68 
  -2  -1   0   20.03    0.67 
   2  -1   0   20.34    0.72 
  -2   1   0   19.43    0.68 
  -2   1   0   18.70    0.67 
  -2   1   0   19.66    0.71 
   2   1   0   18.77    0.67 
   2   1   0   19.44    0.68 
   2   1   0   18.98    0.68 
   2   1   0   18.82    0.66 
  -3  -1   0  107.50    3.27 
   3  -1   0   91.23    3.28 
  -3  -1   0   98.98    3.24 
  -3  -1   0  100.94    3.25 
  -3  -1   0  100.35    3.23 
   3  -1   0  101.77    3.25 
  -3   1   0   99.26    3.25 
   3   1   0  102.24    3.25 
  -3   1   0   92.85    3.28 
   3   1   0  102.75    3.26 
   3   1   0   96.10    3.22 
  -3   1   0  101.40    3.25 
  -4  -1   0   55.05    1.88 
   4  -1   0   56.82    1.92 
   4  -1   0   55.24    1.87 
  -4  -1   0   55.24    1.89 
   4  -1   0   56.62    1.86 
  -4  -1   0   56.03    1.84 
  -4   1   0   55.85    1.87 
   4   1   0   55.26    1.89 
   4   1   0   54.65    1.87 
   4   1   0   54.35    1.84 
  -4   1   0   54.19    1.92 
  -4   1   0   58.21    1.87 
   5  -1   0  115.33    3.82 
   5  -1   0  104.71    3.84 
  -5  -1   0  121.57    3.77 
  -5  -1   0  120.26    3.83 
  -5  -1   0  112.78    3.79 
  -5  -1   0  116.95    3.80 
  -5   1   0  118.23    3.80 
   5   1   0  111.29    3.76 
  -5   1   0  113.91    3.85 
   5   1   0  114.51    3.83 
  -5   1   0  120.89    3.79 
  -6  -1   0   73.70    2.54 
  -6  -1   0   75.94    2.57 
   6  -1   0   78.45    2.60 
  -6  -1   0   76.17    2.49 
   6   1   0   73.06    2.48 
  -6   1   0   76.22    2.54 
   6   1   0   70.53    2.56 
  -6   1   0   73.62    2.51 
  -7  -1   0   15.23    0.69 
  -7  -1   0   13.39    0.79 
   7  -1   0   15.31    0.81 
  -7   1   0   15.56    0.79 
  -7   1   0   15.53    0.73 
   7   1   0   12.77    0.79 
  -8  -1   0   21.56    0.93 
  -8  -1   0   21.66    1.04 
   8  -1   0   23.98    1.10 
  -8   1   0   19.39    1.03 
  -8   1   0   22.64    0.96 
   8   1   0   20.45    0.99 
  -9  -1   0   11.79    0.70 
  -9  -1   0    9.74    0.73 
   9  -1   0   11.17    0.90 
   9   1   0   10.06    0.84 
  -9   1   0   11.62    0.84 
  -9   1   0    9.92    0.73 
 -10  -1   0   22.59    1.17 
 -10  -1   0   21.42    1.00 
  10  -1   0   20.65    1.17 
 -10   1   0   20.21    1.03 
 -10   1   0   22.10    1.18 
 -11  -1   0    3.76    0.69 
 -11   1   0    2.70    0.57 
 -11   1   0    4.29    0.69 
   0  -2   0  304.33   10.21 
   0  -2   0  319.59   10.16 
   0  -2   0  333.48   10.26 
   0   2   0  308.73   10.23 
   0   2   0  315.00   10.19 
  -1  -2   0   34.00    1.12 
   1  -2   0   34.35    1.13 
  -1  -2   0   33.95    1.11 
  -1  -2   0   34.98    1.14 
   1  -2   0   34.37    1.12 
   1  -2   0   34.41    1.16 
   1  -2   0   33.86    1.14 
  -1  -2   0   34.25    1.13 
  -1   2   0   32.67    1.16 
   1   2   0   34.34    1.12 
   1   2   0   34.66    1.14 
  -1   2   0   35.98    1.14 
   1   2   0   33.52    1.13 
  -1   2   0   33.99    1.13 
   2  -2   0   36.93    1.25 
  -2  -2   0   35.46    1.21 
  -2  -2   0   35.60    1.19 
  -2  -2   0   36.65    1.21 
   2  -2   0   35.32    1.20 
   2   2   0   36.13    1.21 
  -2   2   0   35.31    1.24 
   2   2   0   35.51    1.20 
  -2   2   0   35.52    1.20 
  -2   2   0   35.95    1.21 
   2   2   0   34.89    1.19 
  -2   2   0   35.22    1.20 
  -3  -2   0   75.87    2.40 
   3  -2   0   74.08    2.41 
  -3  -2   0   72.22    2.37 
   3  -2   0   72.83    2.45 
   3  -2   0   73.87    2.40 
  -3  -2   0   72.72    2.41 
   3   2   0   72.80    2.40 
   3   2   0   75.51    2.40 
  -3   2   0   70.15    2.42 
   3   2   0   74.58    2.42 
  -3   2   0   70.86    2.40 
  -3   2   0   70.95    2.44 
   3   2   0   75.02    2.39 
   4  -2   0   80.98    2.69 
   4  -2   0   78.33    2.62 
   4  -2   0   80.07    2.62 
  -4  -2   0   73.48    2.61 
  -4  -2   0   78.71    2.58 
  -4  -2   0   82.65    2.63 
   4   2   0   80.50    2.60 
  -4   2   0   81.39    2.68 
  -4   2   0   79.10    2.62 
   4   2   0   77.24    2.62 
  -4   2   0   77.87    2.63 
   4   2   0   80.97    2.64 
   5  -2   0   10.28    0.61 
  -5  -2   0    9.80    0.43 
  -5  -2   0    9.64    0.49 
  -5  -2   0    9.82    0.54 
   5   2   0    9.76    0.51 
  -5   2   0    9.28    0.53 
  -5   2   0    9.47    0.48 
  -5   2   0   10.18    0.63 
   5   2   0    9.34    0.44 
   6  -2   0   33.16    1.31 
  -6  -2   0   32.79    1.26 
  -6  -2   0   33.51    1.16 
   6   2   0   32.76    1.26 
   6   2   0   33.33    1.17 
  -6   2   0   32.50    1.25 
  -6   2   0   33.76    1.26 
  -7  -2   0   43.09    1.54 
  -7  -2   0   43.81    1.49 
   7  -2   0   46.47    1.64 
   7   2   0   40.47    1.49 
   7   2   0   39.57    1.58 
  -7   2   0   42.84    1.56 
  -7   2   0   40.05    1.57 
  -8  -2   0    5.55    0.55 
   8  -2   0    5.55    0.54 
  -8  -2   0    6.02    0.42 
  -8   2   0    6.32    0.55 
   8   2   0    5.74    0.50 
  -8   2   0    5.80    0.50 
   9  -2   0   -0.46    0.49 
  -9  -2   0    0.19    0.51 
  -9  -2   0   -0.36    0.33 
  -9   2   0   -0.32    0.49 
  -9   2   0   -0.47    0.42 
   9   2   0   -0.23    0.40 
 -10  -2   0    1.93    0.61 
  10  -2   0    0.55    0.55 
 -10   2   0    0.72    0.49 
 -10   2   0    1.27    0.57 
 -11  -2   0    9.53    0.96 
 -11   2   0   10.54    0.75 
 -11   2   0   10.17    0.84 
   0  -3   0   -0.14    0.04 
   0  -3   0   -0.40    0.07 
   0  -3   0   -0.26    0.10 
   0  -3   0    0.00    0.14 
   0   3   0   -0.46    0.14 
   0   3   0    0.47    0.11 
   1  -3   0  768.30   25.12 
   1  -3   0  806.34   25.36 
  -1  -3   0  774.30   25.09 
   1  -3   0  752.10   25.04 
   1  -3   0  778.94   25.09 
  -1  -3   0  753.03   25.08 
  -1  -3   0  778.98   25.15 
   1   3   0  809.84   25.19 
   1   3   0  790.42   25.08 
   1   3   0  817.10   25.23 
  -1   3   0  763.05   25.18 
  -1   3   0  767.77   25.19 
   2  -3   0  350.18   11.44 
  -2  -3   0  350.47   11.43 
   2  -3   0  358.73   11.46 
  -2  -3   0  353.52   11.43 
   2  -3   0  345.52   11.48 
  -2   3   0  344.51   11.44 
   2   3   0  362.92   11.43 
   2   3   0  352.03   11.44 
  -2   3   0  380.81   11.48 
   2   3   0  356.34   11.43 
  -2   3   0  349.60   11.50 
  -2   3   0  365.89   11.45 
  -3  -3   0  129.64    4.13 
   3  -3   0  138.31    4.20 
   3  -3   0  128.20    4.12 
  -3  -3   0  127.30    4.12 
  -3  -3   0  127.52    4.13 
  -3   3   0  124.34    4.12 
  -3   3   0  121.41    4.12 
  -3   3   0  125.98    4.14 
   3   3   0  125.53    4.13 
  -3   3   0  119.80    4.17 
   3   3   0  129.27    4.12 
   3   3   0  127.19    4.11 
  -4  -3   0   67.87    2.22 
   4  -3   0   66.59    2.29 
  -4  -3   0   70.48    2.22 
   4  -3   0   67.52    2.20 
  -4  -3   0   63.87    2.16 
   4   3   0   63.56    2.21 
   4   3   0   65.91    2.18 
  -4   3   0   68.63    2.24 
  -4   3   0   64.23    2.20 
  -4   3   0   65.93    2.21 
   4   3   0   65.52    2.21 
  -4   3   0   63.60    2.27 
   4   3   0   66.98    2.23 
   5  -3   0  178.23    6.01 
  -5  -3   0  182.21    5.94 
  -5  -3   0  183.58    5.88 
   5   3   0  183.99    5.96 
  -5   3   0  181.62    5.93 
  -5   3   0  184.32    5.95 
   6  -3   0  149.18    4.92 
  -6  -3   0  149.24    4.85 
  -6  -3   0  143.97    4.78 
   6   3   0  148.75    4.87 
   6   3   0  145.49    4.79 
  -6   3   0  148.29    4.86 
  -6   3   0  146.36    4.84 
  -7  -3   0   52.75    1.89 
   7  -3   0   52.88    2.00 
  -7  -3   0   52.56    1.78 
  -7   3   0   53.02    1.88 
   7   3   0   51.48    1.89 
   7   3   0   51.00    1.79 
  -7   3   0   52.65    1.89 
  -8  -3   0   10.53    0.60 
  -8  -3   0   10.21    0.80 
   8  -3   0   11.26    0.85 
  -8   3   0   11.97    0.79 
  -8   3   0   11.17    0.78 
   8   3   0   12.16    0.77 
   9  -3   0   35.32    1.51 
  -9  -3   0   35.58    1.49 
  -9   3   0   36.04    1.43 
  -9   3   0   33.02    1.43 
   9   3   0   33.27    1.45 
  10  -3   0   58.99    2.31 
 -10  -3   0   60.46    2.25 
 -10   3   0   58.72    2.22 
 -10   3   0   57.23    2.19 
   0  -4   0  326.08   10.59 
   0  -4   0  339.52   10.61 
   0  -4   0  317.66   10.59 
   0   4   0  326.37   10.61 
   0   4   0  338.53   10.60 
   1  -4   0    1.18    0.18 
  -1  -4   0    0.78    0.17 
  -1  -4   0    0.54    0.10 
   1  -4   0    0.78    0.08 
  -1  -4   0    0.42    0.15 
  -1  -4   0    0.79    0.12 
  -1   4   0    0.81    0.19 
  -1   4   0    0.73    0.17 
   1   4   0    0.84    0.09 
   1   4   0    0.79    0.12 
   1   4   0    0.96    0.16 
  -2  -4   0   46.19    1.64 
   2  -4   0   49.31    1.60 
  -2  -4   0   48.17    1.64 
  -2  -4   0   48.22    1.62 
   2  -4   0   51.15    1.64 
  -2  -4   0   49.50    1.60 
   2  -4   0   48.49    1.65 
   2  -4   0   50.49    1.70 
  -2   4   0   50.18    1.66 
  -2   4   0   47.96    1.64 
   2   4   0   50.52    1.65 
   2   4   0   48.28    1.61 
  -2   4   0   46.99    1.68 
   3  -4   0    6.49    0.33 
  -3  -4   0    5.62    0.33 
  -3  -4   0    5.81    0.38 
   3  -4   0    6.29    0.49 
  -3  -4   0    6.47    0.27 
  -3  -4   0    6.52    0.37 
  -3   4   0    6.34    0.40 
   3   4   0    6.46    0.40 
  -3   4   0    6.68    0.44 
   3   4   0    6.35    0.35 
   4  -4   0  238.12    8.44 
  -4  -4   0  252.86    8.36 
   4  -4   0  263.88    8.36 
  -4  -4   0  268.31    8.38 
  -4  -4   0  263.82    8.32 
  -4   4   0  265.07    8.36 
  -4   4   0  258.17    8.37 
   4   4   0  263.75    8.38 
  -4   4   0  258.57    8.40 
  -5  -4   0    3.54    0.26 
  -5  -4   0    2.86    0.34 
   5  -4   0    2.93    0.41 
  -5   4   0    3.72    0.33 
   5   4   0    3.30    0.33 
  -5   4   0    3.76    0.32 
   5   4   0    3.47    0.28 
   5   4   0    3.69    0.34 
  -5   4   0    3.50    0.31 
  -6  -4   0   -0.43    0.32 
  -6  -4   0    0.18    0.18 
   6  -4   0   -0.12    0.37 
  -6   4   0   -0.26    0.30 
   6   4   0   -0.17    0.24 
  -6   4   0    0.67    0.37 
  -6   4   0    0.01    0.31 
   6   4   0    0.02    0.26 
  -7  -4   0   24.47    1.09 
   7  -4   0   26.92    1.27 
  -7  -4   0   24.92    0.93 
   7   4   0   24.71    1.06 
  -7   4   0   25.91    1.04 
  -7   4   0   26.30    1.05 
  -7   4   0   24.31    1.10 
   8  -4   0   49.29    1.85 
  -8  -4   0   44.44    1.74 
  -8   4   0   45.90    1.68 
  -8   4   0   43.97    1.70 
   8   4   0   44.00    1.74 
  -8   4   0   45.96    1.74 
   9  -4   0    1.61    0.60 
  -9  -4   0    2.77    0.58 
   9   4   0    2.26    0.48 
  -9   4   0    2.34    0.54 
  -9   4   0    2.41    0.51 
  -9   4   0    2.84    0.47 
  10  -4   0    6.11    0.74 
 -10  -4   0    8.80    0.75 
 -10   4   0    6.02    0.67 
   0  -5   0   -0.24    0.21 
   0  -5   0   -0.17    0.11 
   0  -5   0   -0.04    0.18 
   0  -5   0   -0.10    0.06 
   0   5   0    0.08    0.18 
   0   5   0   -0.19    0.20 
   0   5   0    0.00    0.21 
  -1  -5   0   78.44    2.55 
   1  -5   0   76.74    2.53 
  -1  -5   0   79.03    2.61 
  -1  -5   0   79.00    2.57 
   1  -5   0   79.20    2.61 
   1  -5   0   80.16    2.60 
   1   5   0   77.95    2.61 
  -1   5   0   78.88    2.61 
   1   5   0   79.21    2.54 
  -1   5   0   79.51    2.60 
   1   5   0   76.93    2.56 
  -2  -5   0   56.65    1.91 
   2  -5   0   58.56    1.89 
  -2  -5   0   57.08    1.95 
  -2  -5   0   56.93    1.90 
  -2   5   0   59.99    1.97 
  -2   5   0   57.15    1.95 
   2   5   0   57.60    1.90 
   2   5   0   59.88    1.97 
  -3  -5   0    0.66    0.21 
  -3  -5   0    0.87    0.21 
   3  -5   0    1.20    0.31 
  -3  -5   0    0.72    0.13 
   3  -5   0    1.08    0.17 
  -3   5   0    0.94    0.22 
   3   5   0    0.86    0.17 
   3   5   0    1.25    0.27 
   3   5   0    0.88    0.22 
  -3   5   0    0.85    0.24 
  -4  -5   0    0.94    0.13 
  -4  -5   0    0.88    0.24 
  -4  -5   0    0.46    0.26 
   4  -5   0    1.27    0.22 
   4  -5   0    1.35    0.36 
  -4   5   0    0.90    0.31 
   4   5   0    1.43    0.29 
   4   5   0    1.05    0.23 
  -4   5   0    1.15    0.28 
  -5  -5   0   35.05    1.16 
   5  -5   0   35.88    1.42 
  -5  -5   0   32.55    1.27 
   5   5   0   35.52    1.29 
  -5   5   0   35.69    1.29 
  -5   5   0   32.92    1.33 
   5   5   0   35.20    1.24 
   6  -5   0    9.05    0.78 
  -6  -5   0    8.24    0.40 
  -6  -5   0    8.73    0.63 
  -6   5   0    7.97    0.59 
   6   5   0    8.76    0.60 
  -6   5   0    8.98    0.61 
   6   5   0    9.67    0.65 
  -7  -5   0    2.26    0.34 
   7  -5   0    1.61    0.52 
  -7  -5   0    2.03    0.44 
  -7   5   0    2.23    0.47 
   7   5   0    2.20    0.41 
  -7   5   0    2.00    0.41 
   8  -5   0   -0.44    0.50 
  -8  -5   0   -0.16    0.44 
  -8   5   0   -0.04    0.49 
   8   5   0   -0.04    0.40 
  -8   5   0    0.08    0.43 
  -9  -5   0    6.49    0.64 
   9  -5   0    4.90    0.72 
  -9   5   0    5.45    0.65 
  -9   5   0    5.58    0.56 
  10  -5   0   -0.15    0.65 
 -10  -5   0    1.38    0.60 
 -10   5   0    0.44    0.57 
   0  -6   0  276.61    8.88 
   0  -6   0  273.63    8.96 
   0  -6   0  281.04    8.94 
   0   6   0  278.13    8.96 
   0   6   0  275.66    8.93 
   1  -6   0  101.49    3.25 
  -1  -6   0   97.60    3.31 
   1  -6   0   98.33    3.25 
  -1  -6   0  101.94    3.27 
   1  -6   0   98.74    3.36 
  -1  -6   0  102.56    3.35 
   1   6   0  103.73    3.31 
  -1   6   0  102.81    3.34 
   1   6   0  104.05    3.35 
  -1   6   0  102.71    3.35 
  -2  -6   0    0.50    0.27 
   2  -6   0    0.76    0.12 
  -2  -6   0    0.41    0.16 
  -2  -6   0    0.43    0.16 
   2   6   0    0.36    0.28 
  -2   6   0    0.80    0.27 
  -2   6   0    0.34    0.27 
   2   6   0    0.86    0.14 
  -3  -6   0   83.97    2.90 
   3  -6   0   90.88    2.88 
  -3  -6   0   88.15    2.92 
  -3  -6   0   90.25    2.87 
  -3   6   0   89.00    2.96 
  -3   6   0   85.54    2.94 
   3   6   0   87.74    2.89 
   3   6   0   89.85    2.95 
  -4  -6   0  155.88    5.18 
   4  -6   0  164.45    5.30 
   4  -6   0  160.03    5.15 
  -4  -6   0  153.58    5.18 
  -4  -6   0  158.60    5.12 
   4   6   0  164.04    5.21 
  -4   6   0  152.61    5.19 
  -4   6   0  161.52    5.23 
  -5  -6   0   21.75    0.76 
  -5  -6   0   21.75    0.75 
   5  -6   0   21.48    1.10 
  -5  -6   0   21.88    0.87 
  -5  -6   0   21.08    0.89 
   5   6   0   20.61    0.92 
  -5   6   0   21.22    1.00 
  -5   6   0   21.96    0.91 
  -6  -6   0    5.13    0.47 
  -6  -6   0    5.76    0.32 
   6  -6   0    5.14    0.60 
   6   6   0    5.92    0.53 
  -6   6   0    5.05    0.54 
   6   6   0    5.27    0.47 
  -6   6   0    4.94    0.45 
   7  -6   0   39.17    1.69 
  -7  -6   0   39.55    1.55 
  -7   6   0   38.83    1.58 
   7   6   0   39.83    1.55 
  -7   6   0   38.06    1.47 
  -8  -6   0   55.18    2.02 
   8  -6   0   53.77    2.18 
  -8   6   0   54.26    1.99 
  -8   6   0   54.33    2.09 
   8   6   0   54.81    2.05 
   9  -6   0    7.59    0.85 
  -9  -6   0    8.48    0.71 
  -9   6   0    7.89    0.63 
  -9   6   0    7.30    0.74 
   0  -7   0    0.11    0.30 
   0   7   0    0.24    0.21 
   0   7   0   -0.03    0.30 
  -1  -7   0   33.21    1.19 
   1  -7   0   31.90    1.27 
  -1  -7   0   33.98    1.24 
  -1  -7   0   33.41    1.11 
   1   7   0   32.94    1.25 
   1   7   0   33.54    1.17 
  -1   7   0   34.46    1.22 
  -1   7   0   35.18    1.23 
   2  -7   0   40.00    1.44 
  -2  -7   0   39.24    1.32 
  -2  -7   0   36.73    1.29 
  -2  -7   0   37.10    1.37 
   2  -7   0   38.27    1.26 
  -2   7   0   38.24    1.40 
   2   7   0   38.48    1.28 
   2   7   0   38.57    1.41 
  -2   7   0   38.63    1.40 
  -3  -7   0   83.14    2.79 
  -3  -7   0   82.08    2.74 
   3  -7   0   84.90    2.70 
   3   7   0   83.56    2.81 
  -3   7   0   81.99    2.80 
  -3   7   0   83.06    2.80 
   3   7   0   81.31    2.72 
  -4  -7   0    1.61    0.34 
  -4  -7   0    1.63    0.30 
   4  -7   0    1.52    0.23 
  -4  -7   0    1.65    0.20 
  -4   7   0    1.95    0.41 
  -4   7   0    1.73    0.37 
   4   7   0    1.93    0.38 
  -5  -7   0   44.67    1.57 
  -5  -7   0   44.80    1.55 
   5  -7   0   46.06    1.79 
   5   7   0   38.95    1.60 
  -5   7   0   43.04    1.61 
  -5   7   0   42.58    1.65 
   6  -7   0   59.55    2.30 
  -6  -7   0   60.04    2.10 
   6   7   0   60.30    2.13 
  -6   7   0   57.59    2.10 
  -6   7   0   60.02    2.19 
   7  -7   0   35.57    1.64 
  -7  -7   0   35.71    1.40 
   7   7   0   34.86    1.41 
  -7   7   0   34.97    1.38 
  -7   7   0   33.58    1.50 
   7   7   0   35.29    1.43 
  -8  -7   0    2.20    0.51 
   8  -7   0    0.42    0.64 
  -8   7   0    1.30    0.52 
  -8   7   0    2.07    0.60 
   8   7   0    2.43    0.50 
  -9  -7   0   16.07    1.02 
   9  -7   0   14.09    1.22 
  -9   7   0   13.11    0.92 
   0  -8   0    0.99    0.37 
   0   8   0    0.53    0.26 
   0   8   0    1.10    0.37 
  -1  -8   0   19.72    0.66 
  -1  -8   0   20.05    0.92 
   1  -8   0   19.32    0.92 
   1   8   0   19.40    0.90 
  -1   8   0   19.93    0.87 
  -1   8   0   19.99    0.90 
   1   8   0   20.06    0.79 
  -2  -8   0    1.19    0.24 
   2  -8   0    1.06    0.44 
  -2  -8   0    1.25    0.39 
  -2  -8   0    1.25    0.18 
  -2   8   0    1.28    0.35 
   2   8   0    1.37    0.39 
  -2   8   0    1.52    0.39 
   3  -8   0   17.34    0.91 
  -3  -8   0   16.27    0.71 
  -3  -8   0   16.57    0.78 
  -3  -8   0   16.60    0.69 
  -3   8   0   15.88    0.85 
   3   8   0   16.44    0.66 
   3   8   0   16.31    0.77 
  -3   8   0   16.55    0.83 
  -4  -8   0    0.66    0.30 
  -4  -8   0    1.59    0.38 
  -4   8   0    1.66    0.41 
   4   8   0    0.70    0.42 
  -4   8   0    1.49    0.43 
  -5  -8   0    0.76    0.36 
  -5  -8   0    0.98    0.35 
  -5   8   0    0.92    0.37 
   5   8   0    0.45    0.44 
  -5   8   0    1.23    0.43 
  -6  -8   0    0.20    0.39 
   6   8   0   -0.35    0.43 
  -6   8   0    0.32    0.48 
  -6   8   0    0.09    0.51 
  -7  -8   0   -0.48    0.45 
  -7   8   0    0.06    0.56 
   7   8   0   -0.06    0.46 
  -7   8   0    0.45    0.51 
   7   8   0   -0.05    0.51 
  -8  -8   0   -0.15    0.53 
  -8   8   0    0.01    0.47 
  -8   8   0   -0.25    0.48 
   0  -9   0    0.00    0.40 
   0   9   0   -0.01    0.31 
   0   9   0   -0.04    0.28 
  -1  -9   0   16.68    0.86 
   1  -9   0   17.33    0.90 
  -1   9   0   17.17    0.79 
  -1   9   0   15.94    0.87 
   1   9   0   17.74    0.89 
   2  -9   0   38.07    1.51 
  -2  -9   0   39.32    1.44 
  -2  -9   0   37.22    1.34 
  -2   9   0   36.53    1.45 
  -2   9   0   38.05    1.46 
   2   9   0   35.62    1.46 
  -3  -9   0   26.81    1.11 
  -3  -9   0   26.93    0.97 
   3  -9   0   26.14    1.23 
  -3   9   0   28.07    1.16 
  -3   9   0   25.35    1.14 
   3   9   0   25.38    1.15 
  -4  -9   0    1.33    0.31 
  -4  -9   0    1.30    0.43 
   4  -9   0    0.89    0.55 
  -4   9   0    1.55    0.47 
   4   9   0    1.30    0.46 
  -4   9   0    1.14    0.45 
  -5  -9   0   71.11    2.46 
  -5  -9   0   72.07    2.50 
  -5   9   0   71.45    2.58 
  -5   9   0   70.72    2.54 
   5   9   0   73.30    2.56 
  -6  -9   0   43.07    1.65 
  -6  -9   0   43.31    1.68 
  -6   9   0   43.92    1.76 
   6   9   0   49.32    1.80 
  -6   9   0   43.57    1.81 
  -7  -9   0    8.51    0.64 
   7   9   0    7.10    0.66 
  -7   9   0    9.07    0.78 
   7   9   0    8.56    0.75 
  -7   9   0    7.90    0.68 
  -8   9   0   -0.23    0.71 
  -8   9   0   -0.21    0.58 
   0 -10   0  122.31    4.22 
   0  10   0  129.36    4.15 
   0  10   0  124.00    4.22 
  -1 -10   0   32.10    1.34 
   1 -10   0   32.11    1.38 
   1  10   0   30.63    1.35 
  -1  10   0   34.54    1.27 
  -1  10   0   32.67    1.36 
   2 -10   0    0.27    0.52 
  -2 -10   0    0.36    0.43 
   2  10   0    0.38    0.38 
  -2  10   0    0.47    0.39 
  -2  10   0    0.58    0.45 
  -3 -10   0   11.03    0.84 
   3 -10   0   11.25    0.94 
   3  10   0   11.93    0.87 
  -3  10   0   11.43    0.83 
  -3  10   0   12.40    0.91 
   4 -10   0   59.61    2.14 
  -4 -10   0   55.70    2.05 
  -4  10   0   55.57    2.08 
   4  10   0   54.30    2.09 
  -4  10   0   55.32    2.11 
   5 -10   0   21.57    1.30 
  -5 -10   0   22.77    1.07 
  -5  10   0   22.25    1.21 
  -5  10   0   23.07    1.13 
   5  10   0   22.33    1.16 
   6 -10   0   -1.17    0.68 
  -6  10   0   -0.66    0.59 
  -6  10   0   -0.78    0.59 
   6  10   0    0.57    0.56 
   7 -10   0   15.03    1.13 
   7  10   0   13.07    1.02 
  -7  10   0   14.64    1.15 
   7  10   0   14.91    1.01 
  -7  10   0   12.10    0.89 
   0 -11   0    0.41    0.53 
   0  11   0    0.12    0.49 
   0  11   0    0.53    0.35 
  -1 -11   0    1.06    0.51 
   1 -11   0    0.63    0.57 
  -1  11   0    1.22    0.54 
   1  11   0    0.44    0.52 
  -1  11   0    0.91    0.40 
  -2 -11   0    1.24    0.50 
   2 -11   0    1.70    0.60 
   2  11   0    1.79    0.55 
  -2  11   0    1.24    0.53 
  -2  11   0    1.39    0.45 
   3 -11   0   -1.39    0.62 
  -3 -11   0   -0.15    0.48 
  -3  11   0    0.13    0.46 
  -3  11   0    0.21    0.52 
   3  11   0    0.27    0.53 
   4 -11   0    0.50    0.65 
  -4 -11   0    0.67    0.52 
   4  11   0    0.80    0.58 
  -4  11   0    0.89    0.55 
  -4  11   0    0.27    0.54 
  -5 -11   0    2.94    0.55 
   5 -11   0    1.95    0.73 
  -5  11   0    2.94    0.66 
   5  11   0    1.42    0.61 
  -5  11   0    2.62    0.61 
   6 -11   0    2.90    0.94 
  -6  11   0    2.88    0.70 
  -6  11   0    3.06    0.64 
   6  11   0    3.33    0.67 
   0 -12   0    8.82    0.76 
   0  12   0    7.53    0.75 
   1 -12   0   13.95    1.05 
  -1 -12   0   13.15    1.05 
  -1  12   0   13.79    0.89 
  -1  12   0   12.61    1.00 
   1  12   0   12.74    1.00 
  -2 -12   0   -0.05    0.54 
   2 -12   0    0.62    0.64 
  -2  12   0   -0.08    0.45 
  -2  12   0    0.06    0.56 
   2  12   0    0.19    0.57 
  -3 -12   0    9.82    0.75 
   3 -12   0    9.20    0.91 
  -3  12   0    8.68    0.72 
  -3  12   0   10.47    0.85 
   3  12   0    9.76    0.80 
  -4 -12   0   18.68    1.04 
   4 -12   0   16.82    1.25 
  -4  12   0   18.06    1.12 
  -4  12   0   16.73    1.14 
   4  12   0   17.64    1.15 
   0 -13   0   -0.29    0.63 
   0  13   0    0.17    0.62 
  -1 -13   0   37.03    1.65 
   1 -13   0   40.04    1.71 
  -1  13   0   38.35    1.68 
  -1  13   0   35.33    1.56 
 -11   0   1    0.04    0.63 
 -10   0   1   -0.82    0.42 
  10   0  -1   -0.40    0.54 
 -10   0   1    0.30    0.53 
  -9   0   1   -0.35    0.38 
  -9   0   1   -0.41    0.48 
   9   0  -1   -0.45    0.47 
  -8   0   1    0.27    0.30 
  -8   0   1   -0.33    0.43 
   8   0  -1   -0.51    0.39 
  -7   0   1    0.22    0.37 
  -7   0   1   -0.28    0.25 
   7   0  -1   -0.18    0.39 
  -7   0   1   -0.20    0.29 
   6   0  -1   -0.33    0.31 
  -6   0   1   -0.28    0.30 
  -6   0   1   -0.11    0.24 
  -6   0   1    0.12    0.22 
   6   0  -1   -0.10    0.21 
   5   0  -1   -0.06    0.26 
  -5   0   1   -0.17    0.17 
  -5   0   1   -0.21    0.26 
  -5   0   1    0.04    0.26 
   5   0  -1    0.50    0.16 
  -5   0   1   -0.20    0.17 
   4   0  -1    0.10    0.14 
  -4   0   1    0.07    0.14 
   4   0  -1   -0.07    0.10 
   4   0  -1   -0.08    0.23 
  -4   0   1    0.02    0.22 
  -4   0   1    0.01    0.14 
  -4   0   1   -0.28    0.20 
  -3   0   1   -0.19    0.12 
   3   0  -1   -0.11    0.10 
  -3   0   1   -0.26    0.18 
  -3   0   1   -0.05    0.12 
  -3   0   1    0.17    0.11 
   3   0  -1   -0.33    0.19 
  -2   0   1   -0.90    0.12 
   2   0  -1   -0.38    0.16 
  -2   0   1   -0.28    0.13 
  -2   0   1   -0.36    0.09 
   1   0  -1   -0.02    0.10 
   1   0  -1   -0.04    0.05 
  -1   0   1   -0.03    0.02 
  -1   0   1   -0.05    0.05 
   0   0  -1   -0.20    0.06 
   1   0   1    0.10    0.08 
  -1   0  -1    0.03    0.08 
  -1   0  -1    0.01    0.03 
   1   0   1   -0.03    0.04 
  -2   0  -1    0.03    0.10 
   2   0   1   -0.08    0.11 
  -2   0  -1   -0.21    0.12 
  -2   0  -1   -0.15    0.12 
   2   0   1   -0.23    0.11 
   2   0   1    0.12    0.09 
  -3   0  -1    0.15    0.17 
   3   0   1    0.08    0.14 
  -3   0  -1    0.07    0.15 
   3   0   1    0.04    0.05 
   3   0   1   -0.10    0.13 
  -3   0  -1   -0.12    0.13 
  -4   0  -1   -0.37    0.19 
  -4   0  -1   -0.11    0.23 
  -4   0  -1   -0.17    0.17 
   4   0   1   -0.30    0.16 
   4   0   1   -0.37    0.18 
   4   0   1   -0.06    0.18 
   5   0   1   -0.14    0.22 
  -5   0  -1    0.14    0.27 
   5   0   1    0.48    0.23 
  -5   0  -1    0.15    0.22 
  -5   0  -1    0.01    0.21 
   6   0   1   -0.22    0.26 
  -6   0  -1    0.24    0.33 
  -6   0  -1   -0.18    0.28 
  -6   0  -1   -0.40    0.25 
   7   0   1   -0.32    0.31 
  -7   0  -1   -0.38    0.33 
  -7   0  -1   -0.31    0.30 
  -8   0  -1    0.06    0.35 
   8   0   1   -0.41    0.36 
  -8   0  -1   -0.41    0.43 
  -9   0  -1   -0.35    0.39 
  -9   0  -1   -0.44    0.51 
   9   0   1   -0.83    0.39 
 -10   0  -1   -0.08    0.43 
 -10   0  -1    0.61    0.58 
 -11   0  -1    0.09    0.75 
 -11  -1   1    1.59    0.63 
  11  -1  -1    0.46    0.75 
  10  -1  -1   38.76    1.69 
 -10  -1   1   42.17    1.69 
 -10   1   1   40.22    1.59 
  10   1  -1   40.59    1.72 
 -10   1   1   38.62    1.57 
   9  -1  -1   89.95    3.10 
  -9  -1   1   86.80    2.93 
  -9  -1   1   87.00    3.00 
  -9   1   1   89.15    2.97 
   9   1  -1   84.20    3.09 
  -9   1   1   84.61    3.03 
  -8  -1   1   17.42    0.77 
  -8  -1   1   16.86    0.91 
   8  -1  -1   16.78    0.97 
   8   1  -1   17.44    1.00 
  -8   1   1   16.00    0.85 
  -8   1   1   17.00    0.91 
   7  -1  -1   30.17    1.28 
  -7  -1   1   29.34    1.10 
  -7  -1   1   29.85    1.21 
  -7   1   1   31.34    1.20 
   7   1  -1   29.83    1.25 
  -7   1   1   30.11    1.17 
  -6  -1   1  181.58    5.95 
  -6  -1   1  185.26    6.00 
  -6  -1   1  190.82    5.95 
   6  -1  -1  179.00    6.06 
  -6   1   1  183.43    6.00 
   6   1  -1  182.83    5.94 
   6   1  -1  176.98    6.04 
  -6   1   1  188.03    5.98 
   5  -1  -1   47.11    1.62 
  -5  -1   1   47.63    1.65 
  -5  -1   1   46.30    1.59 
  -5  -1   1   44.91    1.69 
   5  -1  -1   48.79    1.73 
   5   1  -1   48.43    1.70 
  -5   1   1   48.59    1.62 
   5   1  -1   47.70    1.58 
  -5   1   1   47.41    1.65 
   4  -1  -1   54.36    1.92 
  -4  -1   1   57.30    1.97 
   4  -1  -1   58.56    1.91 
  -4  -1   1   58.32    1.92 
   4  -1  -1   60.18    2.01 
  -4  -1   1   59.22    1.89 
  -4  -1   1   56.94    1.88 
  -4   1   1   50.06    1.90 
   4   1  -1   60.35    1.98 
   4   1  -1   58.50    1.92 
   4   1  -1   55.52    1.88 
  -4   1   1   58.25    1.93 
  -4   1   1   58.30    2.00 
  -3  -1   1    4.25    0.20 
  -3  -1   1    3.80    0.22 
  -3  -1   1    4.15    0.24 
   3  -1  -1    4.09    0.24 
   3  -1  -1    3.18    0.30 
  -3  -1   1    4.32    0.32 
   3   1  -1    4.02    0.22 
  -3   1   1    3.55    0.26 
   3   1  -1    3.98    0.27 
  -3   1   1    4.08    0.24 
   3   1  -1    4.11    0.20 
  -3   1   1    4.24    0.37 
   3   1  -1    3.96    0.33 
  -2  -1   1  385.90   11.51 
  -2  -1   1  359.57   11.53 
   2  -1  -1  348.38   11.47 
   2  -1  -1  353.80   11.64 
   2  -1  -1  352.63   11.50 
  -2  -1   1  355.43   11.55 
   2   1  -1  362.32   11.65 
  -2   1   1  349.82   11.47 
   2   1  -1  344.99   11.56 
   2   1  -1  360.34   11.56 
  -2   1   1  360.72   11.53 
   2   1  -1  349.10   11.47 
  -2   1   1  340.32   11.52 
   2   1  -1  381.82   11.52 
  -1  -1   1    9.28    0.33 
   1  -1  -1    9.85    0.33 
   1  -1  -1    9.49    0.39 
   1  -1  -1    9.06    0.34 
  -1  -1   1    9.81    0.36 
  -1   1   1   10.00    0.38 
   1   1  -1    9.85    0.36 
   1   1  -1    9.15    0.33 
  -1   1   1    9.56    0.33 
  -1   1   1    9.51    0.35 
   0  -1  -1   15.38    0.54 
   0  -1   1   15.45    0.54 
   0  -1  -1   15.81    0.55 
   0  -1   1   15.26    0.55 
   0   1  -1   15.42    0.54 
   0   1  -1   15.35    0.54 
   0   1  -1   15.39    0.54 
   0   1   1   16.67    0.56 
   0   1   1   15.83    0.54 
   1  -1   1    1.41    0.10 
  -1  -1  -1    1.27    0.11 
   1  -1   1    0.96    0.11 
   1  -1   1    1.42    0.11 
   1   1   1    1.08    0.10 
  -1   1  -1    1.38    0.13 
  -1   1  -1    1.26    0.12 
   1   1   1    1.38    0.12 
  -1   1  -1    1.42    0.11 
   2  -1   1  352.59   11.60 
   2  -1   1  345.14   11.61 
  -2  -1  -1  381.41   11.63 
   2  -1   1  311.86   11.64 
  -2  -1  -1  367.46   11.70 
   2   1   1  373.25   11.72 
   2   1   1  375.83   11.62 
  -2   1  -1  357.21   11.61 
  -2   1  -1  355.92   11.64 
  -2   1  -1  385.73   11.73 
   2   1   1  373.61   11.63 
  -3  -1  -1  146.85    4.78 
   3  -1   1  142.47    4.79 
  -3  -1  -1  149.93    4.80 
   3  -1   1  149.66    4.80 
  -3   1  -1  148.37    4.79 
  -3   1  -1  148.84    4.81 
   3   1   1  147.88    4.79 
  -3   1  -1  149.73    4.80 
   4  -1   1    2.30    0.23 
  -4  -1  -1    2.18    0.27 
   4  -1   1    2.38    0.23 
  -4  -1  -1    2.72    0.28 
   4  -1   1    2.04    0.24 
  -4  -1  -1    2.47    0.22 
  -4   1  -1    2.62    0.26 
   4   1   1    1.15    0.21 
   4   1   1    2.30    0.22 
  -4   1  -1    2.41    0.25 
  -4   1  -1    2.49    0.25 
  -5  -1  -1  181.07    5.72 
  -5  -1  -1  173.80    5.75 
   5  -1   1  177.91    5.76 
  -5   1  -1  173.86    5.77 
  -5   1  -1  172.05    5.74 
  -5   1  -1  182.49    5.75 
   5   1   1  173.58    5.74 
   6  -1   1  196.95    6.30 
  -6  -1  -1  180.18    6.24 
  -6  -1  -1  187.44    6.28 
  -6   1  -1  194.16    6.27 
  -6   1  -1  189.61    6.27 
  -6   1  -1  194.25    6.31 
   6   1   1  203.26    6.29 
  -7  -1  -1   53.38    1.80 
   7  -1   1   51.07    1.88 
  -7  -1  -1   52.00    1.84 
  -7   1  -1   52.68    1.84 
  -7   1  -1   50.81    1.86 
   7   1   1   50.66    1.85 
  -8  -1  -1    0.03    0.45 
   8  -1   1   -0.03    0.37 
  -8  -1  -1   -0.01    0.36 
  -8   1  -1    0.75    0.39 
   8   1   1    0.25    0.35 
  -8   1  -1   -0.46    0.45 
   9  -1   1   40.64    1.62 
  -9  -1  -1   41.26    1.55 
  -9  -1  -1   41.72    1.66 
   9   1   1   41.29    1.59 
  -9   1  -1   40.44    1.65 
  -9   1  -1   40.32    1.61 
 -10  -1  -1   30.64    1.38 
 -10  -1  -1   28.64    1.20 
 -10   1  -1   26.44    1.36 
 -10   1  -1   28.08    1.26 
 -11   1  -1    7.66    0.90 
 -11  -2   1   27.75    1.39 
  11  -2  -1   25.11    1.47 
 -11   2   1   26.75    1.24 
 -10  -2   1   34.43    1.56 
  10  -2  -1   36.67    1.69 
  10   2  -1   37.76    1.62 
 -10   2   1   37.26    1.53 
   9  -2  -1    1.16    0.51 
  -9  -2   1    1.11    0.33 
  -9  -2   1    1.44    0.53 
  -9   2   1    0.83    0.42 
   9   2  -1    1.93    0.52 
  -9   2   1    1.72    0.51 
   8  -2  -1   92.37    3.27 
  -8  -2   1   91.71    3.08 
  -8  -2   1   94.86    3.20 
  -8   2   1   93.96    3.17 
   8   2  -1   92.85    3.23 
  -8   2   1   93.37    3.19 
  -7  -2   1  100.55    3.38 
  -7  -2   1  101.90    3.31 
   7  -2  -1  105.20    3.49 
  -7   2   1  101.30    3.38 
   7   2  -1   96.99    3.43 
  -7   2   1   98.30    3.39 
  -6  -2   1    1.74    0.22 
  -6  -2   1    1.81    0.28 
  -6  -2   1    1.55    0.28 
   6  -2  -1    2.19    0.41 
  -6   2   1    1.84    0.31 
   6   2  -1    1.53    0.36 
  -6   2   1    1.69    0.34 
   6   2  -1    2.20    0.34 
  -5  -2   1   52.70    1.84 
  -5  -2   1   55.61    1.81 
  -5  -2   1   53.95    1.88 
   5  -2  -1   55.14    1.98 
   5   2  -1   54.45    1.92 
   5   2  -1   52.71    1.86 
  -5   2   1   56.09    1.88 
  -5   2   1   58.61    1.88 
   4  -2  -1  186.02    5.84 
   4  -2  -1  180.47    5.84 
  -4  -2   1  155.76    5.81 
   4  -2  -1  182.98    5.92 
  -4  -2   1  184.61    5.84 
  -4  -2   1  174.32    5.79 
  -4   2   1  184.57    5.84 
   4   2  -1  176.01    5.87 
   4   2  -1  189.37    5.82 
   4   2  -1  179.97    5.84 
  -4   2   1  177.53    5.91 
  -4   2   1  185.36    5.81 
  -4   2   1  184.22    5.84 
  -3  -2   1  353.21   11.40 
  -3  -2   1  349.03   11.42 
  -3  -2   1  367.73   11.42 
   3  -2  -1  342.68   11.48 
   3  -2  -1  366.35   11.42 
   3   2  -1  362.43   11.42 
   3   2  -1  355.13   11.42 
  -3   2   1  371.99   11.49 
  -3   2   1  346.96   11.48 
   3   2  -1  324.39   11.44 
  -3   2   1  350.77   11.42 
   3   2  -1  372.24   11.51 
  -2  -2   1   12.06    0.46 
   2  -2  -1   13.46    0.47 
   2  -2  -1   12.64    0.56 
   2  -2  -1   11.41    0.44 
  -2  -2   1   12.62    0.47 
   2  -2  -1   13.14    0.45 
  -2  -2   1   11.96    0.45 
   2   2  -1   12.07    0.47 
  -2   2   1   12.69    0.44 
  -2   2   1   10.64    0.51 
   2   2  -1   12.38    0.46 
   2   2  -1   12.68    0.45 
  -2   2   1   12.27    0.48 
  -1  -2   1   35.98    1.23 
   1  -2  -1   36.45    1.23 
  -1  -2   1   37.55    1.24 
   1  -2  -1   39.04    1.27 
  -1  -2   1   37.56    1.20 
   1  -2  -1   37.18    1.22 
  -1   2   1   36.98    1.24 
  -1   2   1   37.22    1.22 
   1   2  -1   36.77    1.21 
   1   2  -1   35.86    1.23 
  -1   2   1   38.40    1.26 
   1   2  -1   36.97    1.20 
   1   2  -1   37.15    1.23 
   0  -2  -1  354.10   11.63 
   0  -2  -1  351.45   11.54 
   0  -2  -1  369.27   11.58 
   0  -2  -1  358.43   11.50 
   0  -2   1  365.98   11.61 
   0  -2   1  366.25   11.56 
   0  -2   1  347.90   11.55 
   0   2   1  352.77   11.59 
   0   2  -1  345.76   11.55 
   0   2  -1  378.38   11.61 
   0   2   1  347.31   11.58 
   1  -2   1  900.96   30.90 
  -1  -2  -1  969.67   30.88 
   1  -2   1  980.36   30.97 
   1  -2   1  957.18   30.81 
  -1   2  -1  975.40   31.01 
   1   2   1 1000.00   30.87 
  -1   2  -1  932.90   30.81 
  -1   2  -1  960.95   30.90 
  -1   2  -1  964.91   30.94 
   1   2   1  955.12   30.94 
   2  -2   1    0.01    0.10 
   2  -2   1   -0.11    0.02 
  -2  -2  -1    0.12    0.13 
  -2  -2  -1   -0.10    0.11 
   2  -2   1    0.12    0.15 
  -2  -2  -1   -0.01    0.07 
  -2   2  -1    0.18    0.13 
   2   2   1   -0.17    0.15 
   2   2   1   -0.04    0.12 
  -2   2  -1    0.19    0.13 
   2   2   1    0.03    0.07 
  -2   2  -1    0.12    0.12 
  -3  -2  -1   11.48    0.51 
   3  -2   1   10.76    0.50 
   3  -2   1   11.92    0.53 
  -3  -2  -1   12.22    0.47 
  -3   2  -1   12.15    0.49 
  -3   2  -1   11.90    0.52 
  -3   2  -1   11.46    0.52 
   3   2   1   11.52    0.48 
   3   2   1   11.68    0.42 
   3   2   1   12.36    0.46 
   4  -2   1  276.95    8.79 
  -4  -2  -1  278.42    8.77 
  -4  -2  -1  265.30    8.73 
   4  -2   1  267.22    8.75 
   4   2   1  272.58    8.73 
  -4   2  -1  267.57    8.76 
   4   2   1  273.97    8.75 
  -4   2  -1  274.16    8.77 
  -4   2  -1  266.89    8.79 
  -5  -2  -1  150.69    4.92 
  -5  -2  -1  156.65    4.89 
   5  -2   1  144.01    4.94 
   5   2   1  152.02    4.86 
   5   2   1  154.14    4.92 
  -5   2  -1  155.33    4.92 
  -5   2  -1  148.27    4.93 
  -5   2  -1  142.93    4.95 
   6  -2   1   18.23    0.87 
  -6  -2  -1   18.38    0.75 
  -6  -2  -1   19.28    0.84 
   6   2   1   17.50    0.79 
  -6   2  -1   17.65    0.81 
   6   2   1   18.47    0.69 
  -6   2  -1   18.77    0.83 
  -7  -2  -1   42.41    1.57 
   7  -2   1   42.34    1.59 
  -7  -2  -1   40.76    1.46 
  -7   2  -1   41.49    1.54 
  -7   2  -1   42.50    1.54 
   7   2   1   38.89    1.51 
  -8  -2  -1   71.98    2.54 
  -8  -2  -1   73.67    2.44 
   8  -2   1   74.76    2.57 
  -8   2  -1   69.55    2.52 
   8   2   1   68.31    2.50 
  -8   2  -1   72.99    2.52 
  -9  -2  -1   13.74    0.78 
   9  -2   1   14.08    0.94 
  -9  -2  -1   13.98    0.96 
  -9   2  -1   15.86    0.95 
  -9   2  -1   12.60    0.87 
 -10  -2  -1    8.30    0.75 
 -10   2  -1    7.27    0.71 
 -10   2  -1    6.94    0.65 
 -10  -3   1    3.25    0.63 
  10  -3  -1    2.63    0.61 
  10   3  -1    3.64    0.61 
 -10   3   1    3.73    0.56 
  -9  -3   1    0.50    0.52 
   9  -3  -1    0.02    0.56 
  -9   3   1   -0.96    0.43 
   9   3  -1   -0.01    0.47 
  -9   3   1    0.72    0.35 
  -8  -3   1    3.43    0.31 
  -8  -3   1    4.30    0.45 
   8  -3  -1    3.71    0.56 
  -8   3   1    4.37    0.40 
   8   3  -1    3.92    0.51 
  -8   3   1    3.50    0.47 
  -7  -3   1   19.41    0.75 
   7  -3  -1   20.68    1.06 
  -7  -3   1   19.43    0.93 
  -7   3   1   18.72    0.91 
  -7   3   1   20.74    0.92 
   7   3  -1   20.13    0.95 
  -7   3   1   20.37    0.82 
  -6  -3   1   12.77    0.53 
   6  -3  -1   14.88    0.86 
  -6  -3   1   13.59    0.70 
   6   3  -1   13.90    0.73 
  -6   3   1   12.62    0.68 
  -6   3   1   13.29    0.69 
  -6   3   1   14.12    0.61 
  -5  -3   1   14.58    0.66 
  -5  -3   1   13.73    0.52 
  -5  -3   1   14.56    0.62 
   5  -3  -1   13.71    0.81 
   5   3  -1   14.46    0.61 
  -5   3   1   14.27    0.68 
   5   3  -1   13.89    0.60 
   5   3  -1   15.90    0.74 
  -5   3   1   14.87    0.59 
  -4  -3   1   23.79    0.83 
  -4  -3   1   23.84    0.92 
   4  -3  -1   23.40    1.04 
  -4  -3   1   26.09    0.91 
   4  -3  -1   25.81    0.92 
   4   3  -1   25.43    0.91 
   4   3  -1   25.47    0.91 
  -4   3   1   26.33    0.89 
   4   3  -1   24.38    0.96 
   4   3  -1   26.19    0.91 
  -4   3   1   24.95    0.92 
   3  -3  -1    1.21    0.23 
   3  -3  -1    0.95    0.19 
  -3  -3   1    0.74    0.19 
  -3  -3   1    1.19    0.20 
   3   3  -1    0.90    0.17 
  -3   3   1    1.02    0.17 
  -3   3   1    0.88    0.17 
  -3   3   1    1.08    0.25 
   3   3  -1    1.36    0.19 
  -2  -3   1   73.49    2.37 
   2  -3  -1   75.44    2.48 
   2  -3  -1   74.22    2.41 
  -2  -3   1   72.97    2.41 
  -2  -3   1   75.17    2.40 
   2  -3  -1   73.58    2.40 
  -2  -3   1   72.92    2.42 
   2   3  -1   74.51    2.41 
   2   3  -1   73.44    2.42 
  -2   3   1   73.46    2.43 
  -2   3   1   74.62    2.41 
   2   3  -1   70.23    2.41 
  -1  -3   1   -0.04    0.08 
   1  -3  -1   -0.03    0.13 
   1  -3  -1    0.17    0.12 
  -1  -3   1    0.21    0.13 
  -1  -3   1    0.30    0.15 
   1  -3  -1    0.10    0.13 
   1   3  -1   -0.06    0.13 
  -1   3   1    0.10    0.14 
  -1   3   1   -0.05    0.10 
  -1   3   1    0.08    0.14 
   1   3  -1    0.06    0.14 
   1   3  -1    0.12    0.08 
   1   3  -1    0.02    0.07 
   0  -3  -1    0.27    0.14 
   0  -3  -1    0.21    0.14 
   0  -3   1    0.12    0.16 
   0  -3   1    0.27    0.11 
   0  -3  -1    0.36    0.12 
   0  -3  -1    0.09    0.09 
   0   3   1    0.04    0.12 
   0   3  -1    0.22    0.12 
   0   3   1    0.28    0.15 
   0   3  -1    0.11    0.12 
   0   3   1    0.31    0.14 
   1  -3   1   94.68    2.98 
   1  -3   1   85.48    2.94 
  -1  -3  -1   92.94    2.96 
  -1  -3  -1   93.78    2.96 
   1  -3   1   84.19    2.98 
  -1  -3  -1   93.55    2.97 
   1  -3   1   88.01    2.98 
  -1   3  -1   92.72    2.95 
   1   3   1   95.89    2.99 
  -1   3  -1   97.00    2.99 
  -1   3  -1   91.94    2.98 
  -1   3  -1   84.39    3.00 
   1   3   1   94.16    2.96 
  -2  -3  -1   29.79    1.02 
  -2  -3  -1   30.00    1.03 
   2  -3   1   31.02    1.02 
  -2   3  -1   30.08    1.06 
  -2   3  -1   30.19    1.02 
   2   3   1   30.38    1.03 
  -2   3  -1   29.65    1.07 
  -2   3  -1   30.28    1.06 
   2   3   1   30.31    1.06 
  -3  -3  -1   34.85    1.20 
  -3  -3  -1   34.78    1.21 
  -3  -3  -1   34.17    1.15 
   3  -3   1   33.25    1.17 
  -3   3  -1   34.73    1.19 
  -3   3  -1   33.35    1.21 
   3   3   1   35.26    1.19 
   3   3   1   36.07    1.15 
  -3   3  -1   35.41    1.21 
  -3   3  -1   35.38    1.23 
   3   3   1   34.36    1.22 
   4  -3   1    0.01    0.18 
  -4  -3  -1    0.16    0.15 
   4  -3   1    0.08    0.23 
  -4  -3  -1    0.08    0.24 
  -4   3  -1    0.07    0.20 
  -4   3  -1    0.14    0.22 
  -4   3  -1    0.18    0.26 
   4   3   1    0.11    0.13 
   4   3   1    0.08    0.17 
   5  -3   1    5.69    0.50 
  -5  -3  -1    5.67    0.41 
  -5  -3  -1    5.72    0.36 
   5   3   1    5.48    0.30 
  -5   3  -1    5.01    0.41 
   5   3   1    5.38    0.40 
  -5   3  -1    5.78    0.44 
   6  -3   1   15.29    0.79 
  -6  -3  -1   15.69    0.64 
  -6  -3  -1   14.74    0.76 
  -6   3  -1   15.43    0.70 
   6   3   1   14.04    0.71 
  -6   3  -1   15.72    0.74 
   6   3   1   14.97    0.58 
   7  -3   1   10.03    0.78 
  -7  -3  -1    9.89    0.73 
  -7  -3  -1   10.56    0.58 
  -7   3  -1    9.58    0.73 
  -7   3  -1   10.90    0.69 
   7   3   1   10.76    0.66 
  -8  -3  -1    0.80    0.31 
   8  -3   1    0.42    0.41 
  -8  -3  -1    0.54    0.47 
  -8   3  -1    0.53    0.44 
   8   3   1    0.90    0.36 
  -8   3  -1    0.69    0.45 
   9  -3   1    1.57    0.51 
  -9  -3  -1    2.99    0.55 
  -9  -3  -1    2.44    0.62 
  -9   3  -1    2.39    0.54 
  -9   3  -1    2.63    0.57 
 -10  -3  -1    0.32    0.59 
 -10   3  -1   -0.23    0.59 
 -10   3  -1    0.65    0.55 
  10  -4  -1   19.59    1.25 
 -10  -4   1   20.26    1.16 
 -10   4   1   20.81    1.13 
   9  -4  -1    0.43    0.56 
  -9  -4   1   -0.15    0.51 
   9   4  -1    0.34    0.48 
  -9   4   1    0.03    0.48 
  -8  -4   1   53.51    1.91 
   8  -4  -1   51.03    2.04 
   8   4  -1   50.38    1.96 
  -8   4   1   50.48    1.80 
  -8   4   1   50.45    1.90 
  -7  -4   1   50.24    1.68 
   7  -4  -1   50.46    2.02 
  -7  -4   1   52.06    1.84 
   7   4  -1   51.66    1.90 
  -7   4   1   49.71    1.85 
  -7   4   1   50.19    1.77 
   6  -4  -1    8.09    0.76 
  -6  -4   1    8.05    0.58 
  -6  -4   1    7.89    0.34 
   6   4  -1    7.99    0.60 
  -6   4   1    6.96    0.52 
  -6   4   1    8.39    0.49 
   6   4  -1    8.35    0.55 
   5  -4  -1    8.41    0.72 
  -5  -4   1    8.74    0.54 
  -5  -4   1    9.38    0.34 
  -5   4   1    9.48    0.49 
   5   4  -1    9.58    0.58 
   5   4  -1    9.58    0.53 
   5   4  -1   10.39    0.53 
  -5   4   1    9.60    0.59 
   4  -4  -1   76.24    2.50 
   4  -4  -1   74.63    2.63 
  -4  -4   1   74.93    2.51 
  -4  -4   1   73.48    2.51 
   4   4  -1   79.48    2.52 
   4   4  -1   75.45    2.51 
  -4   4   1   75.65    2.50 
   4   4  -1   75.34    2.50 
  -4   4   1   74.29    2.54 
   3  -4  -1   86.52    2.80 
   3  -4  -1   83.17    2.69 
  -3  -4   1   81.88    2.69 
  -3  -4   1   81.37    2.70 
  -3  -4   1   79.28    2.63 
  -3  -4   1   79.91    2.71 
   3   4  -1   84.63    2.71 
  -3   4   1   81.28    2.70 
   3   4  -1   80.86    2.69 
   3   4  -1   80.48    2.70 
  -3   4   1   83.28    2.73 
  -2  -4   1    0.08    0.20 
   2  -4  -1    0.41    0.15 
  -2  -4   1    0.67    0.18 
   2  -4  -1    0.50    0.18 
   2  -4  -1    0.41    0.24 
  -2  -4   1    0.31    0.13 
   2  -4  -1    0.19    0.12 
  -2  -4   1    0.41    0.08 
  -2   4   1    0.75    0.20 
   2   4  -1    0.29    0.18 
   2   4  -1    0.30    0.12 
  -2   4   1    0.32    0.19 
   2   4  -1    0.33    0.18 
   1  -4  -1   99.08    3.16 
  -1  -4   1  102.99    3.17 
  -1  -4   1   94.66    3.14 
   1  -4  -1   93.70    3.16 
  -1  -4   1   98.24    3.17 
   1  -4  -1   95.30    3.21 
   1   4  -1   91.32    3.13 
  -1   4   1   97.69    3.17 
   1   4  -1   99.51    3.17 
   1   4  -1   98.24    3.12 
  -1   4   1   97.95    3.21 
  -1   4   1   96.84    3.16 
   1   4  -1   94.81    3.17 
   0  -4  -1   43.76    1.47 
   0  -4   1   43.04    1.46 
   0  -4  -1   42.67    1.43 
   0  -4   1   43.97    1.49 
   0   4   1   44.15    1.47 
   0   4   1   43.04    1.46 
   0   4  -1   43.84    1.46 
   0   4  -1   45.87    1.48 
  -1  -4  -1  132.64    4.35 
   1  -4   1  139.44    4.40 
   1  -4   1  142.98    4.39 
  -1  -4  -1  131.10    4.36 
  -1  -4  -1  132.06    4.37 
   1  -4   1  122.31    4.33 
  -1   4  -1  140.57    4.42 
  -1   4  -1  135.16    4.39 
   1   4   1  132.33    4.35 
  -1   4  -1  140.08    4.39 
   1   4   1  137.80    4.39 
  -2  -4  -1   15.68    0.59 
   2  -4   1   16.29    0.56 
  -2  -4  -1   16.50    0.64 
  -2  -4  -1   16.41    0.58 
   2  -4   1   16.17    0.62 
  -2  -4  -1   16.23    0.60 
  -2   4  -1   16.56    0.65 
  -2   4  -1   16.21    0.57 
  -2   4  -1   16.40    0.67 
   2   4   1   15.44    0.65 
   2   4   1   16.01    0.58 
  -2   4  -1   15.82    0.66 
  -3  -4  -1   50.71    1.73 
   3  -4   1   53.28    1.73 
   3  -4   1   55.86    1.83 
  -3  -4  -1   50.87    1.76 
  -3   4  -1   52.25    1.78 
  -3   4  -1   50.09    1.74 
  -3   4  -1   50.98    1.81 
   3   4   1   54.83    1.79 
  -3   4  -1   51.96    1.78 
   3   4   1   53.00    1.75 
  -4  -4  -1  130.99    4.23 
   4  -4   1  131.07    4.29 
  -4  -4  -1  127.03    4.18 
   4  -4   1  129.28    4.20 
  -4   4  -1  130.40    4.25 
   4   4   1  125.55    4.18 
   4   4   1  126.76    4.24 
  -4   4  -1  129.01    4.23 
  -4   4  -1  131.20    4.21 
  -5  -4  -1   90.15    3.03 
   5  -4   1   93.74    3.16 
  -5  -4  -1   92.15    3.10 
  -5   4  -1   92.63    3.08 
   5   4   1   96.29    3.09 
   5   4   1   92.63    3.03 
  -5   4  -1   91.82    3.10 
  -5   4  -1   92.27    3.13 
  -6  -4  -1    3.19    0.40 
  -6  -4  -1    3.04    0.26 
   6  -4   1    1.92    0.43 
   6   4   1    3.33    0.25 
  -6   4  -1    3.01    0.40 
  -6   4  -1    2.94    0.40 
  -6   4  -1    3.55    0.45 
   6   4   1    2.55    0.32 
  -7  -4  -1   75.78    2.64 
  -7  -4  -1   74.41    2.54 
   7  -4   1   76.29    2.70 
   7   4   1   77.14    2.62 
  -7   4  -1   77.15    2.64 
  -7   4  -1   72.86    2.61 
  -7   4  -1   79.28    2.67 
  -8  -4  -1   54.29    1.90 
   8  -4   1   56.62    2.13 
  -8  -4  -1   54.22    2.04 
  -8   4  -1   57.16    2.03 
  -8   4  -1   53.77    2.05 
  -8   4  -1   56.75    2.02 
   8   4   1   54.93    2.00 
  -9  -4  -1    9.62    0.72 
   9  -4   1    7.83    0.69 
  -9   4  -1    9.62    0.69 
  -9   4  -1    8.47    0.71 
  -9   4  -1   10.65    0.84 
 -10  -4  -1    3.89    0.68 
 -10   4  -1    3.11    0.64 
 -10   4  -1    5.72    0.64 
 -10   4  -1    4.74    0.68 
  10  -5  -1   32.07    1.55 
 -10  -5   1   27.61    1.39 
 -10   5   1   27.56    1.39 
  -9  -5   1   57.49    2.14 
   9  -5  -1   54.83    2.28 
  -9   5   1   60.58    2.17 
   9   5  -1   56.60    2.21 
   8  -5  -1   19.89    1.28 
  -8  -5   1   17.99    1.00 
   8   5  -1   21.31    1.10 
  -8   5   1   19.45    0.91 
  -8   5   1   17.56    1.03 
  -7  -5   1    9.40    0.71 
   7  -5  -1    9.33    0.90 
  -7   5   1    9.53    0.61 
  -7   5   1    9.77    0.76 
   7   5  -1    9.71    0.80 
  -6  -5   1  190.29    6.59 
   6  -5  -1  211.81    6.74 
  -6   5   1  208.31    6.63 
   6   5  -1  201.59    6.65 
   6   5  -1  201.12    6.58 
  -6   5   1  199.22    6.57 
   5  -5  -1  161.17    5.32 
  -5  -5   1  163.33    5.19 
   5   5  -1  144.58    5.17 
  -5   5   1  166.01    5.23 
  -5   5   1  157.82    5.17 
   4  -5  -1   48.02    1.77 
  -4  -5   1   47.03    1.61 
  -4  -5   1   47.56    1.64 
   4  -5  -1   46.67    1.60 
   4   5  -1   46.48    1.60 
   4   5  -1   47.41    1.63 
  -4   5   1   47.35    1.62 
  -4   5   1   46.37    1.67 
  -3  -5   1   16.47    0.68 
   3  -5  -1   16.84    0.66 
   3  -5  -1   15.99    0.82 
  -3  -5   1   16.13    0.56 
  -3  -5   1   15.55    0.63 
  -3   5   1   17.07    0.73 
   3   5  -1   16.52    0.63 
  -3   5   1   16.57    0.67 
   3   5  -1   17.31    0.69 
   2  -5  -1  299.07    9.77 
  -2  -5   1  299.39    9.73 
   2  -5  -1  301.73    9.74 
  -2  -5   1  301.80    9.78 
  -2  -5   1  309.87    9.74 
   2  -5  -1  262.61    9.82 
   2   5  -1  314.82    9.79 
  -2   5   1  311.51    9.79 
   2   5  -1  314.10    9.73 
  -2   5   1  302.38    9.77 
   2   5  -1  317.70    9.78 
   1  -5  -1  186.59    6.00 
   1  -5  -1  181.43    5.99 
  -1  -5   1  173.36    6.00 
  -1  -5   1  183.32    5.97 
   1   5  -1  185.80    5.94 
  -1   5   1  187.79    6.00 
   1   5  -1  186.12    6.01 
   1   5  -1  189.35    5.97 
  -1   5   1  187.07    6.00 
   1   5  -1  190.76    6.01 
   0  -5   1   84.72    2.81 
   0  -5  -1   81.94    2.74 
   0  -5  -1   82.66    2.78 
   0  -5  -1   87.12    2.84 
   0   5   1   82.24    2.80 
   0   5   1   86.55    2.83 
   0   5   1   85.64    2.78 
   0   5  -1   86.62    2.78 
   0   5  -1   84.11    2.80 
   1  -5   1  134.49    4.35 
   1  -5   1  134.19    4.37 
  -1  -5  -1  133.00    4.35 
  -1  -5  -1  131.56    4.31 
   1   5   1  127.96    4.36 
   1   5   1  138.65    4.38 
  -1   5  -1  132.29    4.35 
  -1   5  -1  135.80    4.36 
   2  -5   1  463.89   15.39 
  -2  -5  -1  485.56   15.41 
   2  -5   1  459.04   15.36 
  -2  -5  -1  486.17   15.43 
   2   5   1  488.66   15.39 
  -2   5  -1  484.02   15.39 
  -2   5  -1  473.70   15.38 
   2   5   1  485.32   15.34 
  -3  -5  -1   60.10    2.02 
   3  -5   1   62.20    1.99 
  -3  -5  -1   58.90    2.01 
  -3   5  -1   61.67    2.07 
   3   5   1   59.25    2.00 
  -3   5  -1   60.49    1.99 
  -3   5  -1   66.16    2.06 
   3   5   1   54.67    2.05 
  -4  -5  -1    0.19    0.26 
   4  -5   1    0.27    0.32 
  -4  -5  -1    0.23    0.20 
   4  -5   1    0.26    0.19 
  -4   5  -1    0.36    0.29 
  -4   5  -1    0.21    0.21 
  -4   5  -1    0.31    0.32 
   4   5   1   -0.20    0.30 
   5  -5   1   87.12    2.90 
  -5  -5  -1   84.40    2.81 
  -5  -5  -1   82.15    2.73 
  -5   5  -1   81.59    2.78 
  -5   5  -1   82.51    2.81 
  -5   5  -1   82.00    2.84 
   5   5   1   82.88    2.82 
  -6  -5  -1  155.91    5.11 
   6  -5   1  149.82    5.27 
  -6  -5  -1  158.40    5.19 
  -6   5  -1  158.28    5.19 
   6   5   1  165.75    5.19 
  -6   5  -1  155.50    5.16 
  -6   5  -1  158.80    5.21 
  -7  -5  -1   39.06    1.48 
   7  -5   1   35.58    1.60 
  -7  -5  -1   37.88    1.33 
  -7   5  -1   38.04    1.44 
  -7   5  -1   38.45    1.52 
   7   5   1   37.83    1.44 
  -7   5  -1   38.84    1.49 
  -8  -5  -1    1.65    0.50 
   8  -5   1    1.26    0.56 
   8   5   1    1.86    0.44 
  -8   5  -1    2.03    0.51 
  -8   5  -1    2.78    0.51 
  -8   5  -1    2.39    0.46 
   9  -5   1   21.68    1.34 
  -9  -5  -1   25.20    1.24 
  -9   5  -1   24.86    1.26 
  -9   5  -1   24.95    1.19 
  -9   5  -1   24.99    1.16 
 -10  -5  -1   25.83    1.34 
 -10   5  -1   25.85    1.34 
 -10   5  -1   25.02    1.33 
  10  -6  -1    1.20    0.69 
 -10  -6   1    1.56    0.60 
 -10   6   1    1.51    0.64 
  -9  -6   1   -0.38    0.52 
   9  -6  -1   -0.31    0.61 
   9   6  -1   -0.39    0.51 
  -9   6   1   -0.12    0.56 
  -8  -6   1    0.66    0.47 
   8  -6  -1   -0.13    0.58 
  -8   6   1    0.01    0.51 
  -8   6   1    0.62    0.40 
   8   6  -1    0.07    0.49 
   7  -6  -1    5.61    0.69 
  -7  -6   1    5.74    0.55 
   7   6  -1    5.03    0.52 
  -7   6   1    5.57    0.47 
   7   6  -1    6.20    0.53 
  -7   6   1    5.01    0.57 
   6  -6  -1   17.91    1.11 
  -6  -6   1   17.94    0.85 
  -6   6   1   18.14    0.94 
   6   6  -1   20.09    0.95 
   6   6  -1   18.41    0.89 
  -6   6   1   18.90    0.82 
  -5  -6   1    1.55    0.33 
  -5  -6   1    2.12    0.36 
   5  -6  -1    1.68    0.49 
   5   6  -1    1.78    0.35 
  -5   6   1    1.46    0.32 
  -5   6   1    1.93    0.42 
   4  -6  -1   19.99    0.77 
  -4  -6   1   19.54    0.65 
  -4  -6   1   19.98    0.80 
   4  -6  -1   20.56    0.94 
  -4  -6   1   19.74    0.85 
  -4   6   1   20.35    0.90 
   4   6  -1   21.66    0.85 
  -4   6   1   19.46    0.82 
   4   6  -1   18.46    0.91 
  -3  -6   1   66.76    2.29 
   3  -6  -1   68.65    2.40 
  -3  -6   1   66.41    2.20 
  -3  -6   1   69.26    2.24 
  -3   6   1   68.55    2.28 
   3   6  -1   67.85    2.23 
   3   6  -1   66.89    2.29 
  -3   6   1   66.72    2.31 
   2  -6  -1    9.79    0.40 
   2  -6  -1   11.50    0.67 
  -2  -6   1   10.53    0.40 
  -2  -6   1    9.55    0.41 
  -2  -6   1    9.88    0.53 
   2   6  -1    9.90    0.39 
   2   6  -1    9.84    0.54 
  -2   6   1    9.90    0.55 
  -2   6   1    9.15    0.53 
   1  -6  -1   11.24    0.42 
  -1  -6   1   11.36    0.57 
   1   6  -1   10.83    0.46 
  -1   6   1   10.97    0.54 
  -1   6   1   11.73    0.56 
   1   6  -1   10.45    0.57 
   0  -6   1   69.05    2.29 
   0  -6  -1   69.37    2.32 
   0  -6  -1   66.92    2.24 
   0  -6   1   69.69    2.33 
   0  -6  -1   68.27    2.33 
   0   6  -1   68.50    2.28 
   0   6   1   69.00    2.32 
   0   6   1   68.90    2.29 
   0   6  -1   70.12    2.32 
  -1  -6  -1   22.22    0.84 
  -1  -6  -1   22.32    0.87 
   1  -6   1   23.82    0.92 
  -1  -6  -1   23.24    0.80 
  -1   6  -1   24.19    0.90 
   1   6   1   23.66    0.91 
  -1   6  -1   21.47    0.90 
  -2  -6  -1   70.64    2.27 
  -2  -6  -1   68.78    2.27 
   2  -6   1   64.41    2.22 
  -2  -6  -1   69.07    2.30 
   2  -6   1   73.22    2.34 
   2   6   1   67.07    2.33 
  -2   6  -1   69.28    2.32 
  -2   6  -1   67.61    2.32 
   2   6   1   68.27    2.25 
  -3  -6  -1   -0.19    0.17 
   3  -6   1   -0.01    0.14 
  -3  -6  -1   -0.04    0.23 
   3  -6   1    0.24    0.35 
  -3  -6  -1   -0.11    0.23 
   3   6   1    0.11    0.18 
   3   6   1    0.15    0.31 
  -3   6  -1   -0.11    0.30 
  -3   6  -1    0.03    0.28 
  -4  -6  -1    4.40    0.36 
  -4  -6  -1    4.90    0.40 
  -4  -6  -1    4.16    0.31 
   4  -6   1    4.96    0.36 
   4   6   1    5.68    0.45 
  -4   6  -1    5.21    0.42 
  -4   6  -1    5.37    0.46 
  -5  -6  -1   13.73    0.61 
  -5  -6  -1   13.82    0.70 
   5   6   1   13.42    0.75 
  -5   6  -1   13.30    0.63 
  -5   6  -1   13.72    0.73 
  -5   6  -1   12.71    0.70 
   6  -6   1    2.00    0.50 
  -6  -6  -1    2.13    0.24 
  -6  -6  -1    2.28    0.41 
  -6   6  -1    0.67    0.46 
  -6   6  -1    1.78    0.46 
   6   6   1    2.48    0.48 
  -6   6  -1    2.39    0.36 
   6   6   1    2.12    0.36 
  -7  -6  -1    3.32    0.50 
   7  -6   1    2.48    0.55 
  -7   6  -1    3.18    0.41 
   7   6   1    2.94    0.41 
  -7   6  -1    3.65    0.47 
  -7   6  -1    3.32    0.52 
  -8  -6  -1   13.61    0.91 
   8  -6   1   12.54    1.04 
  -8   6  -1   15.76    0.87 
  -8   6  -1   14.20    0.94 
  -8   6  -1   15.71    0.84 
   9  -6   1    2.40    0.68 
  -9  -6  -1    2.77    0.64 
  -9   6  -1    2.42    0.57 
  -9   6  -1    1.94    0.61 
  -9  -7   1   29.20    1.31 
   9  -7  -1   26.69    1.57 
   9   7  -1   27.63    1.44 
  -9   7   1   27.55    1.41 
   8  -7  -1    9.20    0.90 
  -8  -7   1   11.74    0.90 
  -8   7   1   10.32    0.80 
  -8   7   1   12.76    0.80 
   8   7  -1   11.97    0.96 
   7  -7  -1   -0.68    0.60 
  -7  -7   1   -0.45    0.43 
   7   7  -1    0.85    0.46 
   7   7  -1    0.34    0.47 
  -7   7   1    0.09    0.52 
  -7   7   1    0.46    0.44 
  -6  -7   1   14.40    0.77 
   6  -7  -1   15.30    1.07 
  -6   7   1   15.51    0.83 
  -6   7   1   15.68    0.93 
   6   7  -1   15.56    0.81 
  -5  -7   1   87.39    3.06 
  -5  -7   1   91.66    3.09 
   5  -7  -1   93.53    3.24 
  -5   7   1   89.78    3.14 
   5   7  -1   93.36    3.10 
  -5   7   1   93.39    3.10 
  -4  -7   1    9.33    0.52 
   4  -7  -1   11.24    0.86 
  -4  -7   1    9.48    0.36 
   4  -7  -1    9.38    0.50 
  -4  -7   1   10.80    0.65 
  -4   7   1    9.97    0.61 
  -4   7   1    9.84    0.70 
   4   7  -1    9.73    0.63 
  -3  -7   1   14.63    0.57 
  -3  -7   1   13.26    0.52 
  -3  -7   1   12.99    0.72 
   3  -7  -1   14.59    0.87 
  -3   7   1   12.94    0.68 
  -3   7   1   13.64    0.73 
   3   7  -1   15.03    0.66 
   3   7  -1   13.81    0.55 
   2  -7  -1   37.19    1.25 
  -2  -7   1   37.17    1.37 
   2   7  -1   38.14    1.37 
   2   7  -1   37.49    1.23 
  -2   7   1   37.42    1.33 
  -2   7   1   36.33    1.36 
   1  -7  -1   53.08    1.75 
  -1  -7   1   53.64    1.88 
  -1  -7   1   53.51    1.81 
   1   7  -1   52.84    1.80 
  -1   7   1   53.60    1.85 
  -1   7   1   53.83    1.87 
   1   7  -1   55.83    1.87 
   0  -7  -1    0.46    0.30 
   0  -7  -1    0.04    0.12 
   0  -7   1    0.12    0.32 
   0   7  -1    0.36    0.22 
   0   7   1    0.63    0.32 
   0   7   1    0.32    0.25 
   0   7  -1    0.12    0.31 
   1  -7   1   32.03    1.22 
  -1  -7  -1   31.84    1.19 
  -1  -7  -1   31.39    1.08 
   1   7   1   30.97    1.20 
  -1   7  -1   32.06    1.16 
  -1   7  -1   31.47    1.20 
  -2  -7  -1   76.64    2.52 
  -2  -7  -1   73.82    2.55 
  -2  -7  -1   75.55    2.50 
   2  -7   1   78.68    2.61 
  -2   7  -1   75.99    2.57 
   2   7   1   75.19    2.58 
   2   7   1   75.52    2.48 
  -2   7  -1   75.07    2.58 
  -3  -7  -1   18.55    0.78 
   3  -7   1   18.19    0.65 
  -3  -7  -1   18.99    0.73 
   3  -7   1   17.40    0.89 
  -3  -7  -1   18.67    0.75 
  -3   7  -1   19.05    0.85 
   3   7   1   18.00    0.70 
   3   7   1   17.39    0.85 
  -3   7  -1   19.13    0.86 
  -4  -7  -1   -0.04    0.28 
  -4  -7  -1   -0.07    0.27 
   4  -7   1   -0.94    0.42 
  -4  -7  -1   -0.30    0.21 
   4  -7   1    0.01    0.19 
  -4   7  -1   -0.20    0.29 
  -4   7  -1   -0.25    0.34 
   4   7   1    0.14    0.38 
  -5  -7  -1   31.43    1.24 
  -5  -7  -1   32.78    1.16 
   5   7   1   30.16    1.27 
  -5   7  -1   31.76    1.32 
  -5   7  -1   30.93    1.26 
  -6  -7  -1  119.69    3.89 
   6   7   1  114.49    3.91 
  -6   7  -1  117.39    3.92 
  -6   7  -1  111.98    3.94 
  -7  -7  -1   10.26    0.77 
   7   7   1   10.14    0.78 
  -7   7  -1    9.83    0.71 
  -7   7  -1    9.23    0.73 
  -8  -7  -1    4.21    0.56 
  -8   7  -1    2.58    0.58 
  -8   7  -1    4.02    0.63 
  -9  -7  -1   15.57    1.13 
  -9   7  -1   16.08    1.07 
  -9   7  -1   15.67    1.15 
  -8  -8   1   31.46    1.32 
   8  -8  -1   29.06    1.66 
   8   8  -1   30.70    1.36 
   8   8  -1   29.28    1.47 
  -8   8   1   29.96    1.47 
  -8   8   1   31.34    1.33 
   7  -8  -1   50.29    2.21 
  -7  -8   1   51.12    1.92 
  -7   8   1   52.77    2.02 
   7   8  -1   51.14    1.92 
   7   8  -1   53.50    2.06 
  -7   8   1   51.38    1.92 
   6  -8  -1   19.22    1.14 
  -6  -8   1   21.19    0.94 
  -6   8   1   19.91    1.00 
   6   8  -1   21.09    1.04 
  -6   8   1   19.76    1.10 
  -5  -8   1   19.76    0.91 
   5  -8  -1   20.71    1.09 
  -5  -8   1   19.96    0.88 
   5   8  -1   19.26    0.96 
  -5   8   1   20.60    0.98 
  -5   8   1   20.65    1.03 
  -4  -8   1  118.81    3.98 
  -4  -8   1  122.19    3.92 
  -4   8   1  118.81    4.02 
  -4   8   1  119.12    4.00 
   4   8  -1  118.62    4.00 
  -3  -8   1  134.41    4.51 
  -3   8   1  137.81    4.53 
  -3   8   1  135.89    4.51 
   3   8  -1  136.97    4.52 
  -2  -8   1   21.66    0.81 
  -2  -8   1   21.93    0.94 
   2  -8  -1   20.99    0.74 
   2  -8  -1   21.76    0.75 
  -2   8   1   21.02    0.92 
  -2   8   1   20.67    0.93 
   2   8  -1   21.01    0.94 
   1  -8  -1   69.11    2.19 
   1  -8  -1   67.15    2.19 
   1  -8  -1   67.91    2.36 
  -1  -8   1   62.41    2.33 
   1   8  -1   66.78    2.25 
  -1   8   1   66.55    2.33 
   1   8  -1   68.45    2.34 
  -1   8   1   70.73    2.31 
   0  -8   1  212.18    6.87 
   0  -8  -1  212.60    6.74 
   0  -8  -1  208.59    6.85 
   0   8  -1  207.01    6.85 
   0   8   1  208.48    6.85 
   0   8   1  211.11    6.81 
   0   8  -1  207.96    6.80 
  -1  -8  -1  236.49    7.53 
   1  -8   1  241.01    7.66 
  -1  -8  -1  224.21    7.61 
   1   8   1  241.09    7.64 
  -1   8  -1  229.80    7.63 
  -1   8  -1  231.99    7.60 
  -2  -8  -1    0.09    0.22 
   2  -8   1   -0.11    0.40 
  -2  -8  -1    0.24    0.34 
  -2   8  -1    0.60    0.38 
   2   8   1   -0.01    0.36 
  -2   8  -1    0.23    0.33 
  -3  -8  -1   80.01    2.78 
  -3  -8  -1   83.76    2.74 
   3  -8   1   85.84    2.87 
  -3   8  -1   81.68    2.82 
   3   8   1   80.12    2.82 
  -3   8  -1   82.86    2.82 
  -4  -8  -1   46.86    1.62 
   4  -8   1   44.70    1.76 
  -4  -8  -1   45.88    1.63 
  -4   8  -1   45.91    1.73 
  -4   8  -1   43.73    1.69 
   4   8   1   45.98    1.71 
   5  -8   1   44.91    1.83 
  -5  -8  -1   47.37    1.66 
  -5  -8  -1   47.55    1.70 
  -5   8  -1   46.86    1.75 
   5   8   1   46.41    1.77 
  -5   8  -1   46.74    1.80 
  -6  -8  -1    0.76    0.45 
   6  -8   1    0.18    0.58 
  -6   8  -1    0.66    0.47 
   6   8   1    1.05    0.50 
  -6   8  -1    0.38    0.51 
   7  -8   1   33.81    1.54 
  -7  -8  -1   34.89    1.44 
  -7   8  -1   34.46    1.54 
   7   8   1   35.91    1.51 
  -7   8  -1   32.11    1.42 
   7   8   1   32.44    1.45 
  -8  -8  -1   23.91    1.23 
   8  -8   1   21.87    1.28 
  -8   8  -1   22.35    1.16 
  -8   8  -1   22.41    1.29 
  -8   9   1   -0.04    0.64 
   8   9  -1    1.58    0.59 
   8   9  -1    0.80    0.55 
   7   9  -1    0.77    0.51 
   7   9  -1   -0.33    0.51 
  -7   9   1   -0.26    0.58 
  -7   9   1   -0.08    0.52 
  -6  -9   1    9.66    0.85 
  -6  -9   1   10.26    0.78 
   6   9  -1    8.69    0.68 
  -6   9   1    9.35    0.70 
  -6   9   1    8.98    0.74 
  -5  -9   1   13.74    0.79 
   5   9  -1   13.23    0.84 
  -5   9   1   12.11    0.81 
  -5   9   1   14.20    0.93 
  -4  -9   1   14.16    0.85 
   4   9  -1   11.76    0.82 
  -4   9   1   13.79    0.87 
  -4   9   1   13.18    0.80 
  -3  -9   1    0.71    0.45 
  -3   9   1    0.66    0.39 
   3   9  -1    0.84    0.44 
  -3   9   1    0.64    0.43 
   2  -9  -1   47.95    1.84 
  -2  -9   1   49.60    1.80 
  -2   9   1   48.18    1.79 
   2   9  -1   49.11    1.80 
  -2   9   1   49.32    1.78 
  -1  -9   1    1.22    0.42 
   1  -9  -1    0.48    0.44 
   1   9  -1    1.12    0.41 
  -1   9   1    1.24    0.40 
   1   9  -1    1.04    0.28 
  -1   9   1    1.36    0.38 
   0  -9  -1    1.76    0.42 
   0  -9   1    1.97    0.47 
   0   9  -1    1.70    0.30 
   0   9   1    1.94    0.33 
   0   9   1    2.08    0.44 
   0   9  -1    1.57    0.42 
   1  -9   1    5.53    0.56 
  -1  -9  -1    5.73    0.34 
  -1  -9  -1    6.50    0.53 
   1   9   1    6.18    0.55 
  -1   9  -1    5.63    0.44 
  -1   9  -1    5.21    0.46 
  -2  -9  -1   18.84    0.92 
  -2  -9  -1   18.18    0.74 
   2  -9   1   19.20    0.99 
  -2   9  -1   21.08    0.91 
   2   9   1   19.37    0.89 
  -2   9  -1   18.40    0.94 
  -3  -9  -1    0.00    0.27 
  -3  -9  -1    0.18    0.35 
   3  -9   1    0.62    0.49 
  -3   9  -1    0.28    0.42 
   3   9   1    0.34    0.45 
  -3   9  -1    0.24    0.44 
  -4  -9  -1   -0.33    0.33 
   4  -9   1   -0.52    0.52 
  -4  -9  -1    0.15    0.34 
   4   9   1    1.21    0.49 
  -4   9  -1    0.32    0.47 
  -4   9  -1   -0.70    0.44 
   5  -9   1    5.07    0.69 
  -5  -9  -1    5.08    0.48 
  -5  -9  -1    5.50    0.49 
  -5   9  -1    4.49    0.61 
  -5   9  -1    5.40    0.63 
   5   9   1    6.26    0.60 
   6  -9   1   12.89    1.08 
  -6  -9  -1   14.39    0.87 
  -6   9  -1   13.57    1.04 
   6   9   1   14.52    0.96 
  -6   9  -1   15.30    0.94 
  -7  -9  -1    8.92    0.68 
   7  -9   1    8.35    0.84 
  -7   9  -1    7.53    0.76 
  -7   9  -1    6.51    0.77 
   7   9   1    9.24    0.74 
   7  10  -1   13.65    1.12 
   7  10  -1   14.54    1.06 
  -7  10   1   12.55    0.95 
  -7  10   1   14.47    1.02 
  -6 -10   1   16.52    0.97 
   6  10  -1   15.32    1.08 
  -6  10   1   14.84    1.07 
  -6  10   1   15.12    0.96 
  -5 -10   1    0.96    0.47 
  -5  10   1    1.29    0.55 
   5  10  -1    0.97    0.51 
  -5  10   1    0.64    0.55 
  -4 -10   1   25.06    1.14 
   4 -10  -1   25.26    1.31 
  -4  10   1   24.16    1.17 
  -4  10   1   26.08    1.20 
   4  10  -1   24.88    1.19 
   3 -10  -1   20.12    1.16 
  -3 -10   1   19.59    1.07 
   3  10  -1   19.85    1.05 
  -3  10   1   21.35    1.04 
  -3  10   1   19.92    1.02 
   2 -10  -1    8.61    0.73 
  -2 -10   1    8.81    0.75 
   2  10  -1    9.15    0.67 
  -2  10   1    9.27    0.66 
  -2  10   1    9.52    0.73 
  -1 -10   1   19.44    1.06 
   1 -10  -1   18.15    1.03 
  -1  10   1   20.00    1.01 
   1  10  -1   20.25    0.84 
  -1  10   1   20.21    0.93 
   1  10  -1   20.33    1.01 
   0 -10  -1   33.08    1.44 
   0 -10   1   33.17    1.42 
   0  10  -1   34.57    1.41 
   0  10  -1   34.85    1.31 
   0  10   1   35.89    1.41 
   1 -10   1   12.50    0.88 
  -1 -10  -1   12.82    0.81 
   1  10   1   12.60    0.86 
  -1  10  -1   13.59    0.85 
  -1  10  -1   13.85    0.79 
  -2 -10  -1   -0.18    0.45 
   2 -10   1   -0.14    0.53 
  -2  10  -1    0.54    0.39 
   2  10   1    0.16    0.48 
  -2  10  -1    0.97    0.49 
   3 -10   1   21.49    1.20 
  -3 -10  -1   23.21    1.08 
   3  10   1   23.12    1.14 
  -3  10  -1   23.81    1.13 
  -3  10  -1   23.38    1.10 
   4 -10   1    8.10    0.78 
  -4 -10  -1    8.78    0.65 
  -4  10  -1    9.54    0.72 
  -4  10  -1    7.41    0.66 
   4  10   1    8.73    0.71 
   5 -10   1    9.55    0.85 
  -5  10  -1    8.97    0.74 
   5  10   1    8.61    0.75 
  -5  10  -1    9.89    0.79 
   6 -10   1   -0.12    0.69 
   6  10   1    1.09    0.57 
  -6  10  -1    0.22    0.56 
  -6  10  -1    0.23    0.61 
   7 -10   1   25.82    1.44 
  -7  10  -1   27.03    1.57 
   7  10   1   26.48    1.32 
  -7  10  -1   23.89    1.38 
   6 -11  -1   18.52    1.54 
  -6  11   1   17.39    1.17 
   6  11  -1   17.47    1.19 
  -6  11   1   16.51    1.18 
   5 -11  -1   54.23    2.27 
  -5 -11   1   54.80    2.06 
   5  11  -1   54.09    2.11 
  -5  11   1   56.09    2.15 
  -5  11   1   55.69    2.13 
  -4 -11   1   16.19    0.96 
   4 -11  -1   17.31    1.20 
  -4  11   1   14.81    1.00 
   4  11  -1   15.76    1.03 
  -4  11   1   15.95    1.02 
  -3 -11   1    5.43    0.62 
   3 -11  -1    6.36    0.76 
   3  11  -1    5.73    0.66 
  -3  11   1    5.93    0.60 
  -3  11   1    6.30    0.65 
   2 -11  -1   53.11    2.14 
  -2 -11   1   58.19    2.10 
  -2  11   1   54.87    2.09 
   2  11  -1   54.78    2.09 
  -2  11   1   56.75    2.04 
   1 -11  -1   40.66    1.74 
  -1 -11   1   43.90    1.72 
   1  11  -1   39.83    1.66 
  -1  11   1   41.63    1.57 
  -1  11   1   40.77    1.66 
   0 -11   1    0.57    0.52 
   0 -11  -1    0.53    0.51 
   0  11   1    0.51    0.54 
   0  11  -1    0.87    0.35 
   0  11  -1    1.10    0.53 
   1 -11   1   24.97    1.27 
  -1 -11  -1   25.72    1.18 
   1  11   1   26.31    1.24 
  -1  11  -1   26.82    1.23 
  -1  11  -1   24.38    1.09 
  -2 -11  -1   79.49    2.83 
   2 -11   1   80.79    2.91 
   2  11   1   79.25    2.83 
  -2  11  -1   79.90    2.86 
  -2  11  -1   83.35    2.81 
  -3 -11  -1   10.69    0.84 
   3 -11   1    9.73    0.84 
  -3  11  -1   10.11    0.76 
  -3  11  -1    8.85    0.69 
   3  11   1   10.78    0.79 
  -4 -11  -1    1.75    0.51 
   4 -11   1    1.14    0.66 
   4  11   1    0.82    0.58 
  -4  11  -1    1.29    0.56 
  -4  11  -1    0.95    0.57 
   5 -11   1   20.32    1.28 
  -5  11  -1   19.03    1.20 
   5  11   1   19.04    1.17 
  -5  11  -1   17.00    1.13 
  -4 -12   1    8.66    0.78 
   4 -12  -1    7.77    0.92 
  -4  12   1    7.52    0.76 
   4  12  -1    7.36    0.77 
  -4  12   1    6.92    0.74 
   3 -12  -1   12.63    1.03 
  -3 -12   1   14.36    1.07 
  -3  12   1   12.56    0.96 
  -3  12   1   12.07    1.00 
   3  12  -1   12.71    1.02 
   2 -12  -1   -0.54    0.63 
  -2 -12   1    0.20    0.57 
  -2  12   1    0.07    0.46 
  -2  12   1    0.18    0.57 
   2  12  -1    0.36    0.59 
  -1 -12   1   15.46    1.04 
   1 -12  -1   16.55    1.18 
  -1  12   1   15.99    1.06 
   1  12  -1   14.98    1.06 
   0 -12   1    4.43    0.67 
   0 -12  -1    4.84    0.66 
   0  12  -1    4.25    0.67 
   0  12  -1    3.45    0.55 
   0  12   1    4.58    0.69 
  -1 -12  -1   13.91    0.96 
   1 -12   1   15.61    1.08 
  -1  12  -1   13.84    1.02 
  -1  12  -1   13.72    0.89 
   1  12   1   13.15    0.90 
  -2 -12  -1    3.44    0.59 
   2 -12   1    4.02    0.72 
   2  12   1    2.36    0.64 
  -2  12  -1    3.48    0.52 
  -2  12  -1    4.76    0.71 
   3 -12   1    2.35    0.71 
  -3 -12  -1    1.57    0.53 
   3  12   1    1.94    0.66 
  -3  12  -1    2.10    0.63 
  -3  12  -1    2.55    0.56 
   4 -12   1    1.20    0.84 
  -4  12  -1    0.66    0.58 
   4  12   1    1.23    0.68 
  -4  12  -1    2.15    0.66 
   0 -13  -1    0.19    0.63 
   0 -13   1   -0.23    0.65 
   0  13   1    1.27    0.67 
  11   0  -2   48.10    2.07 
 -10   0   2   38.40    1.52 
  10   0  -2   40.76    1.79 
   9   0  -2    1.94    0.54 
  -9   0   2    3.65    0.41 
   8   0  -2   30.94    1.35 
  -8   0   2   28.96    1.12 
  -7   0   2  226.16    7.25 
  -7   0   2  221.06    7.30 
   7   0  -2  223.43    7.39 
   6   0  -2  180.66    5.78 
  -6   0   2  184.97    5.76 
  -6   0   2  177.23    5.78 
  -6   0   2  181.24    5.82 
   6   0  -2  166.92    5.90 
  -5   0   2   46.43    1.55 
   5   0  -2   46.13    1.55 
  -5   0   2   46.47    1.53 
   5   0  -2   45.06    1.70 
   4   0  -2  640.79   20.73 
  -4   0   2  633.41   20.73 
  -4   0   2  633.37   20.71 
   4   0  -2  638.70   20.72 
  -4   0   2  671.78   20.70 
  -3   0   2  670.30   24.88 
  -3   0   2  785.00   24.47 
   3   0  -2  801.32   24.49 
   3   0  -2  790.45   24.73 
  -3   0   2  745.40   24.52 
   2   0  -2   36.70    1.24 
   2   0  -2   38.05    1.32 
  -1   0   2   47.16    1.56 
   1   0  -2   45.40    1.56 
   0   0  -2  475.64   15.79 
   0   0  -2  497.27   15.72 
  -1   0  -2  855.05   28.64 
   1   0   2  844.77   28.66 
   1   0   2  941.91   28.72 
  -1   0  -2  925.56   28.74 
   2   0   2   96.81    3.04 
  -2   0  -2   91.25    3.04 
  -2   0  -2   94.23    3.07 
  -2   0  -2   94.42    3.07 
   3   0   2   28.78    1.01 
  -3   0  -2   28.66    0.98 
   3   0   2   30.58    0.96 
  -3   0  -2   27.88    1.02 
  -3   0  -2   28.92    1.02 
   3   0   2   28.69    0.97 
  -4   0  -2  153.87    5.09 
  -4   0  -2  156.85    5.07 
   4   0   2  158.94    5.06 
  -4   0  -2  155.79    5.09 
   5   0   2  122.12    4.31 
  -5   0  -2  132.57    4.36 
  -5   0  -2  134.08    4.35 
  -5   0  -2  141.67    4.34 
  -6   0  -2    1.84    0.26 
  -6   0  -2    1.73    0.32 
   6   0   2    1.70    0.26 
  -6   0  -2    3.02    0.39 
   7   0   2   66.85    2.27 
  -7   0  -2   69.60    2.46 
  -7   0  -2   63.10    2.32 
  -7   0  -2   65.78    2.29 
   8   0   2  123.17    4.14 
  -8   0  -2  127.48    4.20 
  -8   0  -2  123.16    4.15 
  -9   0  -2   24.34    1.20 
  -9   0  -2   24.11    1.10 
 -10   0  -2    4.25    0.55 
 -10   0  -2    3.99    0.66 
  11  -1  -2    0.10    0.67 
  11   1  -2    0.49    0.58 
  10  -1  -2   20.41    1.22 
  10   1  -2   18.52    1.16 
 -10   1   2   20.71    0.97 
   9  -1  -2   22.43    1.20 
  -9  -1   2   20.53    0.91 
  -9  -1   2   22.62    1.00 
  -9   1   2   22.00    1.00 
   9   1  -2   19.72    1.15 
  -8  -1   2   10.91    0.59 
   8  -1  -2   12.02    0.90 
  -8  -1   2   10.08    0.77 
   8   1  -2   10.70    0.85 
  -8   1   2   10.52    0.63 
  -7  -1   2    4.73    0.33 
  -7  -1   2    5.09    0.46 
  -7  -1   2    4.41    0.33 
   7  -1  -2    5.18    0.55 
   7   1  -2    5.13    0.38 
  -7   1   2    4.71    0.40 
   7   1  -2    4.07    0.50 
   6  -1  -2   45.03    1.68 
  -6  -1   2   44.23    1.47 
  -6  -1   2   43.45    1.55 
   6   1  -2   42.21    1.63 
  -6   1   2   40.17    1.45 
  -6   1   2   42.46    1.51 
   6   1  -2   43.97    1.46 
  -5  -1   2   63.88    2.05 
   5  -1  -2   63.65    2.22 
   5  -1  -2   63.18    2.08 
  -5  -1   2   59.98    2.04 
  -5  -1   2   62.76    2.11 
  -5   1   2   63.66    2.08 
   5   1  -2   61.40    2.05 
   5   1  -2   58.08    2.18 
  -4  -1   2   30.87    1.19 
   4  -1  -2   31.85    1.24 
   4  -1  -2   33.09    1.09 
  -4  -1   2   32.15    1.06 
   4  -1  -2   31.89    1.11 
  -4  -1   2   31.72    1.05 
   4   1  -2   31.50    1.11 
   4   1  -2   30.71    1.19 
  -4   1   2   30.05    1.22 
  -4   1   2   29.51    1.09 
   4   1  -2   31.53    1.06 
  -4   1   2   32.83    1.04 
  -3  -1   2   16.64    0.65 
   3  -1  -2   14.44    0.72 
  -3  -1   2   15.37    0.54 
   3  -1  -2   14.93    0.57 
  -3   1   2   15.28    0.52 
  -3   1   2   15.27    0.70 
   3   1  -2   17.08    0.54 
   3   1  -2   13.94    0.66 
  -3   1   2   15.90    0.60 
   3   1  -2   16.81    0.54 
   3   1  -2   15.92    0.59 
   2  -1  -2  194.78    6.49 
   2  -1  -2  196.84    6.42 
  -2  -1   2  177.12    6.40 
   2  -1  -2  208.37    6.42 
  -2   1   2  204.10    6.43 
   2   1  -2  206.84    6.43 
   2   1  -2  195.80    6.44 
   2   1  -2  205.33    6.47 
  -2   1   2  203.27    6.42 
   2   1  -2  202.35    6.43 
  -1  -1   2  151.58    4.81 
   1  -1  -2  153.34    4.80 
   1  -1  -2  143.30    4.84 
   1  -1  -2  158.90    4.80 
   1   1  -2  142.06    4.78 
  -1   1   2  142.98    4.84 
  -1   1   2  149.87    4.80 
   0  -1  -2   50.23    1.62 
   0  -1   2   50.79    1.62 
   0  -1  -2   46.69    1.63 
   0   1  -2   50.34    1.62 
   0   1   2   48.06    1.63 
  -1  -1  -2  129.03    3.93 
  -1  -1  -2  123.46    3.92 
   1  -1   2  123.25    3.92 
  -1  -1  -2  113.83    3.94 
   1  -1   2  124.01    3.92 
  -1   1  -2  123.82    3.92 
  -1   1  -2  121.26    3.93 
  -1   1  -2  121.10    3.92 
   1   1   2  112.18    3.91 
   2  -1   2  193.52    6.06 
  -2  -1  -2  178.76    6.07 
   2  -1   2  187.71    6.06 
  -2   1  -2  185.02    6.07 
  -2   1  -2  191.29    6.06 
  -2   1  -2  192.98    6.08 
   3  -1   2   69.21    2.14 
   3  -1   2   66.48    2.13 
   3  -1   2   67.41    2.16 
  -3  -1  -2   66.57    2.17 
  -3  -1  -2   67.16    2.16 
   3  -1   2   66.64    2.17 
  -3   1  -2   59.26    2.14 
   3   1   2   58.40    2.11 
  -3   1  -2   65.80    2.16 
  -3   1  -2   66.19    2.17 
  -4  -1  -2    0.05    0.18 
   4  -1   2    0.13    0.16 
  -4  -1  -2    0.02    0.22 
   4   1   2   -0.04    0.13 
  -4   1  -2    0.02    0.22 
  -4   1  -2    0.10    0.23 
  -4   1  -2    0.19    0.17 
  -5  -1  -2   16.78    0.71 
   5  -1   2   17.70    0.71 
  -5  -1  -2   17.06    0.76 
  -5   1  -2   17.84    0.72 
  -5   1  -2   16.36    0.75 
   5   1   2   17.64    0.68 
  -5   1  -2   17.22    0.75 
  -6  -1  -2   60.31    2.08 
  -6  -1  -2   57.20    2.03 
   6  -1   2   65.15    2.04 
  -6   1  -2   58.92    2.07 
  -6   1  -2   60.77    2.06 
   6   1   2   54.96    2.01 
  -6   1  -2   57.55    2.06 
  -7  -1  -2   78.18    2.75 
  -7  -1  -2   77.97    2.72 
   7  -1   2   87.63    2.74 
  -7   1  -2   80.38    2.77 
  -7   1  -2   78.37    2.75 
  -7   1  -2   85.37    2.78 
   7   1   2   75.61    2.71 
  -8  -1  -2    1.77    0.49 
  -8  -1  -2    2.15    0.40 
   8  -1   2    2.36    0.38 
  -8   1  -2    2.40    0.50 
   8   1   2    2.22    0.34 
  -8   1  -2    2.85    0.46 
  -9  -1  -2   14.26    0.90 
  -9  -1  -2   17.35    1.01 
  -9   1  -2   14.65    0.97 
  -9   1  -2   15.58    0.90 
 -10  -1  -2    9.79    0.77 
 -10  -1  -2    9.93    0.79 
 -10   1  -2   10.71    0.77 
 -10   1  -2   10.47    0.81 
  11  -2  -2   13.40    1.28 
 -11   2   2   15.23    1.02 
  11   2  -2   14.09    1.09 
  10  -2  -2    8.63    0.83 
  10   2  -2    8.93    0.79 
 -10   2   2    9.83    0.77 
   9  -2  -2    0.52    0.53 
  -9  -2   2    0.45    0.51 
  -9   2   2    0.38    0.41 
   9   2  -2    1.86    0.51 
   8  -2  -2   -0.19    0.49 
  -8  -2   2   -0.04    0.25 
  -8  -2   2    0.09    0.43 
   8   2  -2    1.26    0.45 
  -8   2   2    0.32    0.26 
  -8   2   2   -0.44    0.35 
  -7  -2   2   22.96    0.87 
  -7  -2   2   21.94    0.99 
  -7  -2   2   21.64    0.83 
   7  -2  -2   20.57    1.12 
   7   2  -2   24.92    1.09 
  -7   2   2   21.91    0.94 
   7   2  -2   22.22    0.82 
  -7   2   2   22.86    0.84 
  -6  -2   2   44.33    1.65 
  -6  -2   2   51.96    1.69 
  -6  -2   2   50.54    1.76 
   6  -2  -2   52.95    1.90 
  -6   2   2   49.13    1.73 
   6   2  -2   50.39    1.66 
  -6   2   2   49.79    1.66 
   6   2  -2   49.93    1.83 
  -5  -2   2    1.05    0.28 
  -5  -2   2    1.46    0.15 
  -5  -2   2    1.10    0.17 
   5  -2  -2    1.37    0.32 
   5   2  -2    1.35    0.32 
   5   2  -2    1.60    0.14 
  -5   2   2    1.53    0.16 
  -5   2   2    1.96    0.28 
   4  -2  -2   82.39    2.77 
   4  -2  -2   80.99    2.64 
   4  -2  -2   80.91    2.64 
  -4  -2   2   84.53    2.61 
  -4  -2   2   81.41    2.58 
   4   2  -2   78.76    2.70 
   4   2  -2   77.30    2.64 
  -4   2   2   75.95    2.59 
  -4   2   2   72.59    2.64 
   4   2  -2   78.63    2.60 
   4   2  -2   83.28    2.58 
   4   2  -2   81.96    2.66 
   3  -2  -2  124.54    3.84 
  -3  -2   2  114.65    3.81 
   3  -2  -2  122.52    3.94 
   3  -2  -2  122.10    3.84 
  -3   2   2  117.95    3.80 
   3   2  -2  121.11    3.89 
   3   2  -2  118.77    3.81 
   3   2  -2  111.68    3.85 
  -3   2   2  106.51    3.84 
   3   2  -2  120.18    3.79 
   3   2  -2  118.57    3.84 
   2  -2  -2    9.10    0.51 
  -2  -2   2    8.34    0.34 
  -2  -2   2    7.79    0.40 
   2  -2  -2    8.90    0.37 
   2  -2  -2    8.65    0.32 
  -2   2   2    8.70    0.39 
   2   2  -2    8.16    0.34 
  -2   2   2    8.36    0.33 
   2   2  -2    9.32    0.35 
   1  -2  -2   79.28    2.61 
  -1  -2   2   79.71    2.62 
   1  -2  -2   81.99    2.68 
  -1  -2   2   82.14    2.64 
  -1   2   2   78.98    2.67 
   1   2  -2   80.95    2.62 
  -1   2   2   81.63    2.62 
   1   2  -2   79.98    2.61 
   0  -2  -2  328.33   10.40 
   0  -2   2  327.75   10.33 
   0  -2  -2  306.76   10.23 
   0   2   2  323.71   10.29 
   0   2   2  307.19   10.29 
   0   2  -2  319.55   10.34 
   0   2  -2  309.38   10.28 
   0   2  -2  326.68   10.24 
  -1  -2  -2   68.52    2.24 
  -1  -2  -2   70.07    2.23 
   1  -2   2   58.46    2.21 
   1  -2   2   64.69    2.23 
   1  -2   2   68.97    2.24 
  -1   2  -2   69.84    2.21 
  -1   2  -2   71.23    2.23 
   1   2   2   67.57    2.22 
  -1   2  -2   69.15    2.24 
   1   2   2   72.53    2.25 
   1   2   2   68.97    2.22 
  -2  -2  -2    7.28    0.33 
  -2  -2  -2    6.08    0.23 
   2  -2   2    6.05    0.31 
   2  -2   2    6.09    0.28 
   2   2   2    6.83    0.26 
  -2   2  -2    7.00    0.32 
  -2   2  -2    6.35    0.37 
   2   2   2    6.27    0.31 
  -2   2  -2    6.27    0.31 
   3  -2   2   40.56    1.38 
   3  -2   2   41.55    1.38 
  -3  -2  -2   41.86    1.40 
  -3  -2  -2   38.97    1.42 
  -3   2  -2   41.14    1.38 
  -3   2  -2   39.98    1.42 
   3   2   2   41.45    1.34 
  -3   2  -2   39.27    1.39 
   3   2   2   42.52    1.39 
  -4  -2  -2   16.97    0.68 
  -4  -2  -2   17.01    0.71 
   4  -2   2   18.51    0.70 
   4   2   2   16.31    0.63 
  -4   2  -2   17.53    0.70 
  -4   2  -2   16.65    0.73 
  -4   2  -2   16.92    0.71 
  -5  -2  -2   27.23    0.98 
   5  -2   2   27.43    1.02 
  -5  -2  -2   25.89    1.04 
   5   2   2   26.48    0.96 
  -5   2  -2   26.57    1.03 
  -5   2  -2   25.69    1.02 
   5   2   2   27.68    0.88 
  -5   2  -2   27.54    1.06 
   6  -2   2   19.21    0.88 
  -6  -2  -2   18.86    0.91 
  -6  -2  -2   20.65    0.81 
   6   2   2   19.83    0.68 
  -6   2  -2   19.18    0.88 
   6   2   2   22.16    0.81 
  -6   2  -2   20.21    0.87 
  -6   2  -2   20.34    0.90 
  -7  -2  -2   16.16    0.88 
   7  -2   2   16.46    0.81 
  -7  -2  -2   16.49    0.74 
  -7   2  -2   15.07    0.84 
  -7   2  -2   14.88    0.84 
   7   2   2   16.92    0.74 
  -8  -2  -2   49.49    1.91 
   8  -2   2   50.34    1.88 
  -8  -2  -2   52.68    1.82 
  -8   2  -2   50.30    1.89 
  -8   2  -2   52.23    1.90 
  -9  -2  -2    7.93    0.62 
  -9  -2  -2    7.62    0.57 
  -9   2  -2    8.35    0.69 
  -9   2  -2    7.72    0.64 
 -10  -2  -2    0.06    0.60 
 -10   2  -2    0.35    0.58 
 -10   2  -2    0.28    0.53 
  10  -3  -2   37.66    1.78 
 -10   3   2   42.11    1.66 
  10   3  -2   39.57    1.78 
   9  -3  -2   63.99    2.40 
  -9  -3   2   63.04    2.27 
  -9   3   2   61.92    2.25 
   9   3  -2   58.00    2.36 
  -8  -3   2   72.14    2.58 
   8  -3  -2   77.54    2.73 
  -8   3   2   73.69    2.55 
  -8   3   2   72.73    2.45 
   8   3  -2   70.84    2.67 
  -7  -3   2    5.47    0.32 
   7  -3  -2    4.55    0.59 
  -7  -3   2    4.38    0.46 
  -7   3   2    5.25    0.40 
   7   3  -2    4.24    0.52 
  -7   3   2    4.55    0.48 
  -6  -3   2  225.32    7.48 
  -6  -3   2  212.65    7.38 
   6  -3  -2  240.19    7.61 
  -6  -3   2  241.84    7.44 
  -6   3   2  232.28    7.48 
   6   3  -2  229.69    7.54 
  -6   3   2  227.91    7.41 
  -5  -3   2  373.84   12.57 
  -5  -3   2  397.27   12.55 
   5  -3  -2  412.27   12.71 
   5   3  -2  386.37   12.54 
  -5   3   2  389.50   12.53 
   5   3  -2  393.49   12.64 
  -5   3   2  378.74   12.58 
   4  -3  -2   86.30    2.93 
   4  -3  -2   90.44    3.02 
  -4  -3   2   87.96    2.91 
   4   3  -2   88.17    2.88 
   4   3  -2   84.62    2.92 
  -4   3   2   95.92    2.92 
   4   3  -2   87.52    2.91 
  -4   3   2   89.53    2.87 
   4   3  -2   83.17    2.97 
   3  -3  -2   10.25    0.47 
   3  -3  -2   10.64    0.40 
   3  -3  -2   10.12    0.43 
   3  -3  -2   10.39    0.63 
  -3  -3   2   10.27    0.49 
  -3   3   2    9.46    0.41 
  -3   3   2    9.97    0.45 
   3   3  -2   10.13    0.43 
   3   3  -2   10.37    0.44 
   3   3  -2    9.96    0.47 
  -2  -3   2  372.84   11.70 
   2  -3  -2  372.59   11.78 
  -2  -3   2  357.46   11.72 
   2  -3  -2  357.04   11.72 
  -2   3   2  321.06   11.76 
   2   3  -2  383.91   11.76 
   2   3  -2  362.85   11.69 
  -2   3   2  367.67   11.74 
   2   3  -2  369.74   11.72 
  -2   3   2  366.57   11.72 
   2   3  -2  376.11   11.72 
  -1  -3   2  349.41   10.88 
   1  -3  -2  348.53   10.86 
  -1  -3   2  306.13   10.86 
   1  -3  -2  360.71   10.91 
  -1   3   2  344.76   10.86 
  -1   3   2  306.36   10.86 
   1   3  -2  346.36   10.90 
   1   3  -2  342.31   10.89 
   0  -3  -2   10.71    0.43 
   0  -3   2   10.84    0.42 
   0  -3   2   10.78    0.47 
   0  -3  -2   11.41    0.48 
   0  -3  -2   10.68    0.42 
   0   3  -2   10.40    0.38 
   0   3   2   11.29    0.45 
   0   3  -2   10.53    0.43 
   0   3   2   11.24    0.48 
   0   3  -2   10.64    0.45 
   0   3  -2   10.48    0.43 
   1  -3   2   21.06    0.71 
  -1  -3  -2   22.05    0.76 
   1  -3   2   20.90    0.77 
  -1  -3  -2   20.70    0.74 
   1   3   2   20.98    0.73 
   1   3   2   22.43    0.77 
  -1   3  -2   20.96    0.77 
  -1   3  -2   21.40    0.77 
  -1   3  -2   20.66    0.71 
  -1   3  -2   20.44    0.76 
   1   3   2   20.72    0.76 
   2  -3   2  272.89    8.94 
   2  -3   2  289.32    8.97 
  -2  -3  -2  280.41    8.96 
   2  -3   2  277.69    8.98 
  -2  -3  -2  284.59    9.02 
   2   3   2  273.50    8.96 
  -2   3  -2  278.90    8.98 
   2   3   2  286.30    8.98 
  -2   3  -2  294.06    8.99 
  -2   3  -2  271.27    8.94 
  -2   3  -2  266.74    8.98 
   2   3   2  264.65    8.98 
  -3  -3  -2  291.94    9.24 
   3  -3   2  276.34    9.26 
  -3  -3  -2  289.07    9.26 
  -3   3  -2  285.52    9.25 
  -3   3  -2  288.15    9.28 
   3   3   2  285.01    9.25 
  -3   3  -2  286.26    9.28 
   3   3   2  296.08    9.29 
   4  -3   2    0.50    0.20 
  -4  -3  -2    0.22    0.25 
  -4   3  -2    0.32    0.21 
  -4   3  -2    0.45    0.25 
  -4   3  -2    0.37    0.22 
   4   3   2    0.56    0.15 
   5  -3   2   68.79    2.27 
  -5  -3  -2   65.79    2.25 
  -5  -3  -2   65.83    2.20 
  -5   3  -2   66.95    2.23 
  -5   3  -2   62.28    2.31 
  -5   3  -2   65.28    2.27 
   5   3   2   65.29    2.19 
   6  -3   2  140.93    4.39 
  -6  -3  -2  127.95    4.31 
  -6  -3  -2  129.35    4.37 
  -6   3  -2  131.21    4.38 
   6   3   2  129.29    4.31 
  -6   3  -2  130.84    4.35 
   7  -3   2  128.09    4.17 
  -7  -3  -2  119.56    4.16 
  -7  -3  -2  123.79    4.10 
  -7   3  -2  123.34    4.17 
   7   3   2  124.97    4.10 
  -7   3  -2  125.39    4.15 
  -8  -3  -2    0.63    0.36 
   8  -3   2   -0.15    0.40 
  -8  -3  -2    0.16    0.47 
  -8   3  -2   -0.15    0.43 
  -8   3  -2    0.06    0.46 
  -9  -3  -2   35.47    1.52 
  -9  -3  -2   35.67    1.37 
  -9   3  -2   33.58    1.49 
  -9   3  -2   35.48    1.48 
 -10  -3  -2   33.87    1.50 
 -10   3  -2   30.66    1.44 
 -10   3  -2   29.83    1.42 
  10  -4  -2    9.78    0.86 
 -10   4   2    8.02    0.72 
  10   4  -2   11.23    0.96 
   9  -4  -2   -1.23    0.57 
  -9  -4   2   -0.19    0.51 
   9   4  -2    0.10    0.48 
  -9   4   2   -0.84    0.46 
   8  -4  -2   24.16    1.32 
  -8  -4   2   24.84    1.12 
   8   4  -2   23.49    1.19 
  -8   4   2   24.23    1.11 
  -8   4   2   24.95    0.96 
   7  -4  -2   34.46    1.52 
  -7  -4   2   33.08    1.31 
  -7   4   2   33.25    1.21 
   7   4  -2   34.52    1.44 
  -7   4   2   31.98    1.32 
  -6  -4   2    0.55    0.36 
   6  -4  -2    0.31    0.47 
   6   4  -2    0.68    0.29 
  -6   4   2    0.28    0.35 
  -6   4   2    0.64    0.24 
   6   4  -2    0.39    0.36 
   5  -4  -2   10.26    0.80 
  -5  -4   2    9.70    0.55 
   5   4  -2    9.32    0.65 
   5   4  -2   10.27    0.49 
  -5   4   2   10.49    0.49 
  -5   4   2   10.40    0.61 
  -4  -4   2   19.79    0.72 
  -4  -4   2   18.57    0.77 
   4  -4  -2   19.13    0.94 
  -4   4   2   19.30    0.80 
   4   4  -2   18.32    0.72 
  -4   4   2   18.93    0.71 
   4   4  -2   18.46    0.73 
   3  -4  -2  135.57    4.46 
   3  -4  -2  138.49    4.45 
   3  -4  -2  140.44    4.58 
  -3  -4   2  138.79    4.49 
  -3  -4   2  137.59    4.47 
   3   4  -2  141.95    4.47 
  -3   4   2  135.91    4.46 
   3   4  -2  139.38    4.46 
  -3   4   2  127.49    4.49 
   3   4  -2  138.33    4.53 
  -2  -4   2   23.40    0.90 
  -2  -4   2   25.07    0.86 
   2  -4  -2   23.10    0.84 
   2  -4  -2   24.69    0.98 
   2  -4  -2   24.56    0.86 
  -2   4   2   23.72    0.85 
   2   4  -2   24.98    0.89 
  -2   4   2   22.91    0.89 
  -2   4   2   24.35    0.96 
   2   4  -2   23.66    0.79 
   2   4  -2   24.43    0.86 
   2   4  -2   24.03    0.83 
  -1  -4   2   64.79    2.10 
  -1  -4   2   57.66    2.11 
   1  -4  -2   63.98    2.15 
  -1  -4   2   63.56    2.06 
   1  -4  -2   63.52    2.10 
   1  -4  -2   63.64    2.09 
   1   4  -2   63.39    2.07 
   1   4  -2   62.73    2.05 
  -1   4   2   61.86    2.09 
  -1   4   2   64.47    2.15 
   1   4  -2   63.98    2.11 
   1   4  -2   64.22    2.10 
  -1   4   2   64.74    2.10 
   0  -4   2  116.30    3.80 
   0  -4  -2  117.35    3.81 
   0  -4   2  120.31    3.83 
   0  -4  -2  119.08    3.79 
   0  -4  -2  120.18    3.81 
   0  -4   2  114.10    3.82 
   0  -4  -2  116.99    3.84 
   0   4  -2  116.47    3.82 
   0   4   2  118.30    3.82 
   0   4  -2  118.03    3.80 
   0   4  -2  110.94    3.76 
  -1  -4  -2  148.09    4.84 
   1  -4   2  147.84    4.87 
  -1  -4  -2  150.05    4.86 
  -1  -4  -2  152.79    4.85 
   1  -4   2  151.80    4.86 
   1   4   2  147.54    4.87 
  -1   4  -2  150.79    4.86 
  -1   4  -2  152.79    4.87 
  -1   4  -2  145.90    4.81 
   2  -4   2   15.23    0.63 
  -2  -4  -2   14.24    0.58 
   2  -4   2   14.87    0.53 
  -2  -4  -2   14.65    0.55 
   2  -4   2   15.32    0.65 
  -2   4  -2   15.02    0.55 
  -2   4  -2   15.13    0.64 
   2   4   2   15.30    0.59 
   2   4   2   15.02    0.65 
   2   4   2   14.34    0.56 
  -2   4  -2   14.14    0.63 
  -2   4  -2   14.94    0.64 
  -3  -4  -2    5.55    0.28 
   3  -4   2    6.14    0.43 
  -3  -4  -2    5.20    0.38 
  -3   4  -2    6.02    0.35 
  -3   4  -2    5.72    0.41 
   3   4   2    5.83    0.45 
  -3   4  -2    5.98    0.46 
  -3   4  -2    6.00    0.44 
   4  -4   2   75.24    2.52 
  -4  -4  -2   76.20    2.56 
   4  -4   2   77.95    2.57 
  -4   4  -2   75.32    2.54 
  -4   4  -2   77.28    2.59 
   4   4   2   75.20    2.58 
  -4   4  -2   77.11    2.59 
  -5  -4  -2   48.19    1.71 
  -5  -4  -2   48.37    1.66 
  -5   4  -2   47.79    1.72 
  -5   4  -2   48.80    1.69 
   5   4   2   49.34    1.66 
  -6  -4  -2    0.78    0.26 
   6  -4   2    0.09    0.37 
  -6  -4  -2    0.82    0.39 
  -6   4  -2    0.12    0.32 
   6   4   2    0.48    0.23 
  -6   4  -2    0.34    0.40 
  -7  -4  -2    7.70    0.54 
   7  -4   2    7.38    0.67 
  -7  -4  -2    7.63    0.60 
   7   4   2    7.68    0.53 
  -7   4  -2    8.35    0.58 
  -7   4  -2    7.17    0.59 
   8  -4   2   27.81    1.28 
  -8  -4  -2   27.67    1.11 
  -8  -4  -2   28.99    1.27 
  -8   4  -2   27.64    1.27 
  -8   4  -2   26.10    1.25 
   9  -4   2   18.61    1.15 
  -9  -4  -2   18.55    1.10 
  -9   4  -2   21.50    1.14 
  -9   4  -2   18.39    1.12 
 -10  -4  -2   -0.30    0.61 
 -10   4  -2    0.91    0.60 
 -10   4  -2   -0.67    0.59 
 -10   4  -2    0.07    0.61 
  10  -5  -2   -0.73    0.63 
 -10   5   2   -0.58    0.56 
  10   5  -2    0.72    0.59 
  -9  -5   2    2.32    0.54 
   9  -5  -2    2.30    0.66 
  -9   5   2    2.25    0.57 
   9   5  -2    2.66    0.56 
   8  -5  -2   15.05    1.13 
  -8  -5   2   15.85    0.89 
  -8   5   2   14.28    0.72 
  -8   5   2   14.10    0.91 
   8   5  -2   14.41    1.04 
  -7  -5   2    0.69    0.40 
   7  -5  -2    0.24    0.54 
  -7   5   2    0.37    0.34 
  -7   5   2    1.00    0.31 
   7   5  -2    0.61    0.32 
   7   5  -2    0.76    0.43 
  -6  -5   2    0.63    0.34 
   6  -5  -2    0.51    0.50 
   6   5  -2    1.20    0.32 
  -6   5   2    1.66    0.30 
   6   5  -2    1.54    0.40 
  -6   5   2    1.55    0.42 
   5  -5  -2   49.75    1.94 
  -5  -5   2   48.15    1.74 
  -5   5   2   50.36    1.79 
   5   5  -2   53.17    1.84 
  -5   5   2   50.62    1.71 
   5   5  -2   47.31    1.71 
  -4  -5   2   41.00    1.48 
   4  -5  -2   42.96    1.65 
   4   5  -2   40.95    1.45 
   4   5  -2   42.11    1.45 
  -4   5   2   41.77    1.44 
  -4   5   2   41.77    1.51 
  -3  -5   2   33.22    1.21 
   3  -5  -2   32.27    1.32 
   3  -5  -2   32.99    1.15 
   3  -5  -2   32.49    1.14 
  -3   5   2   32.70    1.21 
   3   5  -2   33.38    1.14 
  -3   5   2   33.48    1.17 
   3   5  -2   32.81    1.17 
  -2  -5   2   19.92    0.79 
   2  -5  -2   19.08    0.74 
   2  -5  -2   19.98    0.88 
  -2  -5   2   19.70    0.67 
   2   5  -2   20.05    0.69 
  -2   5   2   20.11    0.75 
  -2   5   2   19.53    0.75 
   2   5  -2   19.14    0.76 
   2   5  -2   18.83    0.67 
   1  -5  -2   33.24    1.22 
   1  -5  -2   32.80    1.14 
  -1  -5   2   31.29    1.18 
  -1  -5   2   33.22    1.11 
   1   5  -2   32.52    1.11 
   1   5  -2   32.30    1.08 
   1   5  -2   33.33    1.17 
  -1   5   2   32.66    1.15 
  -1   5   2   32.69    1.16 
   0  -5  -2    0.76    0.20 
   0  -5  -2    0.90    0.15 
   0  -5   2    0.76    0.26 
   0  -5   2    0.29    0.12 
   0   5  -2    0.77    0.23 
   0   5   2    0.38    0.22 
   0   5  -2    0.77    0.20 
   0   5   2    0.80    0.24 
  -1  -5  -2   50.58    1.70 
   1  -5   2   50.61    1.72 
   1  -5   2   50.66    1.76 
  -1  -5  -2   51.32    1.71 
   1   5   2   51.84    1.75 
  -1   5  -2   51.23    1.74 
  -1   5  -2   49.86    1.65 
  -1   5  -2   50.97    1.73 
   1   5   2   51.82    1.75 
  -2  -5  -2    5.28    0.35 
  -2  -5  -2    5.24    0.34 
  -2  -5  -2    5.18    0.33 
   2  -5   2    5.32    0.25 
   2  -5   2    5.37    0.45 
  -2   5  -2    5.82    0.44 
   2   5   2    5.57    0.39 
  -2   5  -2    5.52    0.28 
   2   5   2    5.47    0.31 
   2   5   2    5.92    0.45 
  -2   5  -2    5.07    0.37 
  -3  -5  -2    4.46    0.30 
   3  -5   2    4.84    0.40 
   3  -5   2    3.45    0.25 
  -3  -5  -2    4.33    0.31 
  -3   5  -2    4.36    0.34 
   3   5   2    4.19    0.36 
   3   5   2    4.72    0.39 
  -3   5  -2    4.14    0.38 
  -3   5  -2    4.99    0.31 
   4  -5   2   -0.19    0.31 
  -4  -5  -2    0.18    0.28 
  -4  -5  -2   -0.16    0.17 
   4  -5   2    0.09    0.20 
  -4   5  -2   -0.12    0.32 
  -4   5  -2   -0.14    0.22 
  -4   5  -2   -0.55    0.33 
   4   5   2   -0.06    0.33 
  -5  -5  -2   -0.07    0.33 
   5  -5   2   -0.11    0.35 
  -5   5  -2    0.30    0.30 
  -5   5  -2    0.07    0.27 
  -5   5  -2   -0.11    0.36 
  -6  -5  -2   11.05    0.56 
  -6  -5  -2   10.66    0.72 
  -6   5  -2   11.36    0.78 
  -6   5  -2   10.97    0.74 
   6   5   2   10.63    0.60 
  -6   5  -2   11.32    0.69 
  -7  -5  -2   15.57    0.72 
  -7  -5  -2   15.37    0.89 
  -7   5  -2   16.30    0.87 
   7   5   2   16.12    0.79 
  -7   5  -2   14.96    0.90 
  -7   5  -2   16.07    0.96 
  -8  -5  -2   -0.18    0.50 
  -8   5  -2    0.08    0.49 
  -8   5  -2   -0.23    0.52 
  -8   5  -2   -0.33    0.42 
  -9  -5  -2    4.25    0.64 
   9  -5   2    4.06    0.55 
  -9   5  -2    5.20    0.58 
  -9   5  -2    5.42    0.68 
  -9   5  -2    4.20    0.66 
  10  -6  -2   18.34    1.34 
  10   6  -2   17.63    1.24 
 -10   6   2   16.23    1.15 
   9  -6  -2   -0.03    0.71 
  -9   6   2    0.75    0.58 
   9   6  -2    1.15    0.59 
   8  -6  -2   21.30    1.36 
  -8  -6   2   22.06    1.07 
   8   6  -2   22.19    1.18 
  -8   6   2   22.03    1.15 
   7  -6  -2   97.36    3.47 
  -7  -6   2   96.09    3.24 
  -7   6   2   90.09    3.19 
   7   6  -2   94.15    3.21 
  -7   6   2   96.14    3.29 
   7   6  -2   99.29    3.35 
   6  -6  -2   11.62    1.02 
  -6  -6   2   13.66    0.72 
  -6   6   2   14.11    0.69 
   6   6  -2   14.73    0.75 
   6   6  -2   13.42    0.86 
  -6   6   2   13.70    0.84 
  -5  -6   2   10.41    0.67 
   5  -6  -2    9.05    0.88 
   5   6  -2    9.85    0.63 
  -5   6   2   10.08    0.58 
  -5   6   2    9.17    0.70 
  -4  -6   2   98.56    3.15 
   4  -6  -2   97.90    3.28 
   4   6  -2   90.72    3.08 
  -4   6   2   88.56    3.13 
   4   6  -2   90.21    3.11 
  -4   6   2   95.05    3.11 
   3  -6  -2  163.64    5.28 
   3  -6  -2  172.05    5.45 
  -3  -6   2  163.88    5.35 
  -3   6   2  161.98    5.32 
   3   6  -2  160.21    5.28 
   3   6  -2  158.88    5.32 
  -3   6   2  161.69    5.34 
   2  -6  -2   35.47    1.46 
  -2  -6   2   40.31    1.40 
  -2  -6   2   39.75    1.29 
   2   6  -2   39.20    1.28 
   2   6  -2   37.36    1.37 
  -2   6   2   37.69    1.38 
   2   6  -2   38.78    1.28 
  -2   6   2   39.32    1.37 
  -1  -6   2   51.03    1.73 
   1  -6  -2   49.62    1.77 
   1   6  -2   49.74    1.71 
   1   6  -2   49.41    1.65 
  -1   6   2   47.97    1.70 
  -1   6   2   48.29    1.70 
   1   6  -2   49.14    1.59 
   0  -6   2  226.31    7.15 
   0  -6   2  228.10    7.19 
   0  -6  -2  224.83    7.12 
   0   6  -2  200.46    7.17 
   0   6  -2  220.89    7.15 
   0   6   2  226.04    7.18 
  -1  -6  -2   89.34    2.95 
   1  -6   2   87.42    3.02 
  -1  -6  -2   90.02    2.99 
  -1   6  -2   91.72    3.01 
   1   6   2   89.69    3.01 
  -1   6  -2   92.85    3.00 
   2  -6   2   63.23    2.18 
  -2  -6  -2   62.28    2.11 
  -2  -6  -2   61.80    2.09 
   2   6   2   61.05    2.09 
  -2   6  -2   62.32    2.16 
   2   6   2   65.78    2.16 
  -2   6  -2   64.36    2.16 
  -2   6  -2   63.58    2.05 
  -3  -6  -2   23.57    0.89 
   3  -6   2   24.16    0.85 
   3  -6   2   24.55    1.01 
  -3  -6  -2   24.11    0.93 
  -3   6  -2   24.52    1.00 
  -3   6  -2   24.89    0.87 
  -3   6  -2   23.79    1.01 
   3   6   2   25.77    1.01 
  -4  -6  -2  158.88    5.13 
  -4  -6  -2  162.06    5.09 
   4  -6   2  148.46    5.08 
   4  -6   2  141.99    5.16 
  -4   6  -2  162.88    5.10 
  -4   6  -2  162.66    5.19 
   4   6   2  159.29    5.17 
  -4   6  -2  158.10    5.17 
  -5  -6  -2   34.11    1.32 
   5  -6   2   35.01    1.37 
  -5   6  -2   34.65    1.36 
  -5   6  -2   35.45    1.27 
   5   6   2   34.59    1.36 
  -5   6  -2   34.57    1.34 
  -6  -6  -2    2.60    0.30 
  -6  -6  -2    2.39    0.43 
   6  -6   2    2.77    0.49 
   6   6   2    2.05    0.33 
  -6   6  -2    2.38    0.49 
  -6   6  -2    2.35    0.47 
  -6   6  -2    2.31    0.38 
  -7  -6  -2   23.43    1.11 
   7  -6   2   22.89    1.17 
  -7   6  -2   24.63    1.07 
  -7   6  -2   25.43    1.21 
  -7   6  -2   23.51    1.13 
   8  -6   2   52.24    1.98 
  -8  -6  -2   53.26    2.01 
  -8   6  -2   52.38    2.00 
  -8   6  -2   52.50    2.06 
  -8   6  -2   53.47    1.94 
  -9  -6  -2   15.13    1.05 
   9  -6   2   16.96    1.08 
  -9   6  -2   14.63    1.13 
  -9   6  -2   16.34    1.04 
  -9   6  -2   17.38    1.12 
   9  -7  -2   23.33    1.59 
  -9   7   2   20.72    1.25 
   9   7  -2   22.32    1.28 
   8  -7  -2    5.81    0.82 
   8   7  -2    7.22    0.74 
   8   7  -2   10.26    0.75 
  -8   7   2    6.68    0.72 
   7  -7  -2    4.33    0.73 
   7   7  -2    5.23    0.59 
   7   7  -2    5.85    0.50 
  -7   7   2    5.06    0.49 
  -7   7   2    3.98    0.61 
   6  -7  -2   71.35    2.68 
  -6   7   2   69.70    2.42 
  -6   7   2   68.19    2.50 
   6   7  -2   72.69    2.56 
   6   7  -2   68.73    2.42 
   5  -7  -2   36.02    1.57 
  -5  -7   2   38.00    1.43 
   5   7  -2   38.32    1.44 
  -5   7   2   38.76    1.49 
  -5   7   2   37.81    1.41 
  -4  -7   2   12.80    0.79 
   4  -7  -2   13.62    0.96 
   4   7  -2   14.34    0.72 
  -4   7   2   14.53    0.79 
   4   7  -2   14.15    0.60 
  -4   7   2   13.33    0.72 
   3  -7  -2    1.80    0.22 
  -3  -7   2    1.16    0.37 
   3  -7  -2    1.92    0.46 
  -3  -7   2    1.99    0.14 
   3   7  -2    2.25    0.21 
  -3   7   2    1.29    0.37 
   3   7  -2    1.98    0.38 
  -3   7   2    2.12    0.36 
   2  -7  -2   49.02    1.80 
  -2  -7   2   47.94    1.59 
  -2  -7   2   45.44    1.70 
  -2   7   2   48.16    1.69 
   2   7  -2   47.43    1.56 
   2   7  -2   47.24    1.58 
   2   7  -2   48.25    1.69 
  -2   7   2   46.86    1.67 
  -1  -7   2   90.63    2.98 
   1  -7  -2   90.84    2.96 
  -1  -7   2   92.91    3.05 
  -1   7   2   88.09    3.04 
  -1   7   2   91.08    3.03 
   1   7  -2   90.56    3.04 
   1   7  -2   91.47    2.98 
   0  -7   2    4.49    0.42 
   0  -7  -2    4.03    0.29 
   0   7  -2    4.14    0.40 
   0   7   2    4.14    0.40 
   0   7  -2    3.62    0.31 
  -1  -7  -2    2.31    0.34 
  -1  -7  -2    2.38    0.23 
   1  -7   2    1.99    0.39 
  -1   7  -2    2.33    0.36 
   1   7   2    2.31    0.37 
  -1   7  -2    2.42    0.30 
  -2  -7  -2   59.58    2.01 
   2  -7   2   59.59    2.09 
  -2  -7  -2   58.79    1.99 
  -2   7  -2   58.00    2.06 
  -2   7  -2   59.97    2.06 
   2   7   2   59.88    2.08 
  -3  -7  -2  127.61    4.23 
   3  -7   2  141.19    4.32 
  -3  -7  -2  129.10    4.23 
   3  -7   2  123.31    4.16 
  -3   7  -2  127.48    4.29 
  -3   7  -2  132.15    4.29 
   3   7   2  123.16    4.29 
   4  -7   2    0.22    0.41 
  -4  -7  -2   -0.02    0.25 
  -4  -7  -2   -0.14    0.29 
   4   7   2   -0.12    0.40 
  -4   7  -2   -0.08    0.20 
  -4   7  -2    0.23    0.40 
  -4   7  -2    0.34    0.39 
  -5  -7  -2   32.68    1.17 
  -5  -7  -2   32.02    1.29 
   5  -7   2   33.49    1.36 
  -5   7  -2   32.36    1.19 
  -5   7  -2   32.21    1.36 
  -5   7  -2   32.82    1.32 
   5   7   2   31.40    1.33 
  -6  -7  -2   29.99    1.29 
  -6  -7  -2   29.88    1.10 
   6  -7   2   31.14    1.37 
   6   7   2   28.86    1.29 
  -6   7  -2   28.67    1.34 
  -6   7  -2   28.92    1.28 
  -6   7  -2   30.90    1.17 
  -7  -7  -2   30.15    1.29 
   7  -7   2   29.71    1.35 
  -7   7  -2   30.20    1.30 
  -7   7  -2   31.07    1.34 
  -7   7  -2   29.44    1.23 
  -8  -7  -2    0.58    0.52 
   8  -7   2   -0.44    0.60 
  -8   7  -2   -0.67    0.45 
  -8   7  -2   -0.16    0.54 
  -8   7  -2    0.02    0.47 
   9  -7   2    3.68    0.66 
  -9  -7  -2    4.80    0.65 
  -9   7  -2    3.79    0.66 
   8  -8  -2   -1.45    0.69 
   8   8  -2    0.32    0.61 
  -8   8   2    0.30    0.61 
   8   8  -2    0.48    0.49 
   7  -8  -2    3.49    0.75 
   7   8  -2    4.25    0.62 
  -7   8   2    5.30    0.52 
  -7   8   2    2.83    0.62 
   7   8  -2    4.10    0.51 
   6  -8  -2    1.32    0.66 
  -6   8   2    2.40    0.44 
  -6   8   2    1.31    0.54 
   6   8  -2    2.62    0.46 
   5  -8  -2   -0.13    0.56 
  -5  -8   2    0.28    0.44 
  -5   8   2    0.17    0.41 
   5   8  -2   -0.03    0.40 
  -5   8   2    0.46    0.45 
   4  -8  -2    3.96    0.60 
  -4  -8   2    4.92    0.50 
  -4   8   2    4.95    0.50 
   4   8  -2    4.98    0.49 
  -4   8   2    4.49    0.48 
  -3  -8   2    4.53    0.48 
   3  -8  -2    3.86    0.54 
  -3   8   2    4.69    0.46 
  -3   8   2    3.68    0.43 
   3   8  -2    4.17    0.45 
  -2  -8   2    2.00    0.22 
  -2  -8   2    2.34    0.43 
  -2   8   2    2.33    0.38 
   2   8  -2    1.78    0.21 
  -2   8   2    1.96    0.39 
   2   8  -2    2.26    0.39 
   2   8  -2    1.92    0.13 
   1  -8  -2    1.39    0.19 
  -1  -8   2    1.20    0.33 
   1   8  -2    1.38    0.38 
   1   8  -2    1.28    0.24 
  -1   8   2    1.32    0.33 
  -1   8   2    0.98    0.37 
   0  -8   2    2.46    0.43 
   0  -8  -2    1.88    0.39 
   0  -8  -2    2.45    0.22 
   0   8   2    2.34    0.34 
   0   8  -2    2.41    0.41 
   0   8  -2    2.12    0.28 
   1  -8   2    6.05    0.52 
  -1  -8  -2    5.51    0.44 
  -1  -8  -2    6.11    0.39 
  -1   8  -2    6.38    0.50 
   1   8   2    5.37    0.50 
  -1   8  -2    6.40    0.45 
   2  -8   2    4.80    0.52 
  -2  -8  -2    4.76    0.34 
  -2  -8  -2    4.99    0.43 
   2   8   2    4.98    0.49 
  -2   8  -2    4.37    0.43 
  -2   8  -2    5.83    0.44 
  -3  -8  -2    0.11    0.28 
   3  -8   2   -0.38    0.43 
  -3  -8  -2    0.03    0.30 
  -3   8  -2    0.70    0.42 
   3   8   2    0.11    0.41 
  -3   8  -2    0.04    0.39 
  -4  -8  -2    1.60    0.33 
   4  -8   2    1.87    0.52 
  -4  -8  -2    1.42    0.33 
  -4   8  -2    1.11    0.45 
  -4   8  -2    1.44    0.46 
   4   8   2    1.90    0.48 
   5  -8   2    1.42    0.54 
  -5  -8  -2    1.15    0.32 
  -5  -8  -2    1.24    0.41 
  -5   8  -2    0.34    0.49 
  -5   8  -2    1.22    0.48 
   5   8   2    0.83    0.47 
   6  -8   2    0.31    0.56 
  -6  -8  -2    0.00    0.42 
  -6   8  -2    0.17    0.50 
  -6   8  -2    0.93    0.54 
   6   8   2    0.81    0.53 
   7  -8   2    0.68    0.60 
  -7  -8  -2   -0.41    0.51 
  -7   8  -2   -1.02    0.56 
  -7   8  -2   -0.73    0.57 
  -8  -8  -2    0.57    0.54 
   8  -8   2    0.04    0.63 
  -8   8  -2    0.84    0.62 
  -8   8  -2    0.39    0.64 
   8  -9  -2   17.43    1.52 
   8   9  -2   19.49    1.26 
   8   9  -2   17.99    1.10 
  -8   9   2   18.40    1.31 
   7  -9  -2    5.23    0.86 
  -7   9   2    5.93    0.58 
  -7   9   2    4.63    0.69 
   7   9  -2    5.96    0.75 
   7   9  -2    6.20    0.61 
  -6  -9   2   20.48    1.03 
   6  -9  -2   15.65    1.36 
  -6   9   2   19.74    1.12 
   6   9  -2   20.24    1.06 
  -6   9   2   18.09    0.99 
   5  -9  -2   21.02    1.33 
  -5  -9   2   18.82    0.98 
  -5   9   2   20.16    1.07 
  -5   9   2   19.85    1.01 
   5   9  -2   18.30    0.98 
  -4  -9   2   26.78    1.18 
   4   9  -2   26.34    1.17 
  -4   9   2   26.89    1.21 
  -4   9   2   27.85    1.20 
  -3  -9   2    2.83    0.49 
   3   9  -2    3.14    0.48 
  -3   9   2    2.62    0.45 
  -3   9   2    3.48    0.48 
  -2  -9   2   31.84    1.31 
   2  -9  -2   32.21    1.09 
  -2   9   2   29.95    1.27 
   2   9  -2   30.73    1.29 
   2   9  -2   31.92    1.12 
  -2   9   2   32.99    1.27 
   1  -9  -2   66.78    2.19 
   1  -9  -2   66.68    2.37 
  -1  -9   2   63.63    2.36 
   1   9  -2   65.66    2.35 
   1   9  -2   69.43    2.25 
  -1   9   2   64.43    2.34 
  -1   9   2   68.87    2.31 
   0  -9   2    2.39    0.47 
   0  -9  -2    2.31    0.43 
   0  -9  -2    1.87    0.22 
   0   9  -2    1.78    0.44 
   0   9  -2    2.25    0.34 
   0   9   2    2.16    0.47 
  -1  -9  -2   30.39    1.05 
   1  -9   2   30.12    1.21 
  -1  -9  -2   27.88    1.17 
  -1   9  -2   29.27    1.14 
   1   9   2   28.43    1.23 
  -1   9  -2   28.89    1.22 
  -2  -9  -2   47.30    1.61 
  -2  -9  -2   47.07    1.69 
   2  -9   2   44.55    1.77 
  -2   9  -2   47.44    1.75 
  -2   9  -2   46.55    1.72 
   2   9   2   44.85    1.75 
  -3  -9  -2   84.41    2.81 
   3  -9   2   81.16    2.91 
  -3  -9  -2   83.43    2.77 
  -3   9  -2   82.03    2.86 
   3   9   2   81.56    2.88 
  -3   9  -2   82.93    2.88 
   4  -9   2    0.31    0.50 
  -4  -9  -2    0.08    0.36 
  -4  -9  -2   -0.50    0.34 
  -4   9  -2    0.10    0.47 
   4   9   2    0.39    0.50 
  -4   9  -2   -0.15    0.48 
   5  -9   2   28.23    1.31 
  -5  -9  -2   26.22    1.15 
  -5   9  -2   25.89    1.24 
   5   9   2   26.87    1.26 
  -5   9  -2   25.89    1.29 
  -6  -9  -2   38.46    1.51 
   6  -9   2   38.39    1.67 
  -6   9  -2   37.31    1.60 
  -6   9  -2   39.17    1.68 
   6   9   2   39.03    1.63 
   7  -9   2   27.95    1.48 
  -7  -9  -2   27.73    1.29 
  -7   9  -2   25.55    1.33 
  -7   9  -2   24.78    1.40 
  -7  10   2   35.37    1.62 
   7  10  -2   34.95    1.78 
   7  10  -2   34.58    1.56 
  -6 -10   2    3.85    0.60 
  -6  10   2    3.35    0.61 
  -6  10   2    2.96    0.65 
   6  10  -2    3.24    0.58 
  -5 -10   2    6.52    0.68 
  -5  10   2    6.52    0.64 
  -5  10   2    6.86    0.68 
   5  10  -2    6.00    0.63 
  -4 -10   2   41.59    1.66 
  -4  10   2   43.84    1.70 
   4  10  -2   41.60    1.67 
  -4  10   2   41.69    1.64 
  -3 -10   2   39.69    1.61 
  -3  10   2   40.06    1.59 
  -3  10   2   41.72    1.60 
   3  10  -2   40.77    1.61 
  -2 -10   2   17.63    0.99 
   2 -10  -2   16.46    1.04 
  -2  10   2   18.92    0.94 
   2  10  -2   16.77    0.96 
  -2  10   2   17.47    0.94 
   1 -10  -2    0.37    0.48 
  -1 -10   2    0.66    0.49 
   1  10  -2    0.19    0.46 
  -1  10   2   -0.01    0.47 
   1  10  -2    0.95    0.30 
   0 -10   2   64.86    2.37 
   0 -10  -2   63.38    2.34 
   0  10  -2   66.46    2.33 
   0  10  -2   66.97    2.26 
   0  10   2   65.67    2.35 
   1 -10   2   62.58    2.19 
  -1 -10  -2   57.19    2.13 
   1  10   2   56.72    2.12 
  -1  10  -2   57.84    2.15 
  -1  10  -2   59.95    2.07 
  -2 -10  -2   38.11    1.47 
   2 -10   2   37.95    1.57 
   2  10   2   37.49    1.48 
  -2  10  -2   36.14    1.53 
  -2  10  -2   37.45    1.46 
  -3 -10  -2    6.60    0.56 
   3 -10   2    6.65    0.69 
  -3  10  -2    6.29    0.59 
  -3  10  -2    6.19    0.65 
   3  10   2    7.66    0.66 
   4 -10   2   52.20    2.04 
  -4 -10  -2   51.31    1.85 
   4  10   2   49.60    1.97 
  -4  10  -2   50.58    1.97 
  -4  10  -2   51.16    1.97 
   5 -10   2    5.79    0.77 
   5  10   2    5.59    0.69 
  -5  10  -2    5.24    0.67 
  -5  10  -2    5.46    0.65 
   6 -10   2    0.27    0.67 
  -6  10  -2   -0.10    0.61 
   6  10   2    0.71    0.61 
  -6  10  -2    0.80    0.62 
  -6 -11   2    0.76    0.60 
   6  11  -2   -0.90    0.55 
  -6  11   2   -1.04    0.59 
  -5 -11   2    1.17    0.56 
  -5  11   2   -0.18    0.57 
   5  11  -2    0.44    0.61 
  -5  11   2    0.46    0.58 
  -4 -11   2    0.56    0.54 
  -4  11   2   -0.28    0.54 
  -4  11   2    0.92    0.54 
   4  11  -2   -0.07    0.54 
  -3 -11   2    0.45    0.55 
   3 -11  -2   -0.45    0.64 
   3  11  -2   -0.35    0.54 
  -3  11   2    0.24    0.51 
  -3  11   2   -0.06    0.51 
   2 -11  -2   -0.61    0.58 
  -2 -11   2    0.02    0.54 
  -2  11   2   -0.23    0.48 
  -2  11   2   -0.06    0.51 
   2  11  -2    0.60    0.53 
   1 -11  -2    0.90    0.56 
  -1 -11   2    1.14    0.58 
  -1  11   2    1.23    0.55 
   1  11  -2    1.72    0.52 
   0 -11   2    1.13    0.57 
   0 -11  -2    0.83    0.52 
   0  11   2   -0.03    0.52 
   0  11  -2    1.40    0.37 
   0  11  -2    1.27    0.51 
  -1 -11  -2    5.37    0.62 
   1 -11   2    4.82    0.66 
  -1  11  -2    5.89    0.65 
  -1  11  -2    4.85    0.51 
   1  11   2    4.94    0.64 
  -2 -11  -2    1.09    0.50 
   2 -11   2    2.41    0.61 
   2  11   2    2.01    0.59 
  -2  11  -2    1.97    0.56 
  -2  11  -2    2.06    0.46 
   3 -11   2    1.03    0.64 
  -3 -11  -2    0.81    0.49 
  -3  11  -2    1.09    0.51 
  -3  11  -2    0.86    0.56 
   3  11   2    0.13    0.57 
   4 -11   2    1.70    0.68 
  -4  11  -2    0.57    0.55 
  -4  11  -2    1.50    0.62 
   4  11   2    1.00    0.61 
   5 -11   2   -0.26    0.69 
  -5  11  -2   -0.26    0.60 
   5  11   2    0.25    0.61 
  -5  11  -2   -1.05    0.60 
   4 -12  -2    5.96    0.92 
  -4 -12   2    6.71    0.74 
  -4  12   2    5.89    0.70 
   4  12  -2    7.29    0.74 
  -4  12   2    5.92    0.71 
  -3 -12   2   13.48    1.09 
   3 -12  -2   11.06    0.97 
  -3  12   2   12.06    0.95 
  -3  12   2   11.06    0.84 
   3  12  -2   12.94    1.02 
   2 -12  -2    9.90    0.88 
  -2 -12   2   12.76    0.99 
   2  12  -2    9.04    0.79 
  -2  12   2    9.36    0.80 
   1 -12  -2    4.01    0.67 
  -1 -12   2    4.42    0.71 
  -1  12   2    4.24    0.67 
   1  12  -2    4.72    0.67 
   0 -12  -2   39.65    1.66 
   0 -12   2   40.40    1.70 
   0  12  -2   39.88    1.67 
   0  12   2   37.74    1.67 
   1 -12   2   18.49    1.16 
  -1 -12  -2   18.32    1.10 
  -1  12  -2   15.94    0.94 
  -1  12  -2   16.09    1.10 
   1  12   2   15.09    1.09 
   2 -12   2    7.09    0.81 
  -2 -12  -2    5.63    0.66 
   2  12   2    6.40    0.72 
  -2  12  -2    6.31    0.74 
  -2  12  -2    6.11    0.62 
   3 -12   2   12.81    0.97 
  -3 -12  -2   10.47    0.87 
  -3  12  -2   11.73    0.88 
   3  12   2   10.66    0.90 
  -3  12  -2   13.68    0.95 
  11   0  -3   -0.62    0.62 
  10   0  -3   -0.28    0.62 
  -9   0   3   -0.58    0.34 
   9   0  -3   -0.39    0.53 
  -8   0   3   -0.53    0.30 
   8   0  -3   -0.39    0.52 
  -7   0   3    0.09    0.15 
   7   0  -3   -0.43    0.44 
  -7   0   3   -0.34    0.23 
  -6   0   3   -0.07    0.11 
  -6   0   3    0.17    0.23 
   6   0  -3    0.07    0.20 
   6   0  -3    0.67    0.32 
  -5   0   3   -0.06    0.17 
   5   0  -3   -0.37    0.34 
  -5   0   3   -0.11    0.06 
   5   0  -3   -0.08    0.17 
   4   0  -3    0.18    0.15 
   4   0  -3   -0.28    0.23 
  -4   0   3   -0.30    0.17 
   3   0  -3    0.00    0.13 
  -3   0   3   -0.04    0.09 
   3   0  -3    0.13    0.26 
  -2   0   3   -0.08    0.09 
   2   0  -3   -0.14    0.10 
   2   0  -3   -0.18    0.21 
   1   0  -3   -0.23    0.17 
  -1   0   3   -0.33    0.14 
   0   0  -3    0.02    0.13 
   0   0  -3    0.06    0.14 
  -1   0  -3   -0.08    0.11 
  -1   0  -3   -0.03    0.10 
  -1   0  -3   -0.02    0.15 
   1   0   3   -0.40    0.05 
   2   0   3    0.07    0.12 
  -2   0  -3   -0.39    0.13 
  -2   0  -3   -0.03    0.09 
   2   0   3   -0.03    0.10 
  -3   0  -3    0.05    0.08 
   3   0   3   -0.09    0.10 
  -3   0  -3    0.02    0.20 
  -3   0  -3   -0.11    0.16 
  -4   0  -3    0.00    0.19 
  -4   0  -3   -0.08    0.11 
   4   0   3   -0.03    0.11 
  -4   0  -3   -0.09    0.23 
  -5   0  -3    0.16    0.14 
  -5   0  -3   -0.15    0.26 
  -5   0  -3   -0.07    0.30 
   5   0   3   -0.02    0.12 
   6   0   3   -0.12    0.16 
  -6   0  -3   -0.38    0.35 
   6   0   3    0.11    0.15 
  -6   0  -3   -0.48    0.17 
  -6   0  -3   -0.34    0.34 
   7   0   3   -0.37    0.19 
  -7   0  -3   -0.09    0.42 
  -7   0  -3   -0.40    0.36 
   7   0   3   -0.06    0.18 
  -8   0  -3    0.75    0.46 
  -8   0  -3   -0.04    0.49 
  -9   0  -3   -0.37    0.54 
  -9   0  -3   -0.02    0.45 
 -10   0  -3    0.17    0.58 
 -10   0  -3   -0.67    0.50 
  11  -1  -3   -0.34    0.64 
  11   1  -3    0.51    0.63 
  10  -1  -3   12.58    1.12 
  10   1  -3   12.60    1.07 
 -10   1   3   13.33    0.85 
  -9  -1   3   93.66    3.15 
   9  -1  -3   96.77    3.40 
   9   1  -3   89.80    3.37 
  -9   1   3   96.70    3.20 
   8  -1  -3   19.74    1.14 
  -8  -1   3   20.80    0.81 
   8   1  -3   18.76    1.10 
  -8   1   3   18.40    0.90 
  -7  -1   3    0.01    0.17 
  -7  -1   3    0.10    0.24 
   7  -1  -3    0.21    0.45 
   7   1  -3   -0.23    0.42 
   7   1  -3    0.32    0.21 
  -7   1   3   -0.24    0.15 
  -7   1   3    0.38    0.14 
  -7   1   3    0.44    0.28 
  -6  -1   3   32.49    1.08 
   6  -1  -3   33.06    1.39 
  -6  -1   3   33.27    1.13 
  -6   1   3   34.67    1.17 
   6   1  -3   29.74    1.33 
   6   1  -3   32.01    1.12 
  -6   1   3   31.71    1.06 
  -6   1   3   31.26    1.06 
  -5  -1   3  158.15    5.02 
   5  -1  -3  162.94    5.08 
   5  -1  -3  157.85    5.23 
   5   1  -3  140.83    5.04 
   5   1  -3  154.58    5.19 
  -5   1   3  162.80    5.08 
  -4  -1   3   16.24    0.55 
   4  -1  -3   16.94    0.64 
   4  -1  -3   14.87    0.76 
  -4   1   3   16.28    0.65 
   4   1  -3   17.32    0.59 
   4   1  -3   15.72    0.78 
   3  -1  -3   56.77    2.02 
   3  -1  -3   59.71    1.89 
   3   1  -3   55.54    1.98 
  -3   1   3   57.74    2.00 
   3   1  -3   56.92    1.86 
   3   1  -3   54.99    1.84 
  -3   1   3   57.03    1.89 
   2  -1  -3   59.64    2.07 
   2  -1  -3   60.48    1.94 
   2  -1  -3   61.81    1.98 
   2   1  -3   59.30    1.95 
   2   1  -3   59.60    2.04 
   1  -1  -3  480.29   16.05 
   1  -1  -3  487.40   16.16 
   1   1  -3  519.61   16.07 
   1   1  -3  518.87   16.23 
  -1   1   3  481.75   16.00 
   0  -1   3    7.26    0.35 
   0  -1  -3    6.94    0.39 
   0  -1  -3    6.86    0.34 
   0   1   3    7.69    0.36 
   0   1  -3    8.03    0.33 
  -1  -1  -3   58.88    1.88 
  -1  -1  -3   54.19    1.86 
   1  -1   3   53.07    1.86 
   1   1   3   58.55    1.85 
  -1   1  -3   58.28    1.86 
  -1   1  -3   56.83    1.87 
  -2  -1  -3  257.08    8.66 
   2  -1   3  288.87    8.65 
   2  -1   3  238.63    8.64 
  -2   1  -3  262.45    8.67 
  -2   1  -3  277.70    8.64 
  -2   1  -3  288.41    8.66 
  -3  -1  -3  197.79    6.25 
   3  -1   3  195.78    6.24 
   3  -1   3  188.96    6.22 
  -3   1  -3  192.61    6.26 
  -3   1  -3  190.12    6.22 
  -3   1  -3  192.97    6.25 
  -4  -1  -3   20.15    0.79 
   4  -1   3   20.18    0.73 
  -4  -1  -3   18.97    0.77 
  -4   1  -3   20.71    0.80 
  -4   1  -3   20.31    0.82 
  -4   1  -3   20.29    0.74 
  -5  -1  -3   54.33    1.89 
   5  -1   3   56.32    1.82 
  -5  -1  -3   53.96    1.88 
  -5   1  -3   55.22    1.91 
  -5   1  -3   55.06    1.86 
  -5   1  -3   53.56    1.90 
  -6  -1  -3  108.28    3.62 
  -6  -1  -3  110.55    3.62 
   6  -1   3  101.29    3.54 
  -6   1  -3  110.56    3.59 
  -6   1  -3  111.46    3.63 
   6   1   3  107.56    3.51 
  -6   1  -3  110.34    3.63 
  -7  -1  -3   19.55    0.98 
  -7  -1  -3   19.02    0.89 
   7  -1   3   19.61    0.77 
  -7   1  -3   20.23    0.97 
  -7   1  -3   20.36    0.95 
   7   1   3   19.29    0.88 
  -8  -1  -3   23.14    1.14 
  -8  -1  -3   22.81    1.10 
  -8   1  -3   24.13    1.09 
  -8   1  -3   23.21    1.13 
  -9  -1  -3    2.32    0.59 
  -9  -1  -3    3.09    0.49 
  -9   1  -3    3.09    0.58 
  -9   1  -3    3.19    0.59 
 -10  -1  -3   21.55    1.19 
 -10  -1  -3   22.17    1.27 
 -10   1  -3   23.68    1.24 
 -10   1  -3   23.25    1.27 
  11  -2  -3   22.49    1.40 
  11   2  -3   21.77    1.35 
  10  -2  -3   33.96    1.66 
 -10   2   3   33.46    1.39 
  10   2  -3   35.69    1.63 
   9  -2  -3    4.56    0.66 
   9   2  -3    4.64    0.63 
  -9   2   3    4.26    0.53 
   8  -2  -3   60.13    2.20 
  -8  -2   3   50.43    1.87 
  -8   2   3   56.43    1.98 
   8   2  -3   56.80    2.15 
  -7  -2   3   56.62    1.86 
   7  -2  -3   58.06    2.16 
  -7   2   3   54.15    1.85 
   7   2  -3   55.91    1.86 
  -7   2   3   54.63    1.82 
   7   2  -3   55.53    2.10 
  -7   2   3   53.94    1.96 
   6  -2  -3   91.35    3.23 
  -6  -2   3   87.37    2.98 
  -6  -2   3   91.10    2.98 
   6   2  -3   90.94    3.15 
   6   2  -3   93.07    2.98 
  -6   2   3   91.92    2.96 
  -6   2   3   94.83    3.06 
   5  -2  -3   -0.22    0.38 
  -5  -2   3   -0.12    0.14 
  -5   2   3   -0.10    0.09 
   5   2  -3   -0.20    0.31 
  -5   2   3    0.28    0.25 
   5   2  -3    0.04    0.15 
   5   2  -3    0.12    0.12 
  -4  -2   3  186.36    5.91 
   4  -2  -3  184.44    6.08 
   4   2  -3  181.98    6.02 
  -4   2   3  179.94    5.89 
   4   2  -3  189.79    5.91 
   4   2  -3  176.55    5.90 
  -4   2   3  186.36    5.96 
   3  -2  -3  230.84    6.94 
  -3  -2   3  204.95    6.92 
   3  -2  -3  218.84    6.95 
   3  -2  -3  213.32    7.07 
   3   2  -3  207.94    6.98 
  -3   2   3  224.94    6.93 
   3   2  -3  220.38    6.95 
   3   2  -3  221.48    6.92 
  -3   2   3  207.70    6.96 
  -3   2   3  210.63    7.06 
   3   2  -3  202.03    7.01 
   3   2  -3  219.66    6.92 
   2  -2  -3  300.04    9.49 
   2  -2  -3  296.96    9.47 
   2  -2  -3  282.09    9.56 
  -2  -2   3  279.63    9.45 
  -2   2   3  308.47    9.53 
  -2   2   3  284.04    9.55 
   2   2  -3  306.11    9.45 
   2   2  -3  298.04    9.53 
   1  -2  -3   25.49    0.97 
  -1  -2   3   27.13    0.92 
   1  -2  -3   26.79    0.87 
  -1   2   3   23.36    0.95 
   1   2  -3   24.96    0.91 
  -1   2   3   25.55    0.88 
   1   2  -3   25.17    0.88 
   0  -2  -3  157.97    4.98 
   0  -2  -3  158.13    5.00 
   0  -2   3  157.13    4.99 
   0   2  -3  161.88    4.99 
   0   2   3  145.49    5.00 
   0   2  -3  142.72    4.97 
  -1  -2  -3  477.60   15.10 
  -1  -2  -3  467.60   15.19 
   1  -2   3  467.41   15.17 
  -1  -2  -3  472.00   15.06 
  -1   2  -3  462.01   15.10 
  -1   2  -3  471.57   15.07 
  -1   2  -3  462.37   15.09 
  -2  -2  -3   62.89    2.27 
   2  -2   3   69.55    2.27 
  -2  -2  -3   71.92    2.31 
  -2   2  -3   70.61    2.26 
   2   2   3   66.56    2.23 
  -2   2  -3   70.78    2.29 
   2   2   3   70.24    2.27 
   3  -2   3   35.67    1.21 
  -3  -2  -3   36.17    1.24 
   3  -2   3   33.13    1.20 
  -3   2  -3   35.25    1.26 
  -3   2  -3   36.47    1.21 
  -3   2  -3   34.10    1.22 
  -4  -2  -3   50.59    1.72 
   4  -2   3   48.96    1.67 
  -4  -2  -3   50.12    1.70 
  -4   2  -3   48.82    1.70 
  -4   2  -3   51.26    1.74 
  -4   2  -3   48.87    1.69 
   5  -2   3  164.90    5.50 
  -5  -2  -3  168.42    5.53 
  -5  -2  -3  168.07    5.55 
  -5   2  -3  173.19    5.56 
  -5   2  -3  170.55    5.53 
  -5   2  -3  172.41    5.54 
  -6  -2  -3    0.72    0.39 
  -6  -2  -3    1.16    0.33 
   6  -2   3    0.88    0.27 
   6   2   3    0.67    0.13 
  -6   2  -3    1.05    0.31 
  -6   2  -3    0.44    0.37 
  -6   2  -3    1.31    0.27 
  -7  -2  -3   44.20    1.66 
  -7  -2  -3   43.29    1.59 
   7  -2   3   45.17    1.54 
  -7   2  -3   43.40    1.66 
  -7   2  -3   42.03    1.64 
  -8  -2  -3   30.21    1.35 
  -8  -2  -3   32.42    1.28 
  -8   2  -3   30.09    1.31 
  -8   2  -3   30.02    1.32 
  -9  -2  -3   60.85    2.27 
  -9  -2  -3   60.28    2.19 
  -9   2  -3   58.65    2.23 
  -9   2  -3   61.69    2.25 
 -10  -2  -3    0.17    0.52 
 -10  -2  -3   -0.99    0.57 
 -10   2  -3   -0.05    0.57 
 -10   2  -3   -0.06    0.56 
  10  -3  -3   -0.81    0.61 
 -10   3   3   -0.57    0.47 
  10   3  -3    0.76    0.57 
   9  -3  -3   11.29    1.08 
  -9   3   3    9.68    0.70 
   9   3  -3   10.14    0.96 
   8  -3  -3    0.10    0.55 
  -8   3   3   -0.13    0.39 
   8   3  -3   -0.12    0.46 
   7  -3  -3    2.97    0.57 
  -7   3   3    2.37    0.22 
  -7   3   3    1.63    0.38 
   7   3  -3    2.21    0.48 
  -6  -3   3   -0.12    0.21 
   6  -3  -3    0.39    0.47 
  -6   3   3    0.19    0.32 
   6   3  -3    0.30    0.21 
  -6   3   3    0.04    0.16 
   6   3  -3   -0.16    0.38 
   5  -3  -3   48.50    1.82 
   5   3  -3   47.99    1.55 
  -5   3   3   48.37    1.68 
   5   3  -3   46.34    1.77 
  -5   3   3   48.66    1.59 
   5   3  -3   48.32    1.62 
   4  -3  -3    3.90    0.41 
  -4   3   3    3.69    0.33 
  -4   3   3    4.74    0.26 
   4   3  -3    4.12    0.39 
   4   3  -3    4.92    0.17 
   4   3  -3    5.06    0.31 
   3  -3  -3    2.82    0.21 
   3  -3  -3    2.78    0.39 
  -3   3   3    3.40    0.28 
   3   3  -3    3.44    0.15 
   3   3  -3    3.14    0.23 
   3   3  -3    2.88    0.22 
  -3   3   3    3.26    0.23 
   3   3  -3    3.28    0.16 
   2  -3  -3    3.62    0.22 
   2  -3  -3    3.58    0.36 
   2  -3  -3    3.32    0.24 
  -2  -3   3    3.31    0.30 
   2   3  -3    3.40    0.27 
   2   3  -3    4.02    0.30 
  -2   3   3    3.18    0.33 
   2   3  -3    3.55    0.21 
  -2   3   3    3.69    0.25 
   1  -3  -3   23.24    0.86 
   1  -3  -3   22.77    0.76 
  -1  -3   3   22.50    0.82 
   1  -3  -3   19.30    0.76 
  -1   3   3   21.96    0.77 
   1   3  -3   20.28    0.76 
  -1   3   3   17.96    0.82 
   1   3  -3   21.60    0.78 
   1   3  -3   22.54    0.75 
   0  -3   3    4.54    0.34 
   0  -3  -3    4.95    0.29 
   0  -3  -3    4.82    0.29 
   0  -3  -3    5.47    0.33 
   0   3  -3    4.84    0.32 
   0   3  -3    4.85    0.32 
   0   3  -3    5.26    0.30 
   0   3   3    5.15    0.37 
   0   3  -3    4.65    0.24 
   0   3   3    4.89    0.33 
   1  -3   3    2.05    0.24 
   1  -3   3    1.64    0.20 
  -1  -3  -3    1.74    0.23 
  -1  -3  -3    1.62    0.19 
  -1  -3  -3    1.76    0.17 
  -1   3  -3    1.89    0.21 
  -1   3  -3    1.61    0.24 
  -1   3  -3    2.06    0.16 
   1   3   3    1.09    0.24 
   1   3   3    1.66    0.19 
  -1   3  -3    1.73    0.22 
   2  -3   3   57.18    1.93 
  -2  -3  -3   59.06    1.92 
  -2   3  -3   58.65    1.95 
  -2   3  -3   60.92    1.94 
   2   3   3   54.86    1.91 
  -2   3  -3   57.87    1.90 
   2   3   3   54.00    1.90 
   3  -3   3   22.67    0.80 
   3  -3   3   21.13    0.83 
  -3  -3  -3   21.58    0.84 
  -3   3  -3   21.37    0.89 
  -3   3  -3   22.62    0.83 
   3   3   3   21.81    0.76 
  -3   3  -3   23.81    0.82 
  -4  -3  -3    0.21    0.27 
   4  -3   3    0.31    0.25 
  -4   3  -3    0.38    0.31 
   4   3   3    0.30    0.10 
  -4   3  -3    0.45    0.23 
  -4   3  -3    0.41    0.27 
   4   3   3    0.31    0.10 
   5  -3   3    1.61    0.31 
  -5  -3  -3    1.50    0.27 
  -5  -3  -3    1.52    0.36 
  -5   3  -3    1.30    0.27 
   5   3   3    1.28    0.14 
  -5   3  -3    1.58    0.38 
  -5   3  -3    1.53    0.31 
  -6  -3  -3   12.34    0.75 
  -6  -3  -3   11.99    0.63 
   6  -3   3   13.21    0.65 
  -6   3  -3   11.59    0.67 
   6   3   3   12.83    0.51 
  -6   3  -3   13.07    0.71 
  -7  -3  -3   12.41    0.67 
   7  -3   3   12.38    0.69 
  -7  -3  -3   11.48    0.70 
  -7   3  -3   11.96    0.76 
  -7   3  -3   11.63    0.82 
  -8  -3  -3    3.07    0.45 
   8  -3   3    4.63    0.45 
  -8  -3  -3    3.40    0.57 
  -8   3  -3    3.51    0.57 
  -8   3  -3    4.17    0.55 
  -9  -3  -3    4.07    0.62 
  -9  -3  -3    3.76    0.49 
  -9   3  -3    3.13    0.59 
  -9   3  -3    1.74    0.54 
 -10  -3  -3    1.99    0.66 
 -10   3  -3    0.99    0.59 
 -10   3  -3    1.88    0.61 
  10  -4  -3   26.31    1.54 
  10   4  -3   27.20    1.44 
 -10   4   3   27.02    1.28 
   9  -4  -3    0.06    0.60 
  -9   4   3    0.31    0.47 
   9   4  -3    0.98    0.55 
   8  -4  -3   16.59    1.16 
  -8   4   3   15.10    0.96 
   8   4  -3   16.68    1.04 
   7  -4  -3   27.06    1.38 
  -7   4   3   26.73    1.14 
  -7   4   3   26.78    0.97 
   7   4  -3   26.50    1.25 
   6  -4  -3   13.58    0.85 
   6   4  -3   13.29    0.62 
  -6   4   3   13.60    0.66 
   6   4  -3   12.75    0.84 
  -6   4   3   13.49    0.55 
   5  -4  -3    2.40    0.41 
  -5  -4   3    2.26    0.27 
   5   4  -3    2.50    0.26 
  -5   4   3    2.62    0.23 
   5   4  -3    2.08    0.38 
  -5   4   3    1.34    0.34 
   4  -4  -3   29.43    1.31 
   4  -4  -3   31.21    1.04 
  -4  -4   3   30.32    1.07 
  -4   4   3   28.08    1.13 
   4   4  -3   31.16    1.22 
   4   4  -3   30.79    1.07 
  -4   4   3   30.74    1.05 
  -3  -4   3  103.89    3.33 
   3  -4  -3  108.27    3.47 
  -3  -4   3   97.72    3.37 
   3  -4  -3  104.31    3.31 
   3   4  -3   97.34    3.33 
   3   4  -3   99.08    3.26 
  -3   4   3  102.40    3.36 
   3   4  -3  100.12    3.32 
  -3   4   3  103.39    3.32 
   2  -4  -3  114.39    3.68 
  -2  -4   3  114.47    3.73 
  -2  -4   3  115.84    3.70 
   2  -4  -3  112.83    3.79 
   2   4  -3  114.16    3.66 
  -2   4   3  111.83    3.71 
   2   4  -3  106.90    3.67 
   2   4  -3  114.31    3.70 
  -2   4   3  114.40    3.69 
   1  -4  -3    2.33    0.29 
   1  -4  -3    2.38    0.21 
  -1  -4   3    2.29    0.23 
  -1  -4   3    1.99    0.28 
   1   4  -3    1.95    0.18 
  -1   4   3    2.10    0.27 
   1   4  -3    1.75    0.22 
  -1   4   3    2.42    0.24 
   0  -4  -3  235.73    7.49 
   0  -4   3  234.11    7.51 
   0  -4  -3  240.12    7.48 
   0  -4  -3  240.93    7.52 
   0  -4  -3  234.59    7.49 
   0   4  -3  200.34    7.44 
   0   4  -3  239.80    7.50 
   0   4  -3  226.62    7.49 
   0   4   3  230.97    7.50 
   0   4   3  237.23    7.53 
   1  -4   3  311.51   10.35 
  -1  -4  -3  320.36   10.32 
   1  -4   3  323.22   10.33 
  -1   4  -3  313.67   10.34 
   1   4   3  313.76   10.35 
  -1   4  -3  337.11   10.35 
  -1   4  -3  325.79   10.33 
   2  -4   3   16.10    0.66 
  -2  -4  -3   15.66    0.64 
   2  -4   3   15.11    0.55 
   2   4   3   15.54    0.69 
  -2   4  -3   14.53    0.65 
  -2   4  -3   15.24    0.68 
  -2   4  -3   14.14    0.67 
  -2   4  -3   14.20    0.57 
   2   4   3   15.85    0.61 
  -3  -4  -3   20.73    0.72 
   3  -4   3   21.16    0.84 
   3  -4   3   21.47    0.77 
  -3  -4  -3   20.66    0.82 
  -3   4  -3   21.02    0.77 
  -3   4  -3   20.51    0.89 
  -3   4  -3   20.37    0.84 
   3   4   3   22.12    0.77 
  -4  -4  -3  112.49    3.75 
   4  -4   3  114.59    3.76 
  -4   4  -3  112.72    3.73 
   4   4   3  114.25    3.70 
  -4   4  -3  114.52    3.80 
  -5  -4  -3   66.51    2.29 
   5  -4   3   66.75    2.28 
   5   4   3   64.75    2.19 
   5   4   3   67.24    2.20 
  -5   4  -3   66.13    2.27 
  -5   4  -3   67.52    2.33 
  -6  -4  -3    0.21    0.27 
  -6  -4  -3    0.59    0.40 
   6  -4   3    0.53    0.36 
   6   4   3    0.24    0.18 
  -6   4  -3   -0.16    0.33 
  -6   4  -3    0.11    0.40 
  -7  -4  -3    3.40    0.39 
   7  -4   3    3.70    0.45 
  -7  -4  -3    2.99    0.52 
  -7   4  -3    2.85    0.52 
  -7   4  -3    2.75    0.48 
   8  -4   3   19.05    0.93 
  -8  -4  -3   18.70    0.90 
  -8  -4  -3   18.08    1.07 
  -8   4  -3   17.81    1.06 
  -8   4  -3   19.40    0.99 
  -9  -4  -3   27.76    1.33 
  -9   4  -3   26.48    1.33 
  -9   4  -3   25.94    1.33 
  10  -5  -3   11.44    0.99 
 -10   5   3   10.70    0.80 
  10   5  -3   13.37    1.11 
   9  -5  -3  118.09    4.07 
   9   5  -3  108.08    3.95 
  -9   5   3  110.62    3.85 
   8  -5  -3   36.66    1.70 
   8   5  -3   34.85    1.55 
  -8   5   3   33.40    1.45 
   7  -5  -3   13.58    1.12 
  -7   5   3   14.02    0.64 
  -7   5   3   15.84    0.87 
   7   5  -3   14.88    0.96 
   7   5  -3   14.10    0.71 
   6  -5  -3   31.45    1.53 
  -6   5   3   32.58    1.32 
  -6   5   3   34.56    1.18 
   6   5  -3   33.34    1.40 
   6   5  -3   32.59    1.22 
   5  -5  -3  377.86   12.41 
   5   5  -3  391.59   12.34 
   5   5  -3  379.28   12.22 
  -5   5   3  380.69   12.27 
  -5   5   3  367.41   12.20 
   4  -5  -3   99.75    3.44 
   4  -5  -3   98.66    3.23 
  -4  -5   3   95.56    3.30 
   4   5  -3   98.70    3.25 
  -4   5   3  101.02    3.30 
  -4   5   3   98.13    3.24 
   3  -5  -3    0.13    0.18 
  -3  -5   3    0.21    0.31 
   3  -5  -3    0.12    0.37 
  -3   5   3    0.22    0.21 
   3   5  -3    0.17    0.23 
  -3   5   3   -0.27    0.28 
   3   5  -3    0.08    0.18 
  -2  -5   3   76.98    2.59 
   2  -5  -3   78.93    2.64 
   2  -5  -3   76.56    2.53 
   2   5  -3   77.77    2.50 
  -2   5   3   79.56    2.55 
  -2   5   3   71.65    2.57 
   2   5  -3   76.74    2.56 
   2   5  -3   76.57    2.51 
  -1  -5   3  197.33    6.47 
  -1  -5   3  195.84    6.40 
   1  -5  -3  202.91    6.51 
   1   5  -3  197.41    6.44 
   1   5  -3  199.64    6.41 
  -1   5   3  198.99    6.44 
   0  -5  -3   44.05    1.49 
   0  -5   3   42.11    1.55 
   0  -5  -3   44.37    1.56 
   0  -5   3   45.31    1.50 
   0   5  -3   43.55    1.50 
   0   5  -3   43.13    1.53 
   0   5   3   43.44    1.54 
   0   5  -3   45.78    1.45 
   0   5   3   45.28    1.58 
  -1  -5  -3    7.13    0.42 
   1  -5   3    7.84    0.50 
   1   5   3    7.50    0.50 
  -1   5  -3    7.61    0.45 
   1   5   3    7.63    0.47 
  -1   5  -3    6.83    0.48 
  -1   5  -3    7.70    0.32 
  -2  -5  -3  173.21    5.53 
  -2  -5  -3  172.16    5.55 
   2  -5   3  170.24    5.59 
   2   5   3  174.81    5.57 
  -2   5  -3  175.10    5.52 
   2   5   3  169.75    5.60 
  -2   5  -3  165.68    5.59 
  -2   5  -3  167.60    5.59 
   3  -5   3  134.35    4.53 
  -3  -5  -3  140.85    4.52 
   3  -5   3  138.91    4.60 
  -3  -5  -3  138.76    4.57 
  -3   5  -3  140.99    4.54 
  -3   5  -3  141.43    4.62 
   3   5   3  145.83    4.62 
  -3   5  -3  137.62    4.61 
  -4  -5  -3   32.95    1.12 
  -4  -5  -3   32.60    1.26 
   4  -5   3   35.35    1.27 
  -4   5  -3   33.53    1.31 
  -4   5  -3   32.53    1.30 
  -4   5  -3   34.12    1.20 
  -5  -5  -3   32.24    1.26 
   5  -5   3   35.47    1.29 
   5   5   3   32.18    1.16 
  -5   5  -3   31.40    1.21 
  -5   5  -3   31.46    1.32 
  -5   5  -3   32.69    1.33 
  -6  -5  -3  138.13    4.54 
   6  -5   3  133.85    4.59 
  -6  -5  -3  139.68    4.60 
  -6   5  -3  134.50    4.56 
  -6   5  -3  132.23    4.63 
  -6   5  -3  143.39    4.64 
   6   5   3  145.66    4.56 
  -7  -5  -3   63.95    2.14 
  -7  -5  -3   61.32    2.24 
   7  -5   3   58.72    2.18 
  -7   5  -3   61.79    2.27 
  -7   5  -3   62.01    2.20 
  -7   5  -3   63.04    2.28 
   8  -5   3    6.04    0.59 
  -8  -5  -3    5.81    0.54 
  -8  -5  -3    6.27    0.66 
  -8   5  -3    6.95    0.62 
  -8   5  -3    5.77    0.65 
  -8   5  -3    6.93    0.72 
  -9  -5  -3   34.78    1.60 
  -9   5  -3   37.18    1.52 
  -9   5  -3   38.25    1.61 
  -9   5  -3   35.70    1.63 
   9  -6  -3    4.11    0.79 
  -9   6   3    4.51    0.64 
   9   6  -3    3.18    0.65 
   8  -6  -3    4.64    0.77 
   8   6  -3    6.41    0.49 
   8   6  -3    5.23    0.65 
  -8   6   3    4.00    0.60 
   7  -6  -3    0.58    0.49 
   7   6  -3    1.20    0.37 
  -7   6   3    0.42    0.48 
  -7   6   3    1.65    0.32 
   7   6  -3    1.67    0.55 
   6  -6  -3    4.51    0.66 
  -6   6   3    4.80    0.38 
   6   6  -3    5.69    0.44 
  -6   6   3    4.49    0.51 
   6   6  -3    4.92    0.55 
   5  -6  -3    1.43    0.54 
  -5   6   3    2.04    0.42 
  -5   6   3    2.09    0.31 
   5   6  -3    1.36    0.31 
   4  -6  -3   35.98    1.46 
  -4  -6   3   34.40    1.37 
  -4   6   3   35.18    1.28 
   4   6  -3   35.38    1.28 
  -4   6   3   36.51    1.36 
  -3  -6   3   11.40    0.66 
   3  -6  -3   11.05    0.79 
  -3   6   3   10.95    0.58 
   3   6  -3   11.20    0.58 
  -3   6   3   11.41    0.57 
   3   6  -3   10.69    0.50 
  -2  -6   3    2.17    0.36 
   2  -6  -3    2.53    0.40 
   2   6  -3    2.83    0.32 
  -2   6   3    2.19    0.32 
   2   6  -3    2.24    0.19 
  -2   6   3    1.58    0.33 
   2   6  -3    2.25    0.18 
  -1  -6   3    9.99    0.48 
   1  -6  -3   13.09    0.70 
  -1  -6   3   12.37    0.67 
   1  -6  -3   12.29    0.52 
   1   6  -3   13.01    0.53 
   1   6  -3   13.16    0.62 
   1   6  -3   12.71    0.45 
  -1   6   3   12.83    0.61 
   0  -6   3    8.05    0.44 
   0  -6   3    8.12    0.57 
   0  -6  -3    8.66    0.43 
   0   6  -3    8.29    0.30 
   0   6  -3    8.37    0.47 
   0   6   3    8.28    0.54 
   0   6  -3    8.99    0.53 
   1  -6   3   51.90    1.81 
  -1  -6  -3   50.30    1.74 
  -1   6  -3   51.52    1.67 
  -1   6  -3   52.09    1.80 
   1   6   3   50.79    1.80 
  -1   6  -3   51.86    1.79 
   2  -6   3    8.29    0.58 
  -2  -6  -3    7.61    0.43 
  -2  -6  -3    6.67    0.43 
  -2   6  -3    6.98    0.34 
  -2   6  -3    7.80    0.55 
  -2   6  -3    6.55    0.53 
   2   6   3    6.86    0.49 
   2   6   3    7.23    0.50 
  -3  -6  -3   10.13    0.47 
   3  -6   3   10.45    0.71 
  -3  -6  -3    9.85    0.54 
   3   6   3    9.94    0.57 
  -3   6  -3    9.89    0.66 
  -3   6  -3   10.27    0.65 
   3   6   3   10.09    0.67 
  -3   6  -3    9.80    0.47 
   4  -6   3    0.12    0.21 
  -4  -6  -3    0.38    0.19 
   4  -6   3    0.31    0.42 
  -4  -6  -3    0.19    0.31 
  -4   6  -3    0.03    0.39 
  -4   6  -3    0.28    0.24 
  -4   6  -3    0.01    0.39 
   4   6   3   -0.26    0.37 
   4   6   3   -0.20    0.24 
   5  -6   3   33.57    1.37 
  -5  -6  -3   34.78    1.35 
  -5   6  -3   36.34    1.44 
  -5   6  -3   34.74    1.41 
  -5   6  -3   36.47    1.30 
  -6  -6  -3    4.39    0.39 
  -6  -6  -3    3.95    0.53 
   6  -6   3    4.45    0.52 
  -6   6  -3    4.12    0.44 
  -6   6  -3    4.14    0.56 
  -6   6  -3    3.76    0.57 
  -7  -6  -3    1.94    0.35 
  -7  -6  -3    1.53    0.50 
   7  -6   3    2.78    0.51 
  -7   6  -3    1.61    0.55 
  -7   6  -3    1.60    0.56 
  -7   6  -3    1.55    0.46 
  -8  -6  -3    3.37    0.61 
   8  -6   3    4.38    0.57 
  -8   6  -3    5.33    0.66 
  -8   6  -3    4.34    0.57 
  -8   6  -3    3.88    0.66 
  -9  -6  -3   17.16    1.11 
  -9   6  -3   14.74    1.16 
  -9   6  -3   19.17    1.09 
  -9   6  -3   16.01    1.11 
   9  -7  -3   19.84    1.45 
  -9   7   3   17.96    1.19 
   9   7  -3   19.96    1.27 
   8  -7  -3   14.68    1.33 
   8   7  -3   14.63    0.85 
   8   7  -3   14.46    1.20 
  -8   7   3   13.91    1.03 
   7  -7  -3   -0.59    0.66 
   7   7  -3   -0.04    0.39 
  -7   7   3   -0.21    0.41 
   7   7  -3    0.08    0.50 
  -7   7   3   -0.26    0.51 
   6  -7  -3    8.25    0.81 
   6   7  -3    9.08    0.63 
  -6   7   3   10.03    0.64 
  -6   7   3    8.58    0.65 
   6   7  -3   10.40    0.90 
  -5  -7   3   25.42    1.14 
   5  -7  -3   24.27    1.35 
  -5   7   3   24.51    1.00 
  -5   7   3   23.47    1.11 
   5   7  -3   26.13    1.02 
  -4  -7   3   47.88    1.72 
   4  -7  -3   47.71    1.89 
  -4   7   3   45.80    1.72 
   4   7  -3   46.31    1.68 
  -4   7   3   46.00    1.66 
   3  -7  -3    0.31    0.43 
  -3  -7   3    0.49    0.39 
  -3   7   3    0.42    0.30 
  -3   7   3    0.42    0.36 
   3   7  -3    0.82    0.33 
   3   7  -3    0.35    0.19 
  -2  -7   3   34.35    1.20 
   2  -7  -3   35.78    1.45 
  -2  -7   3   36.46    1.36 
   2   7  -3   37.16    1.21 
  -2   7   3   33.46    1.30 
   2   7  -3   34.41    1.18 
   2   7  -3   35.19    1.32 
  -2   7   3   36.62    1.33 
  -1  -7   3   56.28    1.85 
  -1  -7   3   58.56    1.96 
   1  -7  -3   54.70    1.84 
  -1   7   3   54.38    1.92 
   1   7  -3   51.86    1.77 
   1   7  -3   56.80    1.85 
   1   7  -3   54.72    1.92 
   1   7  -3   53.65    1.77 
   0  -7  -3   81.63    2.79 
   0  -7   3   88.40    2.88 
   0   7  -3   86.90    2.83 
   0   7   3   82.23    2.86 
   0   7  -3   84.92    2.87 
  -1  -7  -3   33.35    1.17 
   1  -7   3   31.86    1.28 
  -1  -7  -3   32.62    1.20 
   1   7   3   34.48    1.27 
  -1   7  -3   32.01    1.25 
  -1   7  -3   33.03    1.22 
  -2  -7  -3  125.24    4.09 
  -2  -7  -3  127.17    4.10 
   2  -7   3  128.13    4.17 
  -2   7  -3  126.82    4.15 
  -2   7  -3  125.62    4.02 
   2   7   3  119.95    4.16 
  -2   7  -3  120.59    4.15 
   3  -7   3   46.76    1.77 
  -3  -7  -3   48.30    1.65 
  -3  -7  -3   47.61    1.69 
  -3   7  -3   47.08    1.76 
  -3   7  -3   49.85    1.77 
  -3   7  -3   48.15    1.61 
   3   7   3   48.98    1.77 
  -4  -7  -3    7.57    0.51 
  -4  -7  -3    8.35    0.45 
   4  -7   3    7.80    0.60 
  -4   7  -3    7.37    0.46 
  -4   7  -3    7.56    0.60 
   4   7   3    6.31    0.58 
  -4   7  -3    7.21    0.58 
  -5  -7  -3   15.83    0.82 
   5  -7   3   15.99    0.91 
  -5   7  -3   16.26    0.96 
   5   7   3   16.47    0.94 
  -5   7  -3   15.64    0.92 
  -5   7  -3   15.62    0.74 
   6  -7   3   24.67    1.17 
  -6  -7  -3   25.31    1.13 
  -6   7  -3   24.47    1.24 
  -6   7  -3   26.01    1.06 
  -6   7  -3   25.53    1.28 
  -7  -7  -3   26.84    1.22 
   7  -7   3   25.12    1.23 
  -7   7  -3   27.24    1.15 
  -7   7  -3   25.10    1.32 
  -7   7  -3   25.79    1.29 
   8  -7   3    2.63    0.60 
  -8  -7  -3    3.56    0.60 
  -8   7  -3    1.89    0.67 
  -8   7  -3    3.97    0.69 
   8  -8  -3    8.40    0.96 
  -8   8   3    8.55    0.78 
   8   8  -3   10.15    0.80 
   8   8  -3    8.44    0.81 
   7  -8  -3   44.35    2.13 
   7   8  -3   48.70    2.03 
  -7   8   3   46.84    1.89 
   7   8  -3   48.94    1.79 
   6  -8  -3   92.85    3.46 
   6   8  -3   93.92    3.18 
  -6   8   3   92.53    3.15 
  -6   8   3   92.72    3.24 
   5  -8  -3    0.45    0.46 
  -5  -8   3   -0.25    0.44 
  -5   8   3   -0.52    0.46 
  -5   8   3   -0.39    0.39 
   5   8  -3    0.02    0.39 
   4  -8  -3  126.79    4.28 
  -4  -8   3  118.93    4.11 
   4   8  -3  122.12    4.08 
  -4   8   3  120.62    4.11 
  -4   8   3  123.09    4.07 
   3  -8  -3  149.56    4.96 
  -3  -8   3  143.43    4.84 
  -3   8   3  150.72    4.80 
  -3   8   3  143.20    4.82 
   3   8  -3  139.87    4.80 
   2  -8  -3   32.93    1.34 
  -2  -8   3   32.12    1.31 
  -2   8   3   31.09    1.29 
   2   8  -3   33.27    1.13 
   2   8  -3   32.59    1.28 
  -2   8   3   32.75    1.28 
   1  -8  -3    2.53    0.26 
  -1  -8   3    2.62    0.47 
   1   8  -3    2.64    0.42 
  -1   8   3    2.93    0.45 
   1   8  -3    2.83    0.28 
   0  -8  -3   59.85    2.05 
   0  -8   3   62.37    2.16 
   0   8   3   61.02    2.16 
   0   8  -3   60.77    2.16 
   0   8  -3   62.26    2.09 
  -1  -8  -3  134.58    4.57 
   1  -8   3  143.11    4.63 
  -1  -8  -3  138.09    4.53 
  -1   8  -3  140.83    4.60 
  -1   8  -3  138.50    4.58 
   1   8   3  137.41    4.61 
   2  -8   3   26.87    1.18 
  -2  -8  -3   27.57    1.02 
  -2  -8  -3   27.16    1.06 
  -2   8  -3   27.79    1.12 
   2   8   3   25.82    1.16 
  -2   8  -3   25.22    1.13 
  -3  -8  -3    0.16    0.31 
  -3  -8  -3    0.39    0.30 
   3  -8   3    0.13    0.46 
  -3   8  -3   -0.12    0.41 
   3   8   3    0.51    0.45 
  -3   8  -3    0.50    0.43 
   4  -8   3   50.72    1.95 
  -4  -8  -3   52.21    1.85 
  -4  -8  -3   50.83    1.78 
  -4   8  -3   51.35    1.94 
  -4   8  -3   52.83    1.95 
   4   8   3   52.48    1.94 
   5  -8   3   83.76    2.94 
  -5  -8  -3   84.08    2.85 
  -5   8  -3   81.05    2.94 
   5   8   3   81.48    2.92 
  -5   8  -3   84.69    2.94 
   6  -8   3    0.73    0.60 
  -6  -8  -3    0.40    0.45 
  -6   8  -3    1.08    0.58 
  -6   8  -3    0.63    0.46 
  -7  -8  -3   19.67    1.05 
   7  -8   3   20.79    1.14 
  -7   8  -3   17.45    1.19 
  -7   8  -3   17.54    1.23 
   8  -9  -3    0.50    0.95 
   8   9  -3    1.49    0.66 
   7  -9  -3   -0.63    0.74 
  -7   9   3    0.14    0.58 
   7   9  -3   -0.37    0.46 
   7   9  -3    0.21    0.61 
  -6  -9   3    7.11    0.64 
   6  -9  -3    5.30    0.84 
  -6   9   3    7.19    0.59 
   6   9  -3    6.17    0.58 
  -6   9   3    6.12    0.68 
  -5  -9   3   22.16    1.09 
   5  -9  -3   22.76    1.41 
   5   9  -3   22.43    1.05 
  -5   9   3   20.50    1.00 
  -5   9   3   22.80    1.15 
   4  -9  -3   -0.32    0.59 
  -4  -9   3   -0.25    0.47 
  -4   9   3   -0.12    0.46 
   4   9  -3    0.30    0.47 
  -4   9   3    0.22    0.43 
  -3  -9   3   -0.11    0.47 
  -3   9   3    0.52    0.45 
   3   9  -3    0.52    0.43 
  -3   9   3   -0.48    0.39 
   2  -9  -3    6.99    0.46 
  -2  -9   3    7.26    0.61 
   2   9  -3    6.76    0.57 
   2   9  -3    6.85    0.43 
  -2   9   3    6.80    0.56 
   1  -9  -3   17.99    0.73 
  -1  -9   3   17.51    0.98 
  -1   9   3   18.74    0.93 
   1   9  -3   18.54    0.78 
   1   9  -3   19.14    0.94 
   0  -9  -3   -0.08    0.41 
   0  -9  -3    0.14    0.24 
   0  -9   3    0.58    0.46 
   0   9   3    0.34    0.41 
   0   9  -3    0.62    0.34 
   0   9  -3    0.06    0.31 
  -1  -9  -3    4.28    0.35 
  -1  -9  -3    4.32    0.46 
   1  -9   3    5.00    0.58 
  -1   9  -3    4.97    0.46 
  -1   9  -3    5.01    0.52 
   1   9   3    4.68    0.54 
   2  -9   3   12.18    0.85 
  -2  -9  -3   11.45    0.71 
  -2  -9  -3   11.22    0.61 
   2   9   3   11.58    0.82 
  -2   9  -3   11.88    0.81 
  -2   9  -3   11.60    0.81 
   3  -9   3    8.44    0.71 
  -3  -9  -3    8.68    0.61 
  -3  -9  -3    8.86    0.61 
  -3   9  -3    8.48    0.66 
   3   9   3    9.05    0.69 
  -3   9  -3    9.00    0.67 
   4  -9   3    8.23    0.73 
  -4  -9  -3    7.96    0.56 
   4   9   3    8.08    0.63 
  -4   9  -3    8.13    0.69 
  -4   9  -3    7.28    0.66 
  -5  -9  -3    0.97    0.43 
   5  -9   3    1.88    0.61 
  -5   9  -3    1.41    0.58 
  -5   9  -3    1.73    0.57 
   5   9   3    1.22    0.55 
   6  -9   3   10.15    0.87 
  -6  -9  -3    8.19    0.65 
  -6   9  -3    7.65    0.77 
  -6   9  -3    9.98    0.84 
   7  -9   3    5.54    0.75 
  -7  -9  -3    4.66    0.61 
  -7   9  -3    6.15    0.77 
  -7   9  -3    5.42    0.75 
   7  10  -3    8.06    0.74 
   7  10  -3    7.04    0.84 
   6 -10  -3   13.23    1.14 
  -6 -10   3   15.44    0.98 
   6  10  -3   14.75    0.95 
  -6  10   3   14.32    0.94 
  -6  10   3   13.72    1.07 
  -5 -10   3    1.04    0.55 
  -5  10   3    0.76    0.53 
   5  10  -3    1.35    0.51 
  -5  10   3    0.55    0.52 
  -4 -10   3   13.11    0.96 
  -4  10   3   15.15    0.88 
   4  10  -3   14.13    0.91 
  -4  10   3   14.71    0.98 
  -3 -10   3   21.46    1.16 
  -3  10   3   24.13    1.13 
  -3  10   3   23.95    1.10 
   3  10  -3   22.35    1.12 
  -2 -10   3    8.64    0.70 
   2  10  -3    9.22    0.66 
  -2  10   3    7.50    0.64 
  -1 -10   3    1.39    0.55 
   1 -10  -3    1.32    0.52 
   1  10  -3    1.17    0.49 
   1  10  -3    1.39    0.31 
  -1  10   3    1.00    0.49 
   0 -10   3   31.74    1.35 
   0 -10  -3   29.89    1.33 
   0  10   3   30.66    1.32 
   0  10  -3   27.84    1.30 
   0  10  -3   31.08    1.19 
   1 -10   3   32.43    1.41 
  -1 -10  -3   32.61    1.34 
  -1  10  -3   32.38    1.27 
  -1  10  -3   32.27    1.38 
   1  10   3   30.82    1.38 
  -2 -10  -3    3.00    0.47 
   2 -10   3    2.89    0.60 
   2  10   3    2.94    0.59 
  -2  10  -3    3.10    0.55 
  -2  10  -3    2.99    0.47 
  -3 -10  -3    1.48    0.43 
   3 -10   3    2.03    0.62 
  -3  10  -3    1.00    0.47 
  -3  10  -3    2.61    0.55 
   3  10   3    1.67    0.59 
   4 -10   3   28.09    1.45 
   4  10   3   27.02    1.35 
  -4  10  -3   28.37    1.34 
  -4  10  -3   27.92    1.34 
   5 -10   3    4.52    0.79 
  -5  10  -3    5.59    0.70 
   5  10   3    4.77    0.69 
  -5  10  -3    4.28    0.66 
   6 -10   3    1.38    0.70 
   6  10   3    2.16    0.66 
  -6  10  -3    2.35    0.67 
  -6  10  -3    0.54    0.65 
  -5 -11   3   53.12    2.08 
  -5  11   3   50.84    1.96 
   5  11  -3   51.42    2.00 
  -5  11   3   50.72    2.06 
  -4 -11   3   27.19    1.34 
   4  11  -3   27.37    1.30 
  -4  11   3   26.07    1.32 
  -4  11   3   28.76    1.33 
  -3 -11   3    2.75    0.63 
  -3  11   3    2.86    0.58 
   3  11  -3    2.03    0.58 
  -2 -11   3   32.21    1.46 
   2 -11  -3   29.13    1.55 
  -2  11   3   34.05    1.42 
   2  11  -3   33.24    1.43 
   1 -11  -3   18.45    1.13 
  -1 -11   3   21.97    1.18 
   1  11  -3   22.19    1.15 
  -1  11   3   20.77    1.13 
   0 -11   3   13.07    1.00 
   0 -11  -3   11.12    0.89 
   0  11   3   11.75    0.94 
   0  11  -3   13.67    0.75 
   0  11  -3   12.88    0.94 
   1 -11   3    8.76    0.77 
  -1 -11  -3    8.54    0.70 
  -1  11  -3    8.76    0.65 
  -1  11  -3    8.96    0.62 
   1  11   3    8.19    0.73 
  -2 -11  -3   26.94    1.18 
   2 -11   3   27.83    1.37 
  -2  11  -3   26.15    1.32 
  -2  11  -3   27.95    1.27 
   2  11   3   28.15    1.35 
   3 -11   3   30.96    1.46 
   3  11   3   28.31    1.41 
  -3  11  -3   28.84    1.32 
  -3  11  -3   27.23    1.38 
   4 -11   3   28.51    1.46 
  -4  11  -3   27.83    1.36 
  -4  11  -3   27.57    1.40 
   4  11   3   27.02    1.39 
  -3 -12   3    9.20    0.83 
   3 -12  -3    7.06    0.89 
  -3  12   3    9.94    0.79 
   3  12  -3    8.35    0.79 
  -2 -12   3    5.59    0.74 
   2 -12  -3    4.93    0.78 
  -2  12   3    6.17    0.71 
   2  12  -3    6.84    0.72 
  -1 -12   3    0.83    0.63 
   1 -12  -3    0.34    0.66 
   1  12  -3    0.47    0.60 
  -1  12   3    0.75    0.59 
   0 -12  -3    6.40    0.70 
   0 -12   3    8.61    0.82 
   0  12   3    7.74    0.77 
   0  12  -3    8.01    0.76 
  -1 -12  -3    6.14    0.69 
   1 -12   3    7.18    0.79 
   1  12   3    6.36    0.74 
  -1  12  -3    6.52    0.69 
  -1  12  -3    6.83    0.74 
  -2 -12  -3    0.54    0.53 
   2 -12   3    0.14    0.67 
  -2  12  -3    0.56    0.62 
  -2  12  -3    0.59    0.54 
   2  12   3    0.15    0.68 
  11   0  -4   62.21    2.60 
  10   0  -4   48.65    2.10 
  -9   0   4   35.87    1.37 
   9   0  -4   36.22    1.67 
   8   0  -4   22.13    1.26 
  -8   0   4   23.27    0.94 
  -7   0   4  216.99    6.83 
   7   0  -4  203.19    7.02 
   6   0  -4   57.94    2.27 
  -6   0   4   64.05    2.07 
   5   0  -4   77.83    2.87 
   5   0  -4   84.84    2.69 
   4   0  -4  163.48    5.52 
   4   0  -4  168.58    5.38 
   3   0  -4  662.92   19.98 
   3   0  -4  620.26   20.01 
   3   0  -4  584.44   20.07 
   2   0  -4  101.62    3.47 
  -2   0   4  106.00    3.46 
   1   0  -4   35.83    1.25 
   1   0  -4   36.18    1.32 
   0   0  -4  104.21    3.40 
   0   0  -4  102.37    3.37 
  -1   0  -4  200.84    6.61 
  -1   0  -4  207.71    6.63 
  -1   0  -4  206.44    6.63 
  -2   0  -4  257.67    9.34 
  -2   0  -4  324.07    9.39 
  -2   0  -4  291.90    9.38 
  -3   0  -4    5.38    0.43 
  -3   0  -4    5.40    0.20 
  -3   0  -4    5.29    0.20 
  -3   0  -4    4.22    0.34 
  -4   0  -4  137.27    4.43 
  -4   0  -4  133.11    4.42 
   4   0   4  134.10    4.34 
   5   0   4  108.85    3.71 
  -5   0  -4  117.22    3.84 
  -5   0  -4  120.48    3.83 
  -6   0  -4   94.95    3.21 
   6   0   4   91.02    3.05 
  -6   0  -4   99.40    3.22 
  -7   0  -4   88.26    3.06 
  -7   0  -4   89.44    3.07 
  -8   0  -4  139.90    4.62 
  -8   0  -4  135.41    4.64 
  -9   0  -4   41.85    1.70 
  -9   0  -4   43.74    1.76 
 -10   0  -4    3.83    0.81 
 -10   0  -4    4.43    0.69 
  11  -1  -4    2.24    0.80 
  11   1  -4    2.26    0.77 
  10  -1  -4    0.67    0.65 
  10   1  -4    0.21    0.62 
   9  -1  -4   22.41    1.29 
   9   1  -4   19.05    1.25 
  -9   1   4   18.75    0.91 
  -8  -1   4   51.23    1.80 
   8  -1  -4   53.23    2.11 
   8   1  -4   49.36    2.07 
  -8   1   4   53.71    1.85 
   7  -1  -4    0.48    0.51 
  -7   1   4    0.18    0.28 
   7   1  -4    0.28    0.23 
   7   1  -4    0.30    0.47 
   6  -1  -4   16.95    0.91 
   6   1  -4   17.05    0.65 
  -6   1   4   16.42    0.72 
   6   1  -4   16.99    0.98 
   5  -1  -4   62.33    2.28 
   5   1  -4   57.85    2.04 
  -5   1   4   65.37    2.09 
   5   1  -4   62.09    2.24 
   4  -1  -4   45.08    1.65 
   4  -1  -4   47.40    1.45 
   4   1  -4   37.18    1.41 
   4   1  -4   39.89    1.38 
   4   1  -4   44.39    1.60 
   3  -1  -4   28.36    0.97 
   3  -1  -4   26.75    1.15 
   3  -1  -4   27.13    0.89 
   3   1  -4   26.02    0.91 
   3   1  -4   29.43    0.94 
   3   1  -4   27.36    1.10 
   2  -1  -4    3.84    0.27 
   2  -1  -4    4.08    0.22 
   2  -1  -4    3.65    0.38 
  -2   1   4    4.47    0.42 
   2   1  -4    4.42    0.42 
   2   1  -4    4.73    0.35 
   2   1  -4    4.45    0.24 
   1  -1  -4  136.38    4.27 
   1  -1  -4  126.28    4.34 
   1   1  -4  135.15    4.33 
   1   1  -4  128.50    4.29 
   0  -1  -4   95.10    3.28 
   0   1  -4  101.87    3.27 
   0   1  -4   98.21    3.24 
   0   1   4  101.71    3.26 
  -1  -1  -4    2.79    0.23 
   1  -1   4    3.02    0.26 
  -1  -1  -4    2.36    0.21 
  -1  -1  -4    3.08    0.24 
  -1   1  -4    2.83    0.22 
  -1   1  -4    2.83    0.24 
  -2  -1  -4   39.85    1.38 
  -2  -1  -4   37.75    1.32 
  -2  -1  -4   40.95    1.30 
   2  -1   4   42.04    1.39 
   2  -1   4   37.19    1.35 
  -2   1  -4   40.67    1.34 
  -2   1  -4   41.21    1.39 
  -2   1  -4   41.83    1.38 
   3  -1   4  236.94    7.59 
  -3  -1  -4  247.43    7.63 
  -3   1  -4  237.37    7.62 
  -3   1  -4  217.72    7.57 
  -3   1  -4  238.40    7.64 
   4  -1   4   18.15    0.65 
  -4  -1  -4   16.98    0.75 
  -4  -1  -4   18.01    0.76 
  -4   1  -4   17.87    0.78 
  -4   1  -4   16.89    0.74 
  -4   1  -4   15.92    0.64 
  -5  -1  -4    1.01    0.32 
  -5  -1  -4    0.60    0.34 
   5  -1   4    1.16    0.20 
  -5   1  -4    0.63    0.34 
  -5   1  -4    1.44    0.19 
  -5   1  -4    0.73    0.34 
  -6  -1  -4   20.47    0.93 
   6  -1   4   20.91    0.77 
  -6  -1  -4   22.30    0.97 
  -6   1  -4   20.21    0.95 
  -6   1  -4   20.46    0.97 
  -7  -1  -4   41.64    1.64 
  -7  -1  -4   42.58    1.60 
  -7   1  -4   43.06    1.64 
  -7   1  -4   42.78    1.64 
  -8  -1  -4    1.19    0.53 
  -8  -1  -4    1.93    0.46 
  -8   1  -4    1.27    0.52 
  -8   1  -4    1.05    0.50 
  -9  -1  -4   -0.28    0.58 
  -9  -1  -4    0.56    0.54 
  -9   1  -4   -0.20    0.55 
  -9   1  -4   -0.38    0.52 
  10  -2  -4   20.23    1.36 
 -10   2   4   20.09    1.06 
  10   2  -4   19.93    1.31 
   9  -2  -4    7.84    0.80 
  -9   2   4    8.92    0.69 
   9   2  -4    7.34    0.76 
   8  -2  -4    5.68    0.71 
   8   2  -4    4.79    0.64 
  -8   2   4    5.14    0.46 
   7  -2  -4   30.19    1.47 
  -7   2   4   31.59    1.21 
   7   2  -4   32.02    1.42 
   6  -2  -4   15.85    1.01 
  -6  -2   4   15.04    0.58 
  -6   2   4   16.63    0.73 
   6   2  -4   16.69    0.60 
   6   2  -4   15.93    0.93 
  -5  -2   4    0.37    0.14 
   5  -2  -4    0.00    0.42 
   5   2  -4    0.35    0.14 
  -5   2   4    0.12    0.29 
   5   2  -4    0.26    0.13 
   5   2  -4    0.22    0.37 
   4  -2  -4   49.02    1.80 
   4   2  -4   52.90    1.59 
   4   2  -4   43.29    1.58 
   4   2  -4   47.82    1.74 
   3  -2  -4   69.17    2.17 
   3  -2  -4   66.91    2.38 
   3   2  -4   62.71    2.18 
   3   2  -4   69.10    2.33 
   2  -2  -4    5.36    0.26 
   2  -2  -4    5.79    0.54 
   2  -2  -4    5.34    0.29 
   2   2  -4    5.98    0.46 
  -2   2   4    5.66    0.48 
   2   2  -4    5.62    0.30 
   1  -2  -4    5.39    0.50 
   1  -2  -4    5.17    0.30 
  -1  -2   4    5.47    0.35 
   1   2  -4    5.33    0.35 
   1   2  -4    5.34    0.30 
  -1   2   4    4.75    0.42 
   0  -2   4    2.78    0.26 
   0  -2  -4    2.55    0.26 
   0  -2  -4    2.41    0.23 
   0  -2  -4    2.38    0.23 
   0   2  -4    2.76    0.20 
   0   2   4    2.23    0.24 
   0   2  -4    2.56    0.25 
   1  -2   4  171.88    5.50 
  -1  -2  -4  173.90    5.49 
  -1  -2  -4  170.16    5.51 
  -1  -2  -4  160.18    5.47 
  -1   2  -4  173.16    5.51 
  -1   2  -4  163.94    5.48 
   1   2   4  170.47    5.48 
  -1   2  -4  172.04    5.49 
   2  -2   4  162.37    5.18 
  -2  -2  -4  157.61    5.19 
  -2  -2  -4  160.14    5.14 
   2  -2   4  159.52    5.18 
  -2   2  -4  160.74    5.18 
   2   2   4  159.78    5.13 
  -2   2  -4  158.07    5.21 
  -2   2  -4  160.12    5.18 
   3  -2   4    0.56    0.21 
  -3  -2  -4    0.86    0.27 
  -3   2  -4    0.55    0.22 
  -3   2  -4    0.78    0.18 
  -3   2  -4    0.56    0.23 
  -4  -2  -4   41.12    1.50 
   4  -2   4   42.54    1.44 
  -4   2  -4   43.54    1.48 
  -4   2  -4   40.67    1.44 
  -4   2  -4   41.54    1.52 
  -5  -2  -4   42.54    1.48 
   5  -2   4   42.33    1.42 
  -5  -2  -4   38.40    1.50 
  -5   2  -4   40.61    1.48 
  -5   2  -4   39.74    1.52 
  -5   2  -4   41.22    1.44 
  -6  -2  -4   10.97    0.75 
   6  -2   4   11.79    0.57 
  -6  -2  -4   11.71    0.67 
  -6   2  -4   11.48    0.76 
  -6   2  -4   11.31    0.71 
  -7  -2  -4    3.69    0.53 
  -7  -2  -4    4.51    0.46 
   7  -2   4    4.83    0.42 
  -7   2  -4    4.82    0.52 
  -7   2  -4    4.08    0.45 
  -8  -2  -4   21.03    1.13 
  -8  -2  -4   21.45    1.01 
  -8   2  -4   20.33    1.10 
  -8   2  -4   20.61    1.08 
  -9  -2  -4    6.80    0.61 
  -9  -2  -4    6.72    0.72 
  -9   2  -4    7.17    0.70 
  -9   2  -4    6.54    0.67 
  10  -3  -4   11.10    0.96 
  10   3  -4    9.61    0.88 
 -10   3   4   11.28    0.84 
   9  -3  -4   80.68    3.05 
   9   3  -4   79.26    2.99 
  -9   3   4   81.14    2.82 
   8  -3  -4  150.11    5.11 
   8   3  -4  144.05    5.04 
  -8   3   4  147.76    4.90 
   7  -3  -4    5.63    0.69 
   7   3  -4    5.21    0.61 
  -7   3   4    6.30    0.48 
   6  -3  -4   20.53    1.19 
   6   3  -4   20.56    0.72 
   6   3  -4   21.31    0.78 
   6   3  -4   21.12    1.07 
  -6   3   4   21.32    0.95 
  -6   3   4   21.27    0.70 
   5  -3  -4  194.33    6.34 
  -5   3   4  208.31    6.20 
  -5   3   4  174.00    6.09 
   5   3  -4  187.90    6.28 
   5   3  -4  180.92    6.09 
   5   3  -4  194.48    6.12 
   4  -3  -4  279.41    8.92 
   4  -3  -4  266.94    8.70 
   4   3  -4  251.81    8.70 
   4   3  -4  274.52    8.73 
  -4   3   4  275.17    8.78 
   4   3  -4  271.69    8.86 
  -4   3   4  280.11    8.71 
   3  -3  -4    0.53    0.38 
   3  -3  -4    0.40    0.12 
   3   3  -4    0.00    0.16 
  -3   3   4   -0.16    0.15 
   3   3  -4    0.29    0.28 
   2  -3  -4   40.84    1.35 
   2  -3  -4   40.53    1.52 
  -2  -3   4   38.95    1.43 
  -2   3   4   40.18    1.37 
   2   3  -4   40.66    1.37 
   1  -3  -4  210.87    6.59 
   1  -3  -4  202.32    6.50 
  -1  -3   4  206.05    6.55 
  -1   3   4  197.82    6.52 
   1   3  -4  203.65    6.51 
  -1   3   4  191.68    6.58 
   1   3  -4  197.33    6.51 
   0  -3   4   82.22    2.74 
   0  -3  -4   80.47    2.71 
   0  -3  -4   82.44    2.74 
   0  -3  -4   82.63    2.71 
   0   3  -4   82.32    2.72 
   0   3  -4   81.25    2.71 
   0   3  -4   83.31    2.76 
   0   3  -4   83.93    2.69 
  -1  -3  -4    9.09    0.44 
   1  -3   4    8.20    0.46 
  -1  -3  -4    9.12    0.41 
  -1   3  -4    8.21    0.39 
  -1   3  -4    8.32    0.47 
  -1   3  -4    7.30    0.42 
   1   3   4    7.97    0.43 
   2  -3   4   84.65    2.69 
   2  -3   4   82.57    2.72 
  -2  -3  -4   79.92    2.72 
   2   3   4   81.27    2.69 
  -2   3  -4   82.99    2.75 
  -2   3  -4   80.88    2.69 
  -2   3  -4   82.08    2.71 
   3  -3   4  313.84   10.42 
  -3  -3  -4  332.16   10.44 
  -3   3  -4  317.17   10.41 
  -3   3  -4  323.67   10.46 
  -3   3  -4  334.55   10.43 
   3   3   4  317.83   10.37 
  -4  -3  -4   52.63    1.86 
   4  -3   4   51.21    1.82 
  -4   3  -4   53.18    1.83 
  -4   3  -4   54.88    1.83 
  -4   3  -4   55.33    1.90 
  -5  -3  -4    3.04    0.41 
  -5  -3  -4    3.54    0.38 
   5  -3   4    2.47    0.32 
  -5   3  -4    2.12    0.35 
  -5   3  -4    3.09    0.43 
  -5   3  -4    2.28    0.30 
  -6  -3  -4  126.02    4.20 
  -6  -3  -4  126.01    4.16 
   6  -3   4  119.92    4.13 
  -6   3  -4  126.47    4.22 
  -6   3  -4  129.45    4.18 
  -7  -3  -4  156.66    5.21 
   7  -3   4  155.11    5.13 
  -7  -3  -4  157.03    5.18 
  -7   3  -4  161.23    5.20 
  -7   3  -4  152.38    5.22 
  -8  -3  -4    2.76    0.45 
  -8  -3  -4    3.16    0.61 
  -8   3  -4    3.56    0.48 
  -8   3  -4    2.53    0.53 
  -9  -3  -4    7.51    0.76 
  -9  -3  -4    9.02    0.66 
  -9   3  -4    7.74    0.71 
  -9   3  -4    7.73    0.74 
  10  -4  -4    0.63    0.73 
 -10   4   4    0.90    0.53 
  10   4  -4    1.15    0.65 
   9  -4  -4    7.72    0.86 
  -9   4   4    8.53    0.69 
   9   4  -4    8.84    0.79 
   8  -4  -4    3.24    0.69 
   8   4  -4    3.03    0.60 
  -8   4   4    3.45    0.53 
   7  -4  -4   92.49    3.18 
  -7   4   4   87.09    2.93 
   7   4  -4   81.12    2.83 
   7   4  -4   81.98    3.05 
   6  -4  -4    1.33    0.45 
  -6  -4   4    1.95    0.26 
  -6   4   4    1.61    0.19 
   6   4  -4    1.16    0.26 
  -6   4   4    1.70    0.39 
   6   4  -4    0.99    0.46 
   5  -4  -4    1.89    0.43 
  -5  -4   4    1.14    0.24 
  -5   4   4    1.63    0.20 
   5   4  -4    1.20    0.41 
  -5   4   4    0.75    0.35 
   5   4  -4    1.64    0.23 
   4  -4  -4   47.32    1.56 
  -4  -4   4   47.44    1.60 
   4  -4  -4   48.37    1.86 
  -4   4   4   47.29    1.66 
  -4   4   4   47.84    1.58 
   4   4  -4   46.20    1.51 
   4   4  -4   45.20    1.51 
   4   4  -4   46.88    1.59 
   4   4  -4   47.36    1.76 
   3  -4  -4  121.20    4.00 
  -3  -4   4  127.58    3.84 
   3  -4  -4  117.38    3.81 
  -3  -4   4  109.16    3.89 
   3   4  -4  119.20    3.79 
   3   4  -4  111.04    3.83 
   3   4  -4  110.84    3.83 
  -3   4   4  122.24    3.82 
   2  -4  -4   52.45    1.73 
   2  -4  -4   53.83    1.89 
  -2  -4   4   45.52    1.80 
   2   4  -4   53.12    1.75 
   2   4  -4   51.46    1.72 
  -2   4   4   55.03    1.76 
   1  -4  -4    6.02    0.35 
  -1  -4   4    6.54    0.41 
   1  -4  -4    6.96    0.50 
  -1   4   4    6.05    0.39 
   1   4  -4    6.10    0.39 
  -1   4   4    5.83    0.52 
   1   4  -4    6.58    0.37 
   0  -4   4  114.91    4.02 
   0  -4  -4  124.55    3.99 
   0  -4  -4  122.73    4.02 
   0   4  -4  129.23    3.96 
   0   4  -4  120.71    3.99 
   0   4  -4  127.35    4.01 
   0   4   4  117.35    4.01 
   0   4   4  120.09    4.05 
  -1  -4  -4   80.27    2.65 
  -1  -4  -4   82.31    2.65 
   1  -4   4   78.38    2.68 
   1   4   4   79.25    2.69 
  -1   4  -4   77.63    2.68 
  -1   4  -4   80.32    2.67 
  -1   4  -4   81.53    2.62 
   2  -4   4   63.89    2.12 
  -2  -4  -4   59.79    2.10 
   2   4   4   63.71    2.09 
  -2   4  -4   61.29    2.06 
  -2   4  -4   59.52    2.13 
  -2   4  -4   65.07    2.14 
   3  -4   4    3.27    0.34 
  -3  -4  -4    3.15    0.18 
  -3  -4  -4    3.64    0.34 
  -3   4  -4    3.05    0.29 
   3   4   4    2.70    0.22 
  -3   4  -4    3.31    0.38 
   4  -4   4   23.09    0.98 
  -4  -4  -4   25.23    0.96 
  -4   4  -4   25.11    1.06 
  -4   4  -4   26.28    0.95 
   4   4   4   25.29    0.83 
   4   4   4   23.67    0.84 
  -5  -4  -4   15.41    0.79 
   5  -4   4   14.79    0.70 
  -5   4  -4   14.09    0.71 
  -5   4  -4   14.46    0.75 
  -6  -4  -4   21.54    1.04 
   6  -4   4   21.99    0.96 
  -6  -4  -4   23.47    0.99 
  -6   4  -4   23.01    0.99 
  -6   4  -4   22.48    1.09 
   7  -4   4   16.73    0.85 
  -7  -4  -4   18.64    1.00 
  -7  -4  -4   17.81    0.90 
  -7   4  -4   17.87    0.91 
  -7   4  -4   17.44    1.02 
  -8  -4  -4    4.23    0.63 
  -8  -4  -4    3.85    0.50 
  -8   4  -4    3.95    0.62 
  -8   4  -4    3.86    0.53 
  -9  -4  -4    7.55    0.76 
  -9   4  -4    6.11    0.74 
  -9   4  -4    7.66    0.68 
  10  -5  -4   -1.14    0.71 
  10   5  -4    0.61    0.63 
 -10   5   4   -1.16    0.54 
   9  -5  -4    8.17    0.90 
  -9   5   4    8.06    0.69 
   9   5  -4    8.87    0.82 
   8  -5  -4   10.94    0.94 
  -8   5   4   10.72    0.84 
   8   5  -4   12.29    1.02 
   7  -5  -4    2.09    0.66 
  -7   5   4    2.06    0.47 
   7   5  -4    2.60    0.34 
   7   5  -4    2.37    0.54 
   6  -5  -4    8.54    0.80 
   6   5  -4   11.35    0.57 
  -6   5   4   10.66    0.73 
   6   5  -4   10.61    0.86 
  -6   5   4   10.69    0.50 
   5  -5  -4    9.73    0.96 
   5   5  -4    9.36    0.55 
  -5   5   4   11.16    0.70 
   5   5  -4   11.65    0.81 
  -5   5   4   11.27    0.52 
   4  -5  -4    4.33    0.58 
  -4  -5   4    5.98    0.50 
   4  -5  -4    5.48    0.35 
   4   5  -4    5.68    0.43 
  -4   5   4    5.14    0.38 
  -4   5   4    5.07    0.44 
   3  -5  -4    1.59    0.43 
  -3  -5   4    1.58    0.36 
   3  -5  -4    1.61    0.22 
   3   5  -4    1.53    0.22 
  -3   5   4    1.26    0.26 
   3   5  -4    1.57    0.28 
   3   5  -4    1.37    0.13 
  -2  -5   4   18.76    0.87 
   2  -5  -4   19.30    0.95 
   2  -5  -4   22.17    0.82 
  -2   5   4   20.90    0.78 
   2   5  -4   19.76    0.72 
   2   5  -4   19.32    0.79 
   2   5  -4   19.65    0.73 
  -1  -5   4    0.42    0.32 
   1  -5  -4    0.64    0.32 
   1   5  -4    0.66    0.21 
   1   5  -4    0.43    0.25 
  -1   5   4    0.74    0.26 
   0  -5  -4   21.56    0.86 
   0  -5  -4   21.76    0.81 
   0  -5   4   21.25    0.89 
   0   5   4   20.84    0.88 
   0   5  -4   20.87    0.75 
   0   5  -4   21.64    0.85 
   0   5  -4   20.90    0.82 
  -1  -5  -4   23.27    0.87 
   1  -5   4   24.21    0.94 
   1   5   4   22.71    0.94 
  -1   5  -4   21.69    0.91 
   1   5   4   22.36    0.92 
  -1   5  -4   23.20    0.93 
  -1   5  -4   22.61    0.80 
  -2  -5  -4   33.52    1.21 
   2  -5   4   32.73    1.25 
  -2   5  -4   33.19    1.24 
  -2   5  -4   33.88    1.15 
  -2   5  -4   34.33    1.27 
   2   5   4   32.77    1.28 
   3  -5   4   14.42    0.59 
  -3  -5  -4   14.25    0.69 
   3  -5   4   14.23    0.72 
  -3  -5  -4   15.25    0.55 
  -3   5  -4   14.98    0.78 
   3   5   4   13.95    0.63 
  -3   5  -4   14.49    0.62 
  -3   5  -4   14.55    0.78 
   4  -5   4   14.59    0.76 
  -4  -5  -4   17.14    0.77 
   4   5   4   15.21    0.64 
  -4   5  -4   16.59    0.71 
  -4   5  -4   15.75    0.85 
  -4   5  -4   16.59    0.88 
   5  -5   4    1.00    0.41 
  -5  -5  -4    0.22    0.39 
  -5   5  -4    0.87    0.35 
  -5   5  -4    0.60    0.44 
  -5   5  -4    0.52    0.47 
  -6  -5  -4   21.33    0.89 
  -6  -5  -4   19.25    1.00 
   6  -5   4   20.33    0.98 
  -6   5  -4   20.27    1.10 
  -6   5  -4   19.49    0.96 
  -6   5  -4   21.02    0.92 
   7  -5   4    6.87    0.58 
  -7  -5  -4    6.83    0.51 
  -7  -5  -4    7.98    0.65 
  -7   5  -4    6.93    0.71 
  -7   5  -4    6.47    0.67 
  -7   5  -4    6.28    0.54 
  -8  -5  -4    0.49    0.41 
  -8  -5  -4    0.66    0.57 
  -8   5  -4    0.71    0.60 
  -8   5  -4    0.93    0.60 
  -8   5  -4    0.53    0.53 
  -9  -5  -4    4.11    0.71 
  -9   5  -4    5.85    0.64 
  -9   5  -4    4.65    0.74 
  -9   5  -4    6.30    0.77 
   9  -6  -4    9.15    0.95 
  -9   6   4    8.76    0.76 
   9   6  -4    8.89    0.84 
   8  -6  -4    4.90    0.82 
   8   6  -4    6.16    0.73 
  -8   6   4    5.77    0.64 
   7  -6  -4   79.29    3.00 
   7   6  -4   83.80    2.97 
  -7   6   4   80.78    2.84 
   7   6  -4   79.28    2.73 
   6  -6  -4   36.81    1.74 
   6   6  -4   38.68    1.61 
  -6   6   4   38.55    1.34 
  -6   6   4   36.84    1.48 
   6   6  -4   36.71    1.38 
   5  -6  -4    0.05    0.54 
  -5   6   4    0.10    0.28 
   5   6  -4    0.05    0.43 
  -5   6   4    0.15    0.40 
   5   6  -4   -0.02    0.32 
   4  -6  -4   51.33    2.02 
  -4  -6   4   49.89    1.86 
   4   6  -4   50.90    1.78 
  -4   6   4   51.09    1.76 
  -4   6   4   51.82    1.84 
   3  -6  -4  181.75    6.05 
  -3  -6   4  186.20    5.96 
   3   6  -4  179.37    5.86 
   3   6  -4  178.76    5.90 
  -3   6   4  183.80    5.89 
   3   6  -4  176.52    5.82 
   2  -6  -4   90.81    3.06 
  -2  -6   4   82.02    2.98 
  -2   6   4   88.26    2.93 
   2   6  -4   87.33    2.87 
   2   6  -4   88.55    2.87 
   2   6  -4   90.48    2.94 
   1  -6  -4    0.21    0.23 
  -1  -6   4    0.04    0.36 
   1  -6  -4    0.62    0.32 
   1   6  -4   -0.05    0.20 
   1   6  -4   -0.09    0.28 
  -1   6   4    0.01    0.29 
   0  -6   4   82.46    2.84 
   0  -6  -4   85.19    2.77 
   0  -6  -4   86.69    2.84 
   0   6  -4   82.23    2.71 
   0   6  -4   82.59    2.79 
   0   6  -4   84.24    2.81 
   0   6   4   81.61    2.82 
  -1  -6  -4  138.16    4.43 
   1  -6   4  119.58    4.47 
  -1   6  -4  140.65    4.48 
  -1   6  -4  141.79    4.38 
   1   6   4  137.88    4.48 
  -1   6  -4  134.29    4.46 
   2  -6   4   56.78    1.98 
  -2  -6  -4   56.36    1.91 
  -2  -6  -4   56.60    1.88 
  -2   6  -4   54.76    1.96 
  -2   6  -4   56.03    1.98 
   2   6   4   55.21    1.95 
   2   6   4   53.82    1.98 
  -2   6  -4   56.17    1.85 
  -3  -6  -4    0.14    0.20 
   3  -6   4    0.21    0.38 
  -3  -6  -4    0.51    0.34 
  -3   6  -4   -0.19    0.38 
  -3   6  -4   -0.26    0.38 
   3   6   4   -0.47    0.39 
   3   6   4   -0.32    0.24 
  -3   6  -4   -0.11    0.22 
  -4  -6  -4   34.79    1.17 
   4  -6   4   34.20    1.35 
  -4  -6  -4   36.67    1.35 
  -4   6  -4   35.31    1.26 
  -4   6  -4   33.23    1.40 
  -4   6  -4   32.74    1.40 
   5  -6   4   76.11    2.68 
  -5  -6  -4   77.59    2.65 
  -5   6  -4   75.98    2.71 
  -5   6  -4   76.17    2.72 
  -5   6  -4   76.91    2.60 
   6  -6   4   17.23    0.96 
  -6  -6  -4   16.58    0.94 
  -6   6  -4   16.89    1.03 
  -6   6  -4   18.39    0.87 
  -6   6  -4   16.89    1.05 
   7  -6   4   15.27    0.96 
  -7  -6  -4   14.98    0.98 
  -7  -6  -4   16.42    0.83 
  -7   6  -4   16.89    1.08 
  -7   6  -4   14.93    1.06 
  -7   6  -4   15.70    0.85 
  -8  -6  -4   24.97    1.30 
  -8   6  -4   26.98    1.37 
  -8   6  -4   24.79    1.36 
  -8   6  -4   26.90    1.24 
   9  -7  -4   15.85    1.42 
   9   7  -4   17.55    1.27 
  -9   7   4   14.91    1.12 
   8  -7  -4   39.91    1.99 
   8   7  -4   42.32    1.84 
  -8   7   4   37.23    1.67 
   7  -7  -4   -0.91    0.68 
  -7   7   4   -0.50    0.51 
   7   7  -4    0.05    0.40 
   7   7  -4   -0.32    0.56 
   6  -7  -4    5.70    0.79 
   6   7  -4    6.81    0.51 
  -6   7   4    7.24    0.56 
  -6   7   4    4.95    0.59 
   6   7  -4    5.60    0.66 
  -5  -7   4   36.04    1.48 
   5  -7  -4   35.24    1.71 
   5   7  -4   37.53    1.38 
  -5   7   4   37.39    1.36 
  -5   7   4   37.95    1.42 
   4  -7  -4   73.12    2.69 
  -4  -7   4   69.95    2.52 
  -4   7   4   72.49    2.45 
   4   7  -4   71.27    2.45 
  -4   7   4   72.39    2.48 
   3  -7  -4    0.88    0.48 
  -3  -7   4    0.98    0.41 
   3   7  -4    0.97    0.13 
   3   7  -4    0.81    0.38 
   3   7  -4    1.09    0.34 
  -3   7   4    0.55    0.32 
   2  -7  -4   11.96    0.82 
  -2  -7   4   11.84    0.74 
   2   7  -4   11.41    0.66 
   2   7  -4   11.73    0.51 
   2   7  -4   11.06    0.48 
  -2   7   4   11.95    0.65 
  -1  -7   4   99.15    3.36 
   1  -7  -4   98.42    3.26 
   1  -7  -4   99.45    3.39 
   1   7  -4   97.58    3.21 
  -1   7   4  100.16    3.34 
   1   7  -4  100.39    3.33 
   1   7  -4   99.45    3.21 
   1   7  -4   99.25    3.27 
   0  -7  -4   20.73    0.84 
   0  -7   4   22.22    0.93 
   0   7   4   22.37    0.98 
   0   7  -4   21.21    0.85 
   0   7  -4   20.47    0.93 
   0   7  -4   21.04    0.72 
  -1  -7  -4   21.63    0.86 
   1  -7   4   23.48    1.01 
  -1   7  -4   22.59    0.96 
  -1   7  -4   21.50    0.75 
  -1   7  -4   21.36    0.96 
   1   7   4   22.00    0.99 
   2  -7   4   32.81    1.32 
  -2  -7  -4   32.85    1.19 
  -2  -7  -4   34.64    1.21 
  -2   7  -4   33.39    1.12 
  -2   7  -4   29.93    1.30 
  -2   7  -4   32.53    1.28 
   2   7   4   32.46    1.32 
  -3  -7  -4   59.27    2.06 
  -3  -7  -4   59.56    1.99 
   3  -7   4   57.76    2.12 
  -3   7  -4   61.21    1.98 
  -3   7  -4   56.46    2.12 
   3   7   4   60.24    2.14 
  -3   7  -4   58.62    2.14 
   4  -7   4    3.65    0.51 
  -4  -7  -4    3.44    0.42 
   4   7   4    3.26    0.53 
  -4   7  -4    3.37    0.33 
  -4   7  -4    3.23    0.49 
  -4   7  -4    3.52    0.55 
  -5  -7  -4    0.90    0.42 
   5  -7   4    0.84    0.48 
  -5   7  -4    0.83    0.33 
  -5   7  -4    0.68    0.53 
  -5   7  -4    0.62    0.51 
   6  -7   4   18.51    1.01 
  -6  -7  -4   19.15    1.00 
  -6   7  -4   18.06    1.12 
  -6   7  -4   19.70    0.98 
  -6   7  -4   18.20    1.12 
   7  -7   4   27.15    1.25 
  -7  -7  -4   26.99    1.28 
  -7   7  -4   25.35    1.34 
  -7   7  -4   27.59    1.38 
   8  -7   4    2.25    0.63 
  -8  -7  -4    2.61    0.63 
  -8   7  -4    3.35    0.70 
  -8   7  -4    1.78    0.75 
   8  -8  -4   -1.18    0.74 
   8   8  -4    0.70    0.65 
  -8   8   4   -0.06    0.58 
   7  -8  -4   -0.02    0.71 
   7   8  -4    0.90    0.47 
  -7   8   4   -0.21    0.57 
   7   8  -4    0.10    0.58 
   6  -8  -4    8.09    0.89 
   6   8  -4    8.53    0.67 
  -6   8   4    8.87    0.64 
  -6   8   4    8.34    0.71 
   6   8  -4   10.92    1.02 
   5  -8  -4    0.44    0.62 
  -5  -8   4    0.94    0.50 
   5   8  -4    0.31    0.42 
  -5   8   4    1.14    0.38 
  -5   8   4    0.61    0.48 
  -4  -8   4    0.29    0.47 
   4  -8  -4    0.46    0.59 
  -4   8   4    0.22    0.44 
  -4   8   4    0.59    0.38 
   4   8  -4    0.86    0.40 
  -3  -8   4    0.76    0.47 
   3  -8  -4    0.83    0.52 
  -3   8   4    0.36    0.37 
   3   8  -4    0.36    0.39 
   2  -8  -4    2.45    0.48 
  -2  -8   4    1.79    0.48 
   2  -8  -4    1.69    0.29 
   2   8  -4    1.30    0.40 
  -2   8   4    1.88    0.40 
   2   8  -4    2.01    0.24 
  -1  -8   4   -0.13    0.43 
   1  -8  -4    0.01    0.26 
  -1   8   4    0.03    0.38 
   1   8  -4    0.11    0.25 
   1   8  -4    0.19    0.40 
   0  -8  -4    0.36    0.27 
   0  -8   4    0.22    0.45 
   0   8  -4    0.74    0.39 
   0   8   4   -0.25    0.43 
   0   8  -4    0.41    0.30 
  -1  -8  -4    0.52    0.28 
   1  -8   4    0.09    0.43 
  -1   8  -4   -0.02    0.42 
  -1   8  -4    0.00    0.33 
   1   8   4    0.03    0.42 
   2  -8   4    2.09    0.51 
  -2  -8  -4    2.10    0.35 
  -2  -8  -4    1.80    0.36 
  -2   8  -4    2.49    0.47 
  -2   8  -4    1.87    0.42 
   2   8   4    1.89    0.48 
  -3  -8  -4    2.12    0.40 
   3  -8   4    2.42    0.53 
  -3  -8  -4    2.35    0.33 
  -3   8  -4    2.70    0.48 
  -3   8  -4    2.15    0.50 
   3   8   4    2.43    0.53 
   4  -8   4    0.55    0.50 
  -4  -8  -4    0.69    0.37 
  -4   8  -4    0.14    0.48 
  -4   8  -4    0.91    0.42 
   4   8   4    0.59    0.50 
   5  -8   4    8.33    0.74 
  -5  -8  -4    7.70    0.62 
  -5   8  -4    7.24    0.72 
  -5   8  -4    7.05    0.69 
  -6  -8  -4    1.38    0.50 
   6  -8   4    1.51    0.58 
  -6   8  -4    1.55    0.63 
  -6   8  -4    1.56    0.69 
  -7  -8  -4   -0.15    0.59 
   7  -8   4   -0.20    0.63 
  -7   8  -4   -0.84    0.65 
  -7   8  -4   -1.72    0.62 
   7  -9  -4    1.02    0.66 
  -7   9   4    1.11    0.63 
   7   9  -4    1.47    0.68 
   7   9  -4    1.82    0.49 
   6  -9  -4   22.56    1.55 
  -6   9   4   23.30    1.22 
   6   9  -4   21.87    1.06 
   5  -9  -4   27.32    1.55 
  -5  -9   4   24.94    1.23 
  -5   9   4   24.92    1.12 
   5   9  -4   25.64    1.13 
  -5   9   4   23.41    1.24 
   4  -9  -4   32.75    1.65 
  -4  -9   4   35.01    1.45 
   4   9  -4   31.90    1.36 
  -4   9   4   33.43    1.43 
  -4   9   4   34.86    1.38 
   3  -9  -4    2.29    0.60 
  -3  -9   4    2.92    0.56 
  -3   9   4    2.26    0.45 
   3   9  -4    3.35    0.53 
   2  -9  -4   47.20    1.67 
  -2  -9   4   48.02    1.84 
  -2   9   4   48.83    1.77 
   2   9  -4   47.01    1.78 
   1  -9  -4   48.53    1.72 
  -1  -9   4   46.03    1.88 
   1   9  -4   52.22    1.85 
   1   9  -4   50.00    1.72 
  -1   9   4   52.00    1.88 
   0  -9   4   31.03    1.36 
   0  -9  -4   31.82    1.18 
   0   9  -4   30.70    1.32 
   0   9   4   31.44    1.32 
   0   9  -4   32.31    1.21 
   1  -9   4    0.97    0.52 
  -1  -9  -4    0.76    0.32 
  -1  -9  -4    0.91    0.41 
  -1   9  -4    1.47    0.48 
   1   9   4    1.45    0.49 
  -1   9  -4    1.19    0.41 
   2  -9   4   68.92    2.43 
  -2  -9  -4   67.04    2.29 
  -2  -9  -4   65.63    2.30 
  -2   9  -4   66.56    2.40 
  -2   9  -4   66.21    2.36 
   2   9   4   65.36    2.41 
  -3  -9  -4   35.94    1.41 
   3  -9   4   37.28    1.57 
  -3  -9  -4   39.20    1.44 
  -3   9  -4   38.68    1.50 
  -3   9  -4   37.16    1.52 
   3   9   4   36.09    1.57 
   4  -9   4   19.92    1.12 
  -4  -9  -4   20.27    0.94 
  -4   9  -4   18.91    1.12 
  -4   9  -4   21.90    1.14 
   4   9   4   19.31    1.12 
  -5  -9  -4   -0.75    0.47 
   5  -9   4   -0.17    0.57 
  -5   9  -4   -0.09    0.58 
  -5   9  -4   -0.01    0.58 
  -6  -9  -4   24.08    1.15 
   6  -9   4   22.12    1.32 
  -6   9  -4   23.10    1.31 
  -6   9  -4   21.59    1.30 
   6 -10  -4    9.45    1.06 
  -6  10   4   11.95    0.87 
   6  10  -4   10.71    0.86 
   5 -10  -4    7.41    0.93 
  -5 -10   4   10.38    0.83 
   5  10  -4    8.59    0.72 
  -5  10   4    8.85    0.68 
  -5  10   4    7.25    0.73 
   4 -10  -4    9.93    0.89 
  -4 -10   4   10.91    0.95 
  -4  10   4   10.06    0.79 
   4  10  -4   10.52    0.84 
  -3 -10   4   81.28    2.94 
   3  10  -4   81.85    2.89 
  -3  10   4   83.83    2.89 
  -2 -10   4   34.39    1.46 
   2  10  -4   30.60    1.38 
  -2  10   4   32.78    1.42 
  -1 -10   4    0.51    0.56 
   1  10  -4    0.51    0.48 
  -1  10   4   -0.47    0.47 
   0 -10  -4   20.50    1.10 
   0 -10   4   23.99    1.18 
   0  10  -4   22.79    1.11 
   0  10   4   21.16    1.12 
   0  10  -4   22.09    0.97 
   1 -10   4   45.39    1.87 
  -1 -10  -4   47.22    1.78 
   1  10   4   48.18    1.85 
  -1  10  -4   47.06    1.83 
  -1  10  -4   47.47    1.76 
   2 -10   4   10.84    0.95 
  -2 -10  -4   10.96    0.75 
   2  10   4   10.54    0.78 
  -2  10  -4   10.69    0.85 
  -2  10  -4   10.32    0.77 
   3 -10   4    5.66    0.70 
  -3  10  -4    5.12    0.66 
  -3  10  -4    4.39    0.57 
   3  10   4    4.88    0.66 
   4 -10   4    9.92    0.85 
  -4  10  -4    9.05    0.75 
   4  10   4   10.58    0.82 
  -4  10  -4    9.49    0.83 
   5 -10   4    8.41    0.82 
  -5  10  -4    7.41    0.77 
   5  10   4    7.32    0.77 
  -5  10  -4    7.31    0.80 
  -5 -11   4    1.50    0.64 
   5  11  -4   -0.31    0.54 
  -5  11   4    0.42    0.62 
  -5  11   4    0.39    0.63 
  -4 -11   4    1.78    0.70 
   4  11  -4    1.27    0.57 
  -4  11   4    0.65    0.53 
  -3 -11   4    5.02    0.71 
  -3  11   4    3.77    0.65 
   3  11  -4    4.70    0.67 
  -2 -11   4   -0.40    0.59 
   2  11  -4    0.39    0.56 
  -2  11   4   -0.53    0.53 
  -1 -11   4    0.59    0.59 
   1 -11  -4   -0.08    0.57 
   1  11  -4    0.16    0.54 
  -1  11   4    0.45    0.56 
   0 -11  -4    2.03    0.55 
   0 -11   4    3.10    0.66 
   0  11  -4    2.23    0.60 
   0  11   4    2.47    0.61 
  -1 -11  -4   -0.17    0.49 
   1 -11   4    1.14    0.63 
   1  11   4   -0.52    0.56 
  -1  11  -4    0.18    0.54 
  -1  11  -4   -0.17    0.42 
   2 -11   4    2.42    0.68 
  -2  11  -4    2.72    0.62 
  -2  11  -4    1.52    0.52 
   2  11   4    1.71    0.62 
   3 -11   4   11.10    0.91 
  -3  11  -4    9.50    0.76 
   3  11   4   10.28    0.86 
  -3  11  -4   12.72    0.88 
   4 -11   4    0.68    0.70 
   4  11   4    0.90    0.73 
  -4  11  -4    0.11    0.58 
  -4  11  -4   -0.10    0.67 
   2 -12  -4   13.37    1.15 
  -2 -12   4   17.73    1.28 
  -2  12   4   16.06    1.08 
   2  12  -4   16.16    1.10 
   1 -12  -4   -0.55    0.65 
  -1 -12   4    0.76    0.67 
   1  12  -4    0.57    0.62 
  -1  12   4   -0.46    0.64 
   0 -12  -4   15.96    1.13 
   0 -12   4   17.67    1.27 
   0  12  -4   16.31    1.11 
   0  12   4   14.96    1.21 
   1 -12   4   44.82    1.90 
  -1 -12  -4   42.78    1.76 
   1  12   4   43.98    1.84 
  -1  12  -4   42.39    1.83 
  10   0  -5    0.11    0.69 
   9   0  -5   -0.44    0.60 
   8   0  -5   -0.69    0.43 
   7   0  -5   -0.39    0.50 
   6   0  -5    0.15    0.47 
   5   0  -5   -0.21    0.42 
   4   0  -5   -0.25    0.37 
   4   0  -5    0.01    0.19 
   3   0  -5   -0.01    0.33 
   3   0  -5    0.26    0.10 
   3   0  -5    0.00    0.18 
   2   0  -5   -0.45    0.27 
   1   0  -5   -0.02    0.20 
   1   0  -5   -0.05    0.25 
   0   0  -5    0.02    0.20 
   0   0  -5    0.00    0.20 
   0   0  -5   -0.06    0.16 
  -1   0  -5    0.03    0.19 
  -1   0  -5   -0.13    0.20 
  -1   0  -5   -0.02    0.17 
  -2   0  -5   -0.06    0.15 
  -2   0  -5    0.11    0.15 
  -2   0  -5    0.18    0.24 
  -3   0  -5    0.07    0.07 
  -3   0  -5    0.08    0.14 
  -3   0  -5    0.16    0.29 
  -3   0  -5    0.08    0.07 
  -3   0  -5    0.10    0.26 
  -4   0  -5   -0.18    0.30 
  -4   0  -5    0.20    0.32 
  -5   0  -5   -0.54    0.35 
  -5   0  -5   -0.20    0.35 
  -6   0  -5   -0.04    0.41 
  -6   0  -5   -0.23    0.41 
  -7   0  -5   -0.17    0.46 
  -7   0  -5   -0.02    0.43 
  -8   0  -5    0.10    0.50 
  -8   0  -5   -0.80    0.54 
  -9   0  -5   -0.51    0.53 
  -9   0  -5    0.27    0.60 
  10  -1  -5    3.25    0.76 
  10   1  -5    3.35    0.76 
   9  -1  -5   28.83    1.57 
   9   1  -5   28.83    1.53 
   8  -1  -5   51.17    2.10 
   8   1  -5   48.73    2.07 
   7  -1  -5   59.25    2.26 
   7   1  -5   54.45    2.21 
   6  -1  -5   13.74    1.01 
   6   1  -5   14.56    0.98 
   6   1  -5   14.45    0.61 
   5  -1  -5  139.46    4.90 
   5   1  -5  149.29    4.68 
   5   1  -5  143.59    4.87 
   4  -1  -5  100.43    3.55 
   4   1  -5  102.49    3.30 
   4   1  -5  101.31    3.52 
   4   1  -5  105.70    3.35 
   3  -1  -5   11.65    0.82 
   3  -1  -5   14.56    0.50 
   3   1  -5   15.60    0.52 
   3   1  -5   13.78    0.78 
   2  -1  -5   66.83    2.24 
   2  -1  -5   67.34    2.40 
   2   1  -5   70.78    2.37 
   1  -1  -5  208.35    6.73 
   1  -1  -5  199.35    6.82 
   1   1  -5  208.02    6.80 
  -1   1   5  217.63    6.79 
   0  -1  -5   77.30    2.71 
   0  -1  -5   78.88    2.66 
   0   1  -5   78.62    2.69 
   0   1  -5   85.25    2.66 
   0   1  -5   81.29    2.65 
  -1  -1  -5   41.24    1.36 
  -1  -1  -5   40.47    1.38 
  -1  -1  -5   40.82    1.39 
  -1   1  -5   41.90    1.40 
  -1   1  -5   36.44    1.36 
  -1   1  -5   39.45    1.38 
  -2  -1  -5   54.92    1.78 
   2  -1   5   53.34    1.76 
  -2  -1  -5   49.39    1.71 
  -2  -1  -5   49.62    1.70 
  -2   1  -5   52.48    1.77 
  -2   1  -5   50.74    1.73 
  -2   1  -5   53.64    1.80 
  -3  -1  -5   67.47    2.34 
  -3  -1  -5   69.87    2.44 
   3  -1   5   74.22    2.40 
  -3   1  -5   73.68    2.43 
  -3   1  -5   73.63    2.37 
  -3   1  -5   75.84    2.47 
   4  -1   5   80.23    2.78 
  -4  -1  -5   87.99    2.86 
  -4  -1  -5   88.52    2.86 
  -4   1  -5   87.67    2.88 
  -4   1  -5   78.68    2.75 
  -4   1  -5   85.87    2.84 
  -5  -1  -5   -0.30    0.36 
   5  -1   5    0.20    0.20 
  -5  -1  -5   -0.02    0.35 
  -5   1  -5    0.03    0.35 
  -5   1  -5   -0.42    0.29 
  -6  -1  -5   15.91    0.84 
  -6  -1  -5   14.93    0.87 
  -6   1  -5   14.49    0.88 
  -6   1  -5   16.32    0.85 
  -7  -1  -5   42.65    1.66 
  -7  -1  -5   44.75    1.70 
  -7   1  -5   42.23    1.67 
  -7   1  -5   43.72    1.70 
  -8  -1  -5   28.57    1.25 
  -8  -1  -5   26.19    1.20 
  -8   1  -5   25.62    1.29 
  -8   1  -5   27.41    1.29 
  -9  -1  -5   -0.26    0.62 
  -9  -1  -5   -0.22    0.57 
  -9   1  -5    0.13    0.56 
  -9   1  -5    0.87    0.61 
  10  -2  -5   45.11    2.02 
 -10   2   5   42.28    1.70 
  10   2  -5   41.49    1.98 
   9  -2  -5    7.23    0.81 
   9   2  -5    6.47    0.77 
  -9   2   5    6.41    0.59 
   8  -2  -5   -0.10    0.61 
   8   2  -5   -0.20    0.52 
  -8   2   5    0.16    0.38 
   7  -2  -5   86.20    3.14 
  -7   2   5   90.33    2.95 
   7   2  -5   84.14    3.14 
   6  -2  -5  116.70    4.12 
   6   2  -5  118.63    3.83 
   6   2  -5  117.45    4.06 
   5  -2  -5    3.09    0.54 
   5   2  -5    4.03    0.29 
   5   2  -5    3.89    0.23 
   5   2  -5    3.62    0.49 
   4  -2  -5    9.75    0.81 
   4   2  -5   10.14    0.73 
   4   2  -5    9.78    0.43 
   4   2  -5   10.22    0.41 
   3  -2  -5  259.37    8.67 
   3  -2  -5  272.75    8.47 
   3   2  -5  259.61    8.48 
   3   2  -5  263.56    8.62 
   2  -2  -5  217.11    7.53 
   2  -2  -5  236.31    7.39 
   2   2  -5  231.39    7.50 
   2   2  -5  233.14    7.40 
   1  -2  -5    0.31    0.28 
   1  -2  -5    0.13    0.19 
   1   2  -5    0.30    0.25 
  -1   2   5    0.26    0.25 
   0  -2  -5   74.11    2.45 
   0  -2  -5   74.04    2.46 
   0  -2   5   72.97    2.48 
   0  -2  -5   73.05    2.50 
   0   2  -5   74.74    2.44 
  -1  -2  -5  170.16    5.67 
   1  -2   5  170.18    5.68 
  -1  -2  -5  169.27    5.65 
   1   2   5  176.00    5.65 
  -1   2  -5  175.91    5.68 
  -1   2  -5  178.11    5.66 
  -1   2  -5  181.53    5.66 
   2  -2   5   56.01    2.00 
  -2  -2  -5   58.65    2.01 
  -2  -2  -5   62.41    1.93 
  -2  -2  -5   56.70    1.94 
  -2   2  -5   57.79    1.98 
  -2   2  -5   61.47    2.04 
  -2   2  -5   60.90    1.99 
  -3  -2  -5    0.58    0.30 
  -3  -2  -5    0.06    0.07 
   3  -2   5    0.35    0.25 
  -3   2  -5    0.29    0.26 
  -3   2  -5   -0.04    0.18 
  -3   2  -5    0.00    0.24 
   4  -2   5   67.02    2.22 
  -4  -2  -5   67.26    2.28 
  -4   2  -5   64.69    2.26 
  -4   2  -5   66.86    2.31 
  -4   2  -5   65.90    2.21 
  -5  -2  -5   59.18    2.00 
   5  -2   5   58.65    1.91 
  -5  -2  -5   54.22    1.96 
  -5   2  -5   54.79    1.98 
  -5   2  -5   54.10    2.02 
  -6  -2  -5   30.85    1.22 
  -6  -2  -5   28.35    1.18 
   6  -2   5   29.48    1.05 
  -6   2  -5   25.52    1.23 
  -6   2  -5   26.95    1.18 
  -7  -2  -5   -0.44    0.48 
  -7  -2  -5    0.17    0.43 
  -7   2  -5    0.19    0.46 
  -7   2  -5   -0.52    0.37 
  -8  -2  -5   64.32    2.35 
  -8  -2  -5   65.60    2.42 
  -8   2  -5   64.90    2.39 
  -8   2  -5   66.28    2.42 
  -9  -2  -5   36.73    1.50 
  -9  -2  -5   34.12    1.59 
  -9   2  -5   36.42    1.58 
  -9   2  -5   32.66    1.54 
  10  -3  -5   -0.57    0.75 
  10   3  -5   -0.36    0.64 
 -10   3   5   -0.82    0.52 
   9  -3  -5    3.76    0.78 
   9   3  -5    3.62    0.71 
  -9   3   5    4.42    0.58 
   8  -3  -5    1.64    0.65 
  -8   3   5    1.97    0.45 
   8   3  -5    0.70    0.57 
   7  -3  -5   -0.54    0.54 
   7   3  -5   -0.15    0.50 
  -7   3   5    0.05    0.38 
   6  -3  -5    1.44    0.56 
   6   3  -5    1.12    0.49 
  -6   3   5    1.89    0.37 
   6   3  -5    1.50    0.20 
   5  -3  -5    3.11    0.57 
   5   3  -5    3.11    0.48 
   5   3  -5    2.83    0.23 
   5   3  -5    2.76    0.19 
   4  -3  -5   11.42    0.42 
   4  -3  -5    9.58    0.88 
   4   3  -5   11.97    0.67 
   4   3  -5   11.12    0.44 
   4   3  -5   10.92    0.48 
   3  -3  -5   -0.06    0.38 
   3  -3  -5   -0.14    0.14 
   3   3  -5    0.37    0.33 
   3   3  -5   -0.11    0.19 
   2  -3  -5    1.82    0.20 
   2  -3  -5    1.55    0.39 
   2   3  -5    2.28    0.22 
   2   3  -5    2.32    0.33 
   1  -3  -5   -0.23    0.20 
  -1  -3   5    0.13    0.30 
   1  -3  -5    0.46    0.32 
  -1   3   5   -0.07    0.28 
   1   3  -5    0.11    0.22 
   1   3  -5    0.37    0.20 
   0  -3  -5   41.82    1.43 
   0  -3   5   42.57    1.47 
   0  -3  -5   41.33    1.47 
   0   3  -5   39.05    1.40 
   0   3  -5   42.96    1.44 
   0   3   5   39.68    1.48 
   0   3  -5   41.73    1.45 
  -1  -3  -5    9.33    0.45 
  -1  -3  -5    8.96    0.50 
   1  -3   5    8.27    0.51 
   1   3   5    9.02    0.47 
  -1   3  -5    8.43    0.52 
  -1   3  -5    8.83    0.44 
  -2  -3  -5    0.67    0.28 
   2  -3   5    0.86    0.30 
  -2   3  -5    0.59    0.22 
  -2   3  -5    0.44    0.31 
   2   3   5    0.65    0.14 
  -3  -3  -5   37.46    1.25 
  -3  -3  -5   39.57    1.40 
   3  -3   5   41.39    1.40 
  -3   3  -5   39.64    1.37 
  -3   3  -5   39.46    1.44 
  -3   3  -5   35.52    1.36 
  -4  -3  -5   23.12    0.99 
   4  -3   5   22.93    0.93 
  -4   3  -5   23.26    0.92 
  -4   3  -5   24.37    1.03 
  -4   3  -5   24.06    0.94 
   5  -3   5    5.65    0.49 
  -5  -3  -5    5.91    0.46 
  -5  -3  -5    5.09    0.43 
  -5   3  -5    5.56    0.53 
  -5   3  -5    4.66    0.48 
  -6  -3  -5    0.61    0.41 
   6  -3   5   -0.17    0.32 
  -6  -3  -5    0.11    0.44 
  -6   3  -5    0.39    0.40 
  -6   3  -5    0.38    0.37 
  -7  -3  -5    1.75    0.44 
  -7  -3  -5    1.96    0.45 
  -7   3  -5    1.71    0.53 
  -7   3  -5    1.92    0.55 
  -8  -3  -5    1.38    0.60 
  -8  -3  -5    1.13    0.51 
  -8   3  -5    0.14    0.52 
  -8   3  -5    0.54    0.52 
  -9  -3  -5    2.39    0.68 
  -9  -3  -5    3.38    0.61 
  -9   3  -5    3.76    0.69 
  -9   3  -5    3.00    0.63 
  10  -4  -5    9.54    0.99 
  10   4  -5   10.14    0.93 
 -10   4   5    9.53    0.74 
   9  -4  -5    4.85    0.81 
  -9   4   5    5.33    0.60 
   9   4  -5    6.16    0.76 
   8  -4  -5   -0.67    0.63 
  -8   4   5   -0.32    0.50 
   8   4  -5    0.28    0.56 
   7  -4  -5   36.56    1.74 
  -7   4   5   37.48    1.45 
   7   4  -5   35.88    1.64 
   6  -4  -5   96.34    3.58 
   6   4  -5   97.18    3.49 
  -6   4   5  100.26    3.36 
   6   4  -5  102.54    3.26 
   5  -4  -5    1.99    0.59 
  -5  -4   5    3.72    0.29 
   5   4  -5    2.17    0.47 
   5   4  -5    2.57    0.16 
   5   4  -5    2.51    0.26 
   5   4  -5    2.39    0.17 
  -5   4   5    2.56    0.21 
   4  -4  -5   47.01    1.90 
   4  -4  -5   47.74    1.57 
  -4   4   5   50.44    1.60 
   4   4  -5   46.56    1.57 
   4   4  -5   42.81    1.55 
   4   4  -5   48.03    1.81 
   4   4  -5   50.40    1.62 
   3  -4  -5  144.82    4.72 
   3  -4  -5  148.42    4.93 
  -3   4   5  140.72    4.74 
   3   4  -5  144.84    4.74 
   3   4  -5  147.31    4.72 
   3   4  -5  148.24    4.87 
  -2  -4   5  161.79    5.35 
   2  -4  -5  159.23    5.27 
   2  -4  -5  166.03    5.42 
   2   4  -5  161.94    5.29 
   2   4  -5  165.04    5.28 
  -2   4   5  161.93    5.30 
  -1  -4   5   -0.58    0.30 
   1  -4  -5   -0.20    0.28 
   1   4  -5    0.24    0.23 
   1   4  -5    0.28    0.24 
   0  -4   5   49.52    1.72 
   0  -4  -5   49.60    1.71 
   0  -4  -5   49.36    1.68 
   0   4   5   47.81    1.74 
   0   4  -5   48.38    1.69 
   0   4  -5   46.99    1.63 
   0   4  -5   48.66    1.68 
  -1  -4  -5   86.12    2.87 
  -1  -4  -5   85.69    2.88 
   1  -4   5   85.55    2.91 
  -1   4  -5   88.24    2.85 
  -1   4  -5   85.72    2.91 
  -1   4  -5   87.67    2.90 
  -2  -4  -5   58.68    2.01 
   2  -4   5   60.30    2.03 
   2   4   5   56.50    1.98 
  -2   4  -5   57.21    1.97 
  -2   4  -5   61.14    2.05 
  -3  -4  -5    2.62    0.37 
  -3  -4  -5    2.64    0.18 
   3  -4   5    3.16    0.39 
  -3   4  -5    2.91    0.42 
  -3   4  -5    2.43    0.31 
   3   4   5    2.94    0.24 
  -4  -4  -5   13.08    0.73 
   4  -4   5   12.61    0.71 
  -4   4  -5   13.59    0.69 
  -4   4  -5   13.28    0.80 
   5  -4   5   37.01    1.33 
  -5  -4  -5   33.18    1.37 
  -5   4  -5   34.67    1.32 
  -5   4  -5   34.65    1.43 
  -6  -4  -5   12.90    0.75 
   6  -4   5   12.76    0.75 
  -6  -4  -5   12.55    0.86 
  -6   4  -5   11.83    0.89 
  -6   4  -5   13.87    0.78 
  -7  -4  -5   -0.25    0.51 
  -7  -4  -5    0.26    0.40 
  -7   4  -5    0.12    0.50 
  -7   4  -5   -0.21    0.51 
  -8  -4  -5   14.14    0.85 
  -8  -4  -5   13.20    1.03 
  -8   4  -5   11.69    0.90 
  -8   4  -5   14.20    1.06 
   9  -5  -5   70.97    2.82 
  -9   5   5   64.96    2.50 
   9   5  -5   70.30    2.72 
   8  -5  -5   70.50    2.71 
   8   5  -5   63.24    2.56 
  -8   5   5   63.79    2.38 
   7  -5  -5   35.02    1.76 
   7   5  -5   37.62    1.65 
  -7   5   5   36.60    1.48 
   6  -5  -5    0.21    0.60 
   6   5  -5    0.84    0.51 
   6   5  -5    1.47    0.29 
  -6   5   5    0.67    0.43 
   5  -5  -5   65.74    2.54 
  -5   5   5   68.72    2.27 
   5   5  -5   67.74    2.50 
   5   5  -5   70.66    2.30 
   4  -5  -5  113.52    3.65 
   4  -5  -5  113.89    3.93 
   4   5  -5  108.85    3.68 
  -4   5   5  114.41    3.68 
   4   5  -5  108.26    3.61 
   4   5  -5  112.47    3.61 
   4   5  -5  113.72    3.85 
  -3  -5   5   40.79    1.55 
   3  -5  -5   40.94    1.40 
   3  -5  -5   41.87    1.67 
   3   5  -5   41.06    1.38 
  -3   5   5   40.79    1.44 
   3   5  -5   40.48    1.45 
  -2  -5   5   34.37    1.34 
   2  -5  -5   35.06    1.42 
   2   5  -5   34.08    1.25 
   2   5  -5   35.54    1.22 
  -2   5   5   35.26    1.27 
  -1  -5   5  131.40    4.28 
   1  -5  -5  129.82    4.30 
   1   5  -5  125.74    4.23 
  -1   5   5  128.90    4.25 
   1   5  -5  128.13    4.22 
   0  -5  -5   90.35    2.93 
   0  -5  -5   87.36    2.88 
   0  -5   5   78.55    2.92 
   0   5  -5   86.40    2.90 
   0   5  -5   88.17    2.91 
   0   5   5   87.98    2.93 
   0   5  -5   86.88    2.83 
  -1  -5  -5    0.32    0.27 
  -1  -5  -5    0.65    0.24 
   1  -5   5    0.49    0.36 
  -1   5  -5    0.21    0.33 
  -1   5  -5    0.53    0.20 
  -1   5  -5    0.41    0.33 
   1   5   5    0.76    0.28 
  -2  -5  -5   98.07    3.19 
   2  -5   5   90.82    3.21 
  -2   5  -5   97.26    3.23 
  -2   5  -5   92.48    3.24 
  -2   5  -5   99.11    3.14 
  -3  -5  -5  183.18    6.20 
  -3  -5  -5  194.17    6.30 
   3  -5   5  205.34    6.32 
  -3   5  -5  194.83    6.26 
   3   5   5  188.77    6.27 
  -3   5  -5  191.93    6.34 
  -3   5  -5  191.91    6.36 
   4  -5   5   66.86    2.30 
  -4  -5  -5   66.36    2.30 
  -4   5  -5   65.31    2.38 
  -4   5  -5   65.67    2.25 
  -4   5  -5   66.02    2.36 
   5  -5   5    8.15    0.69 
  -5  -5  -5    9.19    0.70 
  -5   5  -5    9.28    0.65 
  -5   5  -5    8.51    0.72 
  -5   5  -5    9.36    0.67 
  -6  -5  -5   30.08    1.27 
  -6  -5  -5   30.71    1.31 
   6  -5   5   30.76    1.25 
  -6   5  -5   31.17    1.28 
  -6   5  -5   31.02    1.38 
   7  -5   5   68.78    2.94 
  -7  -5  -5   75.83    2.75 
  -7  -5  -5   77.55    2.69 
  -7   5  -5   81.07    2.70 
  -7   5  -5   81.14    2.81 
  -8  -5  -5   43.35    1.69 
  -8  -5  -5   44.38    1.79 
  -8   5  -5   42.70    1.85 
  -8   5  -5   39.40    1.82 
  -8   5  -5   43.64    1.69 
   9  -6  -5   -1.00    0.76 
   9   6  -5    0.35    0.68 
  -9   6   5   -0.35    0.58 
   8  -6  -5   -0.06    0.73 
  -8   6   5   -0.22    0.52 
   8   6  -5    0.02    0.59 
   7  -6  -5   17.25    1.35 
   7   6  -5   15.20    1.16 
  -7   6   5   15.79    0.99 
   6  -6  -5    3.61    0.72 
   6   6  -5    4.06    0.39 
  -6   6   5    5.05    0.54 
   6   6  -5    4.14    0.60 
   5  -6  -5    4.67    0.68 
  -5   6   5    4.37    0.36 
   5   6  -5    4.62    0.39 
   5   6  -5    4.72    0.60 
  -4  -6   5    1.23    0.46 
   4  -6  -5    1.91    0.57 
   4   6  -5    1.81    0.35 
  -4   6   5    2.00    0.32 
  -3  -6   5   30.10    1.25 
   3  -6  -5   31.00    1.38 
   3   6  -5   28.69    1.02 
   3   6  -5   29.17    1.15 
  -3   6   5   31.22    1.13 
  -2  -6   5    8.43    0.69 
   2  -6  -5    9.85    0.76 
   2   6  -5    9.49    0.45 
  -2   6   5    9.06    0.56 
   2   6  -5    9.48    0.48 
   2   6  -5   10.62    0.58 
   1  -6  -5    3.40    0.35 
  -1  -6   5    4.62    0.48 
   1  -6  -5    3.76    0.43 
   1   6  -5    3.54    0.38 
   1   6  -5    3.86    0.33 
   1   6  -5    4.09    0.31 
  -1   6   5    4.38    0.43 
   0  -6   5    3.01    0.43 
   0  -6  -5    2.40    0.32 
   0  -6  -5    2.53    0.34 
   0   6  -5    2.83    0.22 
   0   6   5    2.50    0.41 
   0   6  -5    2.41    0.35 
   0   6  -5    2.40    0.37 
  -1  -6  -5   26.52    0.99 
   1  -6   5   25.74    1.07 
  -1   6  -5   23.96    0.90 
   1   6   5   23.60    1.07 
  -1   6  -5   25.73    1.03 
  -1   6  -5   25.33    1.06 
  -2  -6  -5   56.15    1.92 
   2  -6   5   47.07    1.96 
  -2   6  -5   55.70    1.85 
  -2   6  -5   59.80    2.00 
   2   6   5   53.93    1.94 
  -2   6  -5   57.32    1.97 
  -3  -6  -5    7.08    0.48 
   3  -6   5    5.90    0.55 
  -3  -6  -5    6.88    0.39 
  -3   6  -5    6.38    0.59 
  -3   6  -5    6.68    0.56 
  -3   6  -5    6.42    0.46 
  -4  -6  -5   17.40    0.87 
   4  -6   5   17.28    0.87 
  -4   6  -5   17.19    0.77 
  -4   6  -5   16.22    0.98 
  -4   6  -5   17.50    0.96 
  -5  -6  -5    8.41    0.62 
   5  -6   5    9.32    0.70 
  -5   6  -5    8.90    0.70 
  -5   6  -5    9.08    0.65 
  -5   6  -5    9.17    0.76 
  -6  -6  -5    1.32    0.50 
   6  -6   5    0.90    0.50 
  -6   6  -5    0.24    0.55 
  -6   6  -5    0.32    0.61 
  -6   6  -5    1.25    0.43 
   7  -6   5    1.73    0.51 
  -7  -6  -5    1.47    0.58 
  -7  -6  -5    0.79    0.41 
  -7   6  -5    0.94    0.47 
  -7   6  -5    0.33    0.60 
  -7   6  -5    0.37    0.66 
  -8  -6  -5    8.49    0.79 
  -8   6  -5    8.70    0.87 
  -8   6  -5    8.39    0.89 
  -8   6  -5   10.01    0.89 
   8  -7  -5   22.38    1.58 
   8   7  -5   21.13    1.39 
  -8   7   5   21.63    1.22 
   7  -7  -5   12.34    1.05 
   7   7  -5   14.20    1.17 
  -7   7   5   13.17    0.97 
   6  -7  -5    1.74    0.72 
   6   7  -5    1.33    0.58 
  -6   7   5    2.34    0.43 
   6   7  -5    2.43    0.40 
   5  -7  -5   54.09    2.23 
  -5   7   5   56.93    1.97 
   5   7  -5   58.17    2.23 
   5   7  -5   57.20    2.00 
   4  -7  -5   43.11    1.84 
  -4  -7   5   42.00    1.66 
   4   7  -5   41.85    1.56 
  -4   7   5   41.87    1.53 
   3  -7  -5   13.09    0.95 
  -3  -7   5   12.28    0.84 
  -3   7   5   12.77    0.71 
   3   7  -5   13.25    0.53 
   3   7  -5   13.55    0.75 
  -2  -7   5   29.45    1.26 
   2  -7  -5   29.89    1.32 
   2   7  -5   29.11    1.06 
   2   7  -5   29.98    1.20 
  -2   7   5   28.96    1.18 
   1  -7  -5   65.92    2.34 
   1  -7  -5   64.86    2.20 
  -1  -7   5   63.53    2.30 
   1   7  -5   64.11    2.18 
  -1   7   5   63.84    2.26 
   1   7  -5   62.39    2.23 
   1   7  -5   65.13    2.12 
   0  -7   5   13.49    0.82 
   0  -7  -5   13.45    0.70 
   0   7  -5   13.10    0.54 
   0   7   5   14.18    0.78 
   0   7  -5   14.20    0.72 
   0   7  -5   14.92    0.77 
   1  -7   5   23.45    1.06 
  -1  -7  -5   22.47    0.95 
  -1   7  -5   22.73    0.81 
  -1   7  -5   21.87    0.97 
  -1   7  -5   21.99    1.01 
   1   7   5   22.34    1.04 
   2  -7   5   28.58    1.20 
  -2  -7  -5   27.66    1.09 
  -2  -7  -5   28.18    1.03 
  -2   7  -5   26.86    1.16 
  -2   7  -5   27.68    0.99 
   2   7   5   26.26    1.20 
  -2   7  -5   26.25    1.19 
  -3  -7  -5   76.20    2.67 
  -3  -7  -5   81.74    2.70 
   3  -7   5   78.30    2.75 
  -3   7  -5   78.71    2.74 
  -3   7  -5   74.87    2.59 
  -3   7  -5   78.48    2.75 
  -4  -7  -5   14.62    0.87 
   4  -7   5   13.06    0.85 
  -4   7  -5   12.48    0.83 
  -4   7  -5   14.13    0.94 
  -4   7  -5   14.69    0.69 
   5  -7   5    0.50    0.48 
  -5  -7  -5    0.35    0.45 
  -5   7  -5    0.97    0.56 
  -5   7  -5    0.46    0.55 
  -6  -7  -5   11.87    0.88 
   6  -7   5   11.95    0.84 
  -6   7  -5   11.69    0.90 
  -6   7  -5   11.02    0.85 
  -7  -7  -5   14.88    1.03 
   7  -7   5   14.44    0.92 
  -7   7  -5   13.15    0.98 
  -7   7  -5   14.66    1.12 
   8  -8  -5    3.50    1.03 
  -8   8   5    4.09    0.69 
   8   8  -5    3.73    0.79 
   7  -8  -5   20.40    1.57 
   7   8  -5   22.07    1.37 
  -7   8   5   20.23    1.21 
   6  -8  -5   51.19    2.32 
  -6   8   5   54.96    2.05 
   6   8  -5   53.93    2.22 
   6   8  -5   52.40    1.93 
  -5  -8   5    6.20    0.66 
   5  -8  -5    3.95    0.76 
   5   8  -5    5.04    0.49 
  -5   8   5    4.85    0.47 
   4  -8  -5    5.37    0.70 
  -4  -8   5    6.87    0.66 
  -4   8   5    6.18    0.52 
   4   8  -5    5.42    0.55 
  -3  -8   5   66.16    2.49 
   3  -8  -5   67.42    2.59 
  -3   8   5   70.43    2.41 
   3   8  -5   71.64    2.43 
   2  -8  -5  135.04    4.54 
  -2  -8   5  141.53    4.66 
   2  -8  -5  138.80    4.72 
   2   8  -5  143.34    4.60 
  -2   8   5  143.54    4.60 
   2   8  -5  128.69    4.50 
   1  -8  -5    3.80    0.50 
   1  -8  -5    2.65    0.38 
  -1  -8   5    3.43    0.53 
   1   8  -5    3.53    0.47 
  -1   8   5    3.63    0.48 
   1   8  -5    3.95    0.35 
   0  -8  -5   18.06    0.82 
   0  -8   5   17.29    0.97 
   0   8   5   19.19    0.99 
   0   8  -5   17.33    0.92 
   0   8  -5   17.95    0.84 
  -1  -8  -5   91.92    3.03 
   1  -8   5   87.56    3.14 
  -1   8  -5   95.03    3.10 
  -1   8  -5   87.37    3.11 
   1   8   5   90.04    3.12 
   2  -8   5   89.06    3.01 
  -2  -8  -5   85.44    2.88 
  -2  -8  -5   86.25    2.90 
  -2   8  -5   85.80    2.98 
   2   8   5   81.85    2.99 
  -2   8  -5   85.20    2.95 
   3  -8   5    0.55    0.50 
  -3  -8  -5    0.47    0.38 
  -3   8  -5    0.11    0.47 
   3   8   5    0.76    0.52 
  -3   8  -5    0.66    0.51 
  -4  -8  -5   46.77    1.74 
   4  -8   5   45.73    1.82 
  -4   8  -5   47.64    1.88 
  -4   8  -5   47.65    1.85 
  -5  -8  -5   48.69    1.87 
   5  -8   5   46.75    1.92 
  -5   8  -5   52.14    2.00 
  -5   8  -5   52.64    2.03 
   6  -8   5   10.91    0.83 
  -6  -8  -5    9.94    0.73 
  -6   8  -5    9.33    0.83 
  -6   8  -5    8.29    0.85 
   7  -9  -5    0.50    0.85 
   7   9  -5    1.20    0.72 
  -7   9   5    1.30    0.64 
   6  -9  -5    5.44    0.89 
   6   9  -5    5.65    0.58 
   6   9  -5    5.75    0.80 
   5  -9  -5   13.91    1.30 
  -5  -9   5   16.54    1.08 
   5   9  -5   17.04    0.96 
  -4  -9   5    0.20    0.54 
   4  -9  -5    0.65    0.66 
   4   9  -5    0.42    0.44 
  -4   9   5    0.57    0.45 
   3  -9  -5   -0.15    0.56 
  -3  -9   5    0.25    0.56 
   3   9  -5    0.24    0.45 
  -3   9   5   -0.10    0.45 
  -2  -9   5    1.01    0.56 
   2  -9  -5    0.35    0.51 
   2  -9  -5    0.80    0.33 
  -2   9   5    0.86    0.50 
   2   9  -5    0.56    0.46 
   1  -9  -5    6.09    0.45 
  -1  -9   5    7.37    0.68 
   1   9  -5    5.88    0.43 
  -1   9   5    7.06    0.64 
   1   9  -5    7.06    0.60 
   0  -9   5    9.32    0.73 
   0  -9  -5    9.12    0.63 
   0   9   5    9.69    0.69 
   0   9  -5    8.49    0.67 
   0   9  -5   11.03    0.81 
   1  -9   5    0.24    0.55 
  -1  -9  -5    0.45    0.35 
  -1  -9  -5    0.14    0.41 
  -1   9  -5    0.27    0.38 
  -1   9  -5    0.56    0.50 
   1   9   5    1.23    0.52 
  -2  -9  -5    3.86    0.44 
   2  -9   5    4.18    0.64 
  -2  -9  -5    3.44    0.45 
  -2   9  -5    2.69    0.50 
  -2   9  -5    4.15    0.59 
   2   9   5    3.67    0.60 
   3  -9   5   21.35    1.12 
  -3  -9  -5   18.30    0.91 
  -3   9  -5   18.76    1.13 
   3   9   5   17.62    1.10 
  -3   9  -5   21.00    1.12 
   4  -9   5   23.12    1.19 
  -4  -9  -5   22.24    1.08 
  -4   9  -5   20.12    1.18 
  -4   9  -5   20.95    1.23 
  -5  -9  -5    0.38    0.48 
   5  -9   5    0.92    0.66 
  -5   9  -5    0.26    0.62 
  -5   9  -5    0.39    0.64 
   6 -10  -5   10.98    1.29 
   6  10  -5   12.26    1.05 
   6  10  -5   13.82    0.90 
   5 -10  -5    6.88    0.95 
  -5 -10   5    8.78    0.82 
   5  10  -5    9.60    0.75 
  -4 -10   5    5.71    0.72 
   4 -10  -5    3.98    0.80 
  -4  10   5    5.78    0.61 
   4  10  -5    6.02    0.62 
  -3 -10   5   14.39    1.04 
  -3  10   5   12.73    0.93 
   3  10  -5   13.37    0.91 
  -2 -10   5   16.47    1.08 
  -2  10   5   16.78    1.03 
   2  10  -5   15.90    0.98 
  -1 -10   5    2.65    0.64 
   1  10  -5    2.57    0.55 
  -1  10   5    2.74    0.56 
   0 -10   5    2.24    0.52 
   0  10  -5    2.40    0.56 
   0  10   5    1.47    0.55 
   0  10  -5    1.04    0.40 
   1 -10   5   18.72    1.14 
  -1 -10  -5   17.74    0.98 
  -1  10  -5   18.75    1.09 
   1  10   5   18.84    1.09 
  -1  10  -5   18.92    0.94 
  -2 -10  -5   25.67    1.25 
   2 -10   5   29.87    1.47 
  -2  10  -5   28.71    1.26 
   2  10   5   29.08    1.36 
  -2  10  -5   26.86    1.34 
  -3 -10  -5   -0.19    0.50 
   3 -10   5    0.28    0.64 
  -3  10  -5    0.89    0.63 
   3  10   5    1.19    0.62 
  -3  10  -5    0.66    0.54 
   4 -10   5   13.25    1.08 
  -4  10  -5   13.09    0.92 
  -4  10  -5   14.53    1.11 
   4  10   5   15.69    1.10 
  -4 -11   5   10.87    0.92 
  -4  11   5    7.75    0.73 
   4  11  -5    9.52    0.80 
  -3 -11   5   19.23    1.20 
   3  11  -5   15.60    1.04 
  -3  11   5   17.38    1.04 
  -2 -11   5    7.21    0.78 
  -2  11   5    5.71    0.72 
   2  11  -5    6.70    0.69 
  -1 -11   5   45.95    1.93 
   1  11  -5   47.29    1.86 
  -1  11   5   45.54    1.85 
   0 -11  -5   13.02    1.01 
   0 -11   5   15.45    1.10 
   0  11  -5   14.04    1.03 
   0  11   5   14.61    1.05 
   1 -11   5    3.60    0.73 
  -1 -11  -5    4.87    0.75 
  -1  11  -5    5.08    0.69 
   1  11   5    4.85    0.70 
   2 -11   5   25.14    1.40 
   2  11   5   23.35    1.33 
  -2  11  -5   25.53    1.28 
  -2  11  -5   25.46    1.33 
   3 -11   5   46.93    1.95 
  -3  11  -5   42.92    1.89 
   3  11   5   46.17    1.93 
  10   0  -6   74.07    2.94 
   9   0  -6   32.47    1.71 
   8   0  -6   -0.11    0.61 
   7   0  -6   61.51    2.43 
   6   0  -6   79.78    2.94 
   5   0  -6   31.06    1.35 
   4   0  -6    0.84    0.45 
   4   0  -6    1.71    0.10 
   4   0  -6    1.56    0.12 
   3   0  -6  146.50    4.93 
   2   0  -6  255.78    8.38 
   1   0  -6  130.14    4.34 
   0   0  -6   22.75    0.95 
   0   0  -6   22.20    0.88 
  -1   0  -6  336.55   10.59 
  -1   0  -6  327.54   10.63 
  -1   0  -6  321.90   10.61 
  -2   0  -6  219.76    7.18 
  -2   0  -6  216.38    7.14 
  -2   0  -6  227.54    7.16 
  -3   0  -6    7.32    0.58 
  -3   0  -6    6.56    0.27 
  -3   0  -6    6.20    0.35 
  -3   0  -6    6.84    0.30 
  -3   0  -6    7.56    0.54 
  -4   0  -6  136.53    4.51 
  -4   0  -6  134.62    4.49 
  -5   0  -6  129.98    4.27 
  -5   0  -6  125.06    4.25 
  -6   0  -6   22.14    1.08 
  -6   0  -6   22.84    1.10 
  -7   0  -6    0.26    0.52 
  -7   0  -6    0.93    0.50 
  -8   0  -6   36.11    1.59 
  -8   0  -6   37.10    1.57 
  10  -1  -6    0.47    0.70 
  10   1  -6   -0.25    0.67 
   9  -1  -6   15.67    1.28 
   9   1  -6   15.34    1.29 
   8  -1  -6   23.82    1.42 
   8   1  -6   21.50    1.37 
   7  -1  -6   11.37    1.09 
   7   1  -6   11.23    0.87 
   6  -1  -6   -0.05    0.41 
   6   1  -6    0.30    0.50 
   5  -1  -6   34.05    1.51 
   5   1  -6   31.57    1.46 
   4  -1  -6   97.86    3.37 
   4   1  -6   98.75    3.33 
   4   1  -6   89.66    3.07 
   3  -1  -6   11.79    0.48 
   3  -1  -6   12.75    0.85 
   3   1  -6   13.23    0.50 
   3   1  -6   12.56    0.79 
   2  -1  -6   10.87    0.48 
   2  -1  -6    9.82    0.73 
   2   1  -6   11.61    0.70 
   1  -1  -6   26.27    1.10 
   1  -1  -6   26.54    0.98 
   1   1  -6   26.74    1.08 
   0  -1  -6   99.43    3.31 
   0  -1  -6  101.39    3.37 
   0  -1  -6  100.26    3.30 
   0   1  -6   97.24    3.30 
   0   1  -6  102.09    3.35 
  -1  -1  -6    5.93    0.38 
  -1  -1  -6    5.24    0.38 
  -1  -1  -6    4.62    0.43 
  -1   1  -6    5.18    0.44 
  -1   1  -6    5.03    0.40 
  -1   1  -6    6.14    0.43 
  -2  -1  -6    7.51    0.39 
  -2  -1  -6    8.58    0.54 
  -2  -1  -6    7.18    0.39 
  -2   1  -6    8.29    0.47 
  -2   1  -6    8.15    0.56 
  -2   1  -6    7.39    0.42 
  -2   1  -6    8.20    0.52 
  -3  -1  -6   24.28    0.81 
  -3  -1  -6   24.67    0.98 
  -3   1  -6   22.28    0.95 
  -3   1  -6   24.19    0.86 
  -3   1  -6   22.80    0.86 
  -3   1  -6   22.09    0.83 
  -3   1  -6   24.24    1.00 
  -4  -1  -6   76.01    2.58 
  -4  -1  -6   76.08    2.59 
  -4   1  -6   72.94    2.45 
  -4   1  -6   75.60    2.61 
  -4   1  -6   76.21    2.57 
  -5  -1  -6    0.07    0.41 
  -5  -1  -6    0.25    0.31 
  -5   1  -6    0.41    0.43 
  -5   1  -6    1.03    0.39 
  -6  -1  -6   13.34    0.85 
  -6  -1  -6   12.60    0.84 
  -6   1  -6   13.01    0.76 
  -6   1  -6   12.93    0.84 
  -7  -1  -6    9.27    0.72 
  -7  -1  -6    7.93    0.67 
  -7   1  -6    9.78    0.71 
  -7   1  -6    9.46    0.70 
  -8  -1  -6    4.58    0.61 
  -8  -1  -6    4.55    0.68 
  -8   1  -6    4.90    0.65 
  -8   1  -6    4.44    0.65 
  10  -2  -6    5.85    0.86 
  10   2  -6    5.87    0.85 
   9  -2  -6    3.42    0.79 
   9   2  -6    4.80    0.77 
   8  -2  -6   -0.07    0.65 
   8   2  -6    1.49    0.62 
   7  -2  -6    8.44    0.81 
   7   2  -6    6.29    0.72 
   6  -2  -6   12.32    1.07 
   6   2  -6   12.41    0.84 
   5  -2  -6   27.20    1.38 
   5   2  -6   27.53    0.92 
   5   2  -6   27.18    1.30 
   5   2  -6   27.72    0.98 
   4  -2  -6   -0.17    0.08 
   4  -2  -6   -0.55    0.46 
   4   2  -6    0.06    0.18 
   4   2  -6    0.25    0.40 
   4   2  -6   -0.01    0.16 
   3  -2  -6   50.95    2.05 
   3  -2  -6   53.36    1.78 
   3   2  -6   56.68    2.00 
   3   2  -6   55.08    1.80 
   2  -2  -6   78.08    2.83 
   2  -2  -6   81.16    2.63 
   2   2  -6   80.06    2.78 
   2   2  -6   81.13    2.65 
   1  -2  -6   38.03    1.47 
   1  -2  -6   38.30    1.34 
   1   2  -6   39.42    1.46 
   0  -2  -6    0.36    0.27 
   0  -2  -6    0.49    0.28 
   0   2   6    0.56    0.23 
   0   2  -6    0.18    0.24 
   0   2  -6    0.38    0.25 
  -1  -2  -6   26.13    0.95 
   1  -2   6   26.97    1.04 
  -1  -2  -6   26.25    0.99 
  -1  -2  -6   26.08    1.02 
  -1   2  -6   27.14    1.04 
  -1   2  -6   26.30    1.04 
  -1   2  -6   26.76    0.99 
  -2  -2  -6   71.22    2.33 
   2  -2   6   74.77    2.41 
  -2  -2  -6   71.54    2.43 
  -2  -2  -6   67.71    2.35 
  -2   2  -6   74.07    2.41 
  -2   2  -6   69.79    2.45 
  -3  -2  -6   10.73    0.42 
   3  -2   6   12.18    0.61 
  -3  -2  -6   11.84    0.67 
  -3   2  -6   11.81    0.53 
  -3   2  -6   10.86    0.62 
  -3   2  -6   11.70    0.70 
   4  -2   6   21.49    0.86 
  -4  -2  -6   20.20    0.95 
  -4   2  -6   20.93    0.92 
  -4   2  -6   22.16    1.00 
   5  -2   6   22.29    0.91 
  -5  -2  -6   22.26    1.04 
  -5  -2  -6   23.06    1.05 
  -5   2  -6   21.94    1.08 
  -5   2  -6   24.39    1.01 
  -6  -2  -6    2.67    0.53 
  -6  -2  -6    2.53    0.48 
  -6   2  -6    2.16    0.48 
  -6   2  -6    2.48    0.52 
  -7  -2  -6    1.09    0.55 
  -7  -2  -6    1.82    0.51 
  -7   2  -6    1.17    0.52 
  -7   2  -6    1.21    0.57 
  -8  -2  -6    5.73    0.64 
  -8  -2  -6    7.82    0.70 
  -8   2  -6    6.64    0.69 
  -8   2  -6    6.65    0.72 
  10  -3  -6   -0.23    0.73 
  10   3  -6    0.41    0.71 
   9  -3  -6   48.40    2.18 
   9   3  -6   45.46    2.08 
   8  -3  -6  103.47    3.71 
   8   3  -6   95.85    3.62 
   7  -3  -6   27.89    1.54 
   7   3  -6   27.56    1.44 
   6  -3  -6   -0.05    0.59 
   6   3  -6    0.39    0.51 
   5  -3  -6   38.07    1.64 
   5   3  -6   38.84    1.32 
   5   3  -6   39.84    1.63 
   4  -3  -6  134.61    4.39 
   4  -3  -6  133.52    4.68 
   4   3  -6  133.94    4.61 
   4   3  -6  143.79    4.42 
   4   3  -6  134.86    4.42 
   3  -3  -6   30.21    1.06 
   3  -3  -6   30.01    1.38 
   3   3  -6   32.10    1.09 
   3   3  -6   31.05    1.30 
   2  -3  -6    1.07    0.41 
   2  -3  -6    1.39    0.23 
   2   3  -6    1.38    0.35 
   2   3  -6    1.25    0.24 
   1  -3  -6  117.63    3.79 
   1   3  -6  106.24    3.68 
   1   3  -6  110.38    3.68 
   1   3  -6  113.30    3.77 
   0  -3  -6  304.94    9.49 
   0  -3   6  285.89    9.52 
   0  -3  -6  279.80    9.51 
   0   3   6  294.16    9.52 
   0   3  -6  304.07    9.47 
   0   3  -6  291.68    9.49 
   1  -3   6    3.87    0.39 
  -1  -3  -6    2.81    0.35 
  -1  -3  -6    3.87    0.37 
  -1   3  -6    3.42    0.37 
  -1   3  -6    2.82    0.30 
  -2  -3  -6   98.78    3.22 
  -2  -3  -6   90.17    3.14 
   2  -3   6   93.35    3.21 
  -2   3  -6  100.32    3.19 
  -2   3  -6   99.04    3.23 
   3  -3   6  196.56    6.18 
  -3  -3  -6  179.66    6.08 
  -3  -3  -6  190.14    6.20 
  -3   3  -6  188.29    6.23 
  -3   3  -6  181.27    6.17 
  -3   3  -6  200.91    6.17 
  -4  -3  -6  142.32    4.71 
   4  -3   6  142.77    4.67 
  -4   3  -6  142.27    4.69 
  -4   3  -6  140.89    4.74 
  -5  -3  -6   -0.10    0.43 
   5  -3   6    0.15    0.34 
  -5   3  -6    0.47    0.38 
  -5   3  -6   -0.16    0.45 
  -6  -3  -6   36.09    1.47 
  -6  -3  -6   37.29    1.52 
  -6   3  -6   36.63    1.56 
  -6   3  -6   38.44    1.51 
  -7  -3  -6   42.32    1.69 
  -7  -3  -6   40.61    1.62 
  -7   3  -6   39.17    1.62 
  -7   3  -6   41.85    1.63 
  -8  -3  -6   32.50    1.40 
  -8  -3  -6   33.59    1.49 
  -8   3  -6   30.57    1.52 
  -8   3  -6   30.66    1.43 
   9  -4  -6    0.44    0.72 
   9   4  -6    0.27    0.68 
   8  -4  -6   -0.66    0.67 
   8   4  -6   -0.35    0.62 
   7  -4  -6   27.73    1.52 
   7   4  -6   23.25    1.38 
   6  -4  -6   74.20    2.81 
   6   4  -6   75.69    2.71 
   6   4  -6   67.57    2.47 
   5  -4  -6    2.95    0.65 
   5   4  -6    4.10    0.30 
   5   4  -6    3.51    0.55 
   5   4  -6    3.77    0.25 
   4  -4  -6   18.28    1.16 
   4  -4  -6   19.46    0.73 
   4   4  -6   21.09    0.76 
   4   4  -6   19.10    1.04 
   4   4  -6   17.68    0.71 
   4   4  -6   19.09    0.74 
   3  -4  -6   87.29    3.11 
   3  -4  -6   83.88    2.86 
   3   4  -6   89.57    2.89 
   3   4  -6   87.57    2.88 
   3   4  -6   87.99    3.05 
   2  -4  -6   57.51    2.14 
  -2  -4   6   58.25    2.06 
   2   4  -6   56.26    1.97 
   2   4  -6   58.06    2.10 
   2   4  -6   59.14    1.97 
  -1  -4   6   15.22    0.78 
   1  -4  -6   13.33    0.76 
   1   4  -6   14.74    0.65 
   1   4  -6   13.41    0.65 
   0  -4   6    6.50    0.53 
   0  -4  -6    8.42    0.57 
   0  -4  -6    7.64    0.54 
   0   4  -6    7.58    0.54 
   0   4  -6    8.13    0.44 
   0   4  -6    8.46    0.53 
  -1  -4  -6   38.29    1.42 
   1  -4   6   37.93    1.45 
  -1  -4  -6   39.21    1.38 
  -1   4  -6   38.34    1.36 
  -1   4  -6   40.68    1.47 
   1   4   6   40.11    1.41 
  -1   4  -6   38.20    1.44 
   2  -4   6   10.46    0.65 
  -2  -4  -6   10.27    0.64 
   2   4   6   10.87    0.51 
  -2   4  -6   10.81    0.55 
  -2   4  -6   11.57    0.70 
  -3  -4  -6   10.88    0.69 
   3  -4   6   10.94    0.69 
  -3   4  -6   10.06    0.74 
  -3   4  -6   10.65    0.63 
  -4  -4  -6    1.84    0.43 
   4  -4   6    1.49    0.36 
  -4   4  -6    0.98    0.45 
  -4   4  -6    1.47    0.34 
  -5  -4  -6   26.78    1.17 
   5  -4   6   26.53    1.10 
  -5   4  -6   26.76    1.15 
  -5   4  -6   25.95    1.14 
  -6  -4  -6   16.05    0.97 
  -6  -4  -6   16.19    0.90 
  -6   4  -6   16.20    0.95 
  -6   4  -6   16.69    1.04 
  -7  -4  -6   -0.12    0.49 
  -7  -4  -6   -0.61    0.56 
  -7   4  -6   -0.70    0.58 
  -7   4  -6   -0.54    0.46 
  -8  -4  -6   15.70    0.96 
  -8  -4  -6   17.31    1.11 
  -8   4  -6   12.87    0.95 
  -8   4  -6   14.80    1.08 
   9  -5  -6    0.09    0.76 
   9   5  -6    1.65    0.70 
   8  -5  -6    3.75    0.84 
   8   5  -6    4.58    0.72 
   7  -5  -6    2.32    0.72 
   7   5  -6    1.21    0.60 
   6  -5  -6    0.07    0.64 
   6   5  -6    1.02    0.29 
   6   5  -6    0.85    0.54 
   5  -5  -6    0.54    0.58 
   5   5  -6    1.31    0.29 
   5   5  -6    1.49    0.52 
   4  -5  -6   11.65    1.03 
   4   5  -6   12.61    0.92 
   4   5  -6   12.22    0.52 
   4   5  -6   12.11    0.63 
   3  -5  -6   10.77    0.90 
   3   5  -6   10.56    0.60 
   3   5  -6   12.18    0.84 
   3   5  -6   10.68    0.54 
   2  -5  -6    2.03    0.50 
  -2  -5   6    2.42    0.46 
   2   5  -6    2.25    0.29 
   2   5  -6    2.63    0.33 
   1  -5  -6   23.35    1.08 
   1  -5  -6   22.97    0.95 
  -1  -5   6   22.58    1.04 
   1   5  -6   24.26    0.89 
   1   5  -6   23.70    0.95 
   1   5  -6   24.39    0.96 
   0  -5   6   14.33    0.80 
   0  -5  -6   14.55    0.75 
   0  -5  -6   14.13    0.70 
   0   5  -6   14.62    0.62 
   0   5  -6   13.85    0.73 
   0   5  -6   14.60    0.75 
  -1  -5  -6    9.57    0.55 
  -1  -5  -6    9.57    0.61 
   1  -5   6    9.46    0.68 
   1   5   6    9.65    0.62 
  -1   5  -6    9.09    0.50 
  -1   5  -6    8.97    0.64 
  -1   5  -6    9.31    0.66 
  -2  -5  -6    0.85    0.35 
   2  -5   6    0.38    0.43 
  -2   5  -6    1.40    0.39 
  -2   5  -6    0.65    0.44 
  -2   5  -6    0.88    0.27 
   3  -5   6   49.07    1.77 
  -3  -5  -6   46.55    1.73 
  -3   5  -6   47.05    1.67 
  -3   5  -6   46.04    1.81 
  -3   5  -6   49.11    1.80 
   4  -5   6    3.21    0.45 
  -4  -5  -6    3.63    0.46 
  -4   5  -6    3.09    0.40 
  -4   5  -6    2.15    0.50 
  -4   5  -6    2.44    0.57 
  -5  -5  -6   -0.31    0.46 
   5  -5   6   -0.05    0.43 
  -5   5  -6    0.33    0.51 
  -5   5  -6    0.71    0.37 
  -6  -5  -6    4.39    0.51 
  -6  -5  -6    3.67    0.59 
   6  -5   6    4.55    0.53 
  -6   5  -6    4.17    0.50 
  -6   5  -6    4.47    0.62 
  -7  -5  -6    5.88    0.72 
  -7  -5  -6    6.09    0.58 
  -7   5  -6    6.27    0.64 
  -7   5  -6    5.92    0.70 
   8  -6  -6    0.23    0.79 
   8   6  -6    1.30    0.67 
   7  -6  -6   34.45    1.86 
   7   6  -6   35.84    1.71 
   6  -6  -6   58.04    2.44 
   6   6  -6   55.99    1.99 
   6   6  -6   60.18    2.32 
   5  -6  -6   27.29    1.37 
   5   6  -6   28.13    1.39 
   5   6  -6   26.72    1.07 
   4  -6  -6   23.32    1.34 
   4   6  -6   24.82    1.27 
  -4   6   6   26.12    1.01 
   4   6  -6   25.72    1.02 
  -3  -6   6   75.56    2.70 
   3  -6  -6   75.65    2.80 
   3   6  -6   78.41    2.59 
  -3   6   6   75.67    2.59 
   3   6  -6   76.17    2.53 
   2  -6  -6   85.22    3.02 
  -2  -6   6   84.65    2.96 
  -2   6   6   84.63    2.89 
   2   6  -6   84.46    2.85 
   2   6  -6   88.08    2.90 
  -1  -6   6   68.00    2.47 
   1  -6  -6   69.68    2.49 
   1  -6  -6   70.64    2.38 
   1   6  -6   68.22    2.38 
   1   6  -6   72.13    2.32 
  -1   6   6   70.41    2.43 
   1   6  -6   69.30    2.40 
   0  -6   6   30.41    1.20 
   0  -6  -6   25.69    1.07 
   0  -6  -6   27.17    1.14 
   0   6  -6   27.83    1.12 
   0   6  -6   26.15    0.98 
   0   6  -6   26.25    1.11 
   1  -6   6   78.58    2.93 
  -1  -6  -6   84.62    2.87 
  -1   6  -6   87.04    2.82 
  -1   6  -6   87.86    2.93 
  -1   6  -6   87.35    2.92 
   2  -6   6   46.85    1.74 
  -2  -6  -6   46.43    1.69 
  -2   6  -6   46.41    1.76 
  -2   6  -6   47.21    1.75 
  -2   6  -6   45.39    1.61 
  -3  -6  -6    6.85    0.54 
   3  -6   6    7.02    0.59 
  -3   6  -6    6.29    0.60 
  -3   6  -6    6.84    0.64 
  -3   6  -6    6.56    0.43 
   4  -6   6   15.05    0.92 
  -4  -6  -6   14.15    0.84 
  -4   6  -6   13.32    0.95 
  -4   6  -6   15.46    0.74 
  -4   6  -6   11.62    0.98 
  -5  -6  -6   42.50    1.63 
   5  -6   6   40.47    1.64 
  -5   6  -6   39.58    1.55 
  -5   6  -6   41.45    1.76 
  -5   6  -6   42.26    1.72 
   6  -6   6   21.25    1.10 
  -6  -6  -6   24.11    1.16 
  -6   6  -6   22.79    1.24 
  -6   6  -6   20.02    1.29 
  -6   6  -6   22.53    1.02 
  -7  -6  -6    1.24    0.60 
  -7  -6  -6    0.75    0.51 
  -7   6  -6    1.34    0.71 
  -7   6  -6    0.64    0.65 
   8  -7  -6   37.90    2.04 
   8   7  -6   39.04    1.88 
   7  -7  -6   14.86    1.20 
   7   7  -6   15.54    1.25 
   6  -7  -6   -0.98    0.69 
   6   7  -6    0.20    0.37 
   6   7  -6    0.11    0.61 
   5  -7  -6   35.31    1.78 
   5   7  -6   37.46    1.38 
   5   7  -6   36.24    1.69 
   4  -7  -6   50.11    2.10 
  -4  -7   6   51.08    1.95 
   4   7  -6   49.09    1.79 
  -4   7   6   51.35    1.80 
  -3  -7   6    1.75    0.53 
   3  -7  -6    1.14    0.54 
   3   7  -6    1.83    0.39 
  -3   7   6    1.64    0.40 
   2  -7  -6    6.02    0.46 
  -2  -7   6    6.78    0.62 
   2  -7  -6    5.68    0.59 
   2   7  -6    6.68    0.49 
  -2   7   6    7.03    0.56 
   2   7  -6    7.04    0.52 
   1  -7  -6   27.27    1.09 
  -1  -7   6   28.08    1.23 
   1  -7  -6   27.66    1.21 
   1   7  -6   25.94    1.07 
   1   7  -6   27.05    1.13 
  -1   7   6   27.01    1.15 
   1   7  -6   27.28    0.99 
   0  -7  -6   42.48    1.58 
   0  -7  -6   43.37    1.64 
   0  -7   6   44.54    1.69 
   0   7   6   40.86    1.63 
   0   7  -6   44.28    1.47 
   0   7  -6   41.43    1.61 
   0   7  -6   42.41    1.57 
   1  -7   6    6.03    0.61 
  -1  -7  -6    6.06    0.47 
  -1   7  -6    5.60    0.42 
  -1   7  -6    5.87    0.51 
  -1   7  -6    6.64    0.58 
  -2  -7  -6   13.62    0.75 
   2  -7   6   12.75    0.85 
  -2   7  -6   13.21    0.61 
  -2   7  -6   11.74    0.87 
  -2   7  -6   12.32    0.83 
  -3  -7  -6   18.66    0.99 
   3  -7   6   19.89    1.03 
  -3   7  -6   20.38    1.05 
  -3   7  -6   17.17    1.08 
  -4  -7  -6   45.59    1.77 
   4  -7   6   47.27    1.82 
  -4   7  -6   48.16    1.87 
  -4   7  -6   47.60    1.89 
   5  -7   6    4.35    0.60 
  -5  -7  -6    3.58    0.56 
  -5   7  -6    3.58    0.70 
  -5   7  -6    4.17    0.66 
   6  -7   6    6.05    0.68 
  -6  -7  -6    6.38    0.65 
  -6   7  -6    4.84    0.73 
  -6   7  -6    5.11    0.79 
   7  -8  -6   -0.88    0.80 
   7   8  -6    0.16    0.70 
   6  -8  -6   -0.68    0.74 
   6   8  -6   -0.09    0.64 
   6   8  -6   -0.06    0.47 
   5  -8  -6    1.25    0.73 
   5   8  -6    0.78    0.50 
   5   8  -6    1.38    0.44 
   4  -8  -6    0.27    0.63 
  -4  -8   6    0.90    0.57 
  -4   8   6    0.26    0.42 
   4   8  -6    0.00    0.44 
  -3  -8   6    3.08    0.58 
   3  -8  -6    1.56    0.59 
   3   8  -6    2.35    0.47 
  -3   8   6    1.90    0.46 
   2  -8  -6   -0.27    0.36 
   2  -8  -6    0.52    0.54 
  -2  -8   6    0.43    0.43 
  -2   8   6   -0.05    0.41 
   2   8  -6    0.93    0.43 
   1  -8  -6    3.59    0.43 
   1  -8  -6    3.51    0.51 
  -1  -8   6    4.71    0.61 
   1   8  -6    3.61    0.39 
   1   8  -6    4.00    0.51 
  -1   8   6    4.05    0.56 
   0  -8  -6    1.04    0.36 
   0  -8   6    1.33    0.55 
   0   8  -6    1.34    0.51 
   0   8  -6    1.79    0.40 
   0   8   6    1.13    0.48 
   1  -8   6    5.20    0.63 
  -1  -8  -6    4.38    0.45 
  -1   8  -6    5.09    0.54 
   1   8   6    5.25    0.59 
  -1   8  -6    4.97    0.57 
   2  -8   6    1.40    0.55 
  -2  -8  -6    0.69    0.39 
  -2   8  -6    0.70    0.52 
  -2   8  -6    0.98    0.46 
  -3  -8  -6    0.02    0.41 
   3  -8   6    1.30    0.60 
  -3   8  -6    0.40    0.49 
  -3   8  -6    0.01    0.45 
   4  -8   6    1.17    0.62 
  -4  -8  -6    0.44    0.51 
  -4   8  -6    1.35    0.58 
  -4   8  -6    0.92    0.64 
   5  -8   6    3.17    0.70 
  -5  -8  -6    3.53    0.55 
  -5   8  -6    3.02    0.73 
  -5   8  -6    1.92    0.65 
   6  -9  -6   -0.37    0.77 
   6   9  -6    0.24    0.68 
   5  -9  -6   41.19    2.03 
   5   9  -6   43.46    1.66 
   4  -9  -6   45.94    2.10 
  -4  -9   6   47.09    1.93 
   4   9  -6   47.63    1.79 
  -4   9   6   48.70    1.79 
  -3  -9   6    1.63    0.60 
   3  -9  -6    1.78    0.38 
   3  -9  -6    1.91    0.63 
  -3   9   6    1.80    0.52 
   3   9  -6    3.07    0.50 
   2  -9  -6    0.97    0.55 
   2  -9  -6    1.39    0.40 
  -2  -9   6    1.39    0.60 
   2   9  -6    0.94    0.48 
  -2   9   6    1.31    0.47 
  -1  -9   6   44.47    1.88 
   1  -9  -6   47.86    1.72 
  -1   9   6   48.23    1.85 
   1   9  -6   46.96    1.79 
   0  -9   6   27.94    1.37 
   0  -9  -6   29.07    1.19 
   0   9   6   28.26    1.30 
   0   9  -6   28.99    1.29 
   0   9  -6   28.64    1.20 
   1  -9   6    0.71    0.58 
  -1  -9  -6    0.37    0.42 
   1   9   6    0.33    0.54 
  -1   9  -6    0.21    0.42 
  -1   9  -6    0.24    0.52 
   2  -9   6    2.49    0.65 
  -2  -9  -6    1.57    0.43 
   2   9   6    1.90    0.60 
  -2   9  -6    2.57    0.58 
  -2   9  -6    2.17    0.56 
  -3  -9  -6   25.38    1.18 
   3  -9   6   26.25    1.39 
  -3   9  -6   24.56    1.30 
  -3   9  -6   23.20    1.24 
  -4  -9  -6   15.02    1.00 
   4  -9   6   16.10    1.09 
  -4   9  -6   15.41    1.13 
  -4   9  -6   15.31    1.20 
   5 -10  -6   10.05    1.07 
  -5 -10   6   15.18    1.14 
   5  10  -6   12.11    0.88 
   4 -10  -6    8.65    0.96 
  -4 -10   6   12.97    1.09 
   4  10  -6   11.87    0.96 
  -3 -10   6   29.45    1.51 
   3 -10  -6   32.76    1.65 
   3  10  -6   32.11    1.38 
  -3  10   6   31.19    1.35 
  -2 -10   6   20.47    1.21 
   2  10  -6   19.54    1.14 
  -2  10   6   19.14    1.06 
  -1 -10   6   12.54    1.04 
  -1  10   6   11.62    0.90 
   1  10  -6   10.11    0.78 
   0 -10   6   15.81    1.08 
   0 -10  -6   12.23    0.89 
   0  10  -6   14.78    1.00 
   0  10   6   13.97    1.08 
   1 -10   6   18.67    1.17 
  -1 -10  -6   19.09    0.97 
   1  10   6   18.18    1.12 
  -1  10  -6   19.02    1.05 
  -1  10  -6   18.80    1.11 
  -2 -10  -6   13.16    0.87 
   2 -10   6   13.82    1.10 
  -2  10  -6   12.48    1.01 
  -2  10  -6   13.98    1.05 
   2  10   6   14.54    1.05 
   3 -10   6    3.95    0.72 
  -3 -10  -6    3.00    0.54 
  -3  10  -6    2.35    0.69 
  -3  10  -6    2.34    0.61 
  -2 -11   6    0.94    0.72 
   2  11  -6   -0.19    0.62 
  -2  11   6    0.77    0.58 
  -1 -11   6    1.03    0.70 
   1  11  -6    0.53    0.63 
  -1  11   6    0.58    0.64 
   0 -11  -6    0.25    0.75 
   0 -11   6    1.97    0.72 
   0  11   6    0.55    0.62 
   0  11  -6    0.76    0.62 
   1 -11   6    0.60    0.80 
  -1  11  -6   -0.27    0.60 
   1  11   6    0.25    0.62 
   9   0  -7   -0.54    0.70 
   8   0  -7   -0.49    0.65 
   7   0  -7   -0.17    0.46 
   6   0  -7   -0.17    0.57 
   5   0  -7   -0.17    0.52 
   4   0  -7   -0.05    0.13 
   4   0  -7   -0.16    0.15 
   4   0  -7   -0.58    0.46 
   3   0  -7   -0.74    0.45 
   2   0  -7   -0.23    0.42 
   1   0  -7   -0.22    0.32 
   0   0  -7   -0.42    0.29 
   0   0  -7   -0.49    0.30 
  -1   0  -7    0.52    0.30 
  -1   0  -7   -0.17    0.28 
  -2   0  -7   -0.39    0.22 
  -2   0  -7    0.27    0.23 
  -2   0  -7    0.40    0.33 
  -3   0  -7   -0.18    0.36 
  -3   0  -7    0.35    0.38 
  -4   0  -7   -0.41    0.40 
  -4   0  -7   -0.05    0.41 
  -5   0  -7   -0.03    0.43 
  -5   0  -7    0.13    0.46 
  -6   0  -7    0.36    0.51 
  -6   0  -7   -0.65    0.47 
  -7   0  -7    0.44    0.58 
  -7   0  -7   -0.18    0.53 
  -8   0  -7   -0.36    0.62 
  -8   0  -7   -0.06    0.59 
   9  -1  -7   24.16    1.56 
   9   1  -7   23.51    1.54 
   8  -1  -7   63.81    2.62 
   8   1  -7   64.79    2.61 
   7  -1  -7   45.61    2.01 
   7   1  -7   43.18    1.96 
   6  -1  -7   -0.21    0.57 
   6   1  -7   -0.02    0.56 
   5  -1  -7   72.17    2.71 
   5   1  -7   74.85    2.74 
   4  -1  -7   66.57    2.28 
   4  -1  -7   68.85    2.55 
   4  -1  -7   70.50    2.25 
   4   1  -7   71.36    2.27 
   4   1  -7   69.48    2.56 
   3  -1  -7   16.42    0.68 
   3  -1  -7   17.47    1.05 
   3   1  -7   19.61    0.70 
   3   1  -7   19.12    1.00 
   2  -1  -7   21.14    0.82 
   2  -1  -7   20.97    1.11 
   2   1  -7   21.71    1.03 
   1  -1  -7   32.49    1.35 
   1   1  -7   34.45    1.37 
   0  -1  -7   51.86    1.90 
   0  -1  -7   54.06    1.84 
   0   1  -7   52.29    1.90 
   0   1  -7   52.61    1.83 
  -1  -1  -7   46.92    1.66 
  -1  -1  -7   46.71    1.69 
  -1   1  -7   49.46    1.68 
  -1   1  -7   46.65    1.71 
  -2  -1  -7   41.38    1.45 
  -2  -1  -7   44.45    1.46 
  -2  -1  -7   44.14    1.56 
  -2   1  -7   43.57    1.58 
  -2   1  -7   40.55    1.53 
  -2   1  -7   41.20    1.52 
  -3  -1  -7   27.31    1.06 
  -3   1  -7   26.60    1.15 
  -3   1  -7   27.13    1.00 
  -3   1  -7   26.23    1.09 
  -4  -1  -7   53.84    1.93 
  -4  -1  -7   55.21    1.95 
  -4   1  -7   53.80    1.94 
  -4   1  -7   53.10    1.98 
  -5  -1  -7   47.47    1.80 
  -5  -1  -7   48.36    1.82 
  -5   1  -7   48.07    1.78 
  -5   1  -7   46.98    1.77 
  -6  -1  -7   16.19    1.00 
  -6  -1  -7   18.09    1.02 
  -6   1  -7   17.86    1.04 
  -6   1  -7   16.51    0.98 
  -7  -1  -7   31.13    1.39 
  -7  -1  -7   29.84    1.40 
  -7   1  -7   29.00    1.41 
  -7   1  -7   29.28    1.37 
  -8  -1  -7   15.35    1.09 
  -8  -1  -7   15.14    1.22 
  -8   1  -7   15.40    1.11 
  -8   1  -7   15.69    1.11 
   9  -2  -7   28.77    1.68 
   9   2  -7   27.98    1.63 
   8  -2  -7   -0.55    0.69 
   8   2  -7   -0.75    0.64 
   7  -2  -7   20.81    1.39 
   7   2  -7   20.43    1.30 
   6  -2  -7  135.19    4.71 
   6   2  -7  132.96    4.65 
   5  -2  -7   17.06    1.19 
   5   2  -7   16.65    1.08 
   4  -2  -7    7.03    0.70 
   4   2  -7    8.11    0.67 
   4   2  -7    8.39    0.41 
   3  -2  -7   63.81    1.98 
   3  -2  -7   57.55    2.26 
   3   2  -7   57.52    1.99 
   3   2  -7   58.56    2.20 
   2  -2  -7  193.02    6.43 
   2  -2  -7  199.55    6.61 
   2   2  -7  198.62    6.57 
   2   2  -7  203.32    6.45 
   1  -2  -7    8.37    0.67 
   1   2  -7    8.98    0.66 
   0  -2  -7    0.13    0.33 
   0  -2  -7    0.42    0.32 
   0   2  -7    0.36    0.28 
   0   2  -7    0.59    0.31 
   0   2   7    0.26    0.28 
  -1  -2  -7   72.27    2.30 
  -1  -2  -7   68.77    2.32 
  -1  -2  -7   69.26    2.35 
  -1   2  -7   66.41    2.33 
  -1   2  -7   67.40    2.37 
  -1   2  -7   66.25    2.36 
  -2  -2  -7  150.54    4.73 
  -2  -2  -7  144.27    4.82 
  -2   2  -7  145.05    4.81 
  -2   2  -7  147.08    4.80 
  -2   2  -7  142.88    4.84 
  -3  -2  -7    3.66    0.43 
  -3   2  -7    2.51    0.42 
  -3   2  -7    3.77    0.46 
  -3   2  -7    3.11    0.31 
  -4  -2  -7    2.94    0.47 
  -4   2  -7    2.26    0.42 
  -4   2  -7    2.61    0.41 
  -5  -2  -7   71.95    2.57 
  -5  -2  -7   72.83    2.58 
  -5   2  -7   72.66    2.54 
  -5   2  -7   73.19    2.60 
  -6  -2  -7   50.23    1.91 
  -6  -2  -7   51.35    1.90 
  -6   2  -7   48.06    1.94 
  -6   2  -7   48.68    1.91 
  -7  -2  -7    0.86    0.59 
  -7  -2  -7    0.55    0.57 
  -7   2  -7    0.61    0.54 
  -7   2  -7    1.03    0.61 
   9  -3  -7    0.70    0.77 
   9   3  -7    0.57    0.73 
   8  -3  -7    2.38    0.65 
   8   3  -7    2.27    0.70 
   7  -3  -7   -0.45    0.51 
   7   3  -7    0.27    0.60 
   6  -3  -7    1.87    0.67 
   6   3  -7    2.56    0.60 
   5  -3  -7    0.00    0.58 
   5   3  -7    0.80    0.50 
   5   3  -7    0.20    0.22 
   4  -3  -7    5.23    0.67 
   4   3  -7    6.23    0.40 
   4   3  -7    5.36    0.59 
   3  -3  -7   36.88    1.31 
   3  -3  -7   37.79    1.64 
   3   3  -7   39.69    1.34 
   3   3  -7   38.17    1.57 
   2  -3  -7    0.07    0.42 
   2   3  -7    0.15    0.37 
   2   3  -7    0.37    0.28 
   1  -3  -7   13.99    0.78 
   1  -3  -7   11.96    0.67 
   1   3  -7   12.10    0.76 
   1   3  -7   12.31    0.63 
   1   3  -7   12.01    0.63 
   0  -3  -7    1.67    0.34 
   0  -3  -7    1.47    0.37 
   0   3  -7    1.61    0.35 
   0   3  -7    1.73    0.34 
   0   3  -7    1.33    0.30 
  -1  -3  -7   11.50    0.66 
   1  -3   7   10.68    0.67 
  -1  -3  -7   11.46    0.59 
  -1  -3  -7   11.06    0.58 
  -1   3  -7    9.87    0.68 
  -1   3  -7   10.54    0.59 
  -1   3  -7   10.99    0.65 
   1   3   7    9.90    0.54 
   2  -3   7    6.23    0.50 
  -2  -3  -7    6.02    0.36 
  -2  -3  -7    5.33    0.47 
  -2   3  -7    6.37    0.51 
  -2   3  -7    5.55    0.45 
  -3  -3  -7    0.46    0.40 
   3  -3   7    0.86    0.38 
  -3   3  -7    0.45    0.35 
  -3   3  -7    1.56    0.44 
   4  -3   7    1.30    0.38 
  -4  -3  -7    1.28    0.44 
  -4   3  -7    1.61    0.49 
  -4   3  -7    1.68    0.40 
  -5  -3  -7    0.29    0.49 
  -5  -3  -7    0.59    0.46 
  -5   3  -7    0.67    0.43 
  -5   3  -7   -0.38    0.50 
  -6  -3  -7    5.02    0.62 
  -6  -3  -7    3.86    0.56 
  -6   3  -7    4.80    0.57 
  -6   3  -7    4.51    0.65 
  -7  -3  -7    0.98    0.52 
  -7  -3  -7    1.03    0.58 
  -7   3  -7   -0.34    0.52 
  -7   3  -7   -0.16    0.59 
   9  -4  -7   13.16    1.15 
   9   4  -7   15.43    1.35 
   8  -4  -7   -0.75    0.74 
   8   4  -7   -0.69    0.64 
   7  -4  -7   29.04    1.65 
   7   4  -7   27.05    1.52 
   6  -4  -7   67.07    2.70 
   6   4  -7   67.40    2.59 
   5  -4  -7   27.74    1.53 
   5   4  -7   29.51    1.41 
   5   4  -7   28.74    1.05 
   4  -4  -7   -0.36    0.57 
   4   4  -7    0.64    0.27 
   4   4  -7    1.54    0.50 
   4   4  -7    0.47    0.26 
   3  -4  -7   65.68    2.51 
   3   4  -7   68.66    2.26 
   3   4  -7   68.03    2.45 
   3   4  -7   64.63    2.26 
   2  -4  -7   74.93    2.65 
   2   4  -7   73.47    2.59 
   2   4  -7   71.20    2.45 
   2   4  -7   69.60    2.45 
   1  -4  -7   15.90    0.80 
  -1  -4   7   15.45    0.88 
   1  -4  -7   17.32    0.93 
   1   4  -7   17.27    0.76 
   1   4  -7   18.09    0.82 
   1   4  -7   16.55    0.80 
   1   4  -7   17.69    0.92 
   0  -4  -7    0.89    0.37 
   0  -4  -7    1.12    0.34 
   0  -4   7    0.54    0.42 
   0   4  -7    1.41    0.38 
   0   4  -7    0.62    0.39 
   0   4  -7    0.93    0.31 
  -1  -4  -7   27.22    1.12 
   1  -4   7   27.65    1.15 
  -1  -4  -7   27.95    1.05 
  -1   4  -7   26.21    1.04 
  -1   4  -7   27.31    1.17 
  -1   4  -7   28.41    1.14 
  -2  -4  -7   23.51    1.05 
   2  -4   7   26.22    1.11 
  -2   4  -7   25.31    1.02 
  -2   4  -7   24.72    1.11 
  -3  -4  -7    6.91    0.55 
   3  -4   7    6.90    0.56 
  -3   4  -7    7.32    0.57 
  -3   4  -7    6.66    0.60 
   4  -4   7    0.26    0.40 
  -4  -4  -7   -0.57    0.44 
  -4   4  -7    0.10    0.49 
  -4   4  -7    0.01    0.36 
  -5  -4  -7   24.61    1.19 
   5  -4   7   26.19    1.09 
  -5   4  -7   23.50    1.08 
  -5   4  -7   24.30    1.24 
  -6  -4  -7   28.38    1.31 
  -6  -4  -7   26.99    1.25 
  -6   4  -7   27.30    1.34 
  -6   4  -7   26.14    1.21 
  -7  -4  -7   -0.46    0.59 
  -7  -4  -7   -0.63    0.51 
  -7   4  -7    0.17    0.56 
  -7   4  -7   -0.57    0.61 
   8  -5  -7   67.55    2.82 
   8   5  -7   66.15    2.70 
   7  -5  -7   38.22    2.00 
   7   5  -7   41.61    1.86 
   6  -5  -7   -0.33    0.68 
   6   5  -7    0.63    0.58 
   5  -5  -7   15.28    1.28 
   5   5  -7   18.23    0.78 
   5   5  -7   18.55    1.17 
   4  -5  -7   59.13    2.44 
   4   5  -7   59.21    2.31 
   4   5  -7   62.58    2.08 
   3  -5  -7   60.69    2.32 
   3   5  -7   60.85    2.05 
   3   5  -7   58.72    2.26 
   3   5  -7   59.78    2.07 
  -2  -5   7   20.41    1.02 
   2  -5  -7   20.10    1.08 
   2   5  -7   19.92    0.86 
   2   5  -7   19.85    0.89 
   2   5  -7   19.77    1.07 
  -1  -5   7   68.52    2.47 
   1  -5  -7   71.89    2.48 
   1  -5  -7   68.80    2.40 
   1   5  -7   71.00    2.41 
   1   5  -7   64.27    2.41 
   1   5  -7   73.34    2.36 
   0  -5  -7   90.92    3.05 
   0  -5   7   90.40    3.09 
   0  -5  -7   89.63    3.03 
   0   5  -7   89.69    3.04 
   0   5  -7   90.27    2.98 
   0   5  -7   86.62    3.05 
  -1  -5  -7   59.66    2.14 
   1  -5   7   60.16    2.19 
  -1  -5  -7   61.96    2.11 
  -1   5  -7   62.50    2.17 
  -1   5  -7   63.05    2.09 
  -1   5  -7   58.62    2.18 
   2  -5   7   44.39    1.74 
  -2  -5  -7   48.31    1.71 
  -2   5  -7   45.39    1.78 
  -2   5  -7   46.38    1.64 
  -2   5  -7   46.78    1.76 
  -3  -5  -7  104.81    3.63 
   3  -5   7  108.19    3.66 
  -3   5  -7  108.94    3.58 
  -3   5  -7  105.56    3.68 
  -3   5  -7  109.67    3.72 
   4  -5   7  112.30    3.64 
  -4  -5  -7  105.86    3.64 
  -4   5  -7   96.31    3.71 
  -4   5  -7  109.99    3.59 
  -4   5  -7  108.92    3.69 
  -5  -5  -7   19.10    1.04 
   5  -5   7   18.25    0.98 
  -5   5  -7   18.28    1.13 
  -5   5  -7   17.86    0.91 
  -6  -5  -7   19.02    1.14 
  -6  -5  -7   21.15    1.14 
  -6   5  -7   23.77    1.26 
  -6   5  -7   19.48    1.02 
   8  -6  -7   -0.03    0.80 
   8   6  -7    1.28    0.73 
   7  -6  -7   -0.93    0.75 
   7   6  -7   -0.44    0.51 
   6  -6  -7    8.65    0.95 
   6   6  -7    9.71    0.85 
   5  -6  -7    3.35    0.77 
   5   6  -7    5.05    0.43 
   5   6  -7    4.48    0.67 
   4  -6  -7    5.80    0.75 
   4   6  -7    6.33    0.70 
   4   6  -7    7.32    0.58 
   3  -6  -7    2.52    0.58 
   3   6  -7    2.77    0.38 
   3   6  -7    2.72    0.32 
   3   6  -7    2.38    0.56 
   2  -6  -7   80.64    2.90 
  -2  -6   7   78.27    2.83 
   2   6  -7   80.09    2.74 
   2   6  -7   80.89    2.71 
   1  -6  -7    2.63    0.41 
   1  -6  -7    1.92    0.42 
  -1  -6   7    2.61    0.52 
   1   6  -7    2.67    0.32 
   1   6  -7    2.36    0.42 
   1   6  -7    2.90    0.40 
   0  -6  -7   -0.12    0.37 
   0  -6   7   -0.38    0.48 
   0  -6  -7   -0.04    0.36 
   0   6  -7    0.29    0.40 
   0   6  -7    0.16    0.39 
   0   6  -7   -0.12    0.27 
   1  -6   7    3.25    0.56 
  -1  -6  -7    2.87    0.44 
  -1   6  -7    3.44    0.53 
  -1   6  -7    3.38    0.47 
  -1   6  -7    3.48    0.34 
   2  -6   7   11.69    0.84 
  -2  -6  -7   11.54    0.77 
  -2   6  -7   12.86    0.78 
  -2   6  -7   12.07    0.85 
  -2   6  -7   12.47    0.65 
  -3  -6  -7    1.23    0.45 
   3  -6   7    0.89    0.53 
  -3   6  -7    0.96    0.57 
  -3   6  -7    0.88    0.35 
  -3   6  -7    1.74    0.51 
  -4  -6  -7    0.47    0.47 
   4  -6   7    0.54    0.54 
  -4   6  -7   -0.64    0.58 
  -4   6  -7   -0.21    0.54 
  -4   6  -7    0.21    0.38 
  -5  -6  -7    2.64    0.56 
   5  -6   7    3.44    0.58 
  -5   6  -7    1.91    0.70 
  -5   6  -7    2.68    0.62 
  -5   6  -7    3.02    0.48 
  -6  -6  -7    0.62    0.56 
  -6   6  -7    0.02    0.68 
  -6   6  -7   -0.09    0.63 
   7  -7  -7   20.25    1.59 
   7   7  -7   18.73    1.42 
   6  -7  -7   -1.26    0.76 
   6   7  -7    0.37    0.67 
   5  -7  -7    3.64    0.79 
   5   7  -7    3.79    0.72 
   5   7  -7    4.70    0.46 
   4  -7  -7   44.77    2.02 
   4   7  -7   46.78    1.69 
   4   7  -7   47.57    1.99 
   3  -7  -7   36.27    1.73 
  -3  -7   7   37.16    1.57 
   3   7  -7   36.79    1.44 
   2  -7  -7    0.37    0.42 
   2  -7  -7    0.72    0.48 
  -2  -7   7    1.07    0.54 
   2   7  -7    1.28    0.44 
   2   7  -7    0.67    0.33 
   2   7  -7    0.48    0.29 
   1  -7  -7   25.08    1.18 
   1  -7  -7   26.29    1.10 
  -1  -7   7   25.69    1.25 
   1   7  -7   26.27    1.00 
   1   7  -7   26.06    1.10 
   1   7  -7   26.25    1.17 
   0  -7   7   26.39    1.26 
   0  -7  -7   27.27    1.18 
   0  -7  -7   25.59    1.11 
   0   7  -7   26.33    1.17 
   0   7  -7   26.23    1.17 
  -1  -7  -7    3.90    0.46 
   1  -7   7    4.51    0.60 
  -1   7  -7    3.89    0.55 
  -1   7  -7    3.33    0.53 
   2  -7   7    0.30    0.53 
  -2  -7  -7   -0.13    0.41 
  -2   7  -7    0.33    0.54 
  -2   7  -7   -0.09    0.47 
  -3  -7  -7   18.00    1.00 
   3  -7   7   21.80    1.17 
  -3   7  -7   20.33    1.12 
  -3   7  -7   19.00    1.15 
  -4  -7  -7   25.36    1.15 
   4  -7   7   24.41    1.24 
  -4   7  -7   20.24    1.23 
  -4   7  -7   20.51    1.28 
  -5  -7  -7    0.45    0.54 
   5  -7   7    1.81    0.61 
  -5   7  -7    0.88    0.68 
  -5   7  -7    2.17    0.69 
   6  -8  -7   27.81    1.92 
   6   8  -7   33.74    1.72 
   5  -8  -7   15.10    1.38 
   5   8  -7   17.04    0.90 
   5   8  -7   17.36    1.12 
   4  -8  -7    1.41    0.74 
   4   8  -7    1.53    0.66 
   4   8  -7    1.99    0.49 
   3  -8  -7   50.81    2.14 
  -3  -8   7   54.24    2.08 
   3   8  -7   48.71    1.93 
  -3   8   7   55.53    1.94 
   2  -8  -7   93.67    3.29 
   2  -8  -7   97.87    3.46 
  -2  -8   7   99.61    3.43 
   2   8  -7   94.88    3.32 
  -2   8   7  100.81    3.36 
   1  -8  -7   24.49    1.20 
   1  -8  -7   24.18    1.13 
  -1  -8   7   26.33    1.29 
   1   8  -7   24.63    1.07 
   1   8  -7   25.95    1.20 
   0  -8  -7   -0.31    0.39 
   0  -8   7    0.02    0.56 
   0   8  -7   -0.36    0.43 
   0   8  -7    0.57    0.47 
  -1  -8  -7   68.38    2.41 
   1  -8   7   68.84    2.51 
  -1   8  -7   67.31    2.42 
  -1   8  -7   67.18    2.47 
   2  -8   7   61.32    2.62 
  -2  -8  -7   74.25    2.54 
  -2   8  -7   74.90    2.63 
  -2   8  -7   79.47    2.67 
  -3  -8  -7    5.23    0.56 
   3  -8   7    5.05    0.67 
  -3   8  -7    4.48    0.71 
  -3   8  -7    4.64    0.64 
  -4  -8  -7   13.10    0.94 
   4  -8   7   15.68    1.11 
  -4   8  -7   14.49    1.08 
  -4   8  -7   13.85    1.13 
   5  -9  -7   -0.58    0.75 
   5   9  -7    0.79    0.65 
   5   9  -7    1.13    0.72 
   4  -9  -7    5.95    0.86 
  -4  -9   7    7.95    0.82 
   4   9  -7    8.16    0.66 
   3  -9  -7    9.01    0.64 
  -3  -9   7   11.82    0.90 
   3  -9  -7    8.33    0.85 
  -3   9   7   10.55    0.83 
   3   9  -7   10.95    0.81 
  -2  -9   7    3.53    0.66 
   2  -9  -7    2.87    0.50 
   2  -9  -7    3.18    0.67 
  -2   9   7    2.75    0.54 
   2   9  -7    4.19    0.56 
  -1  -9   7    5.28    0.75 
   1  -9  -7    4.88    0.51 
  -1   9   7    6.05    0.62 
   1   9  -7    5.67    0.62 
   0  -9   7   10.99    0.87 
   0  -9  -7    9.19    0.65 
   0   9  -7   10.00    0.71 
   0   9  -7    9.60    0.75 
  -1  -9  -7    3.18    0.48 
   1  -9   7    2.87    0.68 
  -1   9  -7    4.72    0.64 
  -1   9  -7    3.98    0.57 
  -2  -9  -7   15.81    0.91 
   2  -9   7   15.09    1.10 
  -2   9  -7   15.27    1.07 
  -2   9  -7   15.57    1.08 
   3  -9   7    0.81    0.63 
  -3  -9  -7    1.57    0.51 
  -3   9  -7    1.30    0.69 
  -3   9  -7    0.58    0.65 
  -3 -10   7   19.45    1.21 
   3 -10  -7   14.95    1.27 
   3  10  -7   15.25    1.01 
  -2 -10   7   18.62    1.24 
  -2  10   7   18.29    1.04 
   2  10  -7   16.48    1.05 
   1 -10  -7    7.94    0.87 
  -1 -10   7   11.19    0.91 
  -1  10   7   11.25    0.83 
   1  10  -7   11.09    0.80 
   0 -10   7    1.75    0.69 
   0 -10  -7    1.20    0.53 
   0  10  -7    0.82    0.60 
   0  10   7    0.78    0.63 
  -1 -10  -7    9.34    0.70 
   1 -10   7   11.76    0.95 
  -1  10  -7   10.28    0.83 
   9   0  -8   26.76    1.67 
   8   0  -8   15.39    1.34 
   7   0  -8    9.41    0.92 
   6   0  -8   89.11    3.26 
   5   0  -8  110.92    3.96 
   4   0  -8    0.40    0.53 
   3   0  -8   53.04    2.09 
   2   0  -8  255.80    8.45 
   1   0  -8  157.34    5.00 
   1   0  -8  145.51    5.09 
   0   0  -8   28.57    1.21 
   0   0  -8   27.66    1.14 
  -1   0  -8   18.71    0.88 
  -1   0  -8   17.34    0.85 
  -2   0  -8  132.11    4.41 
  -2   0  -8  133.88    4.42 
  -3   0  -8   80.02    2.84 
  -3   0  -8   85.40    2.89 
  -4   0  -8   24.23    1.05 
  -4   0  -8   22.35    1.09 
  -5   0  -8   39.41    1.62 
  -5   0  -8   38.46    1.57 
  -6   0  -8   55.62    2.11 
  -6   0  -8   56.22    2.16 
  -7   0  -8    8.05    0.79 
  -7   0  -8    9.60    0.77 
   9  -1  -8    1.14    0.78 
   9   1  -8    1.36    0.77 
   8  -1  -8   30.46    1.74 
   8   1  -8   30.64    1.69 
   7  -1  -8   18.56    1.34 
   7   1  -8   16.18    1.30 
   6  -1  -8    4.25    0.74 
   6   1  -8    3.83    0.72 
   5  -1  -8    0.45    0.61 
   5   1  -8   -0.14    0.55 
   4  -1  -8   34.16    1.58 
   4   1  -8   32.53    1.53 
   4   1  -8   33.30    1.20 
   3  -1  -8   28.86    1.41 
   3   1  -8   30.60    1.08 
   3   1  -8   29.20    1.38 
   2  -1  -8    6.99    0.65 
   2   1  -8    8.02    0.77 
   1  -1  -8   35.58    1.34 
   1  -1  -8   33.86    1.46 
   1   1  -8   34.20    1.46 
   1   1  -8   35.04    1.32 
   0  -1  -8   35.21    1.40 
   0  -1  -8   34.44    1.33 
   0   1  -8   32.57    1.38 
   0   1  -8   34.99    1.31 
  -1  -1  -8    4.47    0.41 
  -1  -1  -8    4.53    0.40 
  -1   1  -8    4.39    0.43 
  -1   1  -8    5.08    0.46 
  -2  -1  -8    1.33    0.33 
  -2   1  -8    0.94    0.39 
  -2   1  -8    0.91    0.31 
  -2   1  -8    0.73    0.42 
  -3  -1  -8   31.85    1.32 
  -3   1  -8   33.48    1.37 
  -3   1  -8   32.72    1.31 
  -4  -1  -8    5.71    0.58 
  -4  -1  -8    6.28    0.61 
  -4   1  -8    6.12    0.61 
  -4   1  -8    6.01    0.57 
  -5  -1  -8    4.97    0.60 
  -5  -1  -8    4.42    0.58 
  -5   1  -8    4.77    0.57 
  -5   1  -8    4.35    0.61 
  -6  -1  -8   -0.30    0.54 
  -6  -1  -8   -0.75    0.54 
  -6   1  -8    0.06    0.56 
  -6   1  -8    0.47    0.58 
  -7  -1  -8   14.18    1.06 
  -7  -1  -8   13.51    1.04 
  -7   1  -8   11.20    0.84 
  -7   1  -8   11.24    0.88 
   9  -2  -8    7.74    1.11 
   9   2  -8    6.58    1.05 
   8  -2  -8    2.81    0.82 
   8   2  -8    4.48    0.79 
   7  -2  -8    1.52    0.76 
   7   2  -8    1.11    0.65 
   6  -2  -8   10.83    0.95 
   6   2  -8    9.69    0.85 
   5  -2  -8   20.25    1.33 
   5   2  -8   21.22    1.25 
   4  -2  -8   21.42    1.32 
   4   2  -8   23.07    1.25 
   4   2  -8   24.13    0.87 
   3  -2  -8    1.48    0.56 
   3   2  -8    2.61    0.30 
   3   2  -8    2.24    0.52 
   2  -2  -8   72.63    2.64 
   2   2  -8   69.52    2.40 
   2   2  -8   71.17    2.60 
   1  -2  -8   33.14    1.30 
   1  -2  -8   35.23    1.40 
   1   2  -8   32.68    1.39 
   1   2  -8   32.94    1.27 
   0  -2  -8    3.41    0.43 
   0  -2  -8    2.93    0.42 
   0   2  -8    2.61    0.39 
   0   2  -8    2.59    0.40 
  -1  -2  -8    8.19    0.66 
  -1  -2  -8    9.23    0.61 
  -1   2  -8    9.11    0.68 
  -1   2  -8    9.04    0.69 
  -1   2  -8    9.01    0.63 
  -2  -2  -8    7.38    0.55 
  -2   2  -8    7.05    0.63 
  -2   2  -8    7.89    0.58 
  -2   2  -8    8.08    0.63 
  -3  -2  -8    1.69    0.45 
  -3   2  -8    2.19    0.43 
  -3   2  -8    2.70    0.49 
  -4  -2  -8    3.30    0.54 
  -4   2  -8    3.70    0.50 
  -4   2  -8    3.47    0.56 
  -5  -2  -8    7.06    0.65 
  -5  -2  -8    6.56    0.65 
  -5   2  -8    5.40    0.66 
  -5   2  -8    7.11    0.65 
  -6  -2  -8    6.01    0.65 
  -6  -2  -8    4.00    0.64 
  -6   2  -8    4.20    0.64 
  -6   2  -8    3.57    0.65 
   8  -3  -8   50.75    2.29 
   8   3  -8   47.70    2.21 
   7  -3  -8   67.16    2.63 
   7   3  -8   64.62    2.64 
   6  -3  -8   10.97    0.99 
   6   3  -8   12.30    1.10 
   5  -3  -8   14.91    1.21 
   5   3  -8   15.37    1.11 
   4  -3  -8  109.79    4.01 
   4   3  -8  115.79    3.66 
   4   3  -8  108.63    3.91 
   3  -3  -8   56.65    2.19 
   3   3  -8   53.93    2.12 
   3   3  -8   55.07    1.90 
   2  -3  -8    0.05    0.45 
   2   3  -8    0.01    0.42 
   2   3  -8    0.62    0.33 
   1  -3  -8  122.88    4.01 
   1  -3  -8  123.42    4.11 
   1   3  -8  127.32    4.01 
   1   3  -8  118.35    4.01 
   1   3  -8  114.53    4.01 
   1   3  -8  116.36    4.11 
   0  -3  -8  113.63    3.84 
   0  -3  -8  116.00    3.87 
   0   3  -8  112.06    3.89 
   0   3  -8  115.87    3.81 
   0   3  -8  115.94    3.86 
  -1  -3  -8   36.42    1.31 
  -1  -3  -8   34.91    1.38 
  -1   3  -8   36.11    1.34 
  -1   3  -8   34.61    1.42 
  -1   3  -8   35.04    1.40 
  -2  -3  -8   -0.62    0.41 
  -2   3  -8   -0.13    0.34 
  -2   3  -8    0.12    0.42 
  -2   3  -8    0.33    0.40 
  -3  -3  -8  105.16    3.58 
  -3   3  -8  102.95    3.62 
  -3   3  -8  108.31    3.57 
  -4  -3  -8   75.02    2.68 
  -4   3  -8   76.80    2.66 
  -4   3  -8   75.23    2.72 
  -5  -3  -8   25.95    1.25 
  -5  -3  -8   26.51    1.25 
  -5   3  -8   24.60    1.17 
  -5   3  -8   26.64    1.31 
  -6  -3  -8    0.80    0.58 
  -6  -3  -8    0.27    0.56 
  -6   3  -8    0.71    0.53 
  -6   3  -8    0.14    0.62 
   8  -4  -8   -1.17    0.77 
   8   4  -8   -0.13    0.70 
   7  -4  -8    8.41    0.97 
   7   4  -8    7.26    0.84 
   6  -4  -8   30.43    1.71 
   6   4  -8   30.47    1.59 
   5  -4  -8   33.15    1.69 
   5   4  -8   31.99    1.47 
   4  -4  -8    3.78    0.71 
   4   4  -8    4.79    0.39 
   4   4  -8    4.93    0.65 
   4   4  -8    4.77    0.40 
   3  -4  -8    4.22    0.65 
   3   4  -8    5.34    0.42 
   3   4  -8    4.33    0.62 
   3   4  -8    5.97    0.43 
   2  -4  -8   34.07    1.51 
   2   4  -8   32.01    1.44 
   2   4  -8   32.34    1.26 
   2   4  -8   31.69    1.25 
   1  -4  -8   56.03    2.00 
   1  -4  -8   54.10    1.91 
   1   4  -8   52.30    1.88 
   1   4  -8   51.21    2.00 
   1   4  -8   50.68    1.90 
   1   4  -8   52.87    1.85 
   0  -4  -8    3.98    0.43 
   0  -4  -8    3.34    0.46 
   0   4  -8    4.34    0.42 
   0   4  -8    4.23    0.46 
   0   4  -8    4.43    0.52 
   0   4  -8    3.12    0.47 
   1  -4   8    2.72    0.49 
  -1  -4  -8    2.21    0.36 
  -1  -4  -8    1.99    0.45 
  -1   4  -8    2.02    0.40 
  -1   4  -8    2.14    0.45 
  -1   4  -8    2.26    0.46 
  -1   4  -8    1.73    0.49 
  -2  -4  -8   32.27    1.30 
   2  -4   8   31.52    1.34 
  -2   4  -8   32.29    1.35 
  -2   4  -8   30.72    1.23 
   3  -4   8    5.59    0.56 
  -3  -4  -8    5.46    0.56 
  -3   4  -8    6.02    0.52 
  -3   4  -8    5.13    0.60 
   4  -4   8   12.69    0.84 
  -4  -4  -8   13.13    0.90 
  -4   4  -8   13.65    0.80 
  -4   4  -8   14.31    0.99 
  -5  -4  -8    1.25    0.45 
  -5   4  -8    2.43    0.53 
  -5   4  -8    2.01    0.59 
  -6  -4  -8   20.00    1.15 
  -6  -4  -8   18.50    1.11 
  -6   4  -8   18.68    1.23 
  -6   4  -8   19.70    1.14 
   8  -5  -8   -0.79    0.95 
   8   5  -8    0.08    0.66 
   7  -5  -8    8.85    0.99 
   7   5  -8    7.68    0.87 
   6  -5  -8    3.60    0.81 
   6   5  -8    3.86    0.69 
   5  -5  -8   -1.13    0.64 
   5   5  -8    0.42    0.61 
   4  -5  -8    3.84    0.71 
   4   5  -8    5.96    0.45 
   4   5  -8    4.44    0.65 
   3  -5  -8   30.25    1.53 
   3   5  -8   29.70    1.17 
   3   5  -8   29.16    1.17 
   3   5  -8   28.98    1.42 
   2  -5  -8    0.55    0.53 
   2   5  -8    0.08    0.36 
   2   5  -8    0.50    0.50 
   2   5  -8    0.79    0.38 
   1  -5  -8   12.37    0.88 
   1  -5  -8   12.78    0.79 
   1   5  -8   12.62    0.91 
   1   5  -8   12.66    0.70 
   1   5  -8   11.86    0.73 
   1   5  -8   11.99    0.78 
   0  -5  -8   13.82    0.84 
   0  -5  -8   14.68    0.85 
   0  -5   8   15.53    0.94 
   0   5  -8   15.82    0.77 
   0   5  -8   15.80    0.85 
   0   5  -8   15.90    0.84 
   1  -5   8    0.58    0.49 
  -1  -5  -8    0.06    0.43 
  -1   5  -8    0.35    0.47 
  -1   5  -8    0.84    0.48 
  -1   5  -8    0.59    0.35 
  -2  -5  -8    1.65    0.45 
   2  -5   8    1.12    0.54 
  -2   5  -8    1.10    0.39 
  -2   5  -8    0.20    0.53 
  -2   5  -8    1.18    0.49 
  -3  -5  -8    1.40    0.51 
   3  -5   8    2.01    0.54 
  -3   5  -8    1.36    0.53 
  -3   5  -8    1.33    0.42 
  -3   5  -8    1.68    0.62 
  -4  -5  -8    6.33    0.66 
   4  -5   8    8.84    0.68 
  -4   5  -8    7.79    0.60 
  -4   5  -8    6.13    0.78 
  -4   5  -8    7.66    0.70 
  -5  -5  -8   -0.77    0.55 
  -5   5  -8    0.72    0.58 
  -5   5  -8   -0.80    0.65 
  -5   5  -8    0.73    0.45 
   7  -6  -8    6.96    1.02 
   7   6  -8    9.10    0.94 
   6  -6  -8   51.42    2.43 
   6   6  -8   57.97    2.34 
   5  -6  -8   42.52    1.98 
   5   6  -8   39.32    1.87 
   4  -6  -8   -1.05    0.68 
   4   6  -8   -0.01    0.39 
   4   6  -8    0.62    0.58 
   3  -6  -8   31.82    1.51 
   3   6  -8   30.09    1.24 
   3   6  -8   29.27    1.50 
   2  -6  -8   62.07    2.29 
   2  -6  -8   66.80    2.43 
   2   6  -8   63.74    2.28 
   2   6  -8   65.41    2.47 
   2   6  -8   63.53    2.22 
   2   6  -8   67.28    2.29 
  -1  -6   8   43.39    1.83 
   1  -6  -8   47.15    1.73 
   1  -6  -8   46.94    1.82 
   1   6  -8   44.55    1.75 
   1   6  -8   46.32    1.73 
   1   6  -8   48.61    1.65 
   0  -6   8    0.24    0.53 
   0  -6  -8   -0.46    0.42 
   0  -6  -8    0.01    0.38 
   0   6  -8   -0.09    0.34 
   0   6  -8    0.19    0.46 
   0   6  -8   -0.29    0.40 
  -1  -6  -8   22.07    1.07 
   1  -6   8   25.33    1.19 
  -1   6  -8   22.75    1.14 
  -1   6  -8   23.76    0.98 
  -1   6  -8   21.76    1.11 
  -2  -6  -8   46.42    1.78 
   2  -6   8   50.92    1.89 
  -2   6  -8   46.48    1.70 
  -2   6  -8   46.69    1.84 
  -2   6  -8   44.21    1.86 
  -3  -6  -8   10.84    0.86 
   3  -6   8   10.23    0.79 
  -3   6  -8    9.32    0.76 
  -3   6  -8    9.40    0.83 
  -3   6  -8   10.03    0.72 
   4  -6   8    7.95    0.74 
  -4  -6  -8    7.75    0.70 
  -4   6  -8    7.88    0.76 
  -4   6  -8    6.93    0.82 
  -5  -6  -8   18.91    1.10 
  -5   6  -8   16.65    1.18 
  -5   6  -8   14.42    1.10 
   6  -7  -8   -1.32    0.75 
   6   7  -8   -0.35    0.68 
   5  -7  -8    8.95    0.96 
   5   7  -8   10.04    0.93 
   4  -7  -8   22.60    1.53 
   4   7  -8   22.25    1.38 
   4   7  -8   22.77    1.05 
   3  -7  -8    1.43    0.60 
   3   7  -8    1.00    0.42 
   3   7  -8    1.26    0.63 
  -2  -7   8   -0.22    0.57 
   2  -7  -8    0.26    0.55 
   2  -7  -8   -0.37    0.43 
   2   7  -8   -0.45    0.46 
  -1  -7   8   20.17    1.14 
   1  -7  -8   16.05    0.94 
   1  -7  -8   18.54    1.06 
   1   7  -8   19.49    0.97 
   1   7  -8   18.28    1.02 
   0  -7  -8   27.54    1.25 
   0  -7   8   28.50    1.35 
   0  -7  -8   29.84    1.33 
   0   7  -8   26.25    1.25 
   0   7  -8   25.91    1.24 
  -1  -7  -8   13.09    0.88 
   1  -7   8   16.74    1.13 
  -1   7  -8   15.96    0.99 
  -1   7  -8   13.44    0.93 
   2  -7   8    0.32    0.58 
  -2  -7  -8    0.41    0.48 
  -2   7  -8   -0.39    0.52 
  -2   7  -8   -0.47    0.56 
   3  -7   8   37.50    1.57 
  -3  -7  -8   35.98    1.51 
  -3   7  -8   34.98    1.60 
  -3   7  -8   36.05    1.65 
   4  -7   8   21.15    1.15 
  -4  -7  -8   21.31    1.14 
  -4   7  -8   20.02    1.25 
  -4   7  -8   18.72    1.31 
   5  -8  -8   -0.74    0.75 
   5   8  -8    1.06    0.71 
   4  -8  -8    0.95    0.70 
   4   8  -8    1.28    0.49 
   4   8  -8    0.07    0.69 
  -3  -8   8    7.63    0.77 
   3  -8  -8    5.86    0.75 
   3  -8  -8    5.50    0.56 
   3   8  -8    5.87    0.61 
   3   8  -8    5.75    0.79 
   2  -8  -8    0.66    0.46 
   2  -8  -8    0.80    0.60 
  -2  -8   8    1.46    0.66 
   2   8  -8    1.00    0.48 
  -1  -8   8    0.46    0.65 
   1  -8  -8    0.22    0.44 
   1  -8  -8    0.36    0.50 
   1   8  -8    1.17    0.54 
   0  -8   8    2.02    0.67 
   0  -8  -8    1.53    0.53 
   0   8  -8    2.03    0.59 
   0   8  -8    1.10    0.51 
  -1  -8  -8    8.87    0.68 
   1  -8   8    9.54    0.83 
  -1   8  -8    8.74    0.74 
  -1   8  -8    9.21    0.78 
   2  -8   8    0.28    0.64 
  -2  -8  -8    0.11    0.48 
  -2   8  -8    0.77    0.64 
  -2   8  -8    0.69    0.55 
  -3  -8  -8   -0.10    0.52 
   3  -8   8    0.89    0.63 
  -3   8  -8    0.44    0.67 
  -3   8  -8    0.39    0.64 
   3  -9  -8    9.19    0.94 
  -3  -9   8   12.30    0.99 
   3  -9  -8    9.15    0.67 
   3   9  -8   10.85    0.78 
  -2  -9   8    1.45    0.71 
   2  -9  -8    0.33    0.57 
   2  -9  -8    1.03    0.52 
   2   9  -8    0.59    0.52 
  -1  -9   8    6.90    0.83 
   1  -9  -8    5.91    0.62 
   1   9  -8    8.31    0.70 
   0  -9  -8   24.44    1.22 
   0  -9   8   27.97    1.41 
   0   9  -8   23.56    1.35 
  -1  -9  -8    7.46    0.67 
   1  -9   8    9.27    0.86 
  -1   9  -8    7.93    0.69 
  -1   9  -8    8.02    0.78 
   8   0  -9   -0.17    0.74 
   7   0  -9   -0.37    0.70 
   6   0  -9   -0.32    0.63 
   5   0  -9   -0.02    0.61 
   4   0  -9   -0.20    0.56 
   3   0  -9   -0.52    0.50 
   2   0  -9    0.19    0.52 
   1   0  -9   -0.35    0.45 
   1   0  -9    0.56    0.42 
   0   0  -9    0.03    0.42 
   0   0  -9    0.03    0.41 
  -1   0  -9    0.74    0.42 
  -1   0  -9   -0.27    0.53 
  -2   0  -9   -0.08    0.43 
  -3   0  -9    0.96    0.49 
  -3   0  -9   -0.44    0.50 
  -4   0  -9   -0.19    0.54 
  -4   0  -9   -0.44    0.50 
  -5   0  -9    0.31    0.58 
  -5   0  -9   -0.46    0.52 
  -6   0  -9    0.12    0.58 
   8  -1  -9   28.75    1.76 
   8   1  -9   29.42    1.73 
   7  -1  -9   23.80    1.57 
   7   1  -9   21.04    1.50 
   6  -1  -9    4.57    0.82 
   6   1  -9    6.10    0.81 
   5  -1  -9    2.91    0.71 
   5   1  -9    2.44    0.66 
   4  -1  -9   38.92    1.85 
   4   1  -9   38.70    1.75 
   3  -1  -9   21.72    1.26 
   3   1  -9   22.73    0.90 
   3   1  -9   21.86    1.23 
   2  -1  -9    0.11    0.53 
   2   1  -9    0.07    0.52 
   1  -1  -9    4.80    0.58 
   1  -1  -9    4.07    0.50 
   1   1  -9    5.82    0.51 
   1   1  -9    4.69    0.54 
   0  -1  -9   75.36    2.63 
   0  -1  -9   72.81    2.59 
   0   1  -9   77.69    2.58 
   0   1  -9   70.69    2.64 
  -1  -1  -9   60.86    2.13 
  -1   1  -9   58.27    2.12 
  -1   1  -9   58.76    2.16 
  -2  -1  -9    0.88    0.46 
  -2   1  -9    0.99    0.49 
  -2   1  -9    1.55    0.46 
  -3  -1  -9   38.63    1.55 
  -3   1  -9   38.60    1.59 
  -3   1  -9   38.81    1.53 
  -4  -1  -9   44.59    1.76 
  -4  -1  -9   42.25    1.73 
  -4   1  -9   43.78    1.70 
  -4   1  -9   43.72    1.71 
  -5  -1  -9   11.04    0.80 
  -5  -1  -9    9.93    0.80 
  -5   1  -9   11.00    0.83 
  -5   1  -9   12.30    0.93 
   8  -2  -9   -0.30    0.77 
   8   2  -9    1.15    0.76 
   7  -2  -9    4.33    0.85 
   7   2  -9    4.02    0.79 
   6  -2  -9   45.30    2.08 
   6   2  -9   43.83    2.03 
   5  -2  -9   77.76    2.93 
   5   2  -9   72.07    2.86 
   4  -2  -9    1.12    0.62 
   4   2  -9    1.54    0.58 
   3  -2  -9   22.99    1.30 
   3   2  -9   23.50    1.26 
   3   2  -9   23.20    0.94 
   2  -2  -9   55.07    2.19 
   2   2  -9   55.43    2.14 
   2   2  -9   55.98    1.95 
   1  -2  -9  105.03    3.55 
   1  -2  -9  105.73    3.46 
   1   2  -9  100.00    3.55 
   1   2  -9   95.47    3.42 
   0  -2  -9    5.62    0.52 
   0  -2  -9    5.26    0.54 
   0   2  -9    5.46    0.50 
   0   2  -9    5.43    0.56 
  -1  -2  -9   31.07    1.29 
  -1   2  -9   31.46    1.26 
  -1   2  -9   29.94    1.31 
  -1   2  -9   31.77    1.31 
  -2  -2  -9   31.30    1.32 
  -2   2  -9   31.84    1.28 
  -2   2  -9   30.93    1.36 
  -3  -2  -9   41.06    1.66 
  -3   2  -9   45.18    1.72 
  -3   2  -9   41.68    1.63 
  -4  -2  -9   -0.01    0.52 
  -4   2  -9   -0.13    0.55 
  -4   2  -9    0.40    0.49 
  -5  -2  -9   36.50    1.60 
  -5  -2  -9   35.10    1.56 
  -5   2  -9   35.83    1.63 
  -5   2  -9   37.25    1.53 
   7  -3  -9    7.37    0.97 
   7   3  -9    7.58    0.90 
   6  -3  -9    0.51    0.74 
   6   3  -9    0.01    0.66 
   5  -3  -9    0.48    0.70 
   5   3  -9   -0.16    0.61 
   4  -3  -9   -0.16    0.62 
   4   3  -9    0.29    0.55 
   3  -3  -9    2.31    0.61 
   3   3  -9    3.23    0.60 
   3   3  -9    3.23    0.39 
   2  -3  -9   -0.09    0.49 
   2   3  -9    0.24    0.36 
   2   3  -9    0.56    0.49 
   1  -3  -9    0.62    0.45 
   1  -3  -9    0.82    0.37 
   1   3  -9    1.34    0.39 
   1   3  -9    1.11    0.47 
   1   3  -9    0.68    0.38 
   1   3  -9    0.44    0.38 
   0  -3  -9    3.16    0.50 
   0  -3  -9    3.17    0.45 
   0   3  -9    4.22    0.49 
   0   3  -9    3.41    0.45 
   0   3  -9    3.34    0.49 
  -1  -3  -9    0.01    0.46 
  -1   3  -9    0.11    0.44 
  -1   3  -9   -0.39    0.41 
  -1   3  -9    0.05    0.39 
  -2  -3  -9   -0.05    0.45 
  -2   3  -9    0.59    0.48 
  -2   3  -9    0.17    0.41 
  -3  -3  -9    0.08    0.50 
  -3   3  -9    1.10    0.49 
  -3   3  -9    0.50    0.52 
  -4  -3  -9    4.28    0.63 
  -4   3  -9    3.89    0.55 
  -4   3  -9    4.34    0.66 
  -5  -3  -9    1.46    0.60 
  -5  -3  -9    0.50    0.59 
  -5   3  -9    1.73    0.52 
  -5   3  -9    1.50    0.61 
   7  -4  -9    1.82    0.86 
   7   4  -9    3.93    0.79 
   6  -4  -9   22.64    1.60 
   6   4  -9   22.98    1.43 
   5  -4  -9   23.90    1.55 
   5   4  -9   25.01    1.42 
   4  -4  -9    2.24    0.68 
   4   4  -9    3.21    0.62 
   3  -4  -9   -0.03    0.62 
   3   4  -9    1.81    0.41 
   3   4  -9    0.99    0.54 
   3   4  -9    1.42    0.38 
   2  -4  -9   19.43    1.13 
   2  -4  -9   20.11    1.02 
   2   4  -9   18.21    0.95 
   2   4  -9   19.95    1.17 
   2   4  -9   20.56    0.93 
   2   4  -9   21.24    0.93 
   1  -4  -9   37.01    1.42 
   1  -4  -9   35.82    1.48 
   1   4  -9   33.47    1.40 
   1   4  -9   33.79    1.35 
   1   4  -9   32.54    1.33 
   1   4  -9   33.75    1.56 
   0  -4  -9   13.19    0.84 
   0   4  -9   12.50    0.88 
   0   4  -9   13.46    0.74 
   0   4  -9   11.71    0.81 
   0   4  -9   12.21    0.89 
  -1  -4  -9   16.82    0.97 
  -1   4  -9   17.01    0.91 
  -1   4  -9   18.03    0.98 
  -1   4  -9   15.73    0.99 
  -1   4  -9   18.32    1.02 
  -2  -4  -9   38.60    1.55 
  -2   4  -9   39.13    1.51 
  -2   4  -9   36.77    1.59 
  -3  -4  -9    6.77    0.63 
  -3   4  -9    4.71    0.52 
  -3   4  -9    5.22    0.66 
  -4  -4  -9    1.68    0.58 
  -4   4  -9    3.27    0.51 
  -4   4  -9    3.25    0.65 
  -5  -4  -9   29.84    1.38 
  -5   4  -9   25.59    1.44 
  -5   4  -9   28.35    1.29 
   6  -5  -9   10.67    1.03 
   6   5  -9   10.72    0.97 
   5  -5  -9    4.70    0.84 
   5   5  -9    5.17    0.78 
   4  -5  -9   50.45    2.29 
   4   5  -9   53.99    2.20 
   3  -5  -9   59.17    2.37 
   3   5  -9   60.26    2.38 
   3   5  -9   60.74    2.12 
   2  -5  -9    0.72    0.51 
   2  -5  -9    0.68    0.46 
   2   5  -9    0.57    0.42 
   2   5  -9    0.67    0.55 
   2   5  -9    1.13    0.43 
   2   5  -9    1.50    0.44 
   1  -5  -9   36.94    1.48 
   1  -5  -9   37.58    1.53 
   1   5  -9   35.64    1.47 
   1   5  -9   36.56    1.67 
   1   5  -9   35.00    1.47 
   1   5  -9   36.50    1.41 
   0  -5  -9   93.20    3.14 
   0   5  -9   87.88    3.22 
   0   5  -9   91.46    3.16 
   0   5  -9   89.59    3.14 
   0   5  -9   91.26    3.07 
  -1  -5  -9   39.88    1.59 
  -1   5  -9   40.64    1.52 
  -1   5  -9   39.12    1.61 
  -1   5  -9   37.88    1.62 
  -1   5  -9   41.17    1.70 
   2  -5   9    1.62    0.57 
  -2  -5  -9    0.50    0.52 
  -2   5  -9    0.98    0.61 
  -2   5  -9    0.36    0.57 
  -2   5  -9    1.31    0.46 
  -3  -5  -9    7.65    0.70 
   3  -5   9    9.26    0.80 
  -3   5  -9    8.65    0.63 
  -3   5  -9    7.12    0.80 
  -3   5  -9    8.25    0.74 
  -4  -5  -9   70.65    2.51 
  -4   5  -9   65.44    2.60 
  -4   5  -9   68.65    2.57 
  -4   5  -9   66.35    2.40 
   6  -6  -9    2.51    0.88 
   6   6  -9    3.92    0.82 
   5  -6  -9    7.09    0.93 
   5   6  -9    9.60    0.92 
   4  -6  -9   -0.09    0.73 
   4   6  -9    0.16    0.64 
   3  -6  -9   -0.25    0.58 
   3   6  -9    0.12    0.60 
   3   6  -9    0.13    0.44 
   2  -6  -9    0.77    0.51 
   2  -6  -9    1.90    0.59 
   2   6  -9    1.97    0.44 
   2   6  -9    2.40    0.43 
   2   6  -9    1.76    0.61 
   1  -6  -9   11.41    0.90 
   1  -6  -9   12.22    0.87 
   1   6  -9   11.89    0.73 
   1   6  -9   10.89    1.04 
   1   6  -9   11.54    0.80 
   1   6  -9   10.99    0.86 
   0  -6   9    0.69    0.59 
   0  -6  -9   -0.32    0.48 
   0   6  -9    0.00    0.58 
   0   6  -9    0.90    0.50 
   0   6  -9    0.23    0.46 
   0   6  -9    0.43    0.40 
   1  -6   9    4.77    0.66 
  -1  -6  -9    3.95    0.58 
  -1   6  -9    3.48    0.57 
  -1   6  -9    3.58    0.47 
  -1   6  -9    4.57    0.63 
   2  -6   9    1.26    0.63 
  -2  -6  -9    0.20    0.53 
  -2   6  -9   -0.34    0.58 
  -2   6  -9    0.28    0.55 
  -3  -6  -9    2.05    0.59 
   3  -6   9    3.35    0.65 
  -3   6  -9    2.38    0.61 
  -3   6  -9    1.92    0.71 
   5  -7  -9    1.00    0.77 
   5   7  -9    1.61    0.76 
   4  -7  -9    0.47    0.77 
   4   7  -9    1.82    0.73 
   3  -7  -9    9.16    0.83 
   3  -7  -9    9.59    0.72 
   3   7  -9   10.07    0.91 
   3   7  -9   11.42    0.82 
   2  -7  -9   11.08    1.06 
   2  -7  -9    9.60    0.73 
   2   7  -9   12.11    0.81 
   2   7  -9   12.19    1.16 
   1  -7  -9    3.33    0.60 
  -1  -7   9    4.45    0.72 
   1   7  -9    3.14    0.67 
   1   7  -9    4.30    0.57 
   0  -7   9   21.60    1.27 
   0  -7  -9   23.61    1.22 
   0   7  -9   24.10    1.19 
   0   7  -9   23.31    1.22 
  -1  -7  -9   14.18    0.95 
   1  -7   9   15.70    1.10 
  -1   7  -9   14.87    1.01 
  -1   7  -9   13.76    1.02 
  -2  -7  -9    0.05    0.52 
   2  -7   9    1.62    0.63 
  -2   7  -9   -0.49    0.60 
  -2   7  -9    0.03    0.58 
   3  -8  -9   11.35    0.78 
   3  -8  -9   13.43    1.17 
   3   8  -9   11.79    1.04 
   3   8  -9   11.96    0.94 
   2  -8  -9   67.42    2.64 
   2  -8  -9   68.43    2.48 
   2   8  -9   71.82    2.81 
   2   8  -9   67.02    2.51 
   1  -8  -9   34.94    1.56 
  -1  -8   9   39.52    1.72 
   1   8  -9   35.39    1.54 
   0  -8   9    1.30    0.68 
   0  -8  -9    1.82    0.54 
   0   8  -9    1.65    0.59 
  -1  -8  -9   12.00    0.93 
  -1   8  -9   11.36    0.86 
  -1   8  -9   12.81    1.03 
   7   0 -10    5.14    0.89 
   6   0 -10   49.04    2.23 
   5   0 -10   85.02    3.25 
   4   0 -10   41.48    1.91 
   3   0 -10   13.19    1.20 
   2   0 -10   61.69    2.21 
   2   0 -10   59.15    2.38 
   1   0 -10  108.02    3.91 
   1   0 -10  116.64    3.82 
   0   0 -10   19.03    1.01 
  -1   0 -10   12.98    0.90 
  -2   0 -10   13.83    0.93 
  -3   0 -10   39.80    1.62 
  -3   0 -10   40.10    1.69 
  -4   0 -10    9.53    0.79 
  -4   0 -10    8.87    0.78 
   7  -1 -10   28.48    1.77 
   7   1 -10   27.18    1.73 
   6  -1 -10    2.31    0.79 
   6   1 -10    1.32    0.79 
   5  -1 -10    0.62    0.68 
   5   1 -10    0.57    0.66 
   4  -1 -10    7.10    0.82 
   4   1 -10    7.47    0.79 
   3  -1 -10    9.16    0.82 
   3   1 -10   10.00    0.87 
   2  -1 -10    0.28    0.57 
   2  -1 -10    0.04    0.47 
   2   1 -10    0.25    0.47 
   2   1 -10    0.93    0.52 
   1  -1 -10    0.97    0.49 
   1  -1 -10    1.36    0.54 
   1   1 -10    0.96    0.49 
   1   1 -10    1.20    0.48 
   0  -1 -10   14.97    0.91 
   0   1 -10   13.39    0.88 
   0   1 -10   12.51    1.05 
  -1  -1 -10   18.89    1.02 
  -1   1 -10   18.29    0.99 
  -2  -1 -10    1.08    0.53 
  -2   1 -10    1.54    0.50 
  -2   1 -10    1.33    0.54 
  -3  -1 -10   10.48    0.77 
  -3  -1 -10    7.81    0.71 
  -3   1 -10   10.46    0.73 
  -3   1 -10    8.82    0.76 
  -4  -1 -10   19.32    1.15 
  -4  -1 -10   21.46    1.20 
  -4   1 -10   19.82    1.13 
  -4   1 -10   19.55    1.23 
   6  -2 -10   11.90    1.05 
   6   2 -10   10.67    0.97 
   5  -2 -10   11.38    1.02 
   5   2 -10   12.90    1.23 
   4  -2 -10   -0.27    0.64 
   4   2 -10    0.61    0.63 
   3  -2 -10   -0.36    0.56 
   3   2 -10   -0.03    0.55 
   2  -2 -10    2.12    0.61 
   2  -2 -10    2.86    0.56 
   2   2 -10    3.96    0.46 
   2   2 -10    2.97    0.60 
   2   2 -10    3.42    0.52 
   1  -2 -10    8.32    0.67 
   1  -2 -10    7.93    0.68 
   1   2 -10    9.03    0.65 
   1   2 -10    8.63    0.75 
   0  -2 -10    0.84    0.51 
   0   2 -10    1.04    0.50 
   0   2 -10    1.44    0.48 
   0   2 -10    0.97    0.50 
  -1  -2 -10    0.07    0.51 
  -1   2 -10    0.74    0.50 
  -1   2 -10    0.93    0.47 
  -2  -2 -10    6.91    0.67 
  -2   2 -10    7.26    0.67 
  -2   2 -10    7.41    0.66 
  -3  -2 -10    9.62    0.76 
  -3   2 -10   11.57    0.87 
  -3   2 -10    9.74    0.79 
  -4  -2 -10    1.89    0.61 
  -4  -2 -10    1.15    0.61 
  -4   2 -10    1.61    0.62 
  -4   2 -10    2.06    0.58 
   6  -3 -10    8.65    1.02 
   6   3 -10   10.41    0.98 
   5  -3 -10   -0.89    0.70 
   5   3 -10    0.64    0.68 
   4  -3 -10   42.90    2.00 
   4   3 -10   45.17    1.97 
   3  -3 -10   73.04    2.78 
   3   3 -10   69.88    2.73 
   2  -3 -10    3.41    0.60 
   2  -3 -10    4.11    0.56 
   2   3 -10    4.34    0.57 
   2   3 -10    4.32    0.63 
   2   3 -10    3.99    0.48 
   2   3 -10    4.70    0.50 
   1  -3 -10   13.80    0.95 
   1   3 -10   13.87    1.10 
   1   3 -10   15.09    0.90 
   1   3 -10   14.53    0.88 
   1   3 -10   16.05    0.88 
   0  -3 -10   63.56    2.23 
   0   3 -10   59.60    2.21 
   0   3 -10   60.04    2.20 
   0   3 -10   59.66    2.24 
   0   3 -10   59.42    2.30 
  -1  -3 -10   48.04    1.90 
  -1   3 -10   48.76    1.91 
  -1   3 -10   52.00    1.86 
  -2  -3 -10    9.02    0.70 
  -2   3 -10    8.80    0.70 
  -2   3 -10    8.50    0.72 
  -3  -3 -10    8.96    0.72 
  -3   3 -10    7.93    0.66 
  -3   3 -10    7.04    0.75 
   6  -4 -10    4.08    0.98 
   6   4 -10    5.76    0.86 
   5  -4 -10   18.88    1.61 
   5   4 -10   21.15    1.40 
   4  -4 -10    8.60    0.91 
   4   4 -10   12.29    1.16 
   3  -4 -10   11.70    1.09 
   3   4 -10   14.06    0.89 
   3   4 -10   10.75    0.90 
   2  -4 -10    6.59    0.69 
   2  -4 -10    8.04    0.67 
   2   4 -10    7.28    0.62 
   2   4 -10    7.18    0.74 
   2   4 -10    7.60    0.62 
   2   4 -10    6.99    0.58 
   1  -4 -10   14.99    0.97 
   1   4 -10   12.41    0.86 
   1   4 -10   14.97    1.05 
   1   4 -10   13.64    0.84 
   1   4 -10   13.97    0.89 
   0  -4 -10    7.12    0.67 
   0   4 -10    6.68    0.63 
   0   4 -10    6.99    0.56 
   0   4 -10    7.36    0.66 
   0   4 -10    6.29    0.65 
  -1  -4 -10    6.62    0.67 
  -1   4 -10    8.08    0.62 
  -1   4 -10    5.96    0.64 
  -1   4 -10    7.17    0.71 
  -2  -4 -10   12.46    0.98 
  -2   4 -10   15.30    0.88 
  -2   4 -10   12.60    1.02 
  -2   4 -10   12.90    1.04 
  -3  -4 -10    7.62    0.73 
  -3   4 -10    8.89    0.72 
  -3   4 -10    8.63    0.79 
   5  -5 -10   -0.27    0.75 
   5   5 -10    0.93    0.72 
   4  -5 -10    3.25    0.76 
   4   5 -10    3.39    0.73 
   3  -5 -10    1.28    0.57 
   3  -5 -10   -0.01    0.67 
   3   5 -10    0.46    0.62 
   2  -5 -10    2.62    0.55 
   2  -5 -10    1.83    0.63 
   2   5 -10    3.00    0.52 
   2   5 -10    2.77    0.47 
   2   5 -10    2.41    0.64 
   2   5 -10    3.12    0.54 
   1  -5 -10    0.31    0.54 
   1   5 -10    0.51    0.56 
   1   5 -10    0.14    0.45 
   1   5 -10   -0.30    0.49 
   1   5 -10    0.99    0.51 
   0  -5 -10    1.85    0.57 
   0   5 -10    1.50    0.55 
   0   5 -10    1.52    0.57 
   0   5 -10    2.29    0.57 
   0   5 -10    2.52    0.50 
  -1  -5 -10    1.46    0.56 
  -1   5 -10    0.77    0.57 
  -1   5 -10    1.38    0.55 
  -1   5 -10    1.98    0.49 
  -2  -5 -10    2.78    0.61 
  -2   5 -10    1.80    0.65 
  -2   5 -10    1.82    0.64 
  -2   5 -10    2.62    0.49 
   4  -6 -10   14.70    1.31 
   4   6 -10   16.96    1.35 
   3  -6 -10    8.01    0.87 
   3  -6 -10   10.27    0.78 
   3   6 -10    8.52    0.87 
   2  -6 -10   29.57    1.39 
   2   6 -10   30.53    1.33 
   2   6 -10   29.78    1.58 
   1  -6 -10   23.44    1.20 
   1   6 -10   23.31    1.14 
   1   6 -10   23.58    1.46 
   1   6 -10   21.62    1.13 
   0  -6 -10    3.58    0.61 
   0   6 -10    4.53    0.63 
   0   6 -10    2.95    0.68 
   0   6 -10    3.20    0.61 
  -1  -6 -10    1.03    0.58 
  -1   6 -10    1.59    0.57 
  -1   6 -10    2.58    0.62 
   5   0 -11   -0.83    0.67 
   4   0 -11   -0.32    0.65 
   3   0 -11    0.13    0.66 
   2   0 -11   -0.57    0.53 
   2   0 -11    0.19    0.55 
   1   0 -11   -0.48    0.52 
   0   0 -11    0.13    0.53 
  -1   0 -11    0.11    0.54 
  -2   0 -11   -0.90    0.56 
  -2   0 -11   -0.33    0.55 
   5  -1 -11    0.35    0.72 
   5   1 -11   -0.21    0.70 
   4  -1 -11    5.83    0.88 
   4   1 -11    5.48    0.80 
   3  -1 -11   55.61    2.33 
   3   1 -11   54.65    2.29 
   2  -1 -11    5.11    0.65 
   2  -1 -11    5.24    0.74 
   2   1 -11    5.14    0.73 
   2   1 -11    6.22    0.65 
   1  -1 -11   22.85    1.17 
   1   1 -11   21.53    1.15 
   0  -1 -11   22.23    1.17 
   0   1 -11   21.08    1.13 
  -1  -1 -11   35.02    1.54 
  -1   1 -11   34.65    1.53 
  -1   1 -11   36.35    1.51 
  -2  -1 -11    3.22    0.65 
  -2   1 -11    3.44    0.65 
  -2   1 -11    4.52    0.62 
   5  -2 -11   39.50    1.99 
   5   2 -11   39.95    1.97 
   4  -2 -11   25.10    1.66 
   4   2 -11   27.58    1.57 
   3  -2 -11    0.22    0.62 
   3  -2 -11    0.55    0.60 
   3   2 -11    1.21    0.54 
   3   2 -11    2.04    0.65 
   2  -2 -11   41.36    1.75 
   2   2 -11   44.96    1.72 
   2   2 -11   41.72    1.93 
   1  -2 -11   36.04    1.55 
   1   2 -11   33.52    1.50 
   1   2 -11   37.17    1.44 
   0  -2 -11   20.80    1.13 
   0   2 -11   19.15    1.11 
   0   2 -11   20.60    1.09 
  -1  -2 -11    4.34    0.65 
  -1   2 -11    4.33    0.62 
  -1   2 -11    3.49    0.58 
  -2  -2 -11   22.35    1.35 
  -2   2 -11   22.29    1.24 
  -2   2 -11   23.16    1.27 
   4  -3 -11   -0.72    0.68 
   4   3 -11    1.53    0.71 
   3  -3 -11   -0.46    0.57 
   3  -3 -11   -0.84    0.61 
   3   3 -11    1.00    0.66 
   3   3 -11    0.57    0.53 
   2  -3 -11   -0.80    0.56 
   2   3 -11   -0.02    0.49 
   2   3 -11   -0.25    0.51 
   2   3 -11    0.54    0.64 
   1  -3 -11    0.22    0.57 
   1   3 -11    1.37    0.50 
   1   3 -11    0.48    0.52 
   1   3 -11    0.09    0.65 
   1   3 -11    0.52    0.51 
   0  -3 -11   -0.24    0.58 
   0   3 -11   -0.11    0.50 
   0   3 -11    0.10    0.54 
   0   3 -11    0.11    0.56 
  -1  -3 -11    5.08    0.66 
  -1   3 -11    4.23    0.68 
  -1   3 -11    5.11    0.59 
   3  -4 -11   -0.88    0.78 
   3  -4 -11   -0.46    0.60 
   3   4 -11   -0.43    0.50 
   3   4 -11    0.15    0.65 
   2  -4 -11   28.02    1.35 
   2   4 -11   28.19    1.31 
   2   4 -11   25.96    1.50 
   2   4 -11   27.73    1.26 
   1  -4 -11   19.17    1.13 
   1   4 -11   16.20    1.08 
   1   4 -11   16.64    1.28 
   1   4 -11   17.20    0.99 
   1   4 -11   17.13    0.95 
   0  -4 -11    1.63    0.62 
   0   4 -11    0.88    0.55 
   0   4 -11    1.67    0.54 
   0   4 -11    1.09    0.55 
   0   0   0    0.00    0.00 
;
_shelx_hkl_checksum              86058
loop_
_space_group_symop_operation_xyz
'x, y, z'
'-x, y+1/2, -z+1/2'
'-x, -y, -z'
'x, -y-1/2, z-1/2'
loop_
_atom_site_label
_atom_site_type_symbol
_atom_site_fract_x
_atom_site_fract_y
_atom_site_fract_z
_atom_site_U_iso_or_equiv
_atom_site_adp_type
_atom_site_occupancy
_atom_site_site_symmetry_order
_atom_site_calc_flag
_atom_site_refinement_flags_posn
_atom_site_refinement_flags_adp
Br1 Br 0.63211(2) 0.09102(2) 0.21930(2) 0.01986(7) Uani 1 1 d . .
O1 O 0.29905(12) -0.04421(11) 0.13287(12) 0.0169(2) Uani 1 1 d . .
O2 O 0.09444(14) -0.13174(13) -0.00923(13) 0.0244(3) Uani 1 1 d . .
C1 C 0.44944(18) 0.09816(14) 0.31444(18) 0.0153(3) Uani 1 1 d . .
C2 C 0.4193(2) 0.20240(15) 0.39515(18) 0.0194(3) Uani 1 1 d . .
H2A H 0.4940 0.2716 0.4124 0.023 Uiso 1 1 calc R U
C3 C 0.2695(2) 0.21393(17) 0.46021(19) 0.0228(4) Uani 1 1 d . .
H3A H 0.2342 0.3077 0.4550 0.027 Uiso 1 1 calc R U
H3B H 0.2868 0.1870 0.5666 0.027 Uiso 1 1 calc R U
C4 C 0.1442(2) 0.12555(17) 0.37471(19) 0.0202(3) Uani 1 1 d . .
H4A H 0.0503 0.1270 0.4256 0.024 Uiso 1 1 calc R U
H4B H 0.1154 0.1611 0.2724 0.024 Uiso 1 1 calc R U
C5 C 0.20101(17) -0.01738(15) 0.36562(17) 0.0160(3) Uani 1 1 d . .
H5A H 0.2186 -0.0583 0.4675 0.019 Uiso 1 1 calc R U
C6 C 0.09056(19) -0.10356(15) 0.25943(19) 0.0183(3) Uani 1 1 d . .
H6A H 0.0900 -0.1964 0.2961 0.022 Uiso 1 1 calc R U
H6B H -0.0166 -0.0680 0.2493 0.022 Uiso 1 1 calc R U
C7 C 0.15373(19) -0.09704(14) 0.11240(19) 0.0171(3) Uani 1 1 d . .
C8 C 0.34982(17) -0.02374(15) 0.29240(16) 0.0150(3) Uani 1 1 d . .
H8A H 0.4123 -0.1025 0.3328 0.018 Uiso 1 1 calc R U
loop_
_atom_site_aniso_label
_atom_site_aniso_U_11
_atom_site_aniso_U_22
_atom_site_aniso_U_33
_atom_site_aniso_U_23
_atom_site_aniso_U_13
_atom_site_aniso_U_12
Br1 0.01806(10) 0.02298(10) 0.01875(10) 0.00119(6) 0.00326(7) -0.00226(6)
O1 0.0189(6) 0.0190(5) 0.0125(5) -0.0031(4) 0.0015(5) -0.0024(4)
O2 0.0262(6) 0.0266(6) 0.0190(6) -0.0066(5) -0.0022(5) -0.0017(5)
C1 0.0154(7) 0.0168(7) 0.0130(7) 0.0029(5) -0.0011(6) -0.0009(6)
C2 0.0251(8) 0.0173(8) 0.0146(8) 0.0001(6) -0.0017(7) -0.0040(6)
C3 0.0286(9) 0.0201(8) 0.0200(9) -0.0070(6) 0.0040(7) 0.0011(7)
C4 0.0210(8) 0.0208(8) 0.0194(8) -0.0032(6) 0.0048(7) 0.0044(6)
C5 0.0179(7) 0.0164(7) 0.0134(7) 0.0016(6) 0.0013(6) -0.0016(6)
C6 0.0176(7) 0.0192(8) 0.0178(8) -0.0010(6) 0.0010(7) -0.0026(6)
C7 0.0188(8) 0.0129(7) 0.0188(8) -0.0004(6) 0.0000(7) 0.0012(6)
C8 0.0185(7) 0.0134(7) 0.0125(7) -0.0005(5) -0.0007(6) 0.0011(6)
loop_
_atom_type_symbol
_atom_type_description
_atom_type_scat_dispersion_real
_atom_type_scat_dispersion_imag
_atom_type_scat_source
C C 0.0033 0.0016 'International Tables Vol C Tables 4.2.6.8 and 6.1.1.4'
H H 0.0000 0.0000 'International Tables Vol C Tables 4.2.6.8 and 6.1.1.4'
O O 0.0106 0.0060 'International Tables Vol C Tables 4.2.6.8 and 6.1.1.4'
Br Br -0.2901 2.4595 'International Tables Vol C Tables 4.2.6.8 and 6.1.1.4'
loop_
_geom_angle_atom_site_label_1
_geom_angle_atom_site_label_2
_geom_angle_atom_site_label_3
_geom_angle
C7 O1 C8 109.77(12)
C2 C1 C8 124.50(15)
C2 C1 Br1 121.20(12)
C8 C1 Br1 114.28(11)
C1 C2 C3 121.58(15)
C1 C2 H2A 119.2
C3 C2 H2A 119.2
C2 C3 C4 110.65(13)
C2 C3 H3A 109.5
C4 C3 H3A 109.5
C2 C3 H3B 109.5
C4 C3 H3B 109.5
H3A C3 H3B 108.1
C5 C4 C3 111.13(13)
C5 C4 H4A 109.4
C3 C4 H4A 109.4
C5 C4 H4B 109.4
C3 C4 H4B 109.4
H4A C4 H4B 108.0
C4 C5 C6 112.77(13)
C4 C5 C8 111.18(13)
C6 C5 C8 101.55(12)
C4 C5 H5A 110.3
C6 C5 H5A 110.3
C8 C5 H5A 110.3
C7 C6 C5 104.75(13)
C7 C6 H6A 110.8
C5 C6 H6A 110.8
C7 C6 H6B 110.8
C5 C6 H6B 110.8
H6A C6 H6B 108.9
O2 C7 O1 120.85(16)
O2 C7 C6 129.19(16)
O1 C7 C6 109.96(13)
O1 C8 C1 109.69(12)
O1 C8 C5 105.80(11)
C1 C8 C5 114.54(13)
O1 C8 H8A 108.9
C1 C8 H8A 108.9
C5 C8 H8A 108.9
loop_
_geom_bond_atom_site_label_1
_geom_bond_atom_site_label_2
_geom_bond_distance
Br1 C1 1.9077(17)
O1 C7 1.3594(19)
O1 C8 1.4623(17)
O2 C7 1.199(2)
C1 C2 1.323(2)
C1 C8 1.498(2)
C2 C3 1.505(2)
C2 H2A 0.9500
C3 C4 1.530(2)
C3 H3A 0.9900
C3 H3B 0.9900
C4 C5 1.525(2)
C4 H4A 0.9900
C4 H4B 0.9900
C5 C6 1.530(2)
C5 C8 1.533(2)
C5 H5A 1.0000
C6 C7 1.506(2)
C6 H6A 0.9900
C6 H6B 0.9900
C8 H8A 1.0000
loop_
_geom_torsion_atom_site_label_1
_geom_torsion_atom_site_label_2
_geom_torsion_atom_site_label_3
_geom_torsion_atom_site_label_4
_geom_torsion
C8 C1 C2 C3 -6.8(2)
Br1 C1 C2 C3 174.96(12)
C1 C2 C3 C4 -21.6(2)
C2 C3 C4 C5 53.04(19)
C3 C4 C5 C6 -170.36(14)
C3 C4 C5 C8 -57.05(18)
C4 C5 C6 C7 94.36(16)
C8 C5 C6 C7 -24.70(15)
C8 O1 C7 O2 -173.99(14)
C8 O1 C7 C6 5.39(16)
C5 C6 C7 O2 -167.57(16)
C5 C6 C7 O1 13.12(16)
C7 O1 C8 C1 -145.84(12)
C7 O1 C8 C5 -21.81(15)
C2 C1 C8 O1 121.68(16)
Br1 C1 C8 O1 -59.92(14)
C2 C1 C8 C5 2.9(2)
Br1 C1 C8 C5 -178.69(10)
C4 C5 C8 O1 -91.97(14)
C6 C5 C8 O1 28.22(14)
C4 C5 C8 C1 28.96(17)
C6 C5 C8 C1 149.16(13)
