#------------------------------------------------------------------------------
#$Date: 2019-11-11 14:59:44 +0200 (Mon, 11 Nov 2019) $
#$Revision: 226288 $
#$URL: file:///home/coder/svn-repositories/cod/cif/4/03/47/4034765.cif $
#------------------------------------------------------------------------------
#
# This file is available in the Crystallography Open Database (COD),
# http://www.crystallography.net/
#
# All data on this site have been placed in the public domain by the
# contributors.
#
data_4034765
loop_
_publ_author_name
'Bunda, Szilvia'
'Udvardy, Antal'
'Voronova, Krisztina'
'Jo\'o, Ferenc'
_publ_section_title
;
 Organic Solvent-Free, Pd(II)-Salan Complex-Catalyzed Synthesis of Biaryls
 via Suzuki-Miyaura Cross-Coupling in Water and Air.
;
_journal_issue                   24
_journal_name_full               'The Journal of organic chemistry'
_journal_page_first              15486
_journal_page_last               15492
_journal_paper_doi               10.1021/acs.joc.8b02340
_journal_volume                  83
_journal_year                    2018
_chemical_formula_moiety         'C14 H10 O4 C3 H7  N  O'
_chemical_formula_sum            'C17 H17 N O5'
_chemical_formula_weight         315.31
_space_group_IT_number           2
_space_group_name_Hall           '-P 1'
_space_group_name_H-M_alt        'P -1'
_symmetry_cell_setting           triclinic
_symmetry_space_group_name_Hall  '-P 1'
_symmetry_space_group_name_H-M   'P -1'
_atom_sites_solution_hydrogens   geom
_atom_sites_solution_primary     direct
_audit_creation_date             2018-08-17T21:38:14-00:00
_audit_creation_method           'WinGX routine CIF_UPDATE'
_cell_angle_alpha                89.39(3)
_cell_angle_beta                 82.57(3)
_cell_angle_gamma                68.88(3)
_cell_formula_units_Z            2
_cell_length_a                   6.1508(12)
_cell_length_b                   8.0778(16)
_cell_length_c                   16.666(3)
_cell_measurement_reflns_used    3322
_cell_measurement_temperature    298(2)
_cell_measurement_theta_max      69.83
_cell_measurement_theta_min      2.68
_cell_volume                     765.4(3)
_computing_cell_refinement       'Bruker SAINT'
_computing_data_collection       'Bruker APEX2'
_computing_data_reduction        'Bruker SAINT'
_computing_molecular_graphics    'MERCURY (Macrae et al., 2006)'
_computing_publication_material  'PublCIF (Westrip, 2010)'
_computing_structure_refinement  'SHELXL-2018/1 (Sheldrick, 2018)'
_computing_structure_solution    'SHELXT-2014 (Sheldrick, 2014)'
_diffrn_ambient_temperature      298(2)
_diffrn_measured_fraction_theta_full 0.991
_diffrn_measured_fraction_theta_max 0.985
_diffrn_measurement_device_type  'Bruker D8 VENTURE'
_diffrn_radiation_type           CuK\a
_diffrn_radiation_wavelength     1.54178
_diffrn_reflns_av_R_equivalents  0.0409
_diffrn_reflns_Laue_measured_fraction_full 0.991
_diffrn_reflns_Laue_measured_fraction_max 0.985
_diffrn_reflns_limit_h_max       7
_diffrn_reflns_limit_h_min       -7
_diffrn_reflns_limit_k_max       9
_diffrn_reflns_limit_k_min       -9
_diffrn_reflns_limit_l_max       20
_diffrn_reflns_limit_l_min       -20
_diffrn_reflns_number            9008
_diffrn_reflns_point_group_measured_fraction_full 0.991
_diffrn_reflns_point_group_measured_fraction_max 0.985
_diffrn_reflns_theta_full        67.679
_diffrn_reflns_theta_max         70.283
_diffrn_reflns_theta_min         2.676
_diffrn_source                   'INCOATEC I\mS 3.0'
_diffrn_standards_number         0
_exptl_absorpt_coefficient_mu    0.845
_exptl_absorpt_correction_T_max  0.753
_exptl_absorpt_correction_T_min  0.626
_exptl_absorpt_correction_type   multi-scan
_exptl_absorpt_process_details
'Sheldrick, G. M. (1996). SADABS, University of G&#x00F6;ttingen, Germany.'
_exptl_crystal_colour            colourless
_exptl_crystal_density_diffrn    1.368
_exptl_crystal_density_method    'not measured'
_exptl_crystal_description       prism
_exptl_crystal_F_000             332
_exptl_crystal_size_max          0.474
_exptl_crystal_size_mid          0.255
_exptl_crystal_size_min          0.192
_refine_diff_density_max         0.147
_refine_diff_density_min         -0.167
_refine_diff_density_rms         0.035
_refine_ls_extinction_method     none
_refine_ls_goodness_of_fit_ref   1.025
_refine_ls_hydrogen_treatment    constr
_refine_ls_matrix_type           full
_refine_ls_number_constraints    0
_refine_ls_number_parameters     212
_refine_ls_number_reflns         2882
_refine_ls_number_restraints     0
_refine_ls_restrained_S_all      1.025
_refine_ls_R_factor_all          0.0638
_refine_ls_R_factor_gt           0.0476
_refine_ls_shift/su_max          0
_refine_ls_shift/su_mean         0
_refine_ls_structure_factor_coef Fsqd
_refine_ls_weighting_details
'w=1/[\s^2^(Fo^2^)+(0.0746P)^2^+0.0843P] where P=(Fo^2^+2Fc^2^)/3'
_refine_ls_weighting_scheme      calc
_refine_ls_wR_factor_ref         0.141
_reflns_number_gt                2182
_reflns_number_total             2882
_reflns_threshold_expression     'I > 2\s(I)'
_iucr_refine_instructions_details
;
TITL cu_18078_0m_a.res in P-1
    shelx.res
    created by SHELXL-2018/1 at 21:37:47 on 17-Aug-2018
CELL  1.54178   6.1508   8.0778  16.6662   89.395   82.575   68.879
ZERR     2.00   0.0012   0.0016   0.0033    0.030    0.030    0.030
LATT   1
SFAC  C    H    N    O
UNIT  34 34 2 10
MERG   2
OMIT    -1   3   1
OMIT    -2   0   2
OMIT     1  -1   1
OMIT     2  -1   2
OMIT     1   0   4
OMIT     5   4  16
EQIV $1 1-X,-Y,1-Z
HTAB O2 O5
FMAP   2
PLAN   20
ACTA
BOND   $H
CONF
LIST   4
L.S.  13
TEMP    25.00
WGHT    0.074600    0.084300
FVAR       0.45699
O5    4    0.585777    0.624506    0.166151    11.00000    0.07482    0.09332 =
         0.05894    0.03082   -0.02996   -0.04245
O1    4    0.429490    0.387390    0.314385    11.00000    0.07418    0.09062 =
         0.06164    0.01944   -0.03262   -0.04549
O2    4    0.724978    0.486509    0.300830    11.00000    0.07065    0.08028 =
         0.05181    0.02545   -0.02514   -0.03962
AFIX 147
H2    2    0.669601    0.527065    0.259536    11.00000   -1.50000
AFIX   0
O3    4    0.867350   -0.265764    0.862283    11.00000    0.11593    0.08072 =
         0.05721    0.02995   -0.02166   -0.04938
C22   1    0.124775    0.660808    0.048527    11.00000    0.07779    0.08472 =
         0.07601    0.01839   -0.03319   -0.04180
AFIX 137
H22A  2    0.168188    0.605931   -0.004878    11.00000   -1.50000
H22B  2    0.001196    0.774524    0.047525    11.00000   -1.50000
H22C  2    0.070932    0.586661    0.085025    11.00000   -1.50000
AFIX   0
N1    3    0.327228    0.683931    0.075583    11.00000    0.06128    0.06231 =
         0.04931    0.01758   -0.01845   -0.02823
C20   1    0.414369    0.608977    0.140822    11.00000    0.06555    0.06288 =
         0.04850    0.01651   -0.01573   -0.02751
AFIX  43
H20   2    0.341451    0.539693    0.169662    11.00000   -1.20000
AFIX   0
C21   1    0.427796    0.799940    0.030142    11.00000    0.07897    0.08931 =
         0.06354    0.03379   -0.02170   -0.04342
AFIX 137
H21A  2    0.499603    0.746324   -0.022471    11.00000   -1.50000
H21B  2    0.544322    0.817775    0.058520    11.00000   -1.50000
H21C  2    0.305834    0.912282    0.024388    11.00000   -1.50000
AFIX   0
O4    4    1.146582   -0.085035    0.859642    11.00000    0.09481    0.09442 =
         0.06099    0.03438   -0.03948   -0.04539
AFIX 147
H4    2    1.089036   -0.158141    0.876237    11.00000   -1.50000
AFIX   0
C11   1    1.057632   -0.014822    0.791521    11.00000    0.05977    0.06148 =
         0.04576    0.01133   -0.01640   -0.02134
C10   1    0.892797   -0.067349    0.759140    11.00000    0.06146    0.04986 =
         0.04302    0.00771   -0.00894   -0.02235
C9    1    0.812495    0.004333    0.687164    11.00000    0.05461    0.05340 =
         0.04399    0.00585   -0.01140   -0.02613
AFIX  43
H9    2    0.705570   -0.033392    0.665432    11.00000   -1.20000
AFIX   0
C8    1    0.886429    0.129509    0.647048    11.00000    0.04471    0.04570 =
         0.04205    0.00510   -0.00769   -0.01593
C4    1    0.811934    0.197972    0.568038    11.00000    0.04152    0.04438 =
         0.04175    0.00412   -0.00674   -0.01524
C5    1    0.617508    0.181020    0.539371    11.00000    0.05007    0.06429 =
         0.05199    0.01562   -0.01219   -0.03010
AFIX  43
H5    2    0.529097    0.125794    0.570769    11.00000   -1.20000
AFIX   0
C7    1    0.553427    0.244527    0.465311    11.00000    0.04812    0.06484 =
         0.05298    0.01131   -0.01463   -0.02867
AFIX  43
H7    2    0.424075    0.229948    0.447455    11.00000   -1.20000
AFIX   0
C1    1    0.678720    0.329544    0.417241    11.00000    0.04462    0.04518 =
         0.04187    0.00334   -0.00962   -0.01588
C3AA  1    0.597443    0.402225    0.339558    11.00000    0.05333    0.05025 =
         0.04518    0.00380   -0.01291   -0.02025
C12   1    1.128954    0.114146    0.753792    11.00000    0.06693    0.07749 =
         0.05533    0.01415   -0.02328   -0.04042
AFIX  43
H12   2    1.234800    0.152849    0.775663    11.00000   -1.20000
AFIX   0
C13   1    1.042957    0.184759    0.683977    11.00000    0.06061    0.06302 =
         0.05159    0.01375   -0.01645   -0.03352
AFIX  43
H13   2    1.090408    0.272969    0.660120    11.00000   -1.20000
AFIX   0
C14   1    0.807504   -0.196945    0.798969    11.00000    0.09323    0.06791 =
         0.05339    0.01537   -0.01791   -0.04348
AFIX  43
H14   2    0.700321   -0.229934    0.774831    11.00000   -1.20000
AFIX   0
C3    1    0.938369    0.280450    0.517950    11.00000    0.04930    0.06629 =
         0.04858    0.01375   -0.01566   -0.03071
AFIX  43
H3    2    1.070260    0.292639    0.534894    11.00000   -1.20000
AFIX   0
C2    1    0.874679    0.344795    0.443965    11.00000    0.05311    0.06049 =
         0.04768    0.01313   -0.01259   -0.03001
AFIX  43
H2A   2    0.963900    0.398569    0.412006    11.00000   -1.20000
AFIX   0
HKLF    4
 
 
 
 
REM  cu_18078_0m_a.res in P-1
REM R1 =  0.0476 for    2182 Fo > 4sig(Fo)  and  0.0638 for all    2882 data
REM    212 parameters refined using      0 restraints
 
END
 
WGHT      0.0746      0.0843
 
REM Highest difference peak  0.147,  deepest hole -0.167,  1-sigma level  0.035
Q1    1   0.3288  0.8332 -0.0294  11.00000  0.05    0.15
Q2    1   0.4482  0.8754  0.0785  11.00000  0.05    0.13
Q3    1   0.4209  0.1935  0.4171  11.00000  0.05    0.13
Q4    1   1.0223 -0.1817  0.8696  11.00000  0.05    0.13
Q5    1   0.2901  0.4953  0.1480  11.00000  0.05    0.12
Q6    1   0.1901  0.6776 -0.0277  11.00000  0.05    0.12
Q7    1   1.1495  0.0062  0.7497  11.00000  0.05    0.12
Q8    1   0.7804  0.2931  0.4218  11.00000  0.05    0.12
Q9    1   0.5637  0.3330  0.4579  11.00000  0.05    0.11
Q10   1   0.6652  0.3303  0.3783  11.00000  0.05    0.11
Q11   1   0.3887  0.4758  0.2514  11.00000  0.05    0.11
Q12   1   0.1775  0.6136  0.1709  11.00000  0.05    0.11
Q13   1   1.1550 -0.2987  0.9099  11.00000  0.05    0.11
Q14   1   0.5615  0.2555  0.3003  11.00000  0.05    0.10
Q15   1   0.8828  0.2035  0.5352  11.00000  0.05    0.10
Q16   1   0.3884  0.5725  0.2880  11.00000  0.05    0.10
Q17   1   0.9191 -0.0619  0.7133  11.00000  0.05    0.10
Q18   1   0.6363  0.6627  0.0314  11.00000  0.05    0.10
Q19   1   0.8556  0.1579  0.5763  11.00000  0.05    0.10
Q20   1   0.6840  0.2728  0.4275  11.00000  0.05    0.10
;
_cod_data_source_file            jo8b02340_si_006.cif
_cod_data_source_block           18
_cod_database_code               4034765
_publcif_datablock.id            {2c6a6e14-d8ac-41e7-aefe-edb4ac613980}
_iucr_refine_reflections_details
;
  -1   0   0   41.24    1.79
   1   0   0   37.65    1.17
  -2   0   0   20.98    1.63
   2   0   0   20.87    0.87
   2   0   0   19.23    0.73
  -3   0   0   27.18    2.55
   3   0   0   30.98    1.16
   3   0   0   33.70    1.40
   4   0   0  106.94    3.63
   4   0   0   99.82    3.23
   4   0   0  104.64    3.79
  -5   0   0    0.15    0.17
   5   0   0    0.25    0.30
   5   0   0   -0.08    0.19
   5   0   0    0.42    0.34
  -6   0   0    2.00    0.33
   6   0   0    2.08    0.45
   6   0   0    1.74    0.42
   6   0   0    1.60    0.37
   6  -1   0    1.61    0.31
   6  -1   0    1.39    0.37
  -6   1   0    1.38    0.22
   5  -1   0    1.44    0.40
   5  -1   0    0.50    0.33
   5  -1   0    1.01    0.29
  -5   1   0    0.53    0.22
   4  -1   0    1.71    0.38
   4  -1   0    2.08    0.50
   4  -1   0    1.26    0.30
   4  -1   0    2.79    0.54
  -4   1   0    2.68    0.39
   3  -1   0   94.52    3.27
   3  -1   0   94.86    5.19
   3  -1   0   97.18    2.88
  -3   1   0   98.62    5.10
   2  -1   0   28.37    1.96
   2  -1   0   29.04    1.22
   2  -1   0   28.89    1.00
  -2   1   0   30.93    1.94
   1  -1   0  108.22    3.49
   1  -1   0  107.63    2.90
   1  -1   0  109.57    3.07
  -1   1   0  110.34    3.47
   0  -1   0    0.24    0.08
   0  -1   0    0.07    0.06
   0  -1   0    0.19    0.08
   0  -1   0    0.16    0.05
   0   1   0    0.12    0.05
  -2  -1   0   43.69    2.65
   2   1   0   45.30    1.40
   2   1   0   45.06    2.68
  -3  -1   0   18.74    2.07
   3   1   0   21.40    0.96
   3   1   0   22.40    2.33
  -4  -1   0   -0.03    0.15
   4   1   0   -0.21    0.12
  -5  -1   0    3.87    0.46
   5   1   0    2.83    0.46
   5   1   0    4.02    0.58
   5   1   0    4.38    0.51
  -6  -1   0    0.48    0.21
   6   1   0    0.60    0.38
   6   1   0    1.09    0.36
  -7  -1   0    0.32    0.12
   7   1   0    0.58    0.29
   6  -2   0    0.77    0.22
   6  -2   0    0.74    0.27
   5  -2   0    0.45    0.23
   5  -2   0    0.79    0.37
  -5   2   0    0.13    0.16
   4  -2   0   19.81    1.59
   4  -2   0   20.64    1.15
   3  -2   0   -0.02    0.20
   3  -2   0    0.29    0.17
   2  -2   0    0.45    0.25
   2  -2   0    0.97    0.20
  -2   2   0    1.36    0.46
   1  -2   0   39.95    1.38
   1  -2   0   39.32    1.23
   1  -2   0   37.74    1.41
   0  -2   0  228.09    5.98
  -1  -2   0   23.54    0.89
  -1  -2   0   22.85    1.45
   1   2   0   23.62    1.46
  -2  -2   0  199.01    7.23
  -2  -2   0  194.18    4.93
   2   2   0  187.25    7.12
  -3  -2   0   13.51    1.83
  -3  -2   0   15.95    0.80
   3   2   0   12.36    1.94
  -4  -2   0   22.17    1.15
  -5  -2   0    2.23    0.52
  -5  -2   0    0.47    0.22
   5   2   0    0.80    0.36
   5   2   0    0.76    0.28
  -6  -2   0    0.01    0.20
  -6  -2   0   -0.31    0.34
   6   2   0    0.03    0.30
   6   2   0    0.21    0.21
  -7  -2   0   -0.04    0.09
   7   2   0    0.07    0.16
   7   2   0    0.18    0.18
   5  -3   0    0.09    0.20
   5  -3   0   -0.06    0.19
   4  -3   0    3.11    0.56
   4  -3   0    3.35    0.68
   3  -3   0    4.03    0.73
   3  -3   0    4.21    0.68
   3  -3   0    4.17    0.73
   3  -3   0    4.16    0.54
   3  -3   0    4.75    0.49
   2  -3   0    5.69    0.63
   2  -3   0    5.51    0.44
   1  -3   0    6.01    0.54
   1  -3   0    6.01    0.52
   1  -3   0    5.54    0.39
   0  -3   0   34.63    1.24
   0  -3   0   33.66    1.28
  -1  -3   0   15.42    0.76
  -1  -3   0   14.21    0.52
  -1  -3   0   13.74    1.19
   1   3   0   13.56    1.17
  -2  -3   0  191.56    7.23
  -2  -3   0  182.02    5.13
   2   3   0  172.89    7.03
  -3  -3   0    4.56    0.48
  -3  -3   0    5.85    1.43
   3   3   0    5.39    1.29
  -4  -3   0    9.09    0.74
  -5  -3   0   21.03    1.28
  -5  -3   0   20.12    1.08
  -5  -3   0   19.70    1.46
   5   3   0   20.95    1.09
   5   3   0   19.08    1.54
   5   3   0   19.78    1.16
  -6  -3   0    1.01    0.27
  -6  -3   0    0.51    0.44
   6   3   0    0.27    0.33
   6   3   0    0.28    0.21
   6   3   0    1.02    0.41
  -7  -3   0   -0.30    0.25
  -7  -3   0    0.94    0.20
   7   3   0    0.52    0.32
   5  -4   0    0.14    0.21
   5  -4   0   -0.04    0.18
   4  -4   0    0.14    0.25
   4  -4   0    0.03    0.23
   3  -4   0    0.81    0.34
   3  -4   0    0.94    0.31
   3  -4   0    0.45    0.54
   3  -4   0    0.72    0.39
   2  -4   0    9.54    0.95
   2  -4   0   10.69    0.79
   2  -4   0   11.42    0.88
   2  -4   0   11.66    1.01
   2  -4   0   11.02    0.73
   1  -4   0    5.59    0.45
   1  -4   0    4.70    0.56
   0  -4   0   13.86    0.79
   0  -4   0   14.20    0.73
   0  -4   0   14.87    0.91
  -1  -4   0   65.25    2.34
  -1  -4   0   68.50    3.19
  -1  -4   0   64.26    1.97
   1   4   0   70.03    3.01
  -2  -4   0    0.52    0.25
  -3  -4   0    0.18    0.17
  -4  -4   0  159.22    4.76
  -4  -4   0  163.33    5.13
  -4  -4   0  161.55    5.44
   4   4   0  172.62    4.97
  -5  -4   0    1.38    0.34
  -5  -4   0    1.57    0.39
   5   4   0    1.08    0.34
   5   4   0    0.97    0.56
  -6  -4   0    1.06    0.39
  -6  -4   0    0.53    0.32
   6   4   0    0.19    0.27
   6   4   0    0.29    0.41
   6   4   0    0.43    0.24
  -7  -4   0    0.09    0.10
  -7  -4   0    0.21    0.16
   7   4   0    0.03    0.25
   4  -5   0    1.10    0.34
   3  -5   0    0.16    0.22
   2  -5   0   13.76    0.97
   2  -5   0   13.78    1.06
   2  -5   0   12.00    1.00
   2  -5   0   13.73    0.95
   1  -5   0    2.75    0.58
   1  -5   0    3.01    0.54
   1  -5   0    3.22    0.61
   1  -5   0    1.99    0.43
   1  -5   0    2.38    0.40
   1  -5   0    2.90    0.56
   0  -5   0   12.66    0.77
   0  -5   0   12.41    0.97
  -1  -5   0  112.26    3.81
  -2  -5   0    2.51    0.50
  -3  -5   0    5.34    0.63
  -3  -5   0    5.25    0.62
  -4  -5   0    2.21    0.51
  -4  -5   0    2.72    0.65
  -4  -5   0    3.12    0.39
   4   5   0    2.55    0.42
  -5  -5   0  218.60    7.06
  -5  -5   0  219.64    6.17
   5   5   0  225.79    6.40
   5   5   0  215.66    7.38
  -6  -5   0   -0.07    0.13
  -6  -5   0    0.02    0.23
   6   5   0   -0.01    0.17
   6   5   0    0.80    0.38
  -7  -5   0    1.10    0.18
  -7  -5   0    0.52    0.23
   7   5   0    1.23    0.25
   7   5   0    1.17    0.37
   3  -6   0    1.39    0.32
   3  -6   0    1.19    0.41
   2  -6   0    2.16    0.50
   1  -6   0    1.93    0.40
   1  -6   0    1.74    0.39
   1  -6   0    2.01    0.48
   1  -6   0    3.04    0.55
   1  -6   0    2.49    0.53
   0  -6   0    6.44    0.75
   0  -6   0    6.06    0.79
   0  -6   0    6.05    0.74
   0  -6   0    6.64    0.62
   0  -6   0    5.98    0.67
  -1  -6   0    0.78    0.27
  -1  -6   0    0.33    0.25
  -1  -6   0    0.62    0.28
  -2  -6   0   11.95    0.92
  -2  -6   0   14.00    1.04
  -2  -6   0   12.74    0.87
  -3  -6   0   15.98    0.97
  -3  -6   0   14.48    1.07
  -3  -6   0   14.62    1.18
  -3  -6   0   14.79    1.02
   3   6   0   15.92    0.92
  -4  -6   0    2.41    0.45
  -4  -6   0    1.54    0.47
  -4  -6   0    2.11    0.49
  -4  -6   0    1.56    0.84
   4   6   0    2.16    0.43
  -5  -6   0    7.47    0.89
   5   6   0    7.41    0.65
   5   6   0    5.27    1.07
  -6  -6   0    3.29    0.62
   6   6   0    4.57    0.49
   6   6   0    4.23    0.78
  -7  -6   0    1.87    0.37
   7   6   0    1.78    0.39
   7   6   0    0.98    0.18
   2  -7   0    0.57    0.28
   1  -7   0    0.94    0.26
   1  -7   0    0.78    0.32
   1  -7   0    0.77    0.32
   1  -7   0    0.51    0.22
   1  -7   0    0.56    0.33
   0  -7   0    2.20    0.53
   0  -7   0    2.00    0.44
   0  -7   0    2.25    0.42
  -1  -7   0   15.41    1.10
  -1  -7   0   17.30    1.07
  -1  -7   0   16.30    1.23
  -1  -7   0   15.64    1.40
  -2  -7   0    0.36    0.29
  -2  -7   0    0.19    0.20
  -2  -7   0    0.19    0.29
  -3  -7   0    1.14    0.33
  -3  -7   0    0.82    0.38
  -3  -7   0    1.58    0.47
  -3  -7   0    0.60    0.31
  -3  -7   0    1.26    0.34
   3   7   0    0.95    0.30
  -4  -7   0    1.30    0.37
  -4  -7   0    1.37    0.42
  -4  -7   0    1.40    0.34
   4   7   0    1.01    0.27
  -5  -7   0    7.34    0.79
  -6  -7   0    0.60    0.35
   6   7   0    0.42    0.20
   1  -8   0    0.02    0.19
   0  -8   0    0.14    0.14
   0  -8   0   -0.06    0.18
   0  -8   0   -0.05    0.16
  -1  -8   0    1.89    0.48
  -1  -8   0    1.84    0.38
  -1  -8   0    1.72    0.39
  -2  -8   0    0.41    0.19
  -2  -8   0    0.21    0.20
  -3  -8   0    0.85    0.32
  -3  -8   0    0.48    0.24
  -3  -8   0    1.07    0.30
  -4  -8   0   -0.01    0.18
  -4  -8   0   -0.17    0.13
  -4  -8   0   -0.27    0.15
  -5  -8   0    0.53    0.24
   5   8   0    1.14    0.27
  -6  -8   0    0.31    0.20
   6   8   0    0.37    0.15
   0  -9   0   -0.14    0.15
   0  -9   0    0.02    0.09
  -1  -9   0    0.26    0.21
  -1  -9   0    0.36    0.16
  -1  -9   0    0.14    0.12
  -2  -9   0    0.15    0.17
  -2  -9   0   -0.17    0.16
  -3  -9   0    0.56    0.25
  -3  -9   0    0.51    0.20
  -4  -9   0    0.48    0.20
  -4  -9   0    0.72    0.23
   4   9   0    0.20    0.16
   5   9  -1    0.02    0.09
  -4  -9   1    0.77    0.20
  -4  -9   1    0.64    0.21
  -3  -9   1   -0.04    0.11
  -3  -9   1   -0.03    0.19
  -2  -9   1    0.19    0.13
  -2  -9   1    0.17    0.14
  -2  -9   1    0.24    0.22
  -1  -9   1   -0.03    0.11
  -1  -9   1    0.18    0.14
   0  -9   1   -0.26    0.22
   0  -9   1    0.32    0.12
   6   8  -1    0.12    0.10
   5   8  -1    1.85    0.36
  -5  -8   1    1.78    0.35
   4   8  -1    1.58    0.32
  -4  -8   1    1.63    0.37
  -4  -8   1    1.22    0.29
  -4  -8   1    1.46    0.27
   3   8  -1    0.02    0.25
  -3  -8   1    0.25    0.19
  -3  -8   1    0.31    0.22
  -3  -8   1   -0.13    0.14
  -2  -8   1    0.53    0.22
  -1  -8   1   -0.06    0.19
  -1  -8   1    0.13    0.23
  -1  -8   1    0.22    0.17
   0  -8   1   -0.04    0.18
   0  -8   1   -0.15    0.12
   0  -8   1    0.12    0.20
   1  -8   1    0.21    0.21
  -5  -7   1    0.74    0.30
  -4  -7   1    1.05    0.27
  -4  -7   1    1.48    0.42
  -4  -7   1    0.97    0.36
   3   7  -1    0.67    0.24
  -3  -7   1    0.87    0.26
  -3  -7   1    0.38    0.33
  -3  -7   1    0.43    0.25
  -3  -7   1    0.59    0.44
  -2  -7   1    3.19    0.54
  -2  -7   1    3.46    0.67
  -2  -7   1    3.76    0.50
  -1  -7   1    0.84    0.40
  -1  -7   1    0.96    0.32
  -1  -7   1    1.48    0.49
  -1  -7   1    0.93    0.35
   0  -7   1   -0.07    0.13
   0  -7   1    0.01    0.21
   0  -7   1    0.01    0.23
   1  -7   1    0.04    0.22
   1  -7   1    0.12    0.15
   1  -7   1   -0.01    0.23
   1  -7   1   -0.14    0.20
   2  -7   1    0.86    0.31
   2  -7   1    0.78    0.22
   7   6  -1    0.07    0.17
   7   6  -1    0.07    0.11
  -7  -6   1    0.00    0.14
   6   6  -1    1.06    0.29
  -6  -6   1    0.85    0.34
   5   6  -1    3.78    0.74
  -5  -6   1    3.48    0.70
   4   6  -1    6.15    0.60
  -4  -6   1    5.97    0.69
  -4  -6   1    5.91    0.71
  -4  -6   1    6.27    0.79
   3   6  -1    0.11    0.22
  -3  -6   1    0.17    0.26
  -3  -6   1    0.42    0.26
  -3  -6   1    0.11    0.27
  -3  -6   1    0.41    0.22
  -2  -6   1   14.24    0.92
  -2  -6   1   15.24    1.13
  -2  -6   1   16.11    0.97
  -1  -6   1    1.21    0.35
  -1  -6   1    2.09    0.45
  -1  -6   1    1.43    0.39
   0  -6   1    0.40    0.24
   0  -6   1    0.18    0.26
   0  -6   1    0.15    0.24
   0  -6   1    0.33    0.19
   1  -6   1    0.85    0.27
   1  -6   1    0.38    0.25
   1  -6   1    0.42    0.31
   1  -6   1    0.60    0.40
   1  -6   1    0.99    0.35
   2  -6   1    1.07    0.39
   2  -6   1    1.34    0.38
   3  -6   1    0.27    0.22
   3  -6   1    0.35    0.24
   7   5  -1   -0.26    0.10
   7   5  -1    0.01    0.24
  -7  -5   1    0.13    0.10
  -7  -5   1    0.30    0.19
   6   5  -1   11.09    1.11
   6   5  -1   13.06    0.83
  -6  -5   1   12.40    0.70
  -6  -5   1   12.87    1.11
   5   5  -1   35.52    2.18
   5   5  -1   33.74    1.55
  -5  -5   1   34.33    1.42
  -5  -5   1   33.63    1.97
  -5  -5   1   37.39    1.96
   4   5  -1   25.07    1.23
  -4  -5   1   24.80    1.55
  -4  -5   1   25.08    1.21
  -4  -5   1   24.85    1.51
  -4  -5   1   22.53    1.05
  -3  -5   1   27.08    1.49
  -3  -5   1   28.52    1.54
  -3  -5   1   26.79    1.51
  -2  -5   1   11.06    0.90
  -1  -5   1   68.08    2.63
   0  -5   1   23.18    1.34
   0  -5   1   23.42    1.12
   1  -5   1    1.17    0.41
   1  -5   1    1.53    0.40
   1  -5   1    1.51    0.35
   1  -5   1    1.60    0.37
   1  -5   1    1.75    0.43
   1  -5   1    1.38    0.31
   2  -5   1    4.28    0.70
   2  -5   1    3.82    0.52
   2  -5   1    4.63    0.54
   3  -5   1    3.62    0.58
   3  -5   1    3.53    0.61
   4  -5   1    0.37    0.23
   4  -5   1    0.61    0.24
   7   4  -1   -0.03    0.25
  -7  -4   1    0.16    0.10
  -7  -4   1   -0.11    0.19
   6   4  -1    5.26    0.95
   6   4  -1    4.70    0.51
  -6  -4   1    5.38    0.51
  -6  -4   1    5.68    0.75
  -6  -4   1    5.99    0.53
   5   4  -1   71.07    2.45
   5   4  -1   62.33    3.12
  -5  -4   1   66.28    2.36
  -5  -4   1   70.07    2.84
  -5  -4   1   64.35    3.14
   4   4  -1   72.32    2.56
  -4  -4   1   72.02    2.41
  -4  -4   1   69.12    2.72
  -3  -4   1    2.79    0.49
  -2  -4   1   53.82    2.05
   1   4  -1  207.94    6.94
  -1  -4   1  207.88    5.92
  -1  -4   1  203.27    6.78
   0  -4   1    6.92    0.53
   0  -4   1    6.63    0.60
   1  -4   1    0.67    0.21
   1  -4   1    0.46    0.23
   1  -4   1    0.45    0.25
   2  -4   1    0.07    0.17
   2  -4   1    0.16    0.16
   2  -4   1    0.09    0.16
   2  -4   1   -0.03    0.20
   3  -4   1    2.24    0.50
   3  -4   1    2.23    0.48
   3  -4   1    1.75    0.48
   3  -4   1    1.91    0.43
   4  -4   1    0.58    0.31
   4  -4   1    0.95    0.39
   5  -4   1    0.29    0.20
   5  -4   1    0.37    0.17
   7   3  -1    0.59    0.29
  -7  -3   1    0.16    0.27
  -7  -3   1    0.58    0.17
   6   3  -1    0.62    0.22
   6   3  -1    1.48    0.36
  -6  -3   1    0.64    0.38
   5   3  -1    5.90    0.63
   5   3  -1    5.23    0.97
  -5  -3   1    5.06    0.53
  -5  -3   1    5.20    0.94
  -5  -3   1    6.09    0.72
   4   3  -1    2.58    0.39
  -4  -3   1    2.37    0.47
  -4  -3   1    2.26    0.37
   3   3  -1    9.59    2.41
  -3  -3   1    5.47    1.69
  -3  -3   1    7.83    0.63
   2   3  -1   34.04    2.60
  -2  -3   1   34.87    1.40
  -2  -3   1   40.12    2.75
   1   3  -1  101.07    4.05
  -1  -3   1  106.77    3.11
  -1  -3   1  102.65    4.04
   0  -3   1   52.27    1.66
   0  -3   1   47.87    1.58
   0  -3   1   48.50    1.70
   1  -3   1   35.69    1.50
   1  -3   1   37.18    1.45
   1  -3   1   39.52    1.33
   2  -3   1    7.15    0.52
   2  -3   1    8.02    0.74
   3  -3   1    3.39    0.64
   3  -3   1    2.95    0.45
   3  -3   1    2.49    0.57
   3  -3   1    2.30    0.50
   3  -3   1    2.64    0.48
   4  -3   1    0.24    0.28
   4  -3   1    0.04    0.27
   5  -3   1    0.51    0.25
   5  -3   1    0.03    0.19
   7   2  -1    0.15    0.17
   7   2  -1    0.21    0.20
  -7  -2   1    0.21    0.11
   6   2  -1   -0.06    0.45
   6   2  -1    0.38    0.29
  -6  -2   1    0.13    0.32
  -6  -2   1    0.28    0.18
   5   2  -1    3.77    0.83
   5   2  -1    3.64    0.45
   5   2  -1    3.47    0.58
   5   2  -1    3.01    0.49
  -5  -2   1    4.18    0.81
  -5  -2   1    2.54    0.51
  -5  -2   1    3.07    0.46
  -4  -2   1    0.00    0.17
   3   2  -1    6.40    1.40
  -3  -2   1    7.40    1.61
  -3  -2   1    9.54    0.62
   2   2  -1    4.42    1.02
  -2  -2   1    4.40    0.78
  -2  -2   1    5.15    0.40
   1   2  -1   81.09    3.30
  -1  -2   1   80.40    3.26
  -1  -2   1   82.48    2.39
   0   2  -1    0.07    0.09
   0  -2   1    0.05    0.07
   0  -2   1    0.04    0.11
   0  -2   1    0.08    0.10
   0  -2   1    0.09    0.10
   1  -2   1   99.81    2.92
   1  -2   1  108.41    3.14
   1  -2   1  107.93    3.02
  -2   2  -1    8.21    0.83
  -2   2  -1    6.24    0.78
   2  -2   1    6.65    0.44
   2  -2   1    6.37    0.61
   3  -2   1    1.97    0.47
   3  -2   1    1.67    0.29
   4  -2   1    0.02    0.19
   4  -2   1   -0.30    0.37
   4  -2   1    0.07    0.23
   4  -2   1    0.24    0.20
  -5   2  -1   -0.19    0.14
   5  -2   1    0.48    0.30
   5  -2   1    0.11    0.20
   6  -2   1    0.05    0.17
   6  -2   1    0.11    0.19
   7   1  -1    0.22    0.12
  -7  -1   1    0.16    0.10
   6   1  -1    0.45    0.24
   6   1  -1    1.01    0.43
  -6  -1   1    0.58    0.20
   5   1  -1    3.05    0.97
   5   1  -1    3.70    0.58
   5   1  -1    2.65    0.45
  -5  -1   1    2.46    0.43
   4   1  -1    2.12    0.34
   4   1  -1    2.72    0.60
   4   1  -1    1.71    0.37
   3   1  -1  112.76    5.95
   3   1  -1  111.34    3.37
  -3  -1   1  118.25    6.11
   2   1  -1  123.85    3.41
   2   1  -1  116.58    5.09
  -2  -1   1  134.15    5.23
   1   1  -1    1.82    0.46
   1   1  -1    1.92    0.12
  -1  -1   1    1.73    0.44
   0   1  -1    1.61    0.22
   0  -1   1    1.54    0.14
   0  -1   1    1.72    0.21
   0  -1   1    1.58    0.14
   0  -1   1    1.52    0.17
  -1   1  -1    1.88    0.30
   1  -1   1    1.77    0.17
   1  -1   1    1.80    0.19
   1  -1   1    1.46    0.24
  -2   1  -1    8.82    1.02
   2  -1   1    9.55    1.03
   2  -1   1    7.83    0.56
   2  -1   1    8.24    0.44
  -3   1  -1   15.48    1.96
   3  -1   1   18.22    2.03
   3  -1   1   15.04    0.76
   3  -1   1   14.47    0.97
  -4   1  -1    0.17    0.16
   4  -1   1    0.01    0.16
   4  -1   1   -0.08    0.16
   4  -1   1    0.38    0.29
   4  -1   1    0.11    0.15
  -5   1  -1    0.24    0.17
   5  -1   1    0.68    0.34
   5  -1   1    0.31    0.24
   5  -1   1    0.40    0.32
  -6   1  -1    0.34    0.14
   6  -1   1    0.29    0.22
   6  -1   1    0.27    0.17
   6   0  -1   -0.04    0.23
   6   0  -1    0.18    0.18
  -6   0   1    0.22    0.13
   5   0  -1    3.98    0.74
   5   0  -1    3.68    0.72
   5   0  -1    3.70    0.47
  -5   0   1    3.39    0.44
   4   0  -1   22.50    1.15
   4   0  -1   20.88    1.03
   4   0  -1   20.15    1.38
   4   0  -1   20.93    1.30
   4   0  -1   22.01    1.31
  -4   0   1   22.99    1.11
   3   0  -1    0.68    0.98
   3   0  -1    1.03    0.29
   3   0  -1    0.88    0.19
  -3   0   1    0.65    0.52
   2   0  -1    4.37    0.27
  -2   0   1    4.10    0.73
   1   0  -1    4.25    0.26
  -1   0   1    3.50    0.48
   0   0  -1   45.29    1.64
   0   0   1   54.30    1.62
  -1   0  -1   12.77    0.91
   1   0   1   12.55    0.51
  -2   0  -1   23.96    1.82
   2   0   1   25.74    1.01
  -3   0  -1    3.13    0.88
   3   0   1    1.95    0.37
   3   0   1    1.63    0.27
   4   0   1   12.79    0.79
   4   0   1   13.37    1.07
  -5   0  -1    1.97    0.37
   5   0   1    2.93    0.64
   5   0   1    2.63    0.45
   5   0   1    1.83    0.66
   5   0   1    2.67    0.61
  -6   0  -1   -0.07    0.12
   6   0   1    0.16    0.21
   6   0   1   -0.18    0.22
   6   0   1    0.14    0.17
   6  -1  -1    0.29    0.26
   6  -1  -1    0.21    0.19
  -6   1   1    0.14    0.10
   5  -1  -1    1.52    0.48
   5  -1  -1    1.73    0.39
   5  -1  -1    1.82    0.45
  -5   1   1    2.18    0.36
   4  -1  -1    0.94    0.37
   4  -1  -1    0.93    0.36
   4  -1  -1    0.59    0.35
   4  -1  -1    1.05    0.30
  -4   1   1    0.56    0.41
   3  -1  -1    3.97    0.53
   3  -1  -1    3.90    0.34
   3  -1  -1    4.31    1.89
   2  -1  -1   17.87    1.53
   2  -1  -1   17.21    0.89
  -2   1   1   18.16    1.50
   1  -1  -1  321.64    8.93
  -1   1   1  315.38    8.86
   0  -1  -1    0.02    0.05
   0  -1  -1   -0.03    0.07
  -1  -1  -1  216.38    6.66
   1   1   1  224.19    6.73
  -2  -1  -1   15.94    1.43
  -2  -1  -1   15.20    0.62
   2   1   1   14.37    1.43
  -3  -1  -1   45.03    3.33
  -3  -1  -1   44.03    1.50
   3   1   1   41.92    3.39
  -4  -1  -1    6.90    0.55
   4   1   1    7.97    0.59
  -5  -1  -1   -0.03    0.16
   5   1   1   -0.06    0.40
   5   1   1   -0.14    0.19
  -6  -1  -1    0.07    0.15
   6   1   1   -0.11    0.24
   6   1   1    0.38    0.27
  -7  -1  -1    0.15    0.11
   7   1   1    0.37    0.19
   6  -2  -1    0.04    0.15
   5  -2  -1    0.52    0.29
   5  -2  -1    0.46    0.24
  -5   2   1    0.27    0.17
   4  -2  -1    5.26    0.73
   4  -2  -1    3.78    0.77
   4  -2  -1    5.84    0.67
   4  -2  -1    4.84    0.65
   3  -2  -1   -0.03    0.22
   3  -2  -1    0.17    0.26
   3  -2  -1    0.25    0.23
   3  -2  -1    0.13    0.14
   2  -2  -1    9.37    0.73
   2  -2  -1    8.96    0.49
   2  -2  -1   10.23    0.97
  -2   2   1    9.06    0.91
   1  -2  -1   13.03    0.70
   1  -2  -1   12.23    0.51
   1  -2  -1   11.50    0.66
   0  -2  -1   69.08    1.94
   0  -2  -1   67.47    2.01
   0  -2  -1   69.41    2.03
   0  -2  -1   71.90    2.06
   0  -2  -1   68.28    2.09
  -1  -2  -1  153.71    3.89
  -1  -2  -1  151.16    5.08
  -1  -2  -1  143.76    4.09
   1   2   1  154.80    5.14
  -2  -2  -1  111.62    3.24
  -2  -2  -1  112.97    4.93
   2   2   1  118.29    5.05
  -3  -2  -1    0.03    0.11
  -3  -2  -1    0.95    0.78
   3   2   1   -0.35    0.60
  -4  -2  -1    4.74    0.49
  -5  -2  -1    0.49    0.22
  -5  -2  -1    0.70    0.38
   5   2   1    0.12    0.26
   5   2   1    0.93    0.40
  -6  -2  -1    0.94    0.28
  -6  -2  -1    0.50    0.45
   6   2   1    2.32    0.63
  -7  -2  -1    0.07    0.12
   7   2   1    0.14    0.15
   7   2   1    0.12    0.20
   5  -3  -1    0.04    0.18
   5  -3  -1   -0.09    0.22
   4  -3  -1   -0.05    0.23
   4  -3  -1    0.17    0.22
   3  -3  -1    9.96    0.95
   3  -3  -1    8.47    0.73
   3  -3  -1    8.92    0.85
   3  -3  -1    9.46    0.81
   2  -3  -1   11.32    0.64
   2  -3  -1   11.83    0.93
   1  -3  -1    3.22    0.42
   1  -3  -1    3.68    0.45
   1  -3  -1    3.61    0.31
   0  -3  -1    7.16    0.41
   0  -3  -1    7.41    0.55
   0  -3  -1    6.84    0.47
  -1  -3  -1    0.33    0.15
  -1  -3  -1    0.30    0.09
  -1  -3  -1    0.37    0.23
   1   3   1    0.30    0.22
  -2  -3  -1    0.45    0.45
  -2  -3  -1    1.38    0.28
   2   3   1    1.19    0.61
  -3  -3  -1   18.57    2.53
  -3  -3  -1   18.42    0.95
   3   3   1   18.62    2.51
  -4  -3  -1   33.75    1.51
  -5  -3  -1   -0.25    0.25
  -5  -3  -1    0.16    0.18
   5   3   1   -0.23    0.33
   5   3   1    0.23    0.23
   5   3   1    0.23    0.20
  -6  -3  -1    1.78    0.62
  -6  -3  -1    1.50    0.33
   6   3   1    1.19    0.34
   6   3   1    1.67    0.58
  -7  -3  -1    0.34    0.17
   7   3   1    0.44    0.21
   7   3   1    0.43    0.40
   5  -4  -1    0.15    0.19
   5  -4  -1   -0.13    0.16
   4  -4  -1    0.35    0.22
   4  -4  -1    1.58    0.40
   3  -4  -1    0.64    0.33
   3  -4  -1    0.98    0.42
   3  -4  -1    1.04    0.44
   2  -4  -1    0.02    0.15
   2  -4  -1    0.09    0.19
   2  -4  -1   -0.13    0.22
   2  -4  -1    0.09    0.18
   1  -4  -1   11.37    0.86
   1  -4  -1   11.10    0.66
   1  -4  -1   12.03    0.88
   0  -4  -1   30.90    1.44
   0  -4  -1   33.13    1.23
   0  -4  -1   31.69    1.33
  -1  -4  -1    6.22    0.40
  -1  -4  -1    7.62    1.09
  -1  -4  -1    6.87    0.85
  -1  -4  -1    6.89    0.61
  -2  -4  -1   60.60    2.20
  -3  -4  -1    2.18    0.42
  -4  -4  -1    3.14    0.54
  -4  -4  -1    3.09    0.67
  -4  -4  -1    3.19    0.39
   4   4   1    3.13    0.47
  -5  -4  -1    0.78    0.33
  -5  -4  -1    1.84    0.44
   5   4   1    0.61    0.51
  -6  -4  -1    0.43    0.34
  -6  -4  -1    0.24    0.22
  -7  -4  -1    0.05    0.17
  -7  -4  -1    0.13    0.13
   7   4   1    0.03    0.26
   4  -5  -1    0.39    0.22
   4  -5  -1    0.52    0.27
   3  -5  -1    0.34    0.28
   2  -5  -1    0.07    0.24
   2  -5  -1    0.39    0.22
   2  -5  -1    0.42    0.36
   2  -5  -1   -0.04    0.24
   2  -5  -1    0.30    0.45
   1  -5  -1    0.23    0.25
   1  -5  -1   -0.09    0.21
   1  -5  -1    0.46    0.26
   1  -5  -1   -0.13    0.15
   1  -5  -1   -0.03    0.15
   1  -5  -1    0.24    0.30
   0  -5  -1   64.48    2.60
   0  -5  -1   62.76    2.37
  -1  -5  -1   52.46    2.22
  -2  -5  -1    0.51    0.24
  -3  -5  -1   43.38    2.21
  -3  -5  -1   42.45    1.97
  -4  -5  -1   86.37    3.33
  -4  -5  -1   89.69    3.47
   4   5   1   90.98    3.01
  -5  -5  -1    1.76    0.48
  -5  -5  -1    2.37    0.60
  -5  -5  -1    2.39    0.38
   5   5   1    1.81    0.41
   5   5   1    2.06    0.65
  -6  -5  -1    0.36    0.18
  -6  -5  -1    0.12    0.25
   6   5   1    1.14    0.42
  -7  -5  -1    3.33    0.47
   7   5   1    3.28    0.56
   7   5   1    2.45    0.30
   3  -6  -1    0.56    0.24
   2  -6  -1    0.08    0.17
   2  -6  -1    0.15    0.19
   2  -6  -1   -0.17    0.19
   1  -6  -1    2.37    0.54
   1  -6  -1    3.05    0.49
   1  -6  -1    3.27    0.49
   1  -6  -1    2.97    0.59
   1  -6  -1    2.84    0.57
   0  -6  -1    8.53    0.87
   0  -6  -1    9.38    0.98
   0  -6  -1   10.68    0.89
   0  -6  -1    9.93    0.78
   0  -6  -1    8.74    0.77
  -1  -6  -1   12.13    0.87
  -1  -6  -1   13.06    0.93
  -1  -6  -1   14.27    1.46
  -1  -6  -1   11.52    1.00
  -2  -6  -1   12.06    0.91
  -2  -6  -1   12.22    1.00
  -2  -6  -1   11.41    0.83
  -3  -6  -1   30.24    1.44
  -3  -6  -1   30.91    1.63
  -3  -6  -1   30.01    1.54
  -3  -6  -1   29.36    1.74
   3   6   1   27.89    1.34
  -4  -6  -1   64.01    3.00
  -4  -6  -1   66.55    2.40
  -4  -6  -1   69.82    2.95
  -4  -6  -1   63.50    2.57
   4   6   1   57.50    3.17
  -5  -6  -1   36.63    1.98
   5   6   1   32.68    2.39
   5   6   1   34.66    1.57
  -6  -6  -1    5.89    0.73
   6   6   1    5.77    0.77
  -7  -6  -1    0.32    0.18
   7   6   1    0.30    0.21
   7   6   1    0.13    0.10
   2  -7  -1   -0.13    0.15
   2  -7  -1    0.13    0.21
   1  -7  -1    0.02    0.24
   1  -7  -1   -0.05    0.21
   1  -7  -1    0.12    0.15
   1  -7  -1    0.26    0.19
   1  -7  -1   -0.14    0.19
   0  -7  -1    0.17    0.18
   0  -7  -1    0.30    0.24
   0  -7  -1   -0.09    0.32
   0  -7  -1    0.13    0.25
  -1  -7  -1    7.02    0.92
  -1  -7  -1    5.73    0.62
  -1  -7  -1    6.29    0.66
  -1  -7  -1    5.78    0.77
  -2  -7  -1    0.47    0.31
  -2  -7  -1   -0.47    0.23
  -2  -7  -1    0.07    0.15
  -3  -7  -1    8.71    0.73
  -3  -7  -1    7.86    0.67
  -3  -7  -1    7.97    0.85
  -3  -7  -1    8.64    1.05
   3   7   1    8.18    0.68
  -4  -7  -1    1.20    0.35
  -4  -7  -1    1.68    0.39
  -4  -7  -1    1.46    0.36
   4   7   1    0.87    0.30
  -5  -7  -1    6.52    0.75
   5   7   1    6.71    0.60
  -6  -7  -1    0.95    0.33
   6   7   1    0.67    0.24
   1  -8  -1    0.28    0.19
   1  -8  -1    0.07    0.39
   0  -8  -1   -0.13    0.11
   0  -8  -1   -0.09    0.17
   0  -8  -1    0.02    0.18
  -1  -8  -1    1.19    0.39
  -1  -8  -1    0.97    0.30
  -1  -8  -1    0.64    0.26
  -2  -8  -1    2.30    0.43
  -2  -8  -1    2.50    0.62
  -3  -8  -1    0.44    0.28
  -3  -8  -1    0.65    0.28
  -4  -8  -1    0.22    0.17
  -4  -8  -1    0.21    0.20
  -4  -8  -1    0.03    0.14
  -5  -8  -1    0.31    0.30
  -6  -8  -1   -0.07    0.15
   6   8   1   -0.01    0.12
   0  -9  -1    0.20    0.10
   0  -9  -1    0.07    0.12
  -1  -9  -1    0.01    0.19
  -1  -9  -1   -0.03    0.11
  -1  -9  -1    0.11    0.17
  -2  -9  -1    0.33    0.20
  -2  -9  -1    0.37    0.16
  -3  -9  -1    0.11    0.19
  -3  -9  -1   -0.08    0.10
  -4  -9  -1    0.37    0.15
  -4  -9  -1    0.37    0.19
   4   9   1    0.08    0.14
   5   9   1    0.02    0.10
   5   9  -2    1.54    0.21
   4   9  -2    0.44    0.16
  -4  -9   2    0.43    0.21
  -3  -9   2    0.82    0.34
  -3  -9   2    0.52    0.18
  -3  -9   2    0.51    0.19
  -2  -9   2    1.47    0.30
  -2  -9   2    1.57    0.29
  -2  -9   2    1.60    0.39
  -1  -9   2    5.12    0.55
  -1  -9   2    4.41    0.40
  -1  -9   2    4.70    0.47
   0  -9   2    0.29    0.15
   0  -9   2    0.40    0.21
   6   8  -2    0.76    0.19
  -6  -8   2    0.97    0.23
   5   8  -2    1.91    0.37
  -5  -8   2    3.02    0.37
   4   8  -2    0.38    0.20
  -4  -8   2    0.21    0.19
  -4  -8   2    0.39    0.26
  -4  -8   2    0.74    0.22
   3   8  -2    2.09    0.34
  -3  -8   2    1.79    0.48
  -3  -8   2    1.78    0.37
  -3  -8   2    1.51    0.36
  -2  -8   2   -0.04    0.17
  -2  -8   2   -0.10    0.16
  -2  -8   2    0.36    0.40
  -1  -8   2   -0.18    0.20
  -1  -8   2   -0.05    0.14
  -1  -8   2   -0.37    0.15
   0  -8   2    0.68    0.20
   0  -8   2    0.55    0.29
   0  -8   2    1.50    0.39
   1  -8   2    3.65    0.50
   1  -8   2    5.26    0.55
   6   7  -2    0.38    0.18
  -6  -7   2    0.18    0.20
   5   7  -2    1.18    0.30
  -5  -7   2    1.23    0.56
  -4  -7   2    1.34    0.40
  -4  -7   2    1.44    0.40
  -4  -7   2    1.07    0.29
  -3  -7   2    3.49    0.50
  -3  -7   2    2.51    0.48
  -3  -7   2    3.73    0.66
  -3  -7   2    4.31    0.88
  -2  -7   2    0.84    0.31
  -2  -7   2    1.59    0.50
  -2  -7   2    1.50    0.54
  -2  -7   2    2.01    0.46
  -1  -7   2    1.21    0.34
  -1  -7   2    1.69    0.53
  -1  -7   2    1.77    0.47
  -1  -7   2    1.40    0.44
   0  -7   2    0.29    0.21
   0  -7   2   -0.07    0.13
   0  -7   2   -0.09    0.20
   1  -7   2    1.92    0.35
   1  -7   2    2.19    0.39
   1  -7   2    2.01    0.47
   1  -7   2    2.15    0.44
   2  -7   2    4.36    0.44
   2  -7   2    3.64    0.56
   3  -7   2   -0.11    0.12
   7   6  -2    0.61    0.26
   7   6  -2    0.54    0.15
  -7  -6   2    0.34    0.22
   6   6  -2    0.39    0.36
   6   6  -2    0.40    0.20
  -6  -6   2    0.49    0.29
   5   6  -2   -0.23    0.64
  -5  -6   2    1.09    0.42
   4   6  -2    4.98    0.54
  -4  -6   2    3.79    0.48
  -4  -6   2    4.67    0.80
   3   6  -2    0.12    0.15
  -3  -6   2   -0.05    0.16
  -3  -6   2    0.50    0.27
  -3  -6   2   -0.02    0.22
  -3  -6   2    0.09    0.24
  -2  -6   2   26.85    1.27
  -2  -6   2   25.18    1.30
  -2  -6   2   25.55    1.62
  -2  -6   2   24.00    1.45
  -1  -6   2   20.31    1.14
  -1  -6   2   20.52    1.33
  -1  -6   2   20.54    1.26
   0  -6   2    0.38    0.31
   0  -6   2    0.62    0.24
   0  -6   2    0.47    0.34
   0  -6   2    0.44    0.32
   1  -6   2    2.59    0.40
   1  -6   2    2.26    0.49
   1  -6   2    2.52    0.48
   1  -6   2    2.52    0.56
   2  -6   2    4.04    0.85
   2  -6   2    2.98    0.50
   2  -6   2    2.75    0.56
   3  -6   2    0.91    0.28
   3  -6   2    0.56    0.25
   7   5  -2    0.38    0.24
  -7  -5   2    0.36    0.24
  -7  -5   2    0.33    0.11
   6   5  -2    0.16    0.22
   6   5  -2    0.51    0.35
  -6  -5   2    0.37    0.18
  -6  -5   2    0.13    0.27
   5   5  -2    0.60    0.44
  -5  -5   2    0.87    0.40
  -5  -5   2    0.13    0.16
   4   5  -2   22.77    1.18
  -4  -5   2   20.78    1.41
  -4  -5   2   23.62    1.04
  -4  -5   2   23.47    1.17
  -4  -5   2   23.72    1.52
   3   5  -2    0.61    0.28
  -3  -5   2    1.58    0.32
  -3  -5   2    1.15    0.37
  -3  -5   2    0.64    0.32
  -2  -5   2    0.20    0.20
  -1  -5   2   54.92    2.27
   0  -5   2    6.68    0.57
   0  -5   2    5.87    0.65
   1  -5   2   17.34    1.13
   1  -5   2   17.47    1.27
   1  -5   2   15.19    0.95
   1  -5   2   16.08    1.18
   1  -5   2   15.25    0.96
   1  -5   2   17.98    1.18
   2  -5   2    7.33    0.75
   2  -5   2    6.58    0.74
   2  -5   2    7.82    0.70
   3  -5   2    6.88    0.71
   3  -5   2    6.81    0.74
   4  -5   2    0.15    0.25
   4  -5   2    0.01    0.19
   7   4  -2   -0.24    0.19
  -7  -4   2    0.07    0.10
   6   4  -2   67.15    2.98
   6   4  -2   60.72    2.20
  -6  -4   2   65.67    2.81
  -6  -4   2   59.06    2.14
  -6  -4   2   63.18    2.18
   5   4  -2    1.79    0.62
  -5  -4   2    2.70    0.64
  -5  -4   2    1.84    0.36
  -5  -4   2    3.09    0.69
   4   4  -2    2.26    0.55
   4   4  -2    0.88    0.28
  -4  -4   2    0.87    0.35
  -4  -4   2    1.39    0.47
  -3  -4   2    6.06    0.63
  -2  -4   2  247.38    7.03
  -1  -4   2    3.05    0.42
  -1  -4   2    3.12    0.36
   0  -4   2   -0.01    0.14
   0  -4   2    0.03    0.13
   1  -4   2   54.84    1.94
   1  -4   2   53.87    2.08
   1  -4   2   56.62    2.20
   2  -4   2   13.41    0.97
   2  -4   2   15.50    0.89
   2  -4   2   14.71    1.00
   2  -4   2   13.94    0.95
   3  -4   2    8.09    0.75
   3  -4   2    6.70    0.83
   3  -4   2    7.73    0.80
   3  -4   2    7.78    0.78
   4  -4   2    5.23    0.68
   4  -4   2    5.85    0.64
   5  -4   2    1.23    0.31
   5  -4   2    0.91    0.26
   7   3  -2    2.04    0.43
  -7  -3   2    1.63    0.25
  -7  -3   2    1.89    0.51
   6   3  -2    0.16    0.30
   6   3  -2    0.19    0.19
  -6  -3   2    0.35    0.24
  -6  -3   2    0.34    0.18
   5   3  -2  183.82    5.95
  -5  -3   2  201.78    5.83
  -5  -3   2  209.19    6.31
   4   3  -2   15.72    1.30
   4   3  -2   13.88    0.84
  -4  -3   2   14.50    0.84
  -4  -3   2   14.52    1.12
  -4  -3   2   14.61    1.00
   3   3  -2   17.08    2.25
  -3  -3   2   14.05    1.98
  -3  -3   2   15.36    0.93
   2   3  -2   27.22    2.41
  -2  -3   2   29.93    1.28
  -2  -3   2   31.99    2.48
   1   3  -2  248.16    8.17
  -1  -3   2  251.02    8.11
  -1  -3   2  252.35    6.82
  -1  -3   2  251.85    6.65
   0   3  -2   40.15    1.63
   0  -3   2   41.75    1.63
   0  -3   2   42.25    1.38
   0  -3   2   38.18    1.44
   1  -3   2   84.56    2.61
   1  -3   2   83.25    2.74
   1  -3   2   80.77    2.49
   2  -3   2   52.07    1.81
   2  -3   2   49.97    2.13
   3  -3   2    0.17    0.22
   3  -3   2    0.02    0.20
   3  -3   2   -0.03    0.16
   3  -3   2    0.07    0.19
   4  -3   2    0.13    0.25
   4  -3   2    0.19    0.21
   5  -3   2    0.69    0.30
   5  -3   2    0.60    0.27
   7   2  -2    0.32    0.22
  -7  -2   2    0.16    0.12
   6   2  -2    4.42    0.81
   6   2  -2    4.13    0.51
  -6  -2   2    3.89    0.68
  -6  -2   2    3.84    0.45
   5   2  -2    6.83    0.61
   5   2  -2    7.26    0.75
   5   2  -2    8.57    0.80
  -5  -2   2    8.11    0.66
  -5  -2   2    8.45    0.95
   4   2  -2   33.13    1.90
  -4  -2   2   34.20    1.41
  -4  -2   2   31.56    1.51
   3   2  -2   51.52    1.63
   3   2  -2   50.72    3.95
   2   2  -2   37.03    2.63
  -2  -2   2   39.60    2.66
   1   2  -2  115.28    2.94
   1   2  -2  110.96    4.31
  -1  -2   2  108.75    3.18
  -1  -2   2  112.92    4.29
   0   2  -2   75.52    2.71
   0  -2   2   78.81    2.72
   0  -2   2   77.65    2.22
   0  -2   2   74.86    2.16
  -1   2  -2   23.10    1.16
  -1   2  -2   24.27    1.17
   1  -2   2   23.87    0.88
   1  -2   2   21.08    0.98
   1  -2   2   23.63    0.86
  -2   2  -2   23.46    1.56
   2  -2   2   20.01    1.11
   2  -2   2   22.46    0.92
   3  -2   2    4.88    0.46
   3  -2   2    5.43    0.66
   4  -2   2    1.38    0.49
   4  -2   2    2.45    0.60
   4  -2   2    2.34    0.50
   4  -2   2    2.66    0.44
  -5   2  -2   -0.25    0.16
   5  -2   2    0.63    0.31
   5  -2   2    0.17    0.19
   6  -2   2    1.00    0.22
   6  -2   2    0.45    0.24
  -7  -1   2    0.05    0.12
   6   1  -2    0.15    0.27
   6   1  -2    0.40    0.24
  -6  -1   2    0.02    0.12
   5   1  -2   20.57    1.30
   5   1  -2   20.59    1.49
  -5  -1   2   18.52    1.06
   4   1  -2    0.18    0.18
   4   1  -2    0.16    0.14
   4   1  -2    0.91    0.37
  -4  -1   2    0.36    0.17
   3   1  -2   43.41    3.53
   3   1  -2   42.40    1.57
  -3  -1   2   42.27    3.48
   2   1  -2   80.40    4.06
   2   1  -2   86.00    2.43
  -2  -1   2   85.47    4.09
   1   1  -2   39.16    2.03
   1   1  -2   39.34    1.11
  -1  -1   2   36.53    1.96
   0   1  -2  136.44    4.20
   0  -1   2  137.57    4.20
  -1   1  -2   19.64    1.20
  -1   1  -2   18.61    1.14
   1  -1   2   18.63    0.63
   1  -1   2   18.52    0.78
   1  -1   2   18.54    0.66
  -2   1  -2    2.19    0.57
   2  -1   2    1.96    0.35
   2  -1   2    2.35    0.25
  -3   1  -2   74.68    4.47
   3  -1   2   89.12    2.98
  -4   1  -2   20.60    1.04
   4  -1   2   18.00    1.21
   4  -1   2   18.93    1.09
   4  -1   2   18.77    1.02
   4  -1   2   19.99    1.31
  -5   1  -2   -0.23    0.14
   5  -1   2   -0.47    0.24
   5  -1   2    0.30    0.19
   5  -1   2    0.20    0.26
  -6   1  -2    0.32    0.13
   6  -1   2    0.22    0.16
   6  -1   2    0.15    0.20
   6   0  -2    0.16    0.20
   6   0  -2   -0.07    0.16
   6   0  -2    0.07    0.23
  -6   0   2   -0.17    0.10
   5   0  -2    0.20    0.25
   5   0  -2    0.14    0.23
   5   0  -2   -0.30    0.26
   4   0  -2   10.15    1.06
   4   0  -2   10.45    0.75
   4   0  -2   10.48    0.88
  -4   0   2   10.56    0.72
   3   0  -2    0.80    0.26
   3   0  -2    1.09    0.20
  -3   0   2   -0.25    0.47
   2   0  -2    4.14    0.25
   2   0  -2    3.61    0.34
   2   0  -2    3.77    0.89
  -2   0   2    4.56    0.96
   1   0  -2    7.01    0.75
   1   0  -2    7.00    0.37
  -1   0   2    6.11    0.67
   0   0  -2   55.47    2.03
   0   0   2   51.51    1.97
   0   0   2   53.43    1.38
  -1   0  -2  276.30    8.16
  -2   0  -2   96.34    4.14
   2   0   2   86.72    2.86
   2   0   2   90.11    4.09
   2   0   2   91.67    2.57
  -3   0  -2   15.82    1.99
   3   0   2   15.16    0.74
   4   0   2   31.35    1.77
   4   0   2   33.82    1.42
  -5   0  -2   -0.24    0.14
   5   0   2    0.02    0.20
   5   0   2    0.50    0.34
   5   0   2    0.45    0.18
   5   0   2    0.02    0.28
  -6   0  -2    4.01    0.43
   6   0   2    3.55    0.60
   6   0   2    3.89    0.67
   6   0   2    4.60    0.42
   6  -1  -2    0.31    0.22
   6  -1  -2    0.61    0.27
  -6   1   2   -0.04    0.10
   5  -1  -2    6.39    0.69
   5  -1  -2    6.48    0.62
   5  -1  -2    6.91    0.77
  -5   1   2    5.24    0.49
   4  -1  -2    2.39    0.57
   4  -1  -2    3.08    0.51
   4  -1  -2    2.80    0.57
   4  -1  -2    3.10    0.62
  -4   1   2    2.87    0.37
   3  -1  -2    0.10    0.19
   3  -1  -2    0.00    0.09
   2  -1  -2   19.69    0.70
   2  -1  -2   19.13    1.64
   2  -1  -2   18.85    0.95
  -2   1   2   19.82    1.60
   0  -1  -2   27.16    0.94
   0  -1  -2   28.91    1.30
   0  -1  -2   28.23    0.90
   0   1   2   28.82    0.80
   0   1   2   27.82    1.29
  -1  -1  -2   33.46    0.97
  -1  -1  -2   29.25    1.69
   1   1   2   29.69    2.17
  -2  -1  -2  162.72    6.13
  -2  -1  -2  157.01    4.22
   2   1   2  158.00    6.11
  -3  -1  -2  519.80   17.28
   3   1   2  552.30   17.59
  -4  -1  -2    6.42    0.49
   4   1   2    6.65    0.54
  -5  -1  -2    0.74    0.25
   5   1   2    1.24    0.30
   5   1   2    1.21    0.47
  -6  -1  -2    8.50    0.65
   6   1   2    7.81    0.92
   6   1   2    6.91    0.76
   7   1   2    5.10    0.47
   6  -2  -2    0.24    0.20
   6  -2  -2    0.06    0.17
   5  -2  -2    0.17    0.27
   5  -2  -2   -0.16    0.20
  -5   2   2   -0.04    0.13
   4  -2  -2   27.81    1.75
   4  -2  -2   25.79    1.56
   4  -2  -2   27.36    1.30
   4  -2  -2   25.16    1.36
   3  -2  -2    1.40    0.43
   3  -2  -2    1.08    0.31
   3  -2  -2    0.89    0.39
   2  -2  -2   48.03    2.56
   2  -2  -2   50.22    1.54
   2  -2  -2   48.56    1.94
  -2   2   2   48.18    2.45
   1  -2  -2    7.86    0.55
   1  -2  -2    8.38    0.38
   1  -2  -2    7.70    0.64
  -1   2   2    7.81    0.64
  -1  -2  -2  264.50    8.05
   1   2   2  255.63    7.99
  -2  -2  -2   24.77    0.97
  -2  -2  -2   29.11    2.17
   2   2   2   25.90    2.07
  -3  -2  -2   13.46    0.70
  -3  -2  -2   13.34    1.72
   3   2   2   16.16    2.08
  -4  -2  -2   78.87    2.59
  -5  -2  -2    2.67    0.66
  -5  -2  -2    3.28    0.50
   5   2   2    3.22    0.46
   5   2   2    3.29    0.54
   5   2   2    3.65    0.79
  -6  -2  -2    6.16    0.86
  -6  -2  -2    7.42    0.63
   6   2   2    7.13    0.93
   6   2   2    7.86    0.87
  -7  -2  -2    0.13    0.15
   7   2   2    0.32    0.18
   7   2   2    0.21    0.42
   5  -3  -2    1.16    0.37
   5  -3  -2    1.37    0.32
   4  -3  -2   -0.19    0.28
   4  -3  -2   -0.11    0.18
   3  -3  -2    6.24    0.64
   3  -3  -2    6.53    0.84
   3  -3  -2    7.35    0.75
   2  -3  -2    5.87    0.65
   2  -3  -2    6.58    0.45
   1  -3  -2   46.92    1.54
   1  -3  -2   49.44    1.89
   0  -3  -2  143.00    3.94
   0  -3  -2  141.37    4.10
   0  -3  -2  150.77    4.27
  -1  -3  -2    7.86    0.54
  -1  -3  -2    8.37    0.42
  -1  -3  -2    9.04    0.92
  -1  -3  -2    8.34    0.95
  -2  -3  -2   17.37    0.60
  -2  -3  -2   19.48    1.85
  -2  -3  -2   16.54    0.84
   2   3   2   17.21    1.72
  -3  -3  -2    4.46    0.44
  -3  -3  -2    4.46    1.48
   3   3   2    6.64    1.63
  -4  -3  -2   10.55    0.75
  -5  -3  -2    0.48    0.39
  -5  -3  -2    0.63    0.24
   5   3   2    0.59    0.49
   5   3   2    1.00    0.29
   5   3   2    0.44    0.32
  -6  -3  -2    0.43    0.21
   6   3   2    0.63    0.41
  -7  -3  -2    0.21    0.13
   7   3   2    0.03    0.20
   7   3   2   -0.16    0.15
   5  -4  -2    0.12    0.20
   5  -4  -2    0.15    0.19
   4  -4  -2    4.52    0.64
   4  -4  -2    3.60    0.58
   3  -4  -2    0.13    0.25
   3  -4  -2   -0.35    0.21
   2  -4  -2    0.68    0.26
   2  -4  -2    0.79    0.34
   2  -4  -2    0.74    0.32
   2  -4  -2    0.72    0.28
   2  -4  -2    0.61    0.43
   1  -4  -2    3.39    0.35
   1  -4  -2    3.85    0.52
   1  -4  -2    3.56    0.58
   0  -4  -2   12.28    0.87
   0  -4  -2   12.74    0.78
  -1  -4  -2   39.75    2.57
  -1  -4  -2   35.82    1.29
  -1  -4  -2   36.99    1.59
  -1  -4  -2   35.60    3.00
  -2  -4  -2   29.99    1.38
  -3  -4  -2    0.74    0.24
  -4  -4  -2   26.93    1.19
  -4  -4  -2   25.73    1.36
  -4  -4  -2   23.66    1.50
   4   4   2   25.24    1.22
  -5  -4  -2    2.55    0.60
  -5  -4  -2    1.94    0.55
   5   4   2    2.44    0.70
  -6  -4  -2    0.32    0.25
  -7  -4  -2    0.13    0.12
  -7  -4  -2    0.14    0.18
   7   4   2   -0.21    0.19
   7   4   2   -0.18    0.19
   4  -5  -2   -0.06    0.16
   4  -5  -2   -0.41    0.16
   3  -5  -2    0.10    0.22
   3  -5  -2    0.28    0.23
   2  -5  -2    0.19    0.29
   2  -5  -2    0.56    0.34
   2  -5  -2    0.01    0.25
   2  -5  -2   -0.26    0.18
   2  -5  -2    0.29    0.31
   1  -5  -2    0.25    0.28
   1  -5  -2    0.75    0.25
   1  -5  -2    1.09    0.30
   1  -5  -2    0.02    0.30
   1  -5  -2    0.46    0.24
   0  -5  -2   34.44    1.75
   0  -5  -2   32.58    1.55
  -1  -5  -2    0.85    0.29
  -1  -5  -2    0.51    0.16
  -2  -5  -2    9.64    0.83
  -3  -5  -2   11.37    0.92
  -3  -5  -2    9.96    0.86
  -4  -5  -2    6.77    0.67
  -4  -5  -2    6.32    0.78
   4   5   2    6.38    0.58
  -5  -5  -2    0.21    0.29
  -5  -5  -2    0.19    0.17
  -5  -5  -2   -0.97    0.42
   5   5   2   -0.12    0.32
   5   5   2    0.05    0.19
  -6  -5  -2    0.21    0.33
  -6  -5  -2    0.19    0.16
   6   5   2    1.04    0.45
  -7  -5  -2    4.29    0.53
   7   5   2    4.71    0.62
   7   5   2    3.26    0.29
   3  -6  -2    0.72    0.25
   3  -6  -2    0.83    0.37
   2  -6  -2    0.25    0.23
   2  -6  -2    0.36    0.23
   2  -6  -2    0.76    0.26
   1  -6  -2    5.04    0.64
   1  -6  -2    4.81    0.75
   1  -6  -2    6.15    0.68
   1  -6  -2    4.03    0.50
   1  -6  -2    4.74    0.54
   1  -6  -2    4.74    0.81
   0  -6  -2    8.37    0.80
   0  -6  -2    8.56    0.73
   0  -6  -2    7.50    0.76
   0  -6  -2    8.55    0.95
   0  -6  -2    7.99    0.84
  -1  -6  -2    2.20    0.48
  -1  -6  -2    1.54    0.35
  -1  -6  -2    1.24    0.57
  -1  -6  -2    1.49    0.45
  -1  -6  -2    2.01    0.53
  -2  -6  -2    3.56    0.64
  -2  -6  -2    4.38    0.73
  -2  -6  -2    4.43    0.57
  -2  -6  -2    4.00    0.73
  -2  -6  -2    4.52    0.52
  -3  -6  -2    0.30    0.16
  -3  -6  -2    0.46    0.24
  -3  -6  -2   -0.10    0.23
  -3  -6  -2    0.29    0.26
   3   6   2    0.06    0.20
  -4  -6  -2  192.35    6.07
  -4  -6  -2  178.92    5.82
  -4  -6  -2  195.62    5.61
  -5  -6  -2    0.52    0.33
   5   6   2    0.29    0.22
  -6  -6  -2    0.24    0.29
   6   6   2    0.40    0.36
  -7  -6  -2    1.20    0.33
   7   6   2    1.14    0.50
   7   6   2    1.40    0.22
   2  -7  -2    1.04    0.23
   2  -7  -2    1.28    0.32
   1  -7  -2    0.50    0.22
   1  -7  -2    0.69    0.20
   1  -7  -2   -0.01    0.27
   1  -7  -2    0.23    0.21
   1  -7  -2    0.72    0.30
   0  -7  -2    0.98    0.31
   0  -7  -2    0.91    0.38
   0  -7  -2    1.98    0.40
   0  -7  -2    1.38    0.42
  -1  -7  -2   16.89    1.06
  -1  -7  -2   16.66    1.08
  -1  -7  -2   17.58    1.45
  -1  -7  -2   14.30    1.19
  -1  -7  -2   15.28    1.14
  -2  -7  -2    1.60    0.71
  -2  -7  -2    1.73    0.40
  -2  -7  -2    1.08    0.44
  -2  -7  -2    2.20    0.54
  -3  -7  -2    1.82    0.58
  -3  -7  -2    1.68    0.40
  -3  -7  -2    2.14    0.43
  -3  -7  -2    1.91    0.49
   3   7   2    1.77    0.38
  -4  -7  -2    7.49    0.73
  -4  -7  -2    5.87    0.68
  -4  -7  -2    5.44    0.58
   4   7   2    6.43    0.60
  -5  -7  -2   41.74    1.96
  -5  -7  -2   40.41    1.59
   5   7   2   40.13    1.66
  -6  -7  -2    3.83    0.51
   1  -8  -2    0.13    0.12
   0  -8  -2    2.81    0.45
   0  -8  -2    2.91    0.51
   0  -8  -2    2.70    0.44
  -1  -8  -2    0.04    0.18
  -1  -8  -2    0.53    0.30
  -2  -8  -2    0.53    0.27
  -2  -8  -2    0.55    0.40
  -2  -8  -2    0.25    0.27
  -3  -8  -2    1.10    0.33
  -3  -8  -2    0.70    0.34
  -4  -8  -2   10.66    0.73
  -4  -8  -2    9.07    0.76
   4   8   2   10.61    0.68
  -5  -8  -2    6.36    0.57
  -6  -8  -2   -0.14    0.12
   6   8   2    0.31    0.13
   0  -9  -2    0.32    0.14
   0  -9  -2   -0.12    0.08
  -1  -9  -2    1.10    0.30
  -1  -9  -2    0.55    0.18
  -2  -9  -2    0.31    0.21
  -2  -9  -2   -0.06    0.11
  -3  -9  -2    0.03    0.13
  -3  -9  -2    0.05    0.19
  -4  -9  -2    1.09    0.25
  -4  -9  -2    0.86    0.18
   4   9   2    0.62    0.19
   5   9   2   -0.01    0.11
   4   9  -3    0.94    0.18
  -4  -9   3    0.52    0.25
  -3  -9   3    0.49    0.20
  -3  -9   3    0.73    0.28
  -3  -9   3    0.58    0.27
  -2  -9   3    2.16    0.48
  -2  -9   3    1.10    0.27
  -1  -9   3    0.08    0.14
  -1  -9   3   -0.04    0.11
  -1  -9   3   -0.27    0.18
   0  -9   3    1.69    0.32
   5   8  -3    1.64    0.30
  -5  -8   3    1.52    0.29
   4   8  -3    0.42    0.17
  -4  -8   3    0.43    0.22
  -4  -8   3    0.43    0.20
  -4  -8   3    0.49    0.21
  -4  -8   3    0.95    0.27
   3   8  -3    1.27    0.29
  -3  -8   3    2.26    0.43
  -3  -8   3    1.77    0.46
  -3  -8   3    3.13    0.50
  -2  -8   3    0.12    0.20
  -2  -8   3    0.15    0.27
  -2  -8   3    0.25    0.20
  -1  -8   3    1.03    0.32
  -1  -8   3    0.66    0.34
  -1  -8   3    0.66    0.26
   0  -8   3   -0.07    0.19
   0  -8   3   -0.15    0.21
   0  -8   3    0.02    0.13
   1  -8   3   -0.06    0.17
   6   7  -3    2.89    0.35
  -6  -7   3    3.12    0.44
   5   7  -3    1.51    0.35
   4   7  -3    1.04    0.32
  -4  -7   3    1.09    0.30
  -4  -7   3    1.37    0.38
   3   7  -3   -0.18    0.17
  -3  -7   3    0.23    0.21
  -3  -7   3   -0.08    0.20
  -3  -7   3    0.15    0.18
  -2  -7   3    0.35    0.26
  -2  -7   3    0.46    0.19
  -2  -7   3    0.11    0.22
  -2  -7   3    0.82    0.36
  -1  -7   3    0.21    0.35
  -1  -7   3    0.14    0.24
  -1  -7   3    0.29    0.20
  -1  -7   3    0.05    0.19
   0  -7   3    1.96    0.44
   0  -7   3    1.70    0.49
   0  -7   3    2.13    0.40
   1  -7   3    1.08    0.36
   1  -7   3    0.56    0.22
   1  -7   3    1.01    0.28
   1  -7   3    0.53    0.31
   2  -7   3    0.25    0.14
   2  -7   3    0.61    0.28
   6   6  -3    2.53    0.58
   6   6  -3    2.28    0.36
  -6  -6   3    1.91    0.47
   5   6  -3    2.40    0.56
   5   6  -3    1.87    0.40
  -5  -6   3    1.25    0.44
  -4  -6   3    2.27    0.54
  -4  -6   3    2.08    0.43
  -4  -6   3    1.03    0.43
  -4  -6   3    0.49    0.40
  -3  -6   3    1.53    0.48
  -3  -6   3    1.29    0.34
  -3  -6   3    1.79    0.46
  -3  -6   3    1.85    0.46
  -2  -6   3    7.60    0.67
  -2  -6   3    8.17    0.80
  -2  -6   3    6.88    0.64
  -2  -6   3    6.27    0.81
  -1  -6   3    4.94    0.66
  -1  -6   3    5.08    0.54
  -1  -6   3    5.75    0.74
   0  -6   3    0.74    0.22
   0  -6   3    0.31    0.24
   0  -6   3    0.66    0.27
   0  -6   3    0.51    0.36
   0  -6   3    0.61    0.26
   0  -6   3    0.14    0.34
   1  -6   3    1.15    0.39
   1  -6   3    0.86    0.29
   1  -6   3    0.71    0.31
   1  -6   3    0.73    0.27
   1  -6   3    0.11    0.26
   2  -6   3   -0.06    0.23
   2  -6   3    0.73    0.33
   3  -6   3   -0.22    0.21
   3  -6   3   -0.28    0.15
   7   5  -3   -0.13    0.19
  -7  -5   3   -0.16    0.12
   6   5  -3    4.28    0.81
   6   5  -3    4.13    0.47
  -6  -5   3    3.98    0.38
  -6  -5   3    3.47    0.66
   5   5  -3    4.02    0.58
   5   5  -3    2.89    0.72
  -5  -5   3    2.57    0.67
  -5  -5   3    3.68    0.40
   4   5  -3    2.56    0.71
  -4  -5   3    2.70    0.46
  -4  -5   3    2.46    0.35
  -4  -5   3    3.24    0.62
  -4  -5   3    2.26    0.57
   3   5  -3    9.66    0.67
  -3  -5   3    9.16    0.87
  -3  -5   3    9.58    0.68
  -2  -5   3   15.57    1.09
  -1  -5   3    3.73    0.61
   0  -5   3    0.92    0.27
   0  -5   3    1.84    0.40
   0  -5   3    1.05    0.35
   1  -5   3    0.05    0.22
   1  -5   3   -0.10    0.22
   1  -5   3   -0.10    0.26
   1  -5   3    0.11    0.22
   2  -5   3    3.74    0.56
   2  -5   3    3.51    0.62
   2  -5   3    3.79    0.52
   3  -5   3    0.74    0.28
   3  -5   3    1.30    0.40
   4  -5   3    0.23    0.21
   4  -5   3    0.17    0.18
   7   4  -3    1.39    0.37
  -7  -4   3    0.64    0.14
  -7  -4   3    1.12    0.33
   6   4  -3    5.31    0.50
   6   4  -3    5.45    0.95
  -6  -4   3    5.86    0.51
  -6  -4   3    5.91    0.52
  -6  -4   3    5.17    0.84
   5   4  -3   13.50    1.02
   5   4  -3   14.32    1.34
  -5  -4   3   14.73    1.28
  -5  -4   3   14.78    0.92
  -5  -4   3   15.88    0.91
  -5  -4   3   16.13    1.22
  -4  -4   3   15.04    0.92
  -4  -4   3   13.49    0.79
  -4  -4   3   12.89    1.08
  -3  -4   3    5.86    0.63
  -1  -4   3   34.70    1.34
  -1  -4   3   34.82    1.51
   0  -4   3    3.26    0.41
   0  -4   3    3.46    0.49
   1  -4   3   23.30    1.16
   1  -4   3   23.95    1.26
   2  -4   3   20.24    1.23
   2  -4   3   22.44    1.23
   2  -4   3   20.16    1.23
   2  -4   3   21.87    1.13
   3  -4   3    0.97    0.31
   3  -4   3    1.25    0.35
   3  -4   3    1.21    0.43
   4  -4   3    0.56    0.30
   4  -4   3    0.27    0.32
   5  -4   3    1.94    0.35
   5  -4   3    1.83    0.32
   7   3  -3    0.28    0.21
  -7  -3   3    0.19    0.10
  -7  -3   3    0.64    0.15
   6   3  -3   17.98    0.87
   6   3  -3   19.64    1.46
  -6  -3   3   16.58    1.26
  -6  -3   3   18.82    0.98
   5   3  -3   35.57    2.14
   5   3  -3   36.27    1.57
  -5  -3   3   34.73    2.03
  -5  -3   3   35.79    1.89
  -5  -3   3   37.26    1.56
   4   3  -3    7.91    0.94
  -4  -3   3    7.51    0.82
  -4  -3   3    6.68    0.71
   3   3  -3    4.63    1.37
  -3  -3   3    7.78    0.64
  -3  -3   3    6.28    1.50
   2   3  -3  193.76    7.97
  -2  -3   3  194.06    5.60
  -2  -3   3  203.48    8.04
   1   3  -3  116.68    4.86
  -1  -3   3  117.44    3.32
  -1  -3   3  119.42    4.81
  -1  -3   3  115.05    3.48
   0   3  -3   36.39    1.88
   0  -3   3   36.70    1.36
   0  -3   3   37.66    1.89
   0  -3   3   35.46    1.27
   1  -3   3   23.52    1.01
   1  -3   3   24.59    1.00
   2  -3   3   17.94    0.90
   3  -3   3   10.68    0.75
   3  -3   3   10.05    0.87
   3  -3   3    9.30    0.79
   3  -3   3   11.82    0.89
   4  -3   3    4.53    0.58
   4  -3   3    4.27    0.74
   5  -3   3    0.56    0.26
   5  -3   3    0.26    0.21
   7   2  -3   -0.06    0.17
  -7  -2   3   -0.01    0.08
  -7  -2   3   -0.02    0.13
   6   2  -3    6.74    0.87
   6   2  -3    8.37    0.66
  -6  -2   3    7.16    0.59
   5   2  -3   10.91    1.15
   5   2  -3   10.40    0.88
  -5  -2   3    8.88    0.91
  -5  -2   3    9.71    0.73
   4   2  -3    2.73    0.34
   4   2  -3    2.63    0.48
   4   2  -3    2.14    0.59
  -4  -2   3    3.74    0.49
  -4  -2   3    3.10    0.44
   3   2  -3   32.18    1.18
   3   2  -3   33.53    3.32
  -3  -2   3   35.39    3.35
   2   2  -3   87.70    2.32
   2   2  -3   83.70    4.53
  -2  -2   3   75.28    5.50
   1   2  -3   64.92    3.19
  -1  -2   3   72.07    3.26
  -1  -2   3   70.86    1.99
  -1  -2   3   67.03    2.12
   0   2  -3  131.32    4.44
   0  -2   3  130.92    3.53
   0  -2   3  123.02    4.36
   0  -2   3  126.11    3.47
  -1   2  -3   18.71    1.28
  -1   2  -3   20.31    1.28
   1  -2   3   19.91    0.78
   1  -2   3   19.05    0.74
  -2   2  -3    4.15    0.88
   2  -2   3    3.87    0.35
   3  -2   3    0.07    0.11
   4  -2   3    0.04    0.22
   4  -2   3   -0.36    0.26
   4  -2   3   -0.19    0.35
   4  -2   3    0.53    0.26
  -5   2  -3    1.18    0.24
   5  -2   3    0.90    0.31
   5  -2   3    0.70    0.51
   6  -2   3    1.32    0.31
   6  -2   3    1.54    0.26
   6   1  -3    0.07    0.18
   6   1  -3   -0.07    0.26
  -6  -1   3    0.15    0.16
   5   1  -3    9.92    0.89
   5   1  -3    9.22    1.00
   5   1  -3   10.32    0.79
  -5  -1   3   10.79    0.75
   4   1  -3    3.25    0.52
  -4  -1   3    3.25    0.38
   3   1  -3    1.52    0.28
   3   1  -3    0.70    0.71
  -3  -1   3   -0.90    0.61
   2   1  -3   21.49    2.01
   2   1  -3   22.40    0.87
  -2  -1   3   22.54    1.94
   1   1  -3   20.07    1.49
   1   1  -3   21.40    0.73
  -1  -1   3   22.65    1.53
   0   1  -3  178.32    5.61
   0  -1   3  179.22    5.60
  -1   1  -3    9.21    0.89
  -1   1  -3    9.10    0.88
   1  -1   3    8.92    0.32
   1  -1   3    9.07    0.42
  -2   1  -3    6.83    0.99
  -2   1  -3    6.87    0.97
   2  -1   3    6.77    0.42
   3  -1   3    4.58    0.42
  -4   1  -3    1.72    0.35
   4  -1   3    1.69    0.42
   4  -1   3    1.44    0.34
  -5   1  -3    0.38    0.17
   5  -1   3    0.38    0.29
   5  -1   3    0.40    0.25
   5  -1   3   -0.13    0.26
  -6   1  -3    1.33    0.25
   6  -1   3    1.05    0.37
   6  -1   3    0.95    0.23
   6   0  -3    1.42    0.36
   6   0  -3    1.10    0.30
  -6   0   3    1.62    0.27
   5   0  -3   -0.04    0.22
   5   0  -3    0.17    0.31
   5   0  -3    0.27    0.23
   4   0  -3   11.35    0.80
   4   0  -3   10.89    0.88
   4   0  -3   11.29    0.95
   4   0  -3   13.63    1.09
  -4   0   3   12.34    0.78
   3   0  -3   14.18    0.89
   3   0  -3   15.06    0.65
  -3   0   3   11.30    2.41
   2   0  -3    9.27    1.20
   2   0  -3    9.10    0.58
   2   0  -3   10.19    0.41
  -2   0   3   10.10    1.29
   1   0  -3   12.24    1.11
   1   0  -3   12.73    0.38
   1   0  -3   12.26    0.56
  -1   0   3   12.23    1.06
   0   0  -3   49.84    2.17
   0   0   3   50.15    2.17
  -1   0  -3  225.30    7.25
  -1   0  -3  236.72    9.05
  -2   0  -3    8.98    0.27
  -2   0  -3    9.77    1.18
   2   0   3    9.09    0.46
  -3   0  -3    5.07    1.49
   3   0   3    4.01    0.37
  -4   0  -3    2.27    0.45
   4   0   3    2.01    0.38
   4   0   3    2.85    0.66
  -5   0  -3    0.51    0.22
   5   0   3    1.80    0.60
   5   0   3    0.28    0.34
   5   0   3    0.58    0.25
  -6   0  -3    1.00    0.23
   6   0   3    1.40    0.44
   6   0   3    0.72    0.37
   6   0   3    1.48    0.41
  -7   0  -3    0.17    0.11
   6  -1  -3    0.59    0.23
   6  -1  -3    0.82    0.24
  -6   1   3    0.88    0.17
   5  -1  -3    6.37    0.66
   5  -1  -3    7.03    0.75
  -5   1   3    6.32    0.73
   4  -1  -3    0.07    0.27
   4  -1  -3    0.20    0.20
   4  -1  -3    0.08    0.27
   4  -1  -3    0.35    0.30
  -4   1   3   -0.05    0.15
   2  -1  -3    1.69    0.15
   2  -1  -3    1.17    0.65
   2  -1  -3    2.49    0.40
  -2   1   3    2.72    0.72
   1  -1  -3   66.76    2.92
   1  -1  -3   62.15    2.04
   1  -1  -3   68.17    1.75
  -1   1   3   65.70    2.80
   0  -1  -3    5.81    0.37
   0  -1  -3    5.67    0.63
   0  -1  -3    6.68    0.37
   0   1   3    6.34    0.24
   0   1   3    6.42    0.65
  -1  -1  -3   10.29    1.03
  -1  -1  -3   11.66    1.03
  -1  -1  -3   11.77    0.47
  -2  -1  -3   19.50    0.68
  -2  -1  -3   18.73    1.72
   2   1   3   18.59    1.74
  -3  -1  -3   30.16    2.76
  -3  -1  -3   29.40    1.01
   3   1   3   28.50    1.13
   3   1   3   28.34    2.82
   4   1   3    4.74    0.47
  -5  -1  -3    0.10    0.15
   5   1   3    0.19    0.18
   5   1   3    0.21    0.36
  -6  -1  -3    2.44    0.42
   6   1   3    2.16    0.54
   6   1   3    1.77    0.80
  -7  -1  -3    4.20    0.35
   7   1   3    5.04    0.49
   6  -2  -3    0.08    0.19
   6  -2  -3    0.01    0.13
   5  -2  -3    1.40    0.37
   5  -2  -3    1.01    0.38
  -5   2   3    1.15    0.26
   4  -2  -3    0.20    0.22
   4  -2  -3    0.07    0.34
   4  -2  -3    0.08    0.40
   4  -2  -3    0.05    0.22
  -4   2   3    0.78    0.24
   3  -2  -3   12.15    1.01
   2  -2  -3   75.65    3.65
   2  -2  -3   76.05    2.72
  -2   2   3   74.09    3.47
   1  -2  -3    2.71    0.20
   1  -2  -3    3.19    0.52
   1  -2  -3    2.59    0.39
  -1   2   3    3.02    0.60
   0  -2  -3  191.55    5.84
   0  -2  -3  187.24    5.05
   0  -2  -3  182.28    5.31
  -1  -2  -3    0.82    0.26
  -1  -2  -3    0.01    0.13
  -1  -2  -3    0.16    0.10
  -2  -2  -3   12.44    0.60
  -2  -2  -3   12.83    1.43
   2   2   3   10.98    1.38
  -3  -2  -3    0.47    0.16
  -3  -2  -3   -0.44    0.83
   3   2   3    1.53    0.87
  -4  -2  -3    5.90    0.49
  -5  -2  -3   -0.23    0.37
  -5  -2  -3   -0.01    0.16
   5   2   3   -0.11    0.18
   5   2   3    0.10    0.23
   5   2   3    0.11    0.35
  -6  -2  -3    0.40    0.40
  -6  -2  -3    0.27    0.19
   6   2   3   -0.16    0.30
  -7  -2  -3    0.41    0.15
   7   2   3    0.35    0.22
   5  -3  -3    0.34    0.27
   4  -3  -3    0.31    0.27
   4  -3  -3   -0.27    0.20
   3  -3  -3    6.96    0.66
   3  -3  -3    6.84    0.76
   3  -3  -3    6.55    0.88
   2  -3  -3   -0.11    0.12
   2  -3  -3    0.13    0.10
   1  -3  -3   76.34    2.77
   1  -3  -3   81.15    2.33
   1  -3  -3   83.25    2.77
   0  -3  -3   18.50    1.07
   0  -3  -3   18.39    1.07
   0  -3  -3   17.39    0.85
   0  -3  -3   17.39    0.95
  -1  -3  -3    2.82    0.70
  -1  -3  -3    2.34    0.50
  -1  -3  -3    2.74    0.33
  -1  -3  -3    2.83    0.27
  -2  -3  -3   22.74    0.79
  -2  -3  -3   24.64    1.06
  -2  -3  -3   23.66    2.11
   2   3   3   21.74    2.10
  -3  -3  -3    7.70    1.68
  -3  -3  -3    6.18    0.51
   3   3   3    4.64    1.27
  -4  -3  -3   -0.09    0.12
   4   3   3    0.22    0.21
  -5  -3  -3    9.36    1.00
  -5  -3  -3    9.60    0.72
   5   3   3    8.38    0.76
   5   3   3   10.18    0.72
   5   3   3    9.63    1.14
  -6  -3  -3    0.35    0.22
   6   3   3    0.99    0.43
  -7  -3  -3    1.27    0.52
  -7  -3  -3    0.27    0.21
   7   3   3    0.39    0.32
   7   3   3    0.70    0.24
   5  -4  -3   -0.01    0.14
   5  -4  -3   -0.01    0.17
   4  -4  -3    2.58    0.46
   4  -4  -3    1.98    0.48
   3  -4  -3    0.66    0.27
   3  -4  -3    0.52    0.33
   2  -4  -3    0.23    0.16
   2  -4  -3   -0.22    0.23
   2  -4  -3   -0.11    0.20
   2  -4  -3    0.18    0.20
   2  -4  -3   -0.33    0.16
   1  -4  -3    1.95    0.44
   0  -4  -3   28.41    1.42
   0  -4  -3   28.82    1.30
  -1  -4  -3   26.31    2.65
  -1  -4  -3   20.19    0.91
  -1  -4  -3   19.66    1.11
  -2  -4  -3   20.09    2.53
  -2  -4  -3   19.31    0.70
  -2  -4  -3   20.21    1.09
  -3  -4  -3   36.68    1.62
  -4  -4  -3    1.20    0.26
  -4  -4  -3    1.60    0.37
   5   4   3    2.62    0.46
   5   4   3    3.60    0.84
  -6  -4  -3    0.05    0.25
  -6  -4  -3    0.27    0.28
   6   4   3    0.33    0.22
  -7  -4  -3   -0.07    0.11
  -7  -4  -3    0.01    0.20
   7   4   3   -0.22    0.21
   7   4   3   -0.02    0.15
   4  -5  -3   -0.42    0.17
   4  -5  -3   -0.03    0.20
   3  -5  -3    1.22    0.45
   3  -5  -3    1.47    0.37
   2  -5  -3    0.76    0.36
   2  -5  -3    1.63    0.39
   2  -5  -3    1.48    0.47
   2  -5  -3    1.55    0.34
   2  -5  -3    1.50    0.51
   1  -5  -3    5.59    0.65
   1  -5  -3    7.28    0.80
   1  -5  -3    7.16    0.72
   1  -5  -3    7.11    0.63
   1  -5  -3    6.35    0.69
   1  -5  -3    6.58    0.59
   0  -5  -3    2.55    0.56
   0  -5  -3    3.02    0.49
   0  -5  -3    2.80    0.52
  -1  -5  -3   27.00    1.19
  -1  -5  -3   24.92    1.46
  -2  -5  -3    3.77    0.53
  -3  -5  -3   14.44    1.05
  -3  -5  -3   14.95    1.07
  -4  -5  -3   -0.51    0.28
  -4  -5  -3    0.12    0.26
  -4  -5  -3    0.24    0.32
   4   5   3   -0.23    0.14
  -5  -5  -3    2.93    0.65
  -5  -5  -3    3.55    0.40
   5   5   3    4.06    0.80
   5   5   3    3.17    0.49
  -6  -5  -3    0.60    0.34
  -6  -5  -3    0.48    0.20
   6   5   3    0.46    0.35
   6   5   3    0.93    0.46
  -7  -5  -3    0.47    0.24
  -7  -5  -3    0.29    0.12
   7   5   3    0.22    0.13
   7   5   3    0.28    0.25
   3  -6  -3    0.33    0.23
   3  -6  -3    0.26    0.19
   2  -6  -3   -0.09    0.21
   2  -6  -3   -0.29    0.17
   2  -6  -3   -0.17    0.15
   1  -6  -3    6.15    0.61
   1  -6  -3    7.13    0.77
   1  -6  -3    7.69    0.66
   1  -6  -3    7.06    0.77
   1  -6  -3    6.98    0.72
   0  -6  -3   16.96    1.23
   0  -6  -3   17.99    1.26
   0  -6  -3   20.30    1.29
   0  -6  -3   18.84    1.18
   0  -6  -3   19.52    1.15
   0  -6  -3   20.24    1.50
  -1  -6  -3    0.54    0.33
  -1  -6  -3    0.07    0.18
  -1  -6  -3    0.01    0.44
  -1  -6  -3   -0.09    0.16
  -1  -6  -3    0.11    0.27
  -2  -6  -3    3.51    0.51
  -2  -6  -3    3.46    0.65
  -2  -6  -3    3.62    0.47
  -2  -6  -3    2.96    0.63
  -3  -6  -3   45.14    2.15
  -3  -6  -3   48.51    2.33
  -3  -6  -3   47.46    1.96
  -3  -6  -3   46.96    2.09
   3   6   3   49.24    1.89
  -4  -6  -3    6.02    1.02
  -4  -6  -3    5.37    0.90
  -4  -6  -3    4.49    0.77
  -4  -6  -3    5.89    0.76
   4   6   3    4.78    0.54
  -5  -6  -3    0.54    0.34
   5   6   3    0.99    0.30
  -6  -6  -3    2.33    0.56
   6   6   3    2.26    0.37
   6   6   3    3.57    0.69
  -7  -6  -3    1.58    0.34
   7   6   3    1.87    0.33
   2  -7  -3    0.22    0.21
   2  -7  -3    0.27    0.17
   1  -7  -3    0.40    0.18
   1  -7  -3    0.46    0.26
   1  -7  -3    0.56    0.24
   1  -7  -3    0.48    0.29
   0  -7  -3    5.42    0.68
   0  -7  -3    6.03    0.62
   0  -7  -3    6.36    0.66
   0  -7  -3    6.71    0.76
  -1  -7  -3    0.73    0.50
  -1  -7  -3    1.05    0.28
  -1  -7  -3    0.98    0.38
  -1  -7  -3    1.44    0.39
  -1  -7  -3    0.81    0.27
  -2  -7  -3   19.64    1.53
  -2  -7  -3   20.14    1.39
  -2  -7  -3   17.37    1.13
  -3  -7  -3   50.87    2.69
  -3  -7  -3   51.48    2.12
  -3  -7  -3   52.54    1.97
  -3  -7  -3   52.21    2.39
   3   7   3   51.61    2.00
  -4  -7  -3   39.32    1.85
  -4  -7  -3   37.70    1.79
  -4  -7  -3   34.54    1.61
   4   7   3   35.97    1.60
  -5  -7  -3    8.21    0.61
  -5  -7  -3   10.45    0.92
   5   7   3   11.40    0.77
  -6  -7  -3    0.22    0.21
   1  -8  -3   -0.18    0.24
   1  -8  -3   -0.17    0.09
   0  -8  -3    0.80    0.23
   0  -8  -3    0.71    0.26
   0  -8  -3    1.11    0.34
  -1  -8  -3   -0.05    0.24
  -1  -8  -3    0.17    0.21
  -1  -8  -3    0.12    0.17
  -1  -8  -3    0.02    0.31
  -2  -8  -3    6.07    0.62
  -2  -8  -3    5.78    0.74
  -3  -8  -3    1.32    0.33
  -3  -8  -3    1.72    0.48
  -4  -8  -3   11.42    0.76
  -4  -8  -3    9.72    0.82
   4   8   3   10.96    0.68
  -5  -8  -3    2.50    0.34
   5   8   3    2.18    0.44
   6   8   3    1.05    0.21
   0  -9  -3    0.34    0.25
  -1  -9  -3    1.04    0.29
  -1  -9  -3    1.00    0.22
  -2  -9  -3   -0.05    0.19
  -2  -9  -3   -0.16    0.15
  -4  -9  -3    0.36    0.14
  -4  -9  -3    0.14    0.17
   5   9   3    0.11    0.11
   4   9  -4    0.46    0.19
  -4  -9   4    0.90    0.25
  -3  -9   4    1.83    0.31
  -3  -9   4    1.27    0.27
  -3  -9   4    1.52    0.33
  -2  -9   4    0.45    0.19
  -2  -9   4    0.28    0.26
  -2  -9   4    0.47    0.17
  -1  -9   4    2.40    0.29
  -1  -9   4    3.35    0.39
   0  -9   4    0.34    0.19
   0  -9   4   -0.05    0.12
   5   8  -4    0.01    0.11
  -5  -8   4   -0.04    0.13
  -5  -8   4    0.24    0.18
   4   8  -4    2.31    0.38
  -4  -8   4    1.61    0.35
  -4  -8   4    2.37    0.41
  -4  -8   4    1.42    0.26
   3   8  -4    6.54    0.50
  -3  -8   4    5.84    0.66
  -3  -8   4    6.36    0.63
  -3  -8   4    6.31    0.61
  -2  -8   4   12.64    0.94
  -2  -8   4   13.60    1.06
  -2  -8   4   11.40    0.82
  -1  -8   4    0.36    0.25
  -1  -8   4    0.50    0.22
  -1  -8   4    0.52    0.30
   0  -8   4    0.45    0.25
   0  -8   4    0.84    0.28
   0  -8   4    0.12    0.21
   1  -8   4    3.72    0.47
   6   7  -4    2.95    0.32
  -6  -7   4    3.60    0.46
   5   7  -4    0.22    0.16
   4   7  -4    1.34    0.41
  -4  -7   4    2.70    0.55
  -4  -7   4    3.02    0.51
   3   7  -4    3.65    0.48
  -3  -7   4    2.94    0.49
  -3  -7   4    2.27    0.42
  -3  -7   4    3.23    0.59
  -2  -7   4    0.06    0.26
  -2  -7   4   -0.08    0.12
  -1  -7   4    4.57    0.78
  -1  -7   4    4.59    0.73
  -1  -7   4    4.97    0.54
   0  -7   4   13.25    1.06
   0  -7   4   13.04    1.03
   0  -7   4   13.57    0.86
   1  -7   4    0.95    0.37
   1  -7   4    1.25    0.29
   1  -7   4    1.28    0.33
   2  -7   4    1.70    0.31
   2  -7   4    1.79    0.39
   6   6  -4    4.08    0.70
   6   6  -4    4.11    0.45
  -6  -6   4    3.88    0.54
   5   6  -4    0.32    0.37
  -5  -6   4    0.39    0.33
   4   6  -4    7.89    0.68
  -4  -6   4    7.77    1.17
  -4  -6   4    7.66    0.74
  -4  -6   4    7.76    0.68
  -4  -6   4    7.33    0.84
   3   6  -4    1.24    0.30
  -3  -6   4    0.58    0.26
  -3  -6   4    0.67    0.35
  -3  -6   4    1.18    0.38
  -3  -6   4    0.99    0.36
   2   6  -4    0.87    0.21
  -2  -6   4    0.31    0.31
  -2  -6   4    0.09    0.15
  -2  -6   4    0.26    0.29
  -2  -6   4    0.32    0.25
  -1  -6   4    2.02    0.40
  -1  -6   4    2.37    0.55
  -1  -6   4    2.07    0.50
   0  -6   4    6.49    0.65
   0  -6   4    6.84    0.79
   0  -6   4    7.15    0.63
   0  -6   4    7.22    0.69
   0  -6   4    7.28    0.75
   0  -6   4    6.49    0.81
   1  -6   4   14.61    1.07
   1  -6   4   17.97    1.11
   1  -6   4   15.48    1.13
   1  -6   4   14.13    0.96
   1  -6   4   14.89    0.92
   2  -6   4    1.29    0.36
   3  -6   4    1.40    0.32
  -7  -5   4   -0.02    0.14
   6   5  -4    0.61    0.20
   6   5  -4    0.48    0.25
  -6  -5   4    0.58    0.30
  -6  -5   4    0.22    0.14
   5   5  -4    0.39    0.25
   5   5  -4    0.57    0.42
  -5  -5   4    0.61    0.31
  -5  -5   4    0.72    0.22
   4   5  -4    0.16    0.50
   4   5  -4    0.89    0.30
  -4  -5   4    0.53    0.40
  -4  -5   4    0.72    0.23
  -4  -5   4    0.77    0.34
  -3  -5   4    3.39    0.59
  -3  -5   4    2.77    0.57
  -3  -5   4    3.02    0.46
  -3  -5   4    2.79    0.57
  -2  -5   4   20.39    1.78
  -2  -5   4   21.51    1.12
  -1  -5   4   18.64    1.18
   0  -5   4    1.22    0.37
   0  -5   4    1.01    0.28
   0  -5   4    1.42    0.41
   0  -5   4    0.78    0.34
   1  -5   4   13.27    0.90
   1  -5   4   13.95    0.94
   1  -5   4   11.13    0.93
   1  -5   4   13.79    1.00
   1  -5   4   12.72    0.84
   2  -5   4    6.71    0.73
   2  -5   4    8.08    0.74
   3  -5   4    0.22    0.19
   3  -5   4    0.30    0.24
   4  -5   4    0.23    0.20
   4  -5   4    0.47    0.20
   7   4  -4    0.64    0.27
  -7  -4   4    0.92    0.20
  -7  -4   4    0.38    0.23
   6   4  -4    0.10    0.28
   6   4  -4    0.09    0.16
  -6  -4   4    0.14    0.14
  -6  -4   4    0.22    0.25
  -6  -4   4   -0.32    0.15
   5   4  -4   14.71    1.32
   5   4  -4   14.63    0.93
  -5  -4   4   13.30    0.89
  -5  -4   4   14.84    0.85
  -5  -4   4   15.45    1.26
   4   4  -4   13.88    0.89
   4   4  -4   13.43    1.21
  -4  -4   4   12.93    0.90
  -4  -4   4   13.34    1.07
  -4  -4   4   12.87    0.76
  -4  -4   4   12.97    1.13
  -3  -4   4   -0.02    0.13
  -2  -4   4   94.54    3.23
  -1  -4   4  124.24    3.87
  -1  -4   4  121.77    3.63
   0  -4   4    3.50    0.42
   0  -4   4    3.79    0.41
   1  -4   4   24.37    1.14
   1  -4   4   24.46    1.17
   2  -4   4   25.66    1.40
   2  -4   4   26.65    1.40
   2  -4   4   26.06    1.41
   3  -4   4    1.12    0.36
   3  -4   4    1.22    0.37
   3  -4   4    0.51    0.30
   3  -4   4    0.95    0.33
   4  -4   4    6.18    0.66
   4  -4   4    5.30    0.65
   5  -4   4    0.42    0.21
   5  -4   4    0.17    0.16
   7   3  -4    4.09    0.50
  -7  -3   4    3.61    0.35
  -7  -3   4    4.02    0.30
   6   3  -4    0.72    0.24
   6   3  -4   -0.23    0.33
  -6  -3   4    0.04    0.26
  -6  -3   4    0.30    0.18
   5   3  -4    0.34    0.39
   5   3  -4   -0.31    0.14
  -5  -3   4   -0.21    0.19
  -5  -3   4    0.61    0.35
  -5  -3   4    0.06    0.15
   4   3  -4    6.83    0.64
   4   3  -4    6.60    0.83
  -4  -3   4    8.03    0.84
  -4  -3   4    8.24    0.78
  -4  -3   4    8.24    0.60
  -3  -3   4   85.72    2.97
   2   3  -4    4.10    1.13
   2   3  -4    2.95    0.16
  -2  -3   4    3.43    1.19
  -2  -3   4    4.41    0.46
   1   3  -4   48.21    2.93
  -1  -3   4   40.56    1.62
  -1  -3   4   45.49    2.77
  -1  -3   4   45.16    1.50
   0   3  -4   15.01    1.39
   0  -3   4   15.04    0.75
   0  -3   4   13.69    1.70
   0  -3   4   13.98    0.69
  -1   3  -4  107.81    3.79
   1  -3   4  101.20    3.19
   1  -3   4   98.72    3.04
   2  -3   4   82.39    2.67
   3  -3   4   20.68    1.23
   3  -3   4   21.72    1.16
   3  -3   4   22.23    1.26
   3  -3   4   20.29    1.27
   4  -3   4    1.16    0.41
   4  -3   4    0.32    0.29
   5  -3   4    0.28    0.20
   5  -3   4    0.15    0.22
   7   2  -4    0.07    0.20
  -7  -2   4    0.19    0.13
  -7  -2   4    0.37    0.15
   6   2  -4   56.33    2.56
  -6  -2   4   58.74    2.04
   5   2  -4    9.38    0.69
   5   2  -4    9.30    0.80
   5   2  -4    8.48    0.98
  -5  -2   4   10.11    1.03
  -5  -2   4    9.30    0.70
  -5  -2   4    9.51    1.01
   4   2  -4   10.35    0.71
   4   2  -4   10.28    1.01
  -4  -2   4   11.33    0.70
  -4  -2   4   11.08    0.98
   3   2  -4    1.07    1.12
  -3  -2   4    1.81    0.98
   2   2  -4  354.64    9.14
   2   2  -4  370.81   12.41
  -2  -2   4  332.84   14.06
   1   2  -4   62.24    3.28
  -1  -2   4   64.17    1.87
  -1  -2   4   65.09    3.27
   0   2  -4   81.83    3.51
   0  -2   4   83.08    2.42
   0  -2   4   82.58    3.49
   0  -2   4   82.49    2.36
  -1   2  -4  282.22    8.96
  -1   2  -4  298.60    9.12
   1  -2   4  302.16    7.56
   1  -2   4  281.98    7.64
  -2   2  -4   29.66    2.87
   2  -2   4   37.13    1.32
   3  -2   4    5.33    0.49
   3  -2   4    3.77    0.47
  -4   2  -4    0.10    0.24
   4  -2   4    1.05    0.39
   4  -2   4    0.22    0.23
  -5   2  -4   15.27    0.84
   5  -2   4   15.91    1.38
   5  -2   4   17.31    1.04
   6  -2   4    0.92    0.26
   6  -2   4    0.62    0.19
   6   1  -4    0.19    0.29
  -6  -1   4    0.40    0.17
   5   1  -4   50.64    2.17
   5   1  -4   48.14    1.93
   5   1  -4   48.38    2.41
  -5  -1   4   48.24    1.89
   4   1  -4    1.34    0.33
   4   1  -4    1.57    0.37
   4   1  -4    1.67    0.30
   4   1  -4    0.51    0.39
   4   1  -4    1.04    0.33
  -4  -1   4    1.01    0.24
   3   1  -4    0.76    0.22
   3   1  -4    0.66    0.17
   3   1  -4   -0.51    1.01
  -3  -1   4    1.18    0.92
   2   1  -4   65.35    2.14
   2   1  -4   58.55    3.73
  -2  -1   4   65.74    3.74
   1   1  -4  241.16    8.27
  -1  -1   4  258.71    8.23
   0   1  -4   18.05    1.35
   0  -1   4   18.77    1.36
   0  -1   4   17.30    0.61
  -1   1  -4  283.13    8.82
  -1   1  -4  275.79    8.84
  -2   1  -4   11.05    1.36
   2  -1   4   13.16    0.62
   3  -1   4    9.37    0.61
  -4   1  -4    1.38    0.34
   4  -1   4    1.83    0.37
   4  -1   4    1.17    0.29
   4  -1   4    1.47    0.47
  -5   1  -4    1.33    0.32
   5  -1   4    1.74    0.41
   5  -1   4    2.06    0.49
   5  -1   4    1.73    0.49
  -6   1  -4    6.86    0.50
   6  -1   4    7.67    0.52
   6  -1   4    5.47    0.65
   6   0  -4    7.11    0.59
  -6   0   4    7.86    0.60
   5   0  -4    2.56    0.56
   5   0  -4    2.53    0.59
   5   0  -4    2.55    0.48
  -5   0   4    2.70    0.41
   4   0  -4    0.55    0.37
   4   0  -4    1.18    0.34
   4   0  -4    1.78    0.41
   4   0  -4    1.20    0.48
  -4   0   4    1.36    0.26
   3   0  -4   39.45    1.70
   2   0  -4    1.13    0.12
   2   0  -4    1.16    0.26
   2   0  -4   -0.04    0.59
  -2   0   4    1.43    0.61
   1   0  -4   85.34    3.78
   1   0  -4   84.62    2.45
  -1   0   4   80.60    3.57
   0   0  -4    0.28    0.25
   0   0   4    0.70    0.29
  -1   0  -4   12.41    1.20
  -1   0  -4   11.84    1.15
   1   0   4   11.91    0.43
   1   0   4   11.75    0.48
  -2   0  -4   26.38    2.07
  -2   0  -4   25.26    2.05
   2   0   4   24.94    0.93
  -3   0  -4   67.25    4.41
   3   0   4   66.91    2.17
  -4   0  -4   16.83    0.92
   4   0   4   15.09    1.20
   4   0   4   16.51    0.94
  -5   0  -4    0.21    0.18
   5   0   4   -0.07    0.28
   5   0   4    0.18    0.21
   5   0   4    0.07    0.27
  -6   0  -4    4.03    0.43
   6   0   4    5.11    0.65
   6   0   4    3.67    0.62
   6  -1  -4    0.13    0.16
  -6   1   4   -0.21    0.09
   5  -1  -4    5.59    0.62
   5  -1  -4    5.72    0.71
   5  -1  -4    6.52    0.64
  -5   1   4    6.43    0.53
   4  -1  -4    1.08    0.39
   4  -1  -4    0.71    0.32
   4  -1  -4    0.86    0.39
   4  -1  -4    0.76    0.33
  -4   1   4    1.12    0.25
   3  -1  -4    5.99    0.66
   2  -1  -4   35.39    2.70
   2  -1  -4   35.63    1.49
  -2   1   4   34.10    2.51
   1  -1  -4   67.78    3.24
   1  -1  -4   64.89    2.12
  -1   1   4   68.46    3.12
  -1  -1  -4    1.06    0.37
  -1  -1  -4    0.47    0.28
  -1  -1  -4    0.75    0.16
  -2  -1  -4    8.90    0.39
  -2  -1  -4   10.14    1.28
  -2  -1  -4    8.61    1.25
  -3  -1  -4  160.08    7.53
  -3  -1  -4  154.13    4.02
   3   1   4  144.85    4.28
   4   1   4   32.77    1.41
   4   1   4   33.56    1.88
  -5  -1  -4    1.38    0.42
   5   1   4    1.64    0.36
  -6  -1  -4    0.83    0.28
   6   1   4    0.93    0.37
  -7  -1  -4    0.67    0.17
   7   1   4    1.21    0.30
   7   1   4    0.70    0.25
   5  -2  -4    0.08    0.21
   5  -2  -4    0.01    0.23
   4  -2  -4    0.79    0.36
   4  -2  -4    1.19    0.40
   4  -2  -4    1.01    0.34
  -4   2   4    0.35    0.18
   3  -2  -4    2.27    0.51
   3  -2  -4    2.06    0.53
   3  -2  -4    2.09    0.41
   3  -2  -4    3.05    0.48
   2  -2  -4  374.60   12.07
   2  -2  -4  383.23   10.29
  -2   2   4  355.39   11.74
   1  -2  -4   34.55    2.09
   1  -2  -4   34.43    1.40
  -1   2   4   34.52    2.05
   0  -2  -4   35.00    1.97
   0  -2  -4   34.91    1.33
   0  -2  -4   33.41    1.23
   0   2   4   33.53    1.96
  -1  -2  -4   67.23    2.10
  -1  -2  -4   66.26    3.31
  -1  -2  -4   68.61    2.02
  -2  -2  -4  665.52   19.78
  -2  -2  -4  658.78   19.68
  -3  -2  -4   53.44    4.12
   3   2   4   56.74    4.20
   4   2   4   12.41    0.78
  -5  -2  -4   11.63    0.83
  -5  -2  -4   13.44    1.22
   5   2   4   11.34    0.76
   5   2   4   11.25    0.86
   5   2   4   11.94    1.22
  -6  -2  -4   16.73    1.29
  -6  -2  -4   16.07    1.27
  -7  -2  -4   -0.02    0.14
   7   2   4    0.24    0.21
   5  -3  -4    1.81    0.36
   5  -3  -4    1.77    0.38
   4  -3  -4   -0.05    0.23
   4  -3  -4    0.13    0.24
   3  -3  -4    4.62    0.58
   3  -3  -4    5.96    0.71
   3  -3  -4    4.67    0.81
   2  -3  -4    9.44    0.71
   2  -3  -4    9.93    0.89
   2  -3  -4    9.82    0.84
   1  -3  -4 1000.00   25.71
   0  -3  -4  152.96    5.24
   0  -3  -4  143.70    4.51
   0  -3  -4  160.60    4.43
  -1  -3  -4   55.28    2.97
  -1  -3  -4   53.72    2.98
  -1  -3  -4   55.38    1.94
  -1  -3  -4   51.98    1.73
  -2  -3  -4   90.89    2.60
  -2  -3  -4   95.98    4.89
  -2  -3  -4   90.02    4.73
  -2  -3  -4   87.26    2.83
  -3  -3  -4  265.79    7.34
  -3  -3  -4  270.06   11.20
  -4  -3  -4    1.38    0.33
  -4  -3  -4    1.58    0.32
   4   3   4    1.23    0.28
  -5  -3  -4    7.74    0.89
  -5  -3  -4    8.19    0.68
   5   3   4    8.08    0.66
   5   3   4    7.49    1.00
   5   3   4    9.08    0.76
  -6  -3  -4    8.75    0.93
  -6  -3  -4    6.94    0.62
   6   3   4    5.96    0.87
  -7  -3  -4    6.27    0.48
   7   3   4    7.02    0.74
   7   3   4    7.15    0.58
   4  -4  -4    2.75    0.55
   4  -4  -4    2.48    0.46
   3  -4  -4    1.17    0.41
   3  -4  -4    0.34    0.26
   2  -4  -4    2.27    0.53
   2  -4  -4    3.58    0.44
   2  -4  -4    2.20    0.59
   2  -4  -4    2.86    0.51
   1  -4  -4   31.13    1.59
   1  -4  -4   27.50    1.69
   0  -4  -4  161.15    4.96
   0  -4  -4  173.94    5.22
  -1  -4  -4   10.09    1.93
  -1  -4  -4    8.32    0.71
  -1  -4  -4    8.10    0.56
  -2  -4  -4    0.14    0.15
  -2  -4  -4   -0.32    0.97
  -2  -4  -4    0.15    0.11
  -3  -4  -4   15.64    0.96
  -4  -4  -4   15.02    1.23
  -4  -4  -4   15.24    0.85
  -4  -4  -4   16.44    1.03
   4   4   4   15.24    0.91
   4   4   4   11.39    1.34
  -5  -4  -4    1.38    0.53
  -5  -4  -4    1.22    0.31
   5   4   4    1.61    0.34
  -6  -4  -4    5.54    0.58
  -6  -4  -4    5.10    0.74
   6   4   4    6.20    0.83
   6   4   4    5.26    0.51
  -7  -4  -4   -0.06    0.11
   7   4   4    0.38    0.16
   7   4   4    0.10    0.18
   4  -5  -4   -0.28    0.16
   4  -5  -4   -0.31    0.18
   3  -5  -4    0.41    0.28
   3  -5  -4    1.00    0.34
   2  -5  -4    0.49    0.22
   2  -5  -4    0.68    0.36
   2  -5  -4    0.11    0.23
   1  -5  -4   14.86    1.03
   1  -5  -4   15.84    1.13
   1  -5  -4   14.62    1.11
   1  -5  -4   14.25    0.95
   1  -5  -4   16.74    1.24
   1  -5  -4   14.26    0.93
   0  -5  -4    1.54    0.38
   0  -5  -4    2.20    0.48
   0  -5  -4    1.82    0.46
   0  -5  -4    1.50    0.37
   0  -5  -4    1.90    0.49
  -1  -5  -4    1.26    0.42
  -2  -5  -4    8.84    0.83
  -3  -5  -4    4.79    0.64
  -3  -5  -4    4.71    0.68
  -3  -5  -4    4.95    0.56
   3   5   4    4.70    0.53
  -4  -5  -4    4.95    0.71
  -4  -5  -4    4.26    0.70
  -4  -5  -4    5.44    0.53
   4   5   4    5.01    0.53
  -5  -5  -4    0.03    0.30
  -5  -5  -4    0.12    0.16
   5   5   4    0.72    0.43
   5   5   4    0.15    0.15
  -6  -5  -4    0.67    0.18
  -6  -5  -4    1.20    0.47
   6   5   4    0.80    0.39
   6   5   4    0.81    0.42
  -7  -5  -4    0.73    0.27
   7   5   4    0.87    0.35
   7   5   4    0.74    0.16
   3  -6  -4    0.10    0.21
   3  -6  -4   -0.10    0.16
   2  -6  -4   -0.01    0.20
   2  -6  -4    0.54    0.18
   2  -6  -4    0.39    0.30
   1  -6  -4    5.87    0.69
   1  -6  -4    5.89    0.60
   1  -6  -4    6.70    0.70
   1  -6  -4    7.33    0.79
   1  -6  -4    6.27    0.62
   0  -6  -4   -0.18    0.21
   0  -6  -4    0.39    0.42
   0  -6  -4    0.13    0.27
   0  -6  -4    0.32    0.35
   0  -6  -4    0.32    0.26
   0  -6  -4   -0.15    0.23
  -1  -6  -4    2.33    0.54
  -1  -6  -4    1.57    0.50
  -1  -6  -4    2.13    0.39
  -1  -6  -4    2.01    0.43
  -1  -6  -4    2.22    0.56
  -2  -6  -4    4.72    0.81
  -2  -6  -4    3.95    0.49
  -2  -6  -4    4.51    0.58
  -2  -6  -4    4.96    0.66
  -3  -6  -4    3.10    0.53
  -3  -6  -4    3.58    0.70
  -3  -6  -4    2.81    0.53
  -3  -6  -4    3.13    0.65
   3   6   4    2.86    0.44
  -4  -6  -4    1.04    0.42
  -4  -6  -4    0.59    0.34
  -4  -6  -4    0.44    0.35
  -4  -6  -4    0.28    0.39
   4   6   4    0.39    0.23
  -5  -6  -4    3.16    0.68
   5   6   4    2.79    0.46
  -6  -6  -4    0.51    0.32
   6   6   4    0.72    0.24
  -7  -6  -4    0.34    0.21
   7   6   4    0.04    0.21
   7   6   4   -0.13    0.12
   2  -7  -4    0.83    0.29
   2  -7  -4    0.82    0.21
   1  -7  -4    0.06    0.21
   1  -7  -4    0.20    0.18
   1  -7  -4    0.46    0.27
   0  -7  -4    1.59    0.37
   0  -7  -4    2.09    0.41
   0  -7  -4    1.69    0.49
   0  -7  -4    1.33    0.39
  -1  -7  -4    1.99    0.48
  -1  -7  -4    1.78    0.53
  -1  -7  -4    0.75    0.34
  -1  -7  -4    0.84    0.33
  -2  -7  -4   -0.28    0.15
  -2  -7  -4    0.23    0.29
  -2  -7  -4    0.08    0.29
  -2  -7  -4   -0.34    0.28
  -3  -7  -4   43.58    1.86
  -3  -7  -4   40.28    1.67
  -3  -7  -4   40.92    2.08
   3   7   4   42.78    1.72
  -4  -7  -4    0.00    0.19
  -4  -7  -4    0.62    0.30
  -4  -7  -4    0.24    0.32
   4   7   4    0.36    0.20
  -5  -7  -4   -0.18    0.20
   5   7   4    0.04    0.16
  -6  -7  -4    2.10    0.51
   6   7   4    1.55    0.35
   1  -8  -4    0.35    0.13
   1  -8  -4    0.65    0.21
   0  -8  -4    2.46    0.46
   0  -8  -4    3.17    0.38
   0  -8  -4    3.01    0.66
  -1  -8  -4   -0.15    0.22
  -1  -8  -4    0.14    0.16
  -2  -8  -4    1.56    0.49
  -2  -8  -4    1.00    0.29
  -3  -8  -4    1.09    0.44
  -3  -8  -4    1.14    0.30
  -4  -8  -4   44.24    1.92
  -4  -8  -4   41.61    1.71
   4   8   4   43.73    1.65
  -5  -8  -4    2.88    0.34
   5   8   4    2.09    0.39
  -6  -8  -4    0.07    0.11
  -1  -9  -4    0.92    0.21
  -1  -9  -4    1.55    0.30
  -2  -9  -4    0.00    0.12
  -2  -9  -4    0.12    0.22
  -3  -9  -4    4.45    0.45
  -3  -9  -4    4.96    0.54
  -4  -9  -4    6.16    0.52
  -4  -9  -4    5.28    0.43
   5   9   4    1.27    0.20
   4   9  -5    0.62    0.26
  -4  -9   5    0.77    0.16
  -3  -9   5    0.11    0.12
  -3  -9   5    0.32    0.24
  -2  -9   5    0.09    0.14
  -2  -9   5    0.40    0.26
  -1  -9   5    1.18    0.27
  -1  -9   5    1.32    0.33
   5   8  -5    0.22    0.14
  -5  -8   5    0.17    0.17
  -5  -8   5    0.15    0.13
   4   8  -5    0.22    0.20
  -4  -8   5    0.05    0.17
  -4  -8   5    0.29    0.15
  -3  -8   5    2.97    0.48
  -3  -8   5    2.58    0.43
  -3  -8   5    3.36    0.57
  -2  -8   5    0.17    0.25
  -2  -8   5    0.16    0.21
  -2  -8   5    0.17    0.17
  -1  -8   5    4.33    0.60
  -1  -8   5    3.07    0.41
  -1  -8   5    3.51    0.57
   0  -8   5    2.14    0.43
   0  -8   5    1.72    0.41
   0  -8   5    1.52    0.26
   1  -8   5    7.23    0.83
   1  -8   5    7.46    0.63
   6   7  -5    0.52    0.16
  -6  -7   5    0.62    0.20
   5   7  -5    0.43    0.22
   4   7  -5    7.49    0.64
  -4  -7   5    7.07    0.73
  -4  -7   5    8.74    0.74
   3   7  -5    0.83    0.25
  -3  -7   5    0.59    0.31
  -3  -7   5    1.04    0.35
  -3  -7   5    0.12    0.20
  -2  -7   5    5.86    0.74
  -2  -7   5    4.58    0.54
  -1  -7   5    0.34    0.20
  -1  -7   5   -0.20    0.25
  -1  -7   5    0.35    0.23
   0  -7   5    3.94    0.66
   0  -7   5    4.19    0.49
   0  -7   5    4.47    0.63
   1  -7   5    8.69    0.82
   1  -7   5    7.98    0.63
   1  -7   5    9.49    0.79
   2  -7   5    2.86    0.59
   2  -7   5    3.76    0.39
   6   6  -5   -0.25    0.23
  -6  -6   5   -0.07    0.17
   5   6  -5    1.89    0.38
   5   6  -5    2.14    0.58
  -5  -6   5    2.23    0.55
   4   6  -5    1.71    0.36
  -4  -6   5    1.40    0.39
  -4  -6   5    1.93    0.52
   3   6  -5    0.68    0.37
  -3  -6   5    0.24    0.45
  -3  -6   5    0.35    0.24
  -3  -6   5    0.62    0.33
   2   6  -5    0.96    0.27
  -2  -6   5    0.31    0.31
  -2  -6   5    0.17    0.22
  -2  -6   5    0.72    0.25
  -2  -6   5   -0.06    0.27
  -1  -6   5    3.19    0.49
  -1  -6   5    2.60    0.58
  -1  -6   5    3.44    0.63
   0  -6   5    7.13    0.93
   0  -6   5    5.20    0.61
   0  -6   5    5.11    0.87
   0  -6   5    5.89    0.55
   0  -6   5    5.37    0.65
   1  -6   5    0.15    0.24
   1  -6   5    0.06    0.23
   1  -6   5    0.18    0.19
   2  -6   5    7.13    0.65
   2  -6   5    5.91    0.70
   3  -6   5   -0.15    0.18
   6   5  -5    0.64    0.38
   6   5  -5    0.34    0.16
  -6  -5   5    0.54    0.29
  -6  -5   5    0.11    0.14
   5   5  -5    6.27    0.85
   5   5  -5    4.50    0.52
  -5  -5   5    4.22    0.66
  -5  -5   5    4.64    0.82
  -5  -5   5    4.53    0.50
   4   5  -5    0.11    0.15
   4   5  -5   -0.24    0.41
  -4  -5   5    0.04    0.36
  -4  -5   5   -0.27    0.15
  -4  -5   5    0.09    0.25
  -4  -5   5    0.09    0.24
   3   5  -5    6.87    0.58
  -3  -5   5    8.19    0.81
  -3  -5   5    6.13    0.65
  -3  -5   5    7.43    0.80
  -3  -5   5    7.89    0.65
  -2  -5   5   11.58    0.97
  -2  -5   5   10.64    0.90
  -2  -5   5   12.03    0.81
  -2  -5   5   12.82    0.93
  -1  -5   5   -0.23    0.25
  -1  -5   5   -0.15    0.14
  -1  -5   5    0.03    0.18
   0  -5   5    1.25    0.37
   0  -5   5    1.76    0.35
   0  -5   5    1.49    0.33
   1  -5   5   -0.39    0.19
   1  -5   5   -0.09    0.16
   1  -5   5    0.53    0.23
   1  -5   5   -0.04    0.24
   2  -5   5    0.09    0.18
   2  -5   5    0.09    0.20
   2  -5   5   -0.09    0.24
   3  -5   5   -0.10    0.16
   3  -5   5   -0.04    0.24
   3  -5   5    0.33    0.24
   4  -5   5    3.15    0.67
   4  -5   5    2.26    0.56
   6   4  -5    4.18    0.76
   6   4  -5    4.30    0.40
  -6  -4   5    4.45    0.43
  -6  -4   5    4.47    0.42
  -6  -4   5    4.56    0.64
   5   4  -5    1.37    0.34
   5   4  -5    2.63    0.65
  -5  -4   5    2.12    0.58
  -5  -4   5    1.33    0.34
  -5  -4   5    2.07    0.36
   4   4  -5    0.21    0.19
   4   4  -5    1.07    0.40
  -4  -4   5   -0.15    0.14
  -4  -4   5   -0.03    0.34
  -4  -4   5   -0.23    0.20
  -4  -4   5    0.12    0.26
   3   4  -5    9.25    0.66
  -3  -4   5    9.26    0.88
  -3  -4   5    9.76    0.84
  -3  -4   5    9.80    0.69
  -2  -4   5   30.88    1.52
  -1  -4   5   39.15    1.48
  -1  -4   5   37.15    1.64
   0  -4   5    6.72    0.58
   0  -4   5    7.35    0.56
   2  -4   5    4.56    0.57
   2  -4   5    4.97    0.59
   2  -4   5    4.27    0.71
   3  -4   5    1.59    0.43
   3  -4   5    1.40    0.44
   3  -4   5    1.98    0.41
   3  -4   5    1.41    0.40
   4  -4   5    3.33    0.58
   4  -4   5    3.40    0.48
   5  -4   5    4.01    0.40
   6   3  -5    5.44    0.78
  -6  -3   5    6.30    0.54
  -6  -3   5    5.43    0.48
  -6  -3   5    4.95    0.69
   5   3  -5    2.53    0.68
   5   3  -5    1.94    0.34
  -5  -3   5    2.16    0.38
  -5  -3   5    2.58    0.62
   4   3  -5    4.80    0.68
   4   3  -5    4.24    0.47
  -4  -3   5    3.68    0.65
  -4  -3   5    4.00    0.41
  -4  -3   5    4.00    0.74
  -3  -3   5   51.29    2.09
   2   3  -5    0.80    0.78
   2   3  -5    1.69    0.18
  -2  -3   5    1.40    0.90
  -2  -3   5    2.04    0.38
   1   3  -5    5.82    1.01
  -1  -3   5    6.84    0.45
  -1  -3   5    5.46    0.51
  -1  -3   5    7.86    1.27
   0   3  -5   16.46    1.60
   0  -3   5   16.64    0.78
   0  -3   5   17.38    1.65
   0  -3   5   16.50    0.82
  -1   3  -5   51.23    2.82
   1  -3   5   50.73    1.68
   2  -3   5    3.39    0.40
   3  -3   5   10.13    0.83
   3  -3   5    8.56    0.78
   3  -3   5    9.13    0.73
   3  -3   5    9.95    0.86
   4  -3   5    3.03    0.54
   4  -3   5    2.79    0.57
   5  -3   5    4.57    0.54
   5  -3   5    4.23    0.50
   6   2  -5    5.34    0.73
  -6  -2   5    4.69    0.46
   5   2  -5    5.14    0.52
   5   2  -5    5.84    0.85
  -5  -2   5    6.60    0.87
  -5  -2   5    6.18    0.55
   4   2  -5   -0.17    0.23
   4   2  -5    0.52    0.35
   4   2  -5    0.46    0.21
  -4  -2   5    0.31    0.17
   3   2  -5   65.88    5.55
  -3  -2   5   69.49    5.16
   2   2  -5  215.73    9.04
   2   2  -5  221.62    5.91
  -2  -2   5  225.02    8.94
   1   2  -5   82.11    4.16
  -1  -2   5   75.26    3.91
   0   2  -5   95.08    4.19
   0  -2   5   88.91    2.62
   0  -2   5   91.45    2.69
   0  -2   5   94.73    4.11
  -1   2  -5  167.14    6.26
   1  -2   5  159.07    4.44
   1  -2   5  159.79    4.28
  -2   2  -5   62.95    3.65
   2  -2   5   65.10    2.11
   3  -2   5   10.75    0.80
   3  -2   5    9.03    0.67
  -4   2  -5    0.18    0.21
   4  -2   5   -0.30    0.33
   4  -2   5    0.47    0.24
   4  -2   5   -0.09    0.27
   4  -2   5   -0.02    0.20
  -5   2  -5    9.78    0.63
   5  -2   5    9.22    0.76
   5  -2   5    8.57    0.88
   6  -2   5    0.00    0.17
   6   1  -5    3.64    0.62
  -6  -1   5    4.29    0.41
   5   1  -5    6.34    0.85
   5   1  -5    6.37    0.63
   5   1  -5    6.78    0.71
  -5  -1   5    6.13    0.56
   4   1  -5    5.59    0.63
   4   1  -5    3.47    0.59
   4   1  -5    4.38    0.84
   4   1  -5    3.87    0.49
  -4  -1   5    5.19    0.49
   3   1  -5   11.66    0.76
   2   1  -5   41.38    1.50
   2   1  -5   44.94    3.34
  -2  -1   5   43.20    3.06
   1   1  -5   32.32    1.15
   1   1  -5   33.72    2.39
  -1  -1   5   33.59    2.30
   0   1  -5    2.72    0.72
   0  -1   5    2.83    0.21
   0  -1   5    2.12    0.54
  -1   1  -5   38.99    2.42
   1  -1   5   39.58    1.07
   1  -1   5   39.56    1.26
  -2   1  -5    3.59    1.06
  -2   1  -5    2.07    0.70
   2  -1   5    3.52    0.31
   3  -1   5    7.98    0.57
  -4   1  -5   10.57    0.73
   4  -1   5   10.39    0.99
   4  -1   5    9.86    0.78
   4  -1   5   11.94    0.80
  -5   1  -5    2.29    0.38
   5  -1   5    2.41    0.58
   5  -1   5    2.99    0.51
   5  -1   5    3.05    0.60
  -6   1  -5    1.84    0.28
   6  -1   5    2.65    0.48
   6  -1   5    3.02    0.36
   6   0  -5    6.28    0.52
  -6   0   5    6.17    0.44
   5   0  -5    0.00    0.23
   5   0  -5    0.09    0.27
   5   0  -5   -0.04    0.24
  -5   0   5    0.09    0.14
   4   0  -5    0.88    0.30
   4   0  -5    0.50    0.25
   4   0  -5    0.30    0.30
   4   0  -5    0.68    0.37
  -4   0   5    0.56    0.23
   3   0  -5    0.00    0.16
   2   0  -5   29.70    1.27
   2   0  -5   29.05    2.66
  -2   0   5   31.77    2.59
   1   0  -5   30.39    2.28
   1   0  -5   28.88    1.11
   0   0  -5  104.65    4.36
   0   0   5  103.35    4.27
   0   0   5  108.48    2.76
  -1   0  -5    7.34    1.00
   1   0   5    7.87    0.38
  -2   0  -5   22.98    2.13
  -2   0  -5   19.28    1.88
   2   0   5   21.00    0.84
  -3   0  -5   19.70    2.49
   3   0   5   17.33    0.86
  -4   0  -5    0.13    0.16
   4   0   5    0.60    0.34
   4   0   5    1.24    0.26
   4   0   5    0.57    0.24
  -5   0  -5    0.02    0.15
   5   0   5    0.51    0.36
   5   0   5   -0.03    0.22
   5   0   5   -0.07    0.20
  -6   0  -5    3.39    0.40
   6   0   5    2.60    0.54
   6   0   5    2.46    0.52
   6  -1  -5    0.25    0.17
  -6   1   5   -0.03    0.08
   5  -1  -5    0.97    0.35
   5  -1  -5    1.38    0.38
   5  -1  -5    1.19    0.34
  -5   1   5    0.73    0.21
   4  -1  -5    0.84    0.32
   4  -1  -5    0.98    0.42
   4  -1  -5    0.94    0.39
   4  -1  -5   -0.05    0.30
   3  -1  -5    0.93    0.29
   3  -1  -5    1.31    0.35
   3  -1  -5    1.21    0.35
   3  -1  -5    0.31    0.35
   2  -1  -5    5.26    1.99
   2  -1  -5    7.03    0.63
  -2   1   5    8.81    1.44
   1  -1  -5   14.73    0.78
   1  -1  -5   13.62    1.41
  -1   1   5   14.97    1.39
   0  -1  -5  320.65    9.99
   0   1   5  311.49    9.87
  -1  -1  -5    1.63    0.22
  -1  -1  -5    2.55    0.68
  -1  -1  -5    3.17    0.79
  -2  -1  -5   10.38    1.47
  -2  -1  -5   10.19    0.42
  -2  -1  -5    9.48    1.33
  -3  -1  -5    2.56    1.03
  -3  -1  -5   -0.14    0.49
   3   1   5    0.24    0.17
  -4  -1  -5    0.58    0.20
   4   1   5    0.19    0.18
   4   1   5    0.51    0.34
  -5  -1  -5    0.11    0.18
   5   1   5    0.95    0.45
   5   1   5    0.43    0.19
  -6  -1  -5    0.96    0.27
   6   1   5    0.92    0.45
  -7  -1  -5    0.18    0.12
   7   1   5   -0.05    0.15
   5  -2  -5    0.25    0.25
   5  -2  -5   -0.24    0.18
  -5   2   5    0.09    0.14
   4  -2  -5    0.81    0.36
   4  -2  -5    0.39    0.33
   4  -2  -5    0.78    0.33
  -4   2   5    1.37    0.24
   3  -2  -5    1.75    0.51
   3  -2  -5    1.60    0.39
   3  -2  -5    1.97    0.47
   3  -2  -5    1.44    0.39
   3  -2  -5    1.50    0.38
   2  -2  -5   56.75    2.29
   1  -2  -5    0.26    0.32
   1  -2  -5    0.40    0.22
  -1   2   5    0.40    0.32
   0  -2  -5    6.40    0.55
   0  -2  -5    6.82    0.48
   0  -2  -5    8.90    1.02
   0   2   5    7.71    0.99
  -1  -2  -5    0.59    0.19
  -1  -2  -5    0.99    0.37
  -1  -2  -5    0.76    0.19
  -1  -2  -5    0.73    0.33
  -2  -2  -5   11.76    0.61
  -2  -2  -5   13.49    1.59
  -2  -2  -5   12.58    1.60
  -3  -2  -5    0.87    0.17
  -3  -2  -5    0.48    0.82
  -3  -2  -5   -0.22    0.92
  -4  -2  -5    0.27    0.15
   4   2   5   -0.11    0.14
   4   2   5   -0.28    0.13
   4   2   5    0.08    0.23
  -5  -2  -5   10.55    1.07
   5   2   5    8.18    0.73
   5   2   5    8.01    0.66
   5   2   5    8.88    1.50
  -6  -2  -5   12.40    1.13
  -6  -2  -5    9.18    1.04
  -7  -2  -5    0.05    0.12
   7   2   5    0.29    0.17
   7   2   5    0.49    0.35
   5  -3  -5    0.32    0.23
   5  -3  -5    0.40    0.22
   4  -3  -5    2.77    0.53
   4  -3  -5    2.16    0.53
   3  -3  -5    6.69    0.79
   3  -3  -5    6.80    0.68
   3  -3  -5    7.16    0.67
   3  -3  -5    6.69    0.85
   2  -3  -5    6.19    0.72
   2  -3  -5    5.88    0.57
   1  -3  -5    7.55    0.70
   1  -3  -5    6.73    1.32
   0  -3  -5   11.95    0.85
   0  -3  -5   12.69    1.43
   0  -3  -5   13.43    0.79
  -1  -3  -5    1.12    0.30
  -1  -3  -5    1.31    0.25
  -1  -3  -5    1.00    0.52
  -2  -3  -5    3.65    1.04
  -2  -3  -5    3.55    0.33
  -2  -3  -5    3.26    0.99
  -2  -3  -5    3.78    0.41
  -3  -3  -5   32.98    3.66
  -3  -3  -5   36.75    1.46
  -4  -3  -5    1.38    0.31
  -4  -3  -5    1.56    0.33
  -4  -3  -5    1.27    0.42
   4   3   5    2.62    0.60
   4   3   5    1.92    0.34
  -5  -3  -5    0.28    0.31
   5   3   5   -0.06    0.19
   5   3   5   -0.22    0.43
   5   3   5    0.22    0.15
  -6  -3  -5    3.55    0.72
  -6  -3  -5    3.34    0.63
   6   3   5    3.14    0.37
  -7  -3  -5    5.65    0.45
   7   3   5    6.84    0.72
   7   3   5    6.91    0.59
   4  -4  -5    0.42    0.28
   4  -4  -5    0.96    0.32
   3  -4  -5    1.71    0.51
   3  -4  -5    2.07    0.45
   2  -4  -5   16.81    1.57
   2  -4  -5   17.64    1.06
   2  -4  -5   15.69    1.22
   2  -4  -5   18.29    1.08
   1  -4  -5   -0.12    0.17
   1  -4  -5    0.24    0.23
   1  -4  -5    0.10    0.23
   1  -4  -5    0.09    0.18
   1  -4  -5   -0.15    0.15
   0  -4  -5   16.57    1.00
   0  -4  -5   16.63    1.13
  -1  -4  -5    9.22    1.73
  -1  -4  -5    9.82    0.80
  -1  -4  -5    8.36    0.60
  -2  -4  -5    0.33    0.15
  -3  -4  -5    2.98    0.49
  -4  -4  -5    7.58    0.70
  -4  -4  -5    7.11    0.89
  -4  -4  -5    8.57    0.73
   4   4   5   10.23    1.03
   4   4   5    8.80    0.67
  -5  -4  -5    1.24    0.47
  -5  -4  -5    1.05    0.28
   5   4   5    1.17    0.28
   5   4   5    1.87    0.59
  -6  -4  -5    0.17    0.27
  -6  -4  -5    0.44    0.21
   6   4   5    0.48    0.41
   6   4   5    0.38    0.20
  -7  -4  -5   -0.21    0.09
  -7  -4  -5    0.15    0.20
   7   4   5    0.11    0.16
   7   4   5    0.33    0.24
   4  -5  -5    0.16    0.20
   3  -5  -5    0.37    0.23
   3  -5  -5    0.38    0.26
   2  -5  -5    0.88    0.37
   2  -5  -5    0.60    0.31
   2  -5  -5    0.77    0.25
   1  -5  -5   18.84    1.18
   1  -5  -5   18.63    1.30
   1  -5  -5   20.82    1.12
   1  -5  -5   19.11    1.28
   1  -5  -5   20.48    1.41
   1  -5  -5   19.32    1.14
   0  -5  -5    4.50    0.63
   0  -5  -5    4.92    0.56
   0  -5  -5    5.94    0.66
   0  -5  -5    5.46    0.63
   0  -5  -5    4.90    0.59
  -1  -5  -5    1.72    0.36
  -1  -5  -5    1.30    0.41
  -1  -5  -5    1.74    0.35
  -1  -5  -5    1.74    0.44
  -1  -5  -5    2.41    0.55
  -2  -5  -5    4.34    0.69
  -2  -5  -5    4.78    0.52
  -2  -5  -5    5.45    0.63
  -3  -5  -5    4.53    0.76
  -3  -5  -5    4.65    0.51
  -3  -5  -5    3.57    0.61
  -3  -5  -5    4.51    0.56
   3   5   5    5.15    0.50
  -4  -5  -5    0.98    0.44
  -4  -5  -5    0.28    0.25
  -4  -5  -5    0.72    0.34
  -4  -5  -5    0.36    0.30
   4   5   5    0.47    0.25
  -5  -5  -5    3.22    0.40
  -5  -5  -5    4.27    0.82
   5   5   5    3.68    0.83
   5   5   5    3.91    0.48
  -6  -5  -5   -0.09    0.22
  -6  -5  -5   -0.13    0.14
   6   5   5    0.37    0.28
   6   5   5    0.02    0.16
  -7  -5  -5   -0.09    0.10
  -7  -5  -5    0.02    0.15
   7   5   5   -0.12    0.16
   7   5   5   -0.06    0.09
   7   5   5   -0.11    0.20
   3  -6  -5   -0.04    0.21
   3  -6  -5    0.25    0.20
   2  -6  -5    0.66    0.34
   2  -6  -5    0.94    0.25
   2  -6  -5    0.68    0.27
   1  -6  -5    1.53    0.40
   1  -6  -5    2.02    0.40
   1  -6  -5    1.74    0.37
   1  -6  -5    2.05    0.52
   0  -6  -5    0.02    0.17
   0  -6  -5    0.72    0.26
   0  -6  -5   -0.03    0.25
   0  -6  -5    0.15    0.41
  -1  -6  -5    0.43    0.31
  -1  -6  -5   -0.08    0.27
  -1  -6  -5    0.50    0.36
  -1  -6  -5    0.43    0.25
  -2  -6  -5    7.03    0.80
  -2  -6  -5    7.63    0.81
  -2  -6  -5    8.46    0.73
  -2  -6  -5    6.99    0.68
  -2  -6  -5    8.06    0.92
  -3  -6  -5    0.32    0.34
  -3  -6  -5    0.29    0.24
  -3  -6  -5    0.74    0.31
  -3  -6  -5    0.64    0.29
   3   6   5   -0.12    0.16
  -4  -6  -5    4.66    0.63
  -4  -6  -5    5.35    0.74
  -4  -6  -5    4.61    0.76
  -4  -6  -5    4.73    0.54
   4   6   5    5.20    0.57
  -5  -6  -5    3.73    0.73
   5   6   5    6.59    0.60
  -6  -6  -5    0.02    0.23
   6   6   5    0.29    0.30
   6   6   5    0.16    0.17
  -7  -6  -5    0.00    0.15
   7   6   5    0.37    0.23
   7   6   5   -0.05    0.14
   2  -7  -5    0.48    0.23
   1  -7  -5    4.18    0.46
   1  -7  -5    5.10    0.64
  -1  -7  -5   -0.06    0.23
  -1  -7  -5   -0.02    0.15
  -1  -7  -5    0.03    0.26
  -2  -7  -5   13.67    0.96
  -2  -7  -5   12.29    1.07
  -2  -7  -5   11.90    1.00
  -3  -7  -5   17.67    1.11
  -3  -7  -5   19.54    1.33
  -3  -7  -5   17.97    1.00
   3   7   5   19.20    1.01
  -4  -7  -5    0.96    0.35
  -4  -7  -5    1.51    0.52
  -4  -7  -5    1.53    0.34
   4   7   5    1.42    0.41
  -5  -7  -5    0.36    0.28
   5   7   5    0.07    0.18
  -6  -7  -5    1.39    0.36
   6   7   5    1.50    0.36
   1  -8  -5    0.10    0.12
   1  -8  -5    0.81    0.19
   0  -8  -5   -0.18    0.16
   0  -8  -5    0.54    0.30
   0  -8  -5    0.11    0.14
  -1  -8  -5    3.45    0.61
  -1  -8  -5    4.37    0.55
  -1  -8  -5    3.47    0.46
  -2  -8  -5   15.31    1.18
  -2  -8  -5   14.52    0.96
  -3  -8  -5   21.27    1.15
  -3  -8  -5   20.83    1.33
  -4  -8  -5    1.90    0.31
  -4  -8  -5    2.52    0.48
   4   8   5    1.73    0.27
  -5  -8  -5    1.08    0.19
   5   8   5    0.89    0.20
  -6  -8  -5    3.24    0.25
  -1  -9  -5    1.46    0.31
  -1  -9  -5    1.36    0.25
  -2  -9  -5    0.80    0.23
  -2  -9  -5    1.47    0.36
  -3  -9  -5    6.87    0.62
  -3  -9  -5    6.29    0.51
  -4  -9  -5    2.02    0.25
  -4  -9   6    0.57    0.19
  -3  -9   6    0.01    0.23
  -3  -9   6    0.29    0.15
  -2  -9   6    0.21    0.24
  -2  -9   6   -0.11    0.13
  -1  -9   6    1.77    0.37
   5   8  -6    0.29    0.14
  -5  -8   6    0.10    0.11
  -5  -8   6    0.37    0.15
   4   8  -6    1.18    0.23
  -4  -8   6    0.92    0.29
   3   8  -6    0.19    0.16
  -3  -8   6    0.26    0.19
  -3  -8   6    0.42    0.26
  -2  -8   6    2.75    0.44
  -2  -8   6    3.50    0.61
  -2  -8   6    2.89    0.50
  -1  -8   6    0.13    0.15
  -1  -8   6    0.60    0.29
  -1  -8   6   -0.28    0.15
   0  -8   6   21.39    1.16
   0  -8   6   18.94    1.30
   1  -8   6    0.52    0.22
   6   7  -6    0.43    0.15
  -6  -7   6    0.41    0.15
   5   7  -6    0.93    0.23
   4   7  -6    9.77    0.70
  -4  -7   6    9.01    0.78
  -4  -7   6    8.88    0.80
   3   7  -6   14.32    1.12
  -3  -7   6   14.49    1.27
  -3  -7   6   14.75    1.12
  -3  -7   6   15.72    1.01
   2   7  -6    5.35    0.49
  -2  -7   6    5.71    0.60
  -2  -7   6    5.23    0.70
  -1  -7   6    4.84    0.52
  -1  -7   6    4.16    0.74
  -1  -7   6    3.98    0.65
   0  -7   6   12.62    1.15
   0  -7   6   11.59    0.97
   0  -7   6   10.88    0.82
   1  -7   6   39.55    1.80
   1  -7   6   34.00    1.46
   1  -7   6   37.30    1.70
   2  -7   6    0.88    0.29
   2  -7   6    1.21    0.25
   6   6  -6    1.54    0.51
   6   6  -6    1.77    0.28
  -6  -6   6    2.31    0.44
   5   6  -6    0.14    0.17
   5   6  -6    0.64    0.37
  -5  -6   6    0.13    0.28
   4   6  -6    7.10    0.63
  -4  -6   6    5.75    0.65
  -4  -6   6    6.86    0.79
   3   6  -6    5.23    0.54
  -3  -6   6    5.25    0.65
  -3  -6   6    4.35    0.54
  -3  -6   6    4.39    0.62
  -3  -6   6    4.41    0.80
   2   6  -6    8.91    0.70
  -2  -6   6    9.02    0.93
  -2  -6   6    8.76    0.88
  -2  -6   6   10.07    0.78
  -2  -6   6    8.85    0.72
  -1  -6   6   15.13    0.97
  -1  -6   6   18.53    1.31
  -1  -6   6   15.07    1.14
   0  -6   6    0.39    0.19
   0  -6   6    0.22    0.27
   0  -6   6    0.19    0.20
   0  -6   6    0.20    0.24
   1  -6   6   10.62    0.94
   1  -6   6   11.30    0.87
   1  -6   6   12.82    0.99
   2  -6   6    0.62    0.29
   2  -6   6   -0.02    0.30
   2  -6   6    0.55    0.25
   3  -6   6    0.10    0.18
   6   5  -6    0.15    0.15
   6   5  -6    0.17    0.23
  -6  -5   6   -0.03    0.09
   5   5  -6    0.44    0.39
   5   5  -6    0.93    0.33
  -5  -5   6    0.88    0.21
  -5  -5   6    0.73    0.39
  -5  -5   6    1.32    0.34
   4   5  -6    3.73    0.46
   4   5  -6    3.16    0.80
  -4  -5   6    3.57    0.53
  -4  -5   6    3.39    0.71
  -4  -5   6    3.28    0.40
  -4  -5   6    3.37    0.67
   3   5  -6    4.84    0.54
  -3  -5   6    4.85    0.56
  -3  -5   6    5.07    0.79
  -3  -5   6    6.78    0.67
  -3  -5   6    4.67    0.72
  -3  -5   6    4.39    0.62
   2   5  -6    1.76    0.35
  -2  -5   6    2.53    0.51
  -2  -5   6    1.74    0.43
  -2  -5   6    1.06    0.27
  -2  -5   6    1.66    0.45
  -1  -5   6   13.48    1.13
  -1  -5   6   14.02    0.90
  -1  -5   6   12.39    0.95
  -1  -5   6   13.06    0.86
   0  -5   6   27.79    1.46
   0  -5   6   27.63    1.43
   0  -5   6   26.31    1.50
   0  -5   6   29.32    1.33
   1  -5   6   -0.09    0.19
   1  -5   6   -0.02    0.24
   1  -5   6   -0.25    0.13
   1  -5   6    0.17    0.21
   2  -5   6    3.55    0.56
   2  -5   6    3.91    0.63
   2  -5   6    4.07    0.65
   2  -5   6    3.38    0.58
   3  -5   6   -0.22    0.17
   3  -5   6    0.70    0.27
   4  -5   6    5.32    0.52
   6   4  -6   -0.14    0.28
   6   4  -6    0.29    0.16
  -6  -4   6    0.56    0.23
  -6  -4   6    0.25    0.15
   5   4  -6   -0.19    0.28
   5   4  -6    0.29    0.20
  -5  -4   6    0.34    0.20
  -5  -4   6    0.07    0.24
  -5  -4   6    0.16    0.14
   4   4  -6    1.05    0.49
   4   4  -6    0.72    0.29
  -4  -4   6    0.60    0.27
  -4  -4   6    0.52    0.38
  -4  -4   6    0.44    0.20
  -4  -4   6    0.59    0.23
   3   4  -6    0.33    0.19
  -3  -4   6    0.04    0.24
  -3  -4   6    0.29    0.15
  -3  -4   6    0.35    0.27
  -3  -4   6    0.16    0.23
  -2  -4   6   13.63    0.98
  -1  -4   6    0.72    0.21
  -1  -4   6    0.69    0.27
   0  -4   6   30.26    1.33
   0  -4   6   32.26    1.42
   1  -4   6   25.93    1.39
   1  -4   6   26.27    1.38
   1  -4   6   27.32    1.26
   2  -4   6    2.58    0.46
   2  -4   6    3.65    0.63
   2  -4   6    2.23    0.44
   3  -4   6    2.03    0.45
   3  -4   6    2.23    0.50
   3  -4   6    1.54    0.40
   4  -4   6   14.47    0.96
   4  -4   6   17.45    1.07
   5  -4   6    8.50    0.56
   6   3  -6    3.54    0.67
  -6  -3   6    3.27    0.61
  -6  -3   6    3.42    0.37
   5   3  -6    4.89    0.48
   5   3  -6    4.63    0.87
  -5  -3   6    4.55    0.48
  -5  -3   6    4.26    0.57
  -5  -3   6    3.82    0.79
   4   3  -6    0.04    0.37
   4   3  -6    0.10    0.17
  -4  -3   6    0.59    0.32
  -4  -3   6    0.12    0.22
  -4  -3   6    0.18    0.16
   3   3  -6   18.55    0.98
  -3  -3   6   17.85    1.14
  -2  -3   6  148.94    4.54
  -1  -3   6   19.57    0.87
  -1  -3   6   20.56    1.04
   0  -3   6    6.62    0.48
   0  -3   6    5.95    0.48
  -1   3  -6   62.48    3.66
   1  -3   6   63.38    2.12
   1  -3   6   63.91    1.98
   2  -3   6    0.13    0.20
   2  -3   6    0.37    0.17
   3  -3   6    8.78    0.77
   3  -3   6    8.53    0.78
   3  -3   6    7.67    0.74
   4  -3   6    0.37    0.25
   4  -3   6    0.57    0.28
   5  -3   6   34.40    1.50
   5  -3   6   37.97    1.68
   6   2  -6    0.11    0.25
  -6  -2   6    0.03    0.14
  -6  -2   6    0.20    0.17
   5   2  -6    3.60    0.45
   5   2  -6    5.83    0.84
  -5  -2   6    6.11    0.79
  -5  -2   6    5.54    0.52
   4   2  -6    5.87    0.84
   4   2  -6    5.86    0.54
  -4  -2   6    6.03    0.54
  -4  -2   6    6.22    0.81
   3   2  -6    6.23    0.50
   2   2  -6   47.55    1.64
   2   2  -6   45.64    3.72
  -2  -2   6   53.03    3.78
   1   2  -6   61.20    3.82
  -1  -2   6   61.24    1.83
  -1  -2   6   60.05    3.60
   0   2  -6   50.21    3.14
   0  -2   6   50.81    3.10
   0  -2   6   53.23    1.63
   0  -2   6   50.46    1.69
  -1   2  -6  234.94    8.54
   1  -2   6  231.31    6.16
   1  -2   6  246.19    6.39
  -2   2  -6   94.07    5.04
   2  -2   6   89.55    2.83
   3  -2   6    0.94    0.36
   3  -2   6    1.13    0.36
  -4   2  -6    4.85    0.76
   4  -2   6    4.88    0.59
   4  -2   6    5.39    0.68
   4  -2   6    4.90    0.76
  -5   2  -6   10.99    0.70
   5  -2   6   10.21    0.92
   5  -2   6   10.44    0.80
   6  -2   6   10.01    0.67
   6  -2   6    8.56    0.62
  -6  -1   6    0.65    0.20
   5   1  -6    3.71    0.76
  -5  -1   6    4.11    0.47
   4   1  -6    0.85    0.33
   4   1  -6    0.47    0.27
   4   1  -6    0.36    0.27
   4   1  -6   -0.45    0.24
   4   1  -6    0.28    0.32
  -4  -1   6    0.42    0.21
   3   1  -6  118.23    4.69
   2   1  -6   13.47    2.04
   2   1  -6   11.64    0.69
  -2  -1   6   11.30    1.71
   1   1  -6    0.87    0.20
   1   1  -6    1.23    0.67
  -1  -1   6    1.19    0.42
   0   1  -6  197.10    7.37
   0  -1   6  194.37    5.16
   0  -1   6  200.19    7.29
  -1   1  -6  263.94    9.35
   1  -1   6  272.89    9.42
  -2   1  -6   89.26    4.93
   2  -1   6   85.36    2.62
   3  -1   6    0.18    0.14
  -4   1  -6   34.40    1.53
   4  -1   6   36.22    1.92
   4  -1   6   34.98    1.64
   4  -1   6   37.09    1.63
  -5   1  -6    0.20    0.17
   5  -1   6    0.15    0.20
   5  -1   6    0.36    0.31
   5  -1   6   -0.42    0.28
  -6   1  -6    5.49    0.45
   6  -1   6    6.63    0.67
   6  -1   6    7.48    0.49
  -6   0   6   13.94    0.66
   5   0  -6    4.30    0.57
   5   0  -6    5.47    0.61
   5   0  -6    5.03    0.65
  -5   0   6    5.45    0.48
   4   0  -6    0.39    0.31
   4   0  -6    0.42    0.32
   4   0  -6    1.15    0.37
   4   0  -6    0.92    0.37
  -4   0   6    0.68    0.24
   3   0  -6    6.88    0.68
   3   0  -6    7.97    0.80
   2   0  -6  114.92    7.13
   2   0  -6  119.93    3.66
   1   0  -6    0.72    0.47
   1   0  -6    0.34    0.18
  -1   0   6    0.27    0.35
   0   0  -6  172.82    6.59
   0   0   6  178.83    4.47
   0   0   6  166.77    6.46
  -1   0  -6  169.56    6.61
   1   0   6  164.38    4.40
   1   0   6  163.02    6.53
  -2   0  -6   12.40    1.71
  -2   0  -6   12.74    1.57
   2   0   6   12.85    0.63
   3   0   6    0.24    0.16
  -4   0  -6    3.34    0.41
   4   0   6    3.39    0.58
   4   0   6    3.47    0.71
   4   0   6    2.83    0.48
  -5   0  -6   24.49    1.25
   5   0   6   21.32    1.55
   5   0   6   23.18    1.21
  -6   0  -6   -0.01    0.14
   6   0   6   -0.01    0.20
   6   0   6    0.07    0.25
  -6   1   6    0.46    0.16
  -6   1   6    0.04    0.11
   5  -1  -6    8.03    0.64
   5  -1  -6    9.28    0.78
   5  -1  -6    9.27    0.76
  -5   1   6    7.82    0.54
   4  -1  -6    1.48    0.41
   4  -1  -6    1.12    0.40
   4  -1  -6    1.26    0.44
   4  -1  -6    0.95    0.40
  -4   1   6    0.81    0.25
   3  -1  -6    3.02    0.57
   3  -1  -6    2.49    0.47
   3  -1  -6    2.59    0.55
  -3   1   6    2.51    0.37
   1  -1  -6   52.64    1.89
  -1   1   6   52.13    3.15
   0  -1  -6    6.28    0.48
   0  -1  -6    5.44    0.88
   0   1   6    5.62    0.19
   0   1   6    6.34    0.97
  -1  -1  -6   17.01    1.70
   1   1   6   15.57    0.60
  -2  -1  -6    7.71    1.55
  -2  -1  -6    5.78    1.32
   2   1   6    7.36    0.45
  -3  -1  -6   69.23    4.84
  -3  -1  -6   76.15    5.34
   3   1   6   76.61    2.39
  -4  -1  -6    1.15    0.32
   4   1   6    1.57    0.40
   4   1   6    1.54    0.35
  -5  -1  -6   10.40    0.81
   5   1   6   11.72    1.22
  -6  -1  -6    4.60    0.50
   6   1   6    5.53    0.77
  -7  -1  -6   -0.09    0.09
   7   1   6    0.16    0.16
   5  -2  -6    0.58    0.31
  -5   2   6    0.69    0.17
   4  -2  -6   -0.08    0.18
   4  -2  -6    0.22    0.28
   4  -2  -6    0.57    0.32
   3  -2  -6   12.35    0.86
   3  -2  -6   11.83    0.90
   3  -2  -6   13.21    1.15
   3  -2  -6   12.04    1.00
   3  -2  -6   12.36    0.94
  -3   2   6   12.48    0.75
   2  -2  -6   17.81    1.17
   1  -2  -6  108.29    5.25
   1  -2  -6  108.39    3.50
  -1   2   6  111.47    5.11
   0  -2  -6    1.09    0.51
   0   2   6    1.43    0.54
  -1  -2  -6    1.90    0.33
  -1  -2  -6    1.84    0.56
  -1  -2  -6    1.49    0.28
  -1  -2  -6    1.37    0.44
  -2  -2  -6   54.80    3.84
  -2  -2  -6   54.32    1.90
  -2  -2  -6   52.45    3.65
  -3  -2  -6  135.24    7.41
  -3  -2  -6  147.91    8.07
  -3  -2  -6  142.35    3.95
  -4  -2  -6    4.93    0.49
   4   2   6    4.66    0.47
   4   2   6    4.54    0.49
   4   2   6    4.15    0.82
  -5  -2  -6   -0.01    0.18
  -5  -2  -6   -0.22    0.33
   5   2   6    0.24    0.24
   5   2   6   -0.01    0.31
  -6  -2  -6    3.89    0.45
  -6  -2  -6    5.11    0.74
   6   2   6    3.71    0.80
  -7  -2  -6    0.71    0.18
   7   2   6    0.91    0.36
   7   2   6    0.85    0.26
   5  -3  -6    0.93    0.26
   5  -3  -6    0.70    0.26
  -5   3   6    0.61    0.14
   4  -3  -6   -0.19    0.22
   4  -3  -6    0.08    0.26
   3  -3  -6   12.41    0.91
   3  -3  -6   11.57    0.83
   3  -3  -6   10.83    1.00
   3  -3  -6   12.07    1.12
   2  -3  -6   17.00    1.01
   2  -3  -6   17.28    1.67
   2  -3  -6   17.32    1.19
   2  -3  -6   16.79    1.03
   1  -3  -6   19.09    2.72
   1  -3  -6   24.37    1.33
   0  -3  -6    0.80    0.31
   0  -3  -6    1.51    0.65
  -1  -3  -6  156.33    4.54
  -1  -3  -6  142.10    6.33
  -1  -3  -6  150.29    4.35
  -2  -3  -6   51.48    1.92
  -2  -3  -6   54.28    3.83
  -2  -3  -6   53.30    1.81
  -3  -3  -6   39.56    1.56
  -4  -3  -6    0.95    0.24
   4   3   6    0.82    0.25
   4   3   6    1.12    0.49
  -5  -3  -6   16.26    1.00
  -5  -3  -6   15.80    1.55
   5   3   6   16.58    0.97
   5   3   6   16.57    1.08
   5   3   6   18.08    1.57
  -6  -3  -6    0.30    0.35
  -6  -3  -6    0.48    0.23
   6   3   6    0.25    0.38
   6   3   6    0.42    0.20
  -7  -3  -6   -0.16    0.10
  -7  -3  -6   -0.36    0.32
   7   3   6    0.22    0.17
   7   3   6    0.59    0.27
   4  -4  -6    0.06    0.21
   4  -4  -6    0.49    0.27
   3  -4  -6    1.16    0.31
   3  -4  -6    1.32    0.48
   3  -4  -6    1.96    0.48
   2  -4  -6   96.97    3.72
   2  -4  -6  111.87    4.19
   2  -4  -6  109.71    3.91
   1  -4  -6   11.89    0.85
   1  -4  -6   10.80    0.92
   1  -4  -6   10.81    0.91
   1  -4  -6   12.15    1.01
   0  -4  -6   20.64    1.31
   0  -4  -6   18.88    1.15
  -1  -4  -6   61.79    2.44
  -1  -4  -6   61.22    2.20
  -2  -4  -6  191.23    5.66
  -2  -4  -6  184.76    5.29
  -3  -4  -6    0.07    0.13
  -3  -4  -6    0.14    0.16
  -3  -4  -6    0.00    0.18
  -4  -4  -6    1.48    0.48
  -4  -4  -6    1.05    0.31
  -4  -4  -6    1.34    0.29
   4   4   6    1.76    0.37
  -5  -4  -6   15.69    1.32
  -5  -4  -6   16.19    0.95
   5   4   6   16.32    1.07
   5   4   6   15.34    0.96
   5   4   6   16.53    1.50
  -6  -4  -6   28.08    1.77
  -6  -4  -6   30.30    1.33
   6   4   6   30.42    1.92
   6   4   6   29.98    1.31
  -7  -4  -6    0.23    0.12
  -7  -4  -6    0.23    0.23
   7   4   6    0.10    0.16
   7   4   6    0.38    0.27
   3  -5  -6   -0.13    0.24
   3  -5  -6    0.09    0.20
   2  -5  -6    0.72    0.31
   2  -5  -6    0.74    0.33
   2  -5  -6    0.58    0.23
   1  -5  -6   70.60    3.05
   1  -5  -6   72.33    2.92
   1  -5  -6   70.64    2.68
   1  -5  -6   70.63    2.75
   1  -5  -6   68.32    3.49
   0  -5  -6   19.87    1.53
   0  -5  -6   17.80    1.23
   0  -5  -6   15.43    1.16
   0  -5  -6   18.44    1.10
   0  -5  -6   16.87    1.20
  -1  -5  -6    0.14    0.19
  -1  -5  -6   -0.11    0.11
  -1  -5  -6    0.14    0.22
  -1  -5  -6   -0.02    0.23
  -2  -5  -6    2.48    0.54
  -2  -5  -6    2.44    0.45
  -2  -5  -6    2.17    0.49
  -2  -5  -6    3.41    0.49
  -3  -5  -6   31.82    1.67
  -3  -5  -6   29.15    1.64
  -3  -5  -6   31.94    1.52
  -3  -5  -6   31.79    1.70
   3   5   6   29.61    1.38
  -4  -5  -6    1.32    0.40
  -4  -5  -6    1.18    0.41
  -4  -5  -6    2.61    0.47
  -4  -5  -6    1.67    0.52
   4   5   6    1.48    0.33
  -5  -5  -6   11.21    1.09
  -5  -5  -6    9.40    0.64
   5   5   6    9.06    1.14
   5   5   6   10.56    0.78
  -6  -5  -6    1.10    0.22
  -6  -5  -6    1.14    0.44
   6   5   6    2.55    0.61
   6   5   6    1.23    0.42
  -7  -5  -6    1.62    0.39
  -7  -5  -6    0.51    0.15
   7   5   6    0.87    0.35
   7   5   6    0.55    0.21
   7   5   6    0.61    0.17
   3  -6  -6    0.29    0.27
   3  -6  -6   -0.01    0.19
   2  -6  -6    3.47    0.47
   2  -6  -6    1.93    0.32
   2  -6  -6    3.38    0.61
   1  -6  -6    2.49    0.43
   1  -6  -6    2.51    0.57
   0  -6  -6   13.30    1.74
   0  -6  -6   16.38    1.20
   0  -6  -6   15.33    1.16
   0  -6  -6   15.24    1.03
  -1  -6  -6    1.86    0.55
  -1  -6  -6    1.20    0.41
  -1  -6  -6    0.56    0.33
  -1  -6  -6    1.69    0.51
  -2  -6  -6    0.80    0.35
  -2  -6  -6    1.09    0.32
  -2  -6  -6    0.26    0.21
  -2  -6  -6    0.94    0.35
  -2  -6  -6    0.49    0.35
  -3  -6  -6    4.65    0.90
  -3  -6  -6    4.61    0.81
  -3  -6  -6    4.58    0.53
   3   6   6    4.80    0.51
  -4  -6  -6    3.19    0.61
  -4  -6  -6    3.07    0.65
  -4  -6  -6    3.33    0.42
  -4  -6  -6    3.20    0.62
   4   6   6    3.54    0.45
  -5  -6  -6    0.86    0.36
   5   6   6    1.37    0.45
  -6  -6  -6    0.25    0.25
   6   6   6    0.33    0.17
   6   6   6    0.31    0.28
  -7  -6  -6    0.39    0.20
   7   6   6    0.25    0.12
   7   6   6    1.20    0.31
   2  -7  -6    0.70    0.26
   1  -7  -6    0.87    0.24
   1  -7  -6    0.87    0.33
   1  -7  -6    0.80    0.26
   0  -7  -6    0.18    0.18
   0  -7  -6    0.32    0.21
   0  -7  -6    0.30    0.27
  -1  -7  -6    0.54    0.34
  -1  -7  -6    0.44    0.32
  -1  -7  -6    0.76    0.29
  -2  -7  -6    0.61    0.27
  -2  -7  -6    0.44    0.28
  -2  -7  -6    0.37    0.28
  -3  -7  -6   -0.13    0.21
  -3  -7  -6    0.00    0.24
  -3  -7  -6   -0.17    0.17
   3   7   6   -0.18    0.14
  -4  -7  -6    4.53    0.79
  -4  -7  -6    4.79    0.49
  -4  -7  -6    3.30    0.60
   4   7   6    3.35    0.41
  -5  -7  -6    0.02    0.19
   5   7   6    0.16    0.16
  -6  -7  -6   -0.25    0.16
   6   7   6   -0.02    0.12
   1  -8  -6    0.68    0.19
   1  -8  -6   -0.13    0.15
   0  -8  -6    1.20    0.32
   0  -8  -6    1.02    0.28
  -1  -8  -6    0.58    0.27
  -1  -8  -6    0.64    0.25
  -1  -8  -6    0.66    0.25
  -2  -8  -6    0.86    0.38
  -2  -8  -6    0.89    0.28
  -3  -8  -6    0.08    0.15
  -3  -8  -6    0.39    0.27
  -4  -8  -6    0.13    0.14
  -4  -8  -6   -0.13    0.18
   4   8   6    0.24    0.17
  -5  -8  -6    0.05    0.18
   5   8   6   -0.11    0.09
  -1  -9  -6    0.40    0.14
  -2  -9  -6    0.08    0.13
  -2  -9  -6    0.25    0.20
  -3  -9  -6   12.96    0.84
  -3  -9  -6   12.54    0.71
  -4  -9  -6    0.76    0.18
  -2  -9   7    0.36    0.26
  -2  -9   7    0.23    0.13
  -1  -9   7    0.18    0.13
  -1  -9   7   -0.17    0.20
   5   8  -7   -0.02    0.09
  -5  -8   7    0.26    0.09
   4   8  -7    0.28    0.14
   3   8  -7    0.32    0.18
  -3  -8   7    0.51    0.20
  -3  -8   7    0.33    0.27
  -2  -8   7    0.09    0.18
  -2  -8   7    0.42    0.29
  -1  -8   7   18.99    1.21
  -1  -8   7   18.98    1.12
   0  -8   7   -0.15    0.24
   0  -8   7    0.14    0.18
   1  -8   7   -0.08    0.12
   5   7  -7    0.35    0.15
   4   7  -7    1.55    0.31
  -4  -7   7    1.84    0.41
   3   7  -7   -0.25    0.14
  -3  -7   7    0.01    0.28
  -3  -7   7   -0.09    0.20
   2   7  -7   -0.10    0.25
  -2  -7   7   -0.27    0.18
  -2  -7   7    0.15    0.28
  -1  -7   7   13.55    0.86
  -1  -7   7   11.18    0.95
  -1  -7   7   12.23    1.04
   0  -7   7   25.52    1.21
   0  -7   7   26.85    1.49
   0  -7   7   27.21    1.54
   1  -7   7    2.47    0.50
   1  -7   7    1.71    0.34
   1  -7   7    1.87    0.40
   2  -7   7    4.30    0.39
   2  -7   7    5.23    0.52
   6   6  -7    0.08    0.11
   6   6  -7    0.13    0.23
  -6  -6   7    0.08    0.15
   5   6  -7    5.62    0.51
   5   6  -7    5.73    0.75
  -5  -6   7    5.26    0.65
   4   6  -7    0.97    0.31
  -4  -6   7    1.36    0.43
   3   6  -7    9.14    0.71
  -3  -6   7    8.03    0.84
  -3  -6   7    9.29    0.86
   2   6  -7    0.76    0.29
  -2  -6   7    1.08    0.38
  -2  -6   7    0.56    0.29
  -2  -6   7    0.61    0.40
  -2  -6   7    0.32    0.29
  -1  -6   7   10.86    0.80
  -1  -6   7   12.26    0.86
  -1  -6   7   13.81    1.11
  -1  -6   7   12.62    1.06
   0  -6   7    2.49    0.51
   0  -6   7    3.04    0.65
   0  -6   7    3.30    0.60
   0  -6   7    2.76    0.51
   0  -6   7    3.79    0.47
   1  -6   7   16.13    1.11
   1  -6   7   16.16    1.16
   1  -6   7   14.10    0.97
   2  -6   7    2.39    0.46
   2  -6   7    2.59    0.46
   3  -6   7    0.40    0.20
   6   5  -7    0.24    0.14
   6   5  -7    0.49    0.30
  -6  -5   7    0.26    0.22
  -6  -5   7    0.11    0.11
   5   5  -7    3.23    0.67
   5   5  -7    2.30    0.40
  -5  -5   7    2.61    0.37
  -5  -5   7    2.77    0.31
  -5  -5   7    2.83    0.65
   4   5  -7    5.84    1.04
   4   5  -7    7.33    0.65
  -4  -5   7    7.04    0.59
  -4  -5   7    6.49    0.51
  -4  -5   7    7.08    0.84
   3   5  -7    0.29    0.19
  -3  -5   7    0.85    0.33
  -3  -5   7    0.49    0.28
  -3  -5   7    0.24    0.27
  -3  -5   7    0.57    0.32
   2   5  -7   -0.18    0.12
  -2  -5   7    0.27    0.27
  -2  -5   7    0.09    0.15
  -2  -5   7    0.12    0.20
  -2  -5   7   -0.01    0.22
   1   5  -7    9.20    0.68
  -1  -5   7    8.25    0.77
  -1  -5   7    8.07    0.80
  -1  -5   7    8.86    0.69
  -1  -5   7    8.45    0.78
   0  -5   7    4.49    0.49
   0  -5   7    3.06    0.61
   0  -5   7    2.76    0.47
   0  -5   7    2.93    0.46
   1  -5   7   28.39    1.51
   1  -5   7   25.22    1.37
   1  -5   7   26.67    1.52
   1  -5   7   23.83    1.37
   2  -5   7    3.77    0.66
   2  -5   7    4.12    0.63
   2  -5   7    3.67    0.65
   3  -5   7    2.63    0.49
   3  -5   7    2.56    0.47
   4  -5   7    0.78    0.26
   6   4  -7    0.56    0.16
   6   4  -7    0.94    0.42
  -6  -4   7    0.98    0.36
  -6  -4   7    0.46    0.15
  -6  -4   7    0.85    0.21
   5   4  -7    0.30    0.36
  -5  -4   7    0.92    0.33
  -5  -4   7    0.53    0.31
   4   4  -7    0.00    0.13
   4   4  -7    0.99    0.38
  -4  -4   7   -0.45    0.24
  -4  -4   7   -0.15    0.14
  -4  -4   7    0.20    0.22
   3   4  -7    2.13    0.61
   3   4  -7    1.95    0.37
  -3  -4   7    1.61    0.26
  -3  -4   7    1.42    0.43
  -3  -4   7    2.56    0.51
  -3  -4   7    1.20    0.39
  -3  -4   7    2.29    0.40
  -2  -4   7    4.28    0.70
  -2  -4   7    4.43    0.58
  -2  -4   7    4.15    0.46
  -1  -4   7   13.11    0.91
  -1  -4   7   13.74    0.79
   0  -4   7    1.59    0.32
   0  -4   7    0.71    0.26
   1  -4   7    8.28    0.66
   1  -4   7    8.25    0.74
   1  -4   7    8.22    0.77
   2  -4   7    3.37    0.56
   2  -4   7    3.30    0.63
   2  -4   7    3.56    0.64
   3  -4   7    0.82    0.33
   3  -4   7    0.33    0.27
   4  -4   7    0.09    0.20
   4  -4   7    0.24    0.21
   5  -4   7    0.66    0.20
   6   3  -7    0.75    0.34
  -6  -3   7    0.82    0.29
  -6  -3   7    0.30    0.26
  -6  -3   7    0.06    0.12
   5   3  -7    3.07    0.37
   5   3  -7    2.16    0.63
  -5  -3   7    1.97    0.39
  -5  -3   7    2.09    0.76
  -5  -3   7    2.46    0.39
   4   3  -7   -0.19    0.14
   4   3  -7    0.26    0.38
  -4  -3   7    0.02    0.20
  -4  -3   7    0.27    0.22
  -4  -3   7    0.29    0.22
  -4  -3   7    0.51    0.38
   3   3  -7   23.84    1.59
  -3  -3   7   22.44    1.33
  -3  -3   7   21.88    1.43
  -3  -3   7   23.16    1.18
  -3  -3   7   23.41    1.07
   2   3  -7   58.80    1.91
  -2  -3   7   56.13    2.21
  -1  -3   7    7.25    0.50
  -1  -3   7    7.96    0.63
   0  -3   7    3.19    0.35
   0  -3   7    3.33    0.37
   2  -3   7   11.73    0.78
   3  -3   7    0.79    0.26
   3  -3   7    0.18    0.28
   3  -3   7    1.02    0.34
   3  -3   7    0.67    0.46
   3  -3   7    0.36    0.32
   4  -3   7   14.47    1.02
   4  -3   7   13.43    0.97
   5  -3   7    0.11    0.18
   5  -3   7    0.09    0.19
  -6  -2   7    1.36    0.24
   5   2  -7    2.10    0.58
   5   2  -7    1.81    0.36
  -5  -2   7    1.08    0.26
   4   2  -7    2.81    0.64
   4   2  -7    3.39    0.41
  -4  -2   7    2.49    0.40
  -4  -2   7    2.53    0.72
   3   2  -7    0.54    0.18
   3   2  -7    0.08    0.16
   3   2  -7    0.88    0.33
  -3  -2   7    0.65    0.21
   2   2  -7   21.66    1.00
   2   2  -7   20.21    2.89
  -2  -2   7   25.59    3.06
   1   2  -7   10.13    1.68
  -1  -2   7   12.54    1.78
  -1  -2   7    9.64    0.50
   0   2  -7   18.50    2.13
   0  -2   7   19.91    0.81
   0  -2   7   20.58    2.10
   0  -2   7   18.52    0.86
   1  -2   7   10.65    0.60
   1  -2   7   10.31    0.44
   2  -2   7   52.99    1.88
  -3   2  -7   -0.12    0.17
   3  -2   7    0.06    0.22
   3  -2   7    0.09    0.19
   3  -2   7    0.37    0.30
  -4   2  -7   27.84    1.28
   4  -2   7   22.95    1.35
   4  -2   7   29.22    1.59
   4  -2   7   24.02    1.44
  -5   2  -7    1.23    0.27
   5  -2   7    0.75    0.38
   5  -2   7    1.53    0.37
   6  -2   7    0.24    0.19
   6  -2   7    0.27    0.14
   6   1  -7    1.81    0.38
  -6  -1   7    1.27    0.27
  -6  -1   7    1.42    0.24
   4   1  -7   11.71    0.77
   4   1  -7    8.95    1.08
   4   1  -7   11.18    0.98
   4   1  -7   10.32    0.80
  -4  -1   7   10.06    0.82
   3   1  -7   80.63    2.86
   3   1  -7   76.06    3.19
  -3  -1   7   82.93    2.62
   2   1  -7   13.72    0.81
   2   1  -7   13.85    2.53
  -2  -1   7   14.70    2.14
   1   1  -7   11.98    0.68
   1   1  -7   12.12    1.82
  -1  -1   7    9.99    1.50
   0   1  -7  204.93    8.02
   0  -1   7  200.43    7.80
   0  -1   7  199.51    5.30
  -1   1  -7  159.29    6.90
   1  -1   7  168.35    7.03
   1  -1   7  163.00    4.25
   1  -1   7  159.88    4.42
  -2   1  -7   11.13    1.90
   2  -1   7    8.78    0.56
   3  -1   7    0.02    0.11
  -4   1  -7   24.82    1.28
   4  -1   7   27.68    1.37
   4  -1   7   28.21    1.67
   4  -1   7   25.62    1.38
  -5   1  -7    7.79    0.81
   5  -1   7    8.57    1.03
   5  -1   7    8.48    0.87
  -6   1  -7    0.70    0.19
   6  -1   7    1.34    0.46
   6  -1   7    0.84    0.21
  -6   0   7    1.02    0.18
  -6   0   7    1.08    0.23
   5   0  -7    0.01    0.22
   5   0  -7   -0.33    0.20
   5   0  -7    0.15    0.32
  -5   0   7    0.09    0.13
   4   0  -7    1.97    0.37
   4   0  -7    1.34    0.49
   4   0  -7    2.06    0.45
   4   0  -7    1.14    0.45
  -4   0   7    1.31    0.29
   3   0  -7   12.83    0.98
   3   0  -7   11.61    1.13
  -3   0   7   12.78    0.75
  -2   0   7    4.24    1.71
   1   0  -7    2.37    0.80
   1   0  -7    2.16    0.36
  -1   0   7    4.39    1.09
   0   0  -7   93.19    4.70
   0   0   7   95.36    2.49
   0   0   7   90.15    4.56
  -1   0  -7   87.11    4.55
   1   0   7   72.53    5.24
   1   0   7   85.74    2.36
  -2   0  -7   36.70    3.23
   2   0   7   35.68    1.29
   3   0   7   21.50    1.03
  -4   0  -7    3.51    0.44
   4   0   7    4.16    0.46
   4   0   7    3.11    0.51
   4   0   7    3.14    0.76
  -5   0  -7   16.40    1.01
   5   0   7   18.42    1.41
   5   0   7   17.27    1.00
  -6   0  -7    0.04    0.12
   6   0   7    0.06    0.19
   6   0   7    0.45    0.24
   5  -1  -7    1.34    0.32
   5  -1  -7    1.20    0.36
   5  -1  -7    0.75    0.28
  -5   1   7    0.97    0.20
   4  -1  -7    0.20    0.29
   4  -1  -7    0.03    0.26
   4  -1  -7    0.37    0.22
   4  -1  -7   -0.42    0.29
  -4   1   7    0.12    0.14
   3  -1  -7    9.28    0.91
   3  -1  -7    8.90    0.74
   3  -1  -7    8.71    0.84
   3  -1  -7    8.24    0.78
  -3   1   7    8.85    0.61
   2  -1  -7    0.68    0.30
   1  -1  -7   49.56    3.66
   1  -1  -7   49.26    1.92
  -1   1   7   55.70    3.67
   0  -1  -7    1.65    0.65
   0  -1  -7    1.55    0.32
   0   1   7    1.96    0.53
  -1  -1  -7    1.84    0.70
   1   1   7    0.81    0.14
  -2  -1  -7   12.51    1.83
  -2  -1  -7   13.14    1.97
   2   1   7   14.00    0.66
   3   1   7    2.97    0.36
  -4  -1  -7    7.98    0.67
   4   1   7    7.95    0.92
   4   1   7    7.39    0.58
   4   1   7    6.74    0.69
  -5  -1  -7    3.21    0.49
   5   1   7    3.65    0.81
   5   1   7    2.30    0.49
  -6  -1  -7    1.92    0.37
   6   1   7    1.59    0.51
  -7  -1  -7    0.07    0.10
   7   1   7   -0.07    0.15
   7   1   7   -0.13    0.13
   5  -2  -7    0.27    0.19
   5  -2  -7   -0.14    0.20
   4  -2  -7    0.12    0.39
  -4   2   7    0.07    0.13
   3  -2  -7    0.64    0.40
   3  -2  -7    0.31    0.28
   3  -2  -7    0.37    0.25
   3  -2  -7    0.51    0.33
   3  -2  -7    0.73    0.29
  -3   2   7    0.84    0.22
   2  -2  -7    1.70    0.43
   2  -2  -7    0.88    0.30
   2  -2  -7    0.69    0.29
   1  -2  -7   61.08    2.35
  -1   2   7   63.80    4.01
   0  -2  -7   19.92    1.02
   0  -2  -7   17.78    1.97
   0   2   7   18.89    1.92
  -1  -2  -7    3.10    0.37
  -1  -2  -7    2.79    0.37
  -1  -2  -7    1.84    0.75
  -1  -2  -7    3.44    1.13
  -2  -2  -7    6.92    1.61
  -2  -2  -7    4.35    0.39
  -2  -2  -7    5.67    1.57
  -3  -2  -7   14.50    3.13
  -3  -2  -7   31.29    3.70
   3   2   7   22.55    1.02
  -4  -2  -7   -0.19    0.15
  -4  -2  -7    0.13    0.30
   4   2   7   -0.11    0.39
   4   2   7    0.07    0.17
   4   2   7    0.02    0.16
  -5  -2  -7    0.11    0.17
  -5  -2  -7   -0.08    0.35
   5   2   7   -0.62    0.38
   5   2   7   -0.34    0.19
   5   2   7   -0.13    0.32
  -6  -2  -7    0.47    0.28
  -6  -2  -7   -0.03    0.15
   6   2   7    0.50    0.37
  -7  -2  -7    0.15    0.16
   7   2   7    0.33    0.16
   7   2   7   -0.07    0.29
   5  -3  -7    0.51    0.30
   4  -3  -7    0.35    0.29
   4  -3  -7    0.43    0.30
   3  -3  -7   10.18    0.80
   3  -3  -7   11.05    0.99
   3  -3  -7   10.02    0.87
   2  -3  -7    1.09    0.36
   2  -3  -7    0.42    0.24
   2  -3  -7    0.49    0.31
   2  -3  -7    0.32    0.22
   2  -3  -7    0.49    0.35
   1  -3  -7    4.10    0.56
   0  -3  -7   12.16    2.15
   0  -3  -7   10.11    0.78
  -1  -3  -7    1.05    0.28
  -1  -3  -7    1.16    0.68
  -1  -3  -7    0.89    0.28
  -2  -3  -7    2.46    0.39
  -2  -3  -7    1.32    0.99
  -2  -3  -7    2.47    0.40
  -3  -3  -7    0.84    0.22
  -4  -3  -7    4.81    0.49
  -4  -3  -7    4.51    0.81
   4   3   7    4.84    0.72
   4   3   7    3.74    0.45
   4   3   7    5.18    0.95
  -5  -3  -7    7.89    0.97
  -5  -3  -7    7.68    0.67
   5   3   7    6.90    1.00
   5   3   7    8.04    0.75
   5   3   7    8.15    0.66
  -6  -3  -7    0.01    0.14
  -6  -3  -7   -0.44    0.23
   6   3   7   -0.14    0.16
   6   3   7   -0.38    0.25
  -7  -3  -7    0.31    0.14
  -7  -3  -7   -0.09    0.25
   7   3   7    0.83    0.30
   7   3   7    0.43    0.22
   4  -4  -7    0.61    0.27
   4  -4  -7    1.30    0.32
   3  -4  -7    2.61    0.39
   3  -4  -7    3.03    0.59
   2  -4  -7    2.24    0.67
   2  -4  -7    1.77    0.53
   2  -4  -7    1.46    0.38
   2  -4  -7    2.07    0.42
   1  -4  -7    4.75    0.54
   1  -4  -7    4.96    0.55
   1  -4  -7    3.63    0.67
   1  -4  -7    4.09    0.73
   1  -4  -7    5.16    0.64
   0  -4  -7    1.09    0.31
   0  -4  -7    1.01    0.35
   0  -4  -7    1.17    0.38
   0  -4  -7    1.58    0.45
  -1  -4  -7    0.36    0.28
  -1  -4  -7    0.64    0.24
  -2  -4  -7   28.65    1.28
  -2  -4  -7   28.97    1.48
  -3  -4  -7    2.00    0.41
  -3  -4  -7    2.03    0.56
   3   4   7    2.56    0.39
  -4  -4  -7    0.28    0.18
  -4  -4  -7    0.67    0.37
   4   4   7    0.10    0.17
   4   4   7   -0.15    0.34
  -5  -4  -7    6.90    0.93
  -5  -4  -7    7.10    0.61
   5   4   7    7.11    1.05
   5   4   7    7.61    0.65
   5   4   7    7.56    1.28
  -6  -4  -7   15.14    1.24
  -6  -4  -7   15.23    0.89
   6   4   7   15.95    0.88
   6   4   7   14.44    1.30
  -7  -4  -7   -0.09    0.10
  -7  -4  -7    0.17    0.31
   7   4   7    0.14    0.22
   3  -5  -7    2.34    0.41
   3  -5  -7    2.60    0.53
   2  -5  -7    0.70    0.49
   2  -5  -7    0.35    0.17
   1  -5  -7    6.44    0.65
   1  -5  -7    6.64    0.66
   1  -5  -7    6.22    0.77
   1  -5  -7    6.41    0.80
   0  -5  -7    0.45    0.32
   0  -5  -7    0.16    0.30
   0  -5  -7   -0.40    0.24
   0  -5  -7   -0.14    0.25
   0  -5  -7   -0.19    0.13
  -1  -5  -7    0.29    0.16
  -1  -5  -7    0.03    0.23
  -1  -5  -7    0.71    0.26
  -1  -5  -7    0.49    0.35
  -1  -5  -7   -0.46    0.26
  -1  -5  -7    0.29    0.20
  -2  -5  -7    1.81    0.52
  -2  -5  -7    2.52    0.58
  -2  -5  -7    2.43    0.57
  -2  -5  -7    2.85    0.58
  -2  -5  -7    2.13    0.42
   2   5   7    3.31    0.36
  -3  -5  -7   -0.40    0.18
  -3  -5  -7    0.25    0.16
  -3  -5  -7   -0.22    0.23
   3   5   7   -0.14    0.16
  -4  -5  -7    0.61    0.39
  -4  -5  -7    0.48    0.32
   4   5   7    0.29    0.25
  -5  -5  -7    0.09    0.16
  -5  -5  -7    0.16    0.29
   5   5   7    0.21    0.16
   5   5   7   -0.66    0.38
  -6  -5  -7    0.53    0.32
  -6  -5  -7    0.12    0.12
   6   5   7    0.14    0.19
   6   5   7    0.93    0.40
  -7  -5  -7    0.78    0.27
  -7  -5  -7   -0.09    0.17
   7   5   7    0.68    0.27
   7   5   7    0.37    0.13
   3  -6  -7    0.13    0.34
   2  -6  -7    3.23    0.57
   2  -6  -7    2.60    0.46
   2  -6  -7    4.22    0.40
   1  -6  -7    0.06    0.15
   1  -6  -7    0.30    0.25
   1  -6  -7    0.58    0.27
   1  -6  -7   -0.27    0.24
   0  -6  -7    0.94    0.41
   0  -6  -7    0.91    0.28
   0  -6  -7    1.10    0.43
  -1  -6  -7   -0.16    0.13
  -1  -6  -7   -0.34    0.16
  -1  -6  -7   -0.12    0.25
  -2  -6  -7    4.30    0.75
  -2  -6  -7    4.63    0.87
  -2  -6  -7    4.81    0.58
  -2  -6  -7    4.73    0.59
   2   6   7    3.65    0.47
  -3  -6  -7    1.08    0.31
  -3  -6  -7    0.81    0.37
  -3  -6  -7    1.06    0.34
  -3  -6  -7    0.76    0.46
   3   6   7    1.10    0.30
  -4  -6  -7    4.57    0.72
  -4  -6  -7    4.08    0.73
  -4  -6  -7    4.54    0.49
   4   6   7    4.31    0.47
  -5  -6  -7    0.20    0.23
   5   6   7    0.03    0.13
  -6  -6  -7    0.03    0.20
   6   6   7    0.07    0.12
   6   6   7    0.59    0.32
   2  -7  -7    0.20    0.24
   1  -7  -7    1.94    0.43
   1  -7  -7    1.17    0.33
   1  -7  -7    2.54    0.66
   0  -7  -7    0.03    0.20
   0  -7  -7   -0.01    0.18
   0  -7  -7    0.10    0.22
  -1  -7  -7    0.89    0.43
  -1  -7  -7    0.46    0.25
  -2  -7  -7   -0.43    0.20
  -2  -7  -7    0.08    0.18
  -2  -7  -7    0.17    0.24
  -3  -7  -7    0.99    0.28
  -3  -7  -7    0.78    0.35
   3   7   7    1.15    0.39
  -4  -7  -7    4.39    0.46
  -4  -7  -7    4.71    0.60
  -4  -7  -7    6.24    0.66
   4   7   7    6.23    0.54
  -5  -7  -7    0.52    0.28
   5   7   7    0.76    0.24
  -6  -7  -7   -0.03    0.17
   6   7   7   -0.17    0.12
   0  -8  -7    0.14    0.20
   0  -8  -7    0.10    0.12
   0  -8  -7   -0.05    0.15
  -1  -8  -7    3.55    0.81
  -1  -8  -7    1.85    0.37
  -1  -8  -7    1.87    0.45
  -2  -8  -7    9.96    0.88
  -2  -8  -7   10.14    0.75
  -3  -8  -7    1.60    0.32
  -3  -8  -7    1.18    0.38
  -4  -8  -7   -0.15    0.12
   4   8   7    0.18    0.13
   5   8   7    0.04    0.10
  -2  -9  -7    5.92    0.45
  -2  -9  -7    5.86    0.53
  -3  -9  -7    0.12    0.12
  -3  -9  -7    0.01    0.17
  -4  -9  -7    0.26    0.12
  -4  -9  -7    0.24    0.14
   4   8  -8    0.00    0.10
   3   8  -8    0.15    0.14
  -3  -8   8    0.07    0.16
  -3  -8   8    0.76    0.32
  -2  -8   8    0.34    0.29
  -2  -8   8    0.03    0.13
  -1  -8   8   10.89    0.79
  -1  -8   8   10.88    0.88
   0  -8   8    0.38    0.19
   0  -8   8    0.49    0.28
   1  -8   8    0.05    0.14
   5   7  -8    0.05    0.13
  -5  -7   8    0.30    0.20
   4   7  -8   -0.18    0.12
  -4  -7   8    0.01    0.17
   3   7  -8    0.43    0.22
  -3  -7   8    0.62    0.35
  -3  -7   8    1.08    0.32
   2   7  -8    2.34    0.38
  -2  -7   8    1.97    0.57
  -1  -7   8   15.16    1.21
   0  -7   8    8.31    0.76
   0  -7   8    8.92    0.87
   0  -7   8    8.37    0.59
   1  -7   8    2.00    0.42
   1  -7   8    1.93    0.32
   2  -7   8    0.14    0.15
   6   6  -8    0.14    0.28
   6   6  -8    0.05    0.10
  -6  -6   8   -0.06    0.20
   5   6  -8    2.36    0.53
   5   6  -8    2.24    0.36
  -5  -6   8    1.78    0.43
   4   6  -8    9.30    0.71
  -4  -6   8   11.47    0.97
   3   6  -8    9.45    0.71
  -3  -6   8    8.13    0.84
  -3  -6   8    9.22    0.84
   2   6  -8    7.94    0.64
  -2  -6   8    6.68    0.82
  -2  -6   8    7.16    0.82
  -2  -6   8    6.63    0.70
   1   6  -8   15.16    0.93
  -1  -6   8   16.55    1.32
  -1  -6   8   15.41    1.22
  -1  -6   8   17.85    1.04
  -1  -6   8   16.99    0.96
   0  -6   8  171.46    5.08
   0  -6   8  170.10    5.56
   0  -6   8  169.06    5.45
   0  -6   8  176.39    5.25
   1  -6   8    2.82    0.73
   1  -6   8    3.57    0.58
   1  -6   8    3.57    0.78
   2  -6   8    0.57    0.23
   2  -6   8    0.50    0.24
   3  -6   8    0.50    0.19
   6   5  -8    0.21    0.12
   6   5  -8    0.58    0.30
  -6  -5   8    0.77    0.25
   5   5  -8    2.18    0.36
   5   5  -8    2.63    0.62
  -5  -5   8    2.46    0.38
  -5  -5   8    2.28    0.27
  -5  -5   8    2.27    0.55
   4   5  -8    8.49    1.03
   4   5  -8   10.43    0.77
  -4  -5   8    9.97    0.97
  -4  -5   8   10.31    0.76
  -4  -5   8    9.49    0.60
   3   5  -8   11.99    0.83
  -3  -5   8   12.09    1.04
  -3  -5   8   12.99    1.10
  -3  -5   8   12.18    1.46
  -3  -5   8   11.83    1.14
   2   5  -8    5.09    0.55
  -2  -5   8    4.97    0.62
  -2  -5   8    5.46    0.72
  -2  -5   8    4.80    0.58
  -2  -5   8    6.52    0.72
   1   5  -8    0.34    0.16
  -1  -5   8   -0.03    0.19
  -1  -5   8   -0.29    0.26
  -1  -5   8   -0.12    0.20
   0  -5   8   45.81    2.17
   0  -5   8   45.98    1.86
   0  -5   8   45.55    1.84
   0  -5   8   45.93    1.99
   0  -5   8   43.97    1.91
   1  -5   8   23.53    1.35
   1  -5   8   23.92    1.35
   1  -5   8   22.36    1.36
   1  -5   8   23.68    1.43
   2  -5   8    1.27    0.34
   2  -5   8    1.37    0.39
   3  -5   8    0.49    0.24
   3  -5   8    0.41    0.19
   4  -5   8   -0.07    0.14
   6   4  -8   -0.35    0.19
   6   4  -8   -0.03    0.19
  -6  -4   8    0.21    0.20
  -6  -4   8    0.12    0.11
  -6  -4   8    0.22    0.12
   5   4  -8   -0.17    0.28
   5   4  -8    0.20    0.19
  -5  -4   8    0.62    0.22
  -5  -4   8    0.31    0.18
  -5  -4   8    0.38    0.27
   4   4  -8   12.50    1.20
   4   4  -8   12.79    0.85
  -4  -4   8   11.67    0.72
  -4  -4   8   13.75    1.14
  -4  -4   8   10.98    0.83
  -4  -4   8   11.24    1.11
   3   4  -8    0.45    0.40
   3   4  -8    0.77    0.25
  -3  -4   8    0.73    0.33
  -3  -4   8    0.63    0.36
  -3  -4   8    0.33    0.18
  -3  -4   8    1.16    0.29
  -2  -4   8    5.89    0.72
  -2  -4   8    6.47    0.61
  -1  -4   8   30.91    1.37
  -1  -4   8   25.52    1.48
  -1  -4   8   29.54    1.50
  -1  -4   8   29.55    1.29
  -1  -4   8   28.46    1.44
   0  -4   8    9.33    0.73
   0  -4   8   13.19    0.99
   0  -4   8   11.51    0.78
   0  -4   8   13.27    0.93
   1  -4   8    7.54    0.64
   1  -4   8    6.32    0.67
   1  -4   8    7.87    0.81
   1  -4   8    6.42    0.70
   2  -4   8    2.97    0.54
   2  -4   8    2.67    0.47
   2  -4   8    2.63    0.59
   3  -4   8    0.40    0.31
   3  -4   8    0.82    0.25
   4  -4   8    0.55    0.27
   4  -4   8    0.85    0.29
   6   3  -8    0.05    0.22
  -6  -3   8    0.00    0.11
  -6  -3   8    0.04    0.13
   5   3  -8   -0.06    0.28
   5   3  -8    0.32    0.19
  -5  -3   8    0.09    0.14
  -5  -3   8    0.12    0.26
  -5  -3   8    0.31    0.20
   4   3  -8    1.95    0.38
   4   3  -8    1.95    0.56
  -4  -3   8    2.10    0.43
  -4  -3   8    1.94    0.48
  -4  -3   8    1.94    0.58
  -4  -3   8    1.74    0.35
   3   3  -8   -0.68    0.31
   3   3  -8    0.18    0.16
  -3  -3   8    0.03    0.13
  -3  -3   8    0.13    0.17
  -3  -3   8   -0.37    0.18
  -3  -3   8    0.02    0.20
   2   3  -8    0.21    0.13
  -2  -3   8    0.20    0.20
  -1  -3   8   31.78    1.27
  -1  -3   8   36.08    1.55
   0  -3   8   25.95    1.13
   0  -3   8   28.30    1.21
   1  -3   8    1.74    0.32
   2  -3   8    9.36    0.79
   2  -3   8   10.86    0.85
   2  -3   8    8.63    0.84
  -3   3  -8    9.23    0.86
   3  -3   8    8.96    0.82
   3  -3   8    9.06    0.76
   3  -3   8    7.60    1.27
  -4   3  -8   26.21    1.18
   4  -3   8   25.47    1.34
   5  -3   8    0.36    0.21
   5  -3   8    0.62    0.22
   6   2  -8    0.15    0.23
  -6  -2   8    0.09    0.11
  -6  -2   8    0.10    0.14
   5   2  -8    0.02    0.29
  -5  -2   8   -0.01    0.16
  -5  -2   8    0.15    0.14
   4   2  -8    0.28    0.35
   4   2  -8    0.75    0.25
  -4  -2   8    0.77    0.29
  -4  -2   8    0.42    0.19
  -4  -2   8   -0.07    0.37
   3   2  -8   18.45    1.41
   3   2  -8   19.65    1.01
   3   2  -8   18.24    1.03
  -3  -2   8   18.90    1.06
  -3  -2   8   17.43    1.39
  -3  -2   8   17.65    0.92
   2   2  -8   21.16    3.83
   2   2  -8   25.56    1.17
  -2  -2   8   21.48    3.77
   1   2  -8    1.86    1.08
   1   2  -8    3.77    0.41
  -1  -2   8    5.47    1.50
   0  -2   8   45.76    1.54
   0  -2   8   45.90    1.63
   1  -2   8    8.05    0.53
   2  -2   8    1.40    0.31
  -3   2  -8    0.11    0.20
   3  -2   8    0.47    0.24
   3  -2   8    0.91    0.32
   3  -2   8    0.31    0.33
  -4   2  -8  111.81    3.46
   4  -2   8  101.39    3.69
   4  -2   8  105.96    3.75
   4  -2   8  103.79    3.61
  -5   2  -8    8.59    0.59
   5  -2   8    8.85    0.77
   5  -2   8    7.95    0.66
   6  -2   8    1.75    0.32
   6   1  -8    1.42    0.28
  -6  -1   8    1.19    0.22
  -6  -1   8    1.18    0.20
   5   1  -8    0.06    0.27
  -5  -1   8    0.14    0.13
   4   1  -8    1.37    0.40
   4   1  -8    1.13    0.49
  -4  -1   8    1.39    0.32
   3   1  -8    4.42    0.80
   3   1  -8    4.12    0.53
   3   1  -8    3.70    0.47
  -3  -1   8    3.93    0.41
  -3  -1   8    4.89    0.89
   1   1  -8    3.46    0.41
   1   1  -8    4.11    1.24
  -1  -1   8    2.17    0.72
   0   1  -8   90.59    5.16
   0  -1   8   91.26    5.00
   0  -1   8   88.62    2.53
  -1   1  -8  183.46    8.19
   1  -1   8  185.32    4.96
   1  -1   8  198.95    8.36
   1  -1   8  189.86    5.13
   2  -1   8    4.61    0.41
  -3   1  -8    6.73    0.59
   3  -1   8    7.50    0.59
   3  -1   8    6.56    0.87
   3  -1   8    6.63    0.64
  -4   1  -8   23.56    1.41
   4  -1   8   19.35    1.16
  -5   1  -8   90.94    3.04
   5  -1   8   85.35    3.54
   5  -1   8   95.58    3.08
  -6   1  -8    0.28    0.14
   6  -1   8    0.47    0.17
   6  -1   8    0.42    0.20
  -6   0   8    0.21    0.13
  -6   0   8    0.09    0.10
   5   0  -8   -0.29    0.28
   5   0  -8   -0.02    0.21
  -5   0   8   -0.01    0.12
   4   0  -8   15.99    1.05
   4   0  -8   14.52    1.05
   4   0  -8   16.49    1.27
  -4   0   8   15.82    0.90
   3   0  -8    0.51    0.28
   3   0  -8    0.83    0.30
   3   0  -8   -0.07    0.24
   3   0  -8    0.89    0.30
  -3   0   8    0.23    0.16
   2   0  -8   11.66    0.86
   1   0  -8    0.89    0.28
   1   0  -8    0.22    0.71
  -1   0   8    0.38    0.76
   0   0  -8  178.68    7.79
   0   0   8  178.07    7.52
   0   0   8  177.11    4.62
  -1   0  -8  203.07    8.46
   1   0   8  192.36    8.27
   1   0   8  196.92    5.25
  -2   0  -8    5.05    1.48
  -2   0  -8    0.98    0.73
   2   0   8    2.28    0.32
   3   0   8   38.81    1.55
  -4   0  -8    0.64    0.26
   4   0   8    0.63    0.29
   4   0   8    1.10    0.47
   4   0   8    1.13    0.31
  -5   0  -8   17.50    1.05
   5   0   8   18.85    1.02
   5   0   8   18.05    1.43
  -6   0  -8    0.36    0.16
   6   0   8    0.74    0.28
   6   0   8    0.26    0.19
   5  -1  -8    1.33    0.30
  -5   1   8    0.80    0.18
   4  -1  -8    0.37    0.24
   4  -1  -8    0.21    0.23
   4  -1  -8    0.11    0.24
   4  -1  -8    0.15    0.29
  -4   1   8    0.06    0.13
   3  -1  -8   24.29    1.56
   3  -1  -8   23.39    1.49
   3  -1  -8   24.59    1.34
   3  -1  -8   24.91    1.42
  -3   1   8   23.05    1.13
   2  -1  -8    2.68    0.48
   2  -1  -8    2.80    0.54
   2  -1  -8    2.90    0.64
   1  -1  -8    8.96    0.73
  -1   1   8    8.00    1.76
   0  -1  -8   57.00    2.08
   0  -1  -8   54.53    3.88
   0   1   8   58.27    3.81
  -1  -1  -8  192.63    8.35
   1   1   8  194.78    5.16
  -2  -1  -8    5.77    1.37
  -2  -1  -8   11.80    2.46
   2   1   8    9.14    0.53
   3   1   8    0.15    0.14
  -4  -1  -8   38.89    1.68
   4   1   8   40.25    1.59
   4   1   8   36.00    2.15
   4   1   8   37.99    1.66
  -5  -1  -8    2.40    0.42
   5   1   8    1.63    0.61
  -6  -1  -8    1.64    0.32
   6   1   8    1.99    0.55
   5  -2  -8   -0.52    0.28
  -5   2   8    0.11    0.10
  -5   2   8   -0.03    0.12
   4  -2  -8    0.96    0.39
   4  -2  -8    0.45    0.28
  -4   2   8    0.78    0.21
   3  -2  -8    5.76    0.70
   3  -2  -8    4.95    0.94
   3  -2  -8    4.95    0.65
   3  -2  -8    4.24    0.66
   3  -2  -8    5.86    0.60
  -3   2   8    4.06    0.44
   2  -2  -8   19.65    1.26
   2  -2  -8   20.71    1.26
   2  -2  -8   19.26    1.12
  -2   2   8   21.82    1.01
   1  -2  -8   -0.13    0.21
   0   2   8   10.25    1.66
  -1  -2  -8   21.86    2.52
  -1  -2  -8   24.89    2.70
  -1  -2  -8   20.67    1.11
   1   2   8   25.13    0.89
  -2  -2  -8   37.45    3.84
  -2  -2  -8   30.55    3.32
   2   2   8   34.62    1.25
   3   2   8    0.61    0.21
  -4  -2  -8   13.22    1.19
  -4  -2  -8   15.23    0.93
   4   2   8   14.61    0.87
   4   2   8   15.52    0.94
   4   2   8   13.60    1.29
  -5  -2  -8   12.52    0.89
  -5  -2  -8   12.91    1.24
   5   2   8   11.98    1.24
   5   2   8   11.28    0.89
   5   2   8   12.50    0.78
  -6  -2  -8    0.08    0.16
  -6  -2  -8    0.75    0.29
   6   2   8    0.08    0.29
  -7  -2  -8    0.42    0.14
   7   2   8    0.60    0.21
   4  -3  -8    1.00    0.34
   4  -3  -8    0.61    0.32
  -4   3   8    0.83    0.26
   3  -3  -8    5.05    0.65
   3  -3  -8    5.02    0.68
   3  -3  -8    4.01    0.51
  -3   3   8    5.34    0.50
   2  -3  -8   18.48    1.14
   2  -3  -8   18.05    1.40
   2  -3  -8   20.33    1.17
   2  -3  -8   18.75    1.28
   1  -3  -8    0.25    0.22
   1  -3  -8    0.70    0.31
   1  -3  -8    0.55    0.28
   1  -3  -8    0.23    0.31
   1  -3  -8    0.55    0.33
   0  -3  -8   -0.09    0.16
  -1  -3  -8    0.02    0.17
  -2  -3  -8   46.29    1.84
  -2  -3  -8   45.13    1.94
  -3  -3  -8   28.36    1.68
  -3  -3  -8   27.49    1.25
   3   3   8   27.99    1.25
  -4  -3  -8    3.60    0.78
  -4  -3  -8    3.27    0.49
   4   3   8    3.88    0.54
   4   3   8    4.60    0.93
   4   3   8    3.93    0.45
  -5  -3  -8    5.51    0.98
   5   3   8    6.21    1.14
   5   3   8    5.76    0.57
   5   3   8    6.00    0.74
  -6  -3  -8    5.29    0.69
  -6  -3  -8    5.18    0.52
   6   3   8    6.24    0.85
   6   3   8    4.92    0.43
  -7  -3  -8    0.41    0.27
  -7  -3  -8    0.26    0.12
   7   3   8    0.65    0.26
   7   3   8    0.24    0.16
   4  -4  -8    0.63    0.28
   3  -4  -8    3.04    0.62
   3  -4  -8    3.57    0.41
   3  -4  -8    3.75    0.58
   2  -4  -8    7.27    0.84
   2  -4  -8    6.86    0.68
   2  -4  -8    8.81    0.77
   1  -4  -8    5.51    0.59
   1  -4  -8    5.48    0.71
   1  -4  -8    5.05    0.60
   1  -4  -8    5.30    0.87
   1  -4  -8    6.60    0.72
   0  -4  -8   16.68    1.03
   0  -4  -8   21.76    1.31
   0  -4  -8   17.05    1.06
   0  -4  -8   18.90    1.24
   0  -4  -8   17.72    1.16
   0  -4  -8   14.73    1.25
  -1  -4  -8   17.76    1.20
  -1  -4  -8   16.74    1.01
  -1  -4  -8   15.52    1.13
  -1  -4  -8   17.69    1.08
  -2  -4  -8    2.92    0.61
  -2  -4  -8    3.50    0.64
  -2  -4  -8    3.08    0.56
  -2  -4  -8    3.54    0.43
  -3  -4  -8   28.51    1.46
  -3  -4  -8   28.40    1.67
  -3  -4  -8   26.26    1.38
  -3  -4  -8   27.84    1.67
   3   4   8   29.73    1.32
  -4  -4  -8    1.71    0.51
  -4  -4  -8    1.75    0.33
  -4  -4  -8    1.81    0.58
   4   4   8    1.96    0.41
   4   4   8    1.77    0.71
  -5  -4  -8    0.17    0.19
   5   4   8   -0.10    0.39
   5   4   8    0.08    0.16
  -6  -4  -8    0.27    0.17
  -6  -4  -8   -0.15    0.19
   6   4   8    0.12    0.19
   6   4   8    0.00    0.32
  -7  -4  -8    0.03    0.10
   7   4   8    0.32    0.24
   3  -5  -8    5.25    0.62
   3  -5  -8    5.86    0.53
   2  -5  -8    0.01    0.27
   2  -5  -8   -0.10    0.14
   2  -5  -8    0.21    0.25
   1  -5  -8    1.23    0.36
   1  -5  -8    0.74    0.34
   1  -5  -8    0.77    0.35
   1  -5  -8    1.26    0.46
   0  -5  -8    9.02    1.40
   0  -5  -8   10.20    0.82
   0  -5  -8   10.15    0.95
   0  -5  -8   11.96    1.02
  -1  -5  -8   48.17    1.95
  -1  -5  -8   49.82    2.32
  -1  -5  -8   48.45    2.26
  -1  -5  -8   49.58    2.06
  -2  -5  -8   -0.15    0.27
  -2  -5  -8    1.01    0.32
  -2  -5  -8    0.58    0.24
  -2  -5  -8    0.23    0.31
  -2  -5  -8   -0.15    0.25
   2   5   8    0.48    0.20
  -3  -5  -8   11.80    1.02
  -3  -5  -8   10.62    0.80
  -3  -5  -8    9.63    0.91
  -3  -5  -8    9.93    0.96
   3   5   8   11.54    0.77
  -4  -5  -8    3.42    0.57
  -4  -5  -8    2.37    0.62
   4   5   8    2.54    0.45
  -5  -5  -8   36.76    2.07
   5   5   8   36.30    1.60
   5   5   8   35.88    2.47
  -6  -5  -8    0.27    0.19
  -6  -5  -8    0.55    0.28
   6   5   8    0.37    0.16
   6   5   8    0.02    0.30
  -7  -5  -8    0.19    0.24
   2  -6  -8   10.70    1.00
   2  -6  -8    8.13    0.57
   1  -6  -8    3.05    0.61
   1  -6  -8    2.78    0.44
   1  -6  -8    2.92    0.48
   0  -6  -8    0.44    0.24
   0  -6  -8    0.90    0.35
   0  -6  -8    0.72    0.37
  -1  -6  -8    0.17    0.17
  -1  -6  -8    0.43    0.29
  -1  -6  -8    0.01    0.19
  -2  -6  -8   15.94    1.49
  -2  -6  -8   15.14    1.22
  -2  -6  -8   13.92    0.99
  -2  -6  -8   13.58    1.13
  -2  -6  -8   15.38    0.96
   2   6   8   14.04    0.87
  -3  -6  -8    1.98    0.46
  -3  -6  -8    1.10    0.39
  -3  -6  -8    0.93    0.34
  -3  -6  -8    1.10    0.30
   3   6   8    1.21    0.28
  -4  -6  -8    1.46    0.34
  -4  -6  -8    1.29    0.47
  -4  -6  -8    1.25    0.39
   4   6   8    1.82    0.36
  -5  -6  -8    3.57    0.68
   5   6   8    2.77    0.43
  -6  -6  -8    9.43    0.97
   6   6   8   10.38    0.95
   6   6   8    7.53    0.60
   1  -7  -8    9.02    0.75
   1  -7  -8    6.69    0.54
   0  -7  -8   -0.02    0.21
   0  -7  -8    0.11    0.17
   0  -7  -8   -0.15    0.12
  -1  -7  -8    0.94    0.38
  -1  -7  -8    1.41    0.47
  -1  -7  -8    0.88    0.28
  -2  -7  -8    1.19    0.42
  -2  -7  -8    2.18    0.61
  -3  -7  -8    6.40    0.53
  -3  -7  -8    5.95    0.73
  -3  -7  -8    5.97    0.59
   3   7   8    6.05    0.53
  -4  -7  -8    0.23    0.21
  -4  -7  -8    0.19    0.15
  -4  -7  -8   -0.01    0.21
   4   7   8   -0.23    0.12
  -5  -7  -8    1.05    0.33
   5   7   8    1.12    0.27
   6   7   8    0.12    0.12
   0  -8  -8    0.55    0.24
   0  -8  -8    0.25    0.16
  -1  -8  -8   -0.14    0.11
  -1  -8  -8    0.25    0.22
  -2  -8  -8   -0.12    0.20
  -2  -8  -8    0.12    0.15
  -3  -8  -8    2.65    0.34
  -3  -8  -8    2.04    0.45
  -4  -8  -8   -0.12    0.20
  -4  -8  -8   -0.02    0.13
   4   8   8    0.02    0.11
   5   8   8    0.22    0.11
  -2  -9  -8    0.25    0.17
  -2  -9  -8    0.13    0.11
  -3  -9  -8    0.21    0.13
  -3  -9  -8    0.55    0.20
   4   8  -9   -0.05    0.13
  -4  -8   9    0.45    0.16
   3   8  -9    1.09    0.20
  -2  -8   9    0.81    0.41
  -1  -8   9    0.21    0.29
  -1  -8   9    0.13    0.19
   0  -8   9   -0.13    0.13
   5   7  -9    0.00    0.12
  -5  -7   9    0.12    0.16
   4   7  -9    0.22    0.20
   3   7  -9    1.41    0.28
  -3  -7   9    1.61    0.46
  -3  -7   9    1.54    0.34
   2   7  -9   16.61    0.90
  -2  -7   9   15.67    1.17
  -1  -7   9    0.96    0.46
  -1  -7   9    0.30    0.23
   0  -7   9    0.60    0.34
   0  -7   9    0.29    0.21
   0  -7   9    0.29    0.33
   1  -7   9    0.15    0.18
   1  -7   9    0.24    0.15
   2  -7   9    0.75    0.22
   2  -7   9    1.48    0.22
   5   6  -9    0.11    0.15
   5   6  -9    0.12    0.34
  -5  -6   9    0.09    0.18
   4   6  -9    0.17    0.17
  -4  -6   9    0.19    0.25
   3   6  -9    2.41    0.41
  -3  -6   9    2.22    0.55
  -3  -6   9    3.01    0.60
   2   6  -9   10.54    0.75
  -2  -6   9    9.96    0.94
  -2  -6   9    9.44    0.80
   1   6  -9   54.67    2.06
  -1  -6   9   55.67    2.07
  -1  -6   9   53.95    2.12
  -1  -6   9   59.38    2.55
   0  -6   9    0.32    0.21
   0  -6   9    0.71    0.38
   1  -6   9    4.58    0.56
   1  -6   9    5.49    0.70
   1  -6   9    4.99    0.56
   2  -6   9    1.59    0.34
   2  -6   9    1.13    0.31
   3  -6   9    2.20    0.32
   6   5  -9   -0.15    0.19
  -6  -5   9    0.24    0.15
   5   5  -9    1.44    0.48
   5   5  -9    0.89    0.22
  -5  -5   9    0.47    0.15
  -5  -5   9    0.43    0.22
  -5  -5   9    1.03    0.35
   4   5  -9    2.24    0.41
   4   5  -9    2.43    0.67
  -4  -5   9    4.67    0.80
  -4  -5   9    3.30    0.35
  -4  -5   9    4.05    0.71
   3   5  -9    0.62    0.26
  -3  -5   9    1.17    0.32
  -3  -5   9    0.66    0.36
  -3  -5   9    0.91    0.57
   2   5  -9    8.27    0.80
  -2  -5   9   11.05    0.97
  -2  -5   9    8.36    0.71
   1   5  -9    8.33    0.68
  -1  -5   9    7.72    0.76
  -1  -5   9    8.65    0.88
  -1  -5   9    7.24    0.86
   0   5  -9   65.13    2.40
   0  -5   9   71.08    2.53
   0  -5   9   68.27    2.57
   0  -5   9   68.03    2.63
   1  -5   9   11.06    1.01
   1  -5   9    9.79    0.87
   1  -5   9   11.62    0.90
   1  -5   9   10.45    0.88
   2  -5   9    2.25    0.51
   2  -5   9    2.31    0.64
   3  -5   9    4.13    0.55
   3  -5   9    2.73    0.46
   4  -5   9    3.09    0.35
   6   4  -9    0.31    0.25
  -6  -4   9    0.62    0.17
  -6  -4   9    0.08    0.25
  -6  -4   9    0.30    0.10
   5   4  -9    7.16    0.85
   5   4  -9    7.00    0.55
  -5  -4   9    6.03    0.73
  -5  -4   9    7.14    0.51
  -5  -4   9    6.00    0.54
   4   4  -9    0.53    0.41
   4   4  -9    0.30    0.18
  -4  -4   9   -0.04    0.20
  -4  -4   9    0.34    0.17
  -4  -4   9   -0.06    0.23
   3   4  -9    5.39    0.98
   3   4  -9    4.11    0.68
  -3  -4   9    4.39    0.72
  -3  -4   9    4.76    0.79
  -3  -4   9    4.62    0.44
   2   4  -9    1.21    0.32
  -2  -4   9    1.29    0.26
  -2  -4   9    1.45    0.45
  -2  -4   9    1.76    0.36
  -2  -4   9    1.40    0.46
  -2  -4   9    1.79    0.42
  -1  -4   9    7.41    0.75
  -1  -4   9    7.80    0.72
  -1  -4   9    7.94    0.78
  -1  -4   9    8.62    0.87
   0   4  -9   25.93    1.21
   0  -4   9   22.09    1.17
   0  -4   9   23.26    1.43
   0  -4   9   23.20    1.33
  -1   4  -9    6.69    0.62
   1  -4   9    7.12    0.65
   1  -4   9    7.56    0.75
   1  -4   9    7.13    0.76
   1  -4   9    7.30    0.68
   1  -4   9    6.77    0.81
   2  -4   9    5.80    0.65
   2  -4   9    4.46    0.57
   2  -4   9    4.73    0.90
   3  -4   9    0.73    0.32
   3  -4   9    1.26    0.39
   4  -4   9    4.45    0.50
   6   3  -9    0.02    0.21
  -6  -3   9    0.57    0.21
  -6  -3   9    0.28    0.13
   5   3  -9    0.58    0.20
   5   3  -9    1.01    0.47
  -5  -3   9    0.63    0.22
  -5  -3   9    1.31    0.43
  -5  -3   9    0.78    0.27
   4   3  -9    2.38    0.63
   4   3  -9    2.03    0.38
  -4  -3   9    2.17    0.44
  -4  -3   9    1.32    0.30
  -4  -3   9    1.67    0.52
   3   3  -9    4.46    0.49
   3   3  -9    5.37    0.72
  -3  -3   9    4.62    0.54
  -3  -3   9    3.58    0.73
  -3  -3   9    4.09    0.68
  -3  -3   9    4.44    0.45
   2   3  -9    5.98    0.60
  -2  -3   9    5.40    0.57
  -2  -3   9    5.27    0.61
  -2  -3   9    4.57    0.42
  -1  -3   9    5.93    0.60
   0  -3   9   38.64    1.50
   0  -3   9   38.68    1.54
   1  -3   9   17.20    1.12
   1  -3   9   16.97    0.94
   1  -3   9   17.25    1.16
  -2   3  -9   11.46    0.79
   2  -3   9   12.57    0.86
   2  -3   9   11.26    0.98
   2  -3   9   11.86    0.95
   2  -3   9   12.39    0.87
  -3   3  -9    2.30    0.42
   3  -3   9    3.15    0.55
   3  -3   9    2.81    0.56
   3  -3   9    2.08    0.42
   3  -3   9    1.77    0.45
   3  -3   9    1.91    0.55
  -4   3  -9    0.14    0.15
   4  -3   9    0.00    0.19
   4  -3   9   -0.08    0.16
   5  -3   9    0.38    0.19
   6   2  -9    0.61    0.24
  -6  -2   9    0.30    0.14
  -6  -2   9    0.50    0.16
   5   2  -9    0.26    0.32
  -5  -2   9    0.22    0.15
  -5  -2   9   -0.10    0.25
  -5  -2   9    0.04    0.16
   4   2  -9    2.57    0.67
   4   2  -9    2.80    0.42
  -4  -2   9    3.18    0.68
  -4  -2   9    1.93    0.33
  -4  -2   9    2.41    0.46
   3   2  -9   11.28    1.10
   3   2  -9   10.80    0.75
   3   2  -9    9.90    0.84
  -3  -2   9   11.80    0.82
  -3  -2   9    9.85    0.96
  -3  -2   9   11.93    0.72
   2   2  -9    1.66    0.30
   2   2  -9    1.34    0.32
  -2  -2   9    1.55    0.32
  -2  -2   9    1.71    0.30
   1   2  -9    0.04    0.14
   0  -2   9   13.12    0.66
   0  -2   9   12.60    0.72
   1  -2   9    6.01    0.46
   2  -2   9   23.08    1.48
   2  -2   9   24.50    1.16
  -3   2  -9   22.29    1.18
   3  -2   9   21.61    1.19
   3  -2   9   22.67    1.47
   3  -2   9   22.55    1.31
  -4   2  -9    0.65    0.26
   4  -2   9    1.15    0.37
   4  -2   9    1.18    0.38
   4  -2   9    1.21    0.42
  -5   2  -9    0.64    0.30
   5  -2   9    0.66    0.26
   5  -2   9    0.48    0.21
   6   1  -9    0.23    0.17
  -6  -1   9    0.08    0.11
  -6  -1   9    0.32    0.14
   5   1  -9   -0.07    0.24
  -5  -1   9   -0.09    0.10
  -5  -1   9    0.05    0.15
   4   1  -9    0.12    0.31
  -4  -1   9    0.46    0.17
  -4  -1   9    0.05    0.21
  -4  -1   9   -0.51    0.37
   3   1  -9    9.97    0.94
   3   1  -9   10.34    1.05
   3   1  -9   10.46    0.73
  -3  -1   9   11.76    0.73
  -3  -1   9   11.87    1.04
  -3  -1   9   10.62    0.81
   2   1  -9   23.92    1.28
  -2  -1   9   24.80    1.29
   1   1  -9    3.51    1.21
   1   1  -9    2.56    0.48
  -1  -1   9    4.28    1.53
   0   1  -9   21.12    3.39
   0  -1   9   25.69    0.91
   1  -1   9  113.19    3.27
   2  -1   9   13.39    0.74
  -3   1  -9   43.34    1.72
   3  -1   9   37.85    2.07
   3  -1   9   38.12    1.76
  -4   1  -9    3.97    0.51
   4  -1   9    5.33    0.92
   4  -1   9    4.46    0.59
   4  -1   9    5.13    0.70
  -5   1  -9    1.30    0.33
   5  -1   9    1.17    0.37
   5  -1   9    1.90    0.36
   5  -1   9    0.53    0.40
  -6   1  -9    0.17    0.14
   6  -1   9    0.43    0.20
   5   0  -9    1.07    0.32
  -5   0   9    1.16    0.25
  -5   0   9    1.35    0.31
   4   0  -9    6.96    0.86
   4   0  -9    6.81    0.69
  -4   0   9    7.87    0.60
   3   0  -9    0.82    0.36
   3   0  -9    1.25    0.46
   3   0  -9    0.98    0.37
  -3   0   9    0.56    0.21
   2   0  -9    1.12    0.35
   2   0  -9    0.64    0.21
   2   0  -9    0.86    0.38
  -2   0   9    1.22    0.27
  -2   0   9    0.64    0.16
   1   0  -9   21.24    1.17
  -1   0   9   22.54    2.65
   0   0  -9   76.75    5.16
   0   0   9   77.29    4.96
  -1   0  -9    5.51    1.30
   1   0   9    6.13    1.68
   1   0   9    7.02    0.41
   2   0   9    0.65    0.21
  -3   0  -9   32.84    1.48
   3   0   9   34.64    1.45
   3   0   9   34.71    1.99
  -4   0  -9   72.46    2.65
   4   0   9   76.00    3.31
   4   0   9   75.50    2.70
   4   0   9   70.99    2.68
  -5   0  -9    0.84    0.28
   5   0   9    1.24    0.54
  -6   0  -9    0.03    0.20
   6   0   9    0.01    0.19
   6   0   9    0.13    0.21
   5  -1  -9   -0.03    0.32
  -5   1   9    0.17    0.10
  -5   1   9    0.01    0.11
   4  -1  -9    1.72    0.53
   4  -1  -9    2.28    0.40
   4  -1  -9    2.31    0.46
  -4   1   9    1.86    0.31
   3  -1  -9   11.15    0.98
   3  -1  -9    8.73    1.03
   3  -1  -9   10.43    0.87
   3  -1  -9   10.50    0.98
  -3   1   9    9.16    0.87
   2  -1  -9   -0.44    0.22
   2  -1  -9    0.14    0.26
   2  -1  -9   -0.38    0.20
  -2   1   9    0.07    0.11
   1  -1  -9   17.07    1.09
   0  -1  -9   65.45    2.41
   0  -1  -9   61.34    4.61
   0   1   9   69.16    4.56
  -1  -1  -9   29.74    3.21
   1   1   9   33.80    1.09
  -2  -1  -9    6.67    1.85
   2   1   9    2.65    0.29
  -3  -1  -9    3.82    0.44
   3   1   9    4.05    0.43
   3   1   9    4.36    0.88
  -4  -1  -9   39.19    2.25
  -4  -1  -9   39.55    1.71
   4   1   9   38.98    2.28
   4   1   9   35.26    1.53
   4   1   9   40.77    1.73
  -5  -1  -9    6.37    1.06
  -5  -1  -9    5.52    0.59
   5   1   9    5.59    0.96
  -6  -1  -9    5.33    0.51
   6   1   9    4.71    0.67
  -5   2   9   -0.04    0.09
   4  -2  -9    0.75    0.23
   4  -2  -9    1.18    0.36
   4  -2  -9    0.72    0.30
  -4   2   9    0.70    0.25
  -4   2   9    1.05    0.20
   3  -2  -9    0.45    0.30
   3  -2  -9    0.25    0.23
   3  -2  -9   -0.21    0.24
   3  -2  -9   -0.14    0.18
  -3   2   9   -0.09    0.12
   2  -2  -9    1.43    0.41
   2  -2  -9    1.06    0.38
   2  -2  -9    1.14    0.37
   2  -2  -9    1.06    0.43
  -2   2   9    1.30    0.27
   1  -2  -9    2.59    0.48
   1  -2  -9    3.08    0.67
   1  -2  -9    2.32    0.52
   0  -2  -9   11.30    0.85
  -1  -2  -9    0.31    1.62
   2   2   9   12.91    0.67
  -3  -2  -9   12.43    0.82
  -3  -2  -9   14.03    1.26
   3   2   9   12.38    0.75
   3   2   9   13.78    0.79
  -4  -2  -9    1.46    0.53
  -4  -2  -9    1.60    0.38
   4   2   9    1.34    0.60
   4   2   9    1.87    0.41
   4   2   9    2.14    0.40
  -5  -2  -9   10.76    0.82
  -5  -2  -9   10.70    1.10
   5   2   9   11.15    1.18
   5   2   9   11.32    0.74
  -6  -2  -9    0.42    0.39
  -6  -2  -9    1.19    0.31
   6   2   9    1.32    0.51
  -7  -2  -9   -0.04    0.09
   7   2   9    0.26    0.24
   7   2   9    0.12    0.14
   4  -3  -9    0.51    0.25
  -4   3   9    0.09    0.13
   3  -3  -9    1.46    0.36
  -3   3   9    1.28    0.27
  -3   3   9    1.62    0.32
   2  -3  -9    5.25    0.72
   2  -3  -9    5.50    0.67
   2  -3  -9    4.98    0.60
   1  -3  -9    4.03    0.56
   1  -3  -9    3.99    0.54
   1  -3  -9    4.88    0.62
   1  -3  -9    3.57    0.48
   1  -3  -9    4.20    0.71
  -1   3   9    3.46    0.39
   0  -3  -9    2.10    0.46
   0  -3  -9    1.78    0.44
  -1  -3  -9   -0.24    0.16
  -2  -3  -9   16.32    1.02
   2   3   9   16.71    0.79
  -3  -3  -9    1.20    0.51
  -3  -3  -9    0.99    0.27
  -3  -3  -9    0.79    0.28
   3   3   9    0.74    0.22
   3   3   9    0.63    0.21
  -4  -3  -9    1.85    0.36
  -4  -3  -9    2.21    0.60
   4   3   9    1.75    0.34
   4   3   9    2.47    0.69
   4   3   9    2.08    0.40
  -5  -3  -9    0.79    0.35
  -5  -3  -9    0.55    0.22
   5   3   9    0.49    0.21
   5   3   9    0.45    0.39
  -6  -3  -9   -0.47    0.19
  -6  -3  -9   -0.03    0.15
   6   3   9   -0.12    0.14
   6   3   9    0.00    0.28
  -7  -3  -9   -0.05    0.10
   7   3   9    0.55    0.24
   7   3   9    0.14    0.12
   4  -4  -9    0.72    0.31
   3  -4  -9    0.15    0.19
   3  -4  -9    0.35    0.30
   3  -4  -9    0.49    0.27
   2  -4  -9   -0.21    0.22
   2  -4  -9   -0.22    0.17
   2  -4  -9    0.08    0.26
   1  -4  -9    4.05    0.76
   1  -4  -9    4.25    1.00
   1  -4  -9    4.00    0.71
   0  -4  -9    4.95    0.80
   0  -4  -9    4.37    0.78
   0  -4  -9    4.82    0.65
   0  -4  -9    4.78    0.55
   0  -4  -9    5.25    0.60
   0   4   9    4.90    0.73
  -1  -4  -9    1.65    0.37
  -1  -4  -9    1.66    0.42
  -1  -4  -9    1.49    0.47
   1   4   9    1.83    0.30
  -2  -4  -9    1.00    0.36
  -2  -4  -9    0.48    0.37
  -2  -4  -9    0.80    0.32
  -2  -4  -9    0.65    0.24
  -2  -4  -9    0.72    0.30
   2   4   9    0.60    0.34
  -3  -4  -9    0.16    0.29
  -3  -4  -9    0.66    0.31
  -3  -4  -9    0.28    0.26
  -3  -4  -9    0.01    0.24
   3   4   9    0.41    0.19
  -4  -4  -9    1.32    0.43
  -4  -4  -9    2.52    0.60
  -4  -4  -9    3.44    0.72
   4   4   9    2.59    0.43
   4   4   9    2.88    0.81
   4   4   9    2.26    0.43
  -5  -4  -9    0.53    0.38
  -5  -4  -9    0.39    0.21
   5   4   9    0.36    0.41
   5   4   9    0.42    0.20
  -6  -4  -9    1.30    0.28
  -6  -4  -9    1.36    0.46
   6   4   9    0.80    0.41
   6   4   9    0.88    0.22
  -7  -4  -9   -0.06    0.14
  -7  -4  -9    0.10    0.09
   7   4   9    0.05    0.20
   3  -5  -9    1.39    0.34
   2  -5  -9    0.50    0.31
   2  -5  -9    0.21    0.16
   2  -5  -9    0.51    0.25
   1  -5  -9    0.86    0.31
   1  -5  -9    0.44    0.26
   1  -5  -9    0.30    0.36
   1  -5  -9    0.51    0.23
   0  -5  -9    0.09    0.15
   0  -5  -9   -0.38    0.23
  -1  -5  -9    2.90    0.56
  -1  -5  -9    2.09    0.59
  -1  -5  -9    3.17    0.63
  -1  -5  -9    3.08    0.53
  -1  -5  -9    3.26    0.54
   1   5   9    2.73    0.43
  -2  -5  -9   -0.33    0.27
  -2  -5  -9    0.58    0.37
  -2  -5  -9    0.18    0.27
  -2  -5  -9    0.56    0.25
  -2  -5  -9    0.22    0.28
  -2  -5  -9    0.17    0.28
   2   5   9    0.14    0.21
  -3  -5  -9   -0.20    0.18
  -3  -5  -9   -0.28    0.18
   3   5   9    0.24    0.19
  -4  -5  -9    2.57    0.53
  -4  -5  -9    3.98    0.79
   4   5   9    1.69    0.51
   4   5   9    3.27    0.51
  -5  -5  -9    7.60    0.54
   5   5   9   10.38    1.13
   5   5   9    6.47    0.83
  -6  -5  -9    0.15    0.24
  -6  -5  -9    0.42    0.13
   6   5   9    0.06    0.13
   6   5   9   -0.15    0.28
   2  -6  -9    0.07    0.14
   2  -6  -9    0.27    0.23
   1  -6  -9    0.58    0.23
   1  -6  -9    1.05    0.40
   1  -6  -9    0.48    0.34
   0  -6  -9    0.11    0.30
   0  -6  -9    0.11    0.26
   0  -6  -9    0.01    0.16
  -1  -6  -9    0.25    0.28
  -1  -6  -9    0.38    0.30
  -1  -6  -9    0.11    0.14
  -2  -6  -9    2.36    0.55
  -2  -6  -9    2.52    0.62
  -2  -6  -9    2.64    0.46
  -2  -6  -9    2.13    0.41
   2   6   9    2.02    0.35
  -3  -6  -9    0.07    0.23
  -3  -6  -9   -0.07    0.15
  -3  -6  -9    0.34    0.26
   3   6   9    0.32    0.17
  -4  -6  -9    0.38    0.34
   4   6   9    0.55    0.21
  -5  -6  -9    1.25    0.39
   5   6   9    0.85    0.24
  -6  -6  -9    3.98    0.54
   6   6   9    4.38    0.39
   1  -7  -9    0.60    0.26
   1  -7  -9    0.91    0.23
   0  -7  -9    0.05    0.20
   0  -7  -9    0.00    0.13
   0  -7  -9    0.87    0.36
  -1  -7  -9    1.41    0.33
  -1  -7  -9    0.92    0.36
  -1  -7  -9    1.49    0.44
  -2  -7  -9    0.51    0.22
  -2  -7  -9    0.30    0.29
  -3  -7  -9   -0.05    0.26
  -3  -7  -9    0.38    0.21
  -3  -7  -9    0.69    0.32
   3   7   9    0.36    0.19
  -4  -7  -9    0.03    0.20
  -4  -7  -9    0.02    0.19
  -4  -7  -9    0.02    0.18
   4   7   9   -0.08    0.09
   5   7   9   -0.07    0.11
  -6  -7  -9    0.18    0.18
   6   7   9    0.22    0.12
   0  -8  -9    0.08    0.09
   0  -8  -9    0.22    0.28
  -1  -8  -9   -0.15    0.09
  -1  -8  -9    0.29    0.18
  -2  -8  -9    0.28    0.33
  -3  -8  -9    0.94    0.20
   3   8   9    0.07    0.18
  -4  -8  -9    0.31    0.20
  -4  -8  -9    0.37    0.13
   4   8   9    0.52    0.13
   5   8   9    0.15    0.09
   3   8 -10    1.35    0.25
  -3  -8  10    1.43    0.26
  -2  -8  10    1.54    0.30
  -1  -8  10    1.65    0.30
   0  -8  10    0.12    0.15
   4   7 -10    0.50    0.20
  -4  -7  10    0.20    0.18
   3   7 -10    0.32    0.18
  -3  -7  10    0.60    0.24
   2   7 -10    0.72    0.21
  -2  -7  10    1.31    0.46
   1   7 -10    0.17    0.18
  -1  -7  10    0.77    0.27
  -1  -7  10    0.51    0.36
   0  -7  10    0.53    0.21
   0  -7  10   -0.12    0.28
   0  -7  10    0.22    0.20
   1  -7  10   -0.23    0.15
   1  -7  10   -0.14    0.12
   5   6 -10    0.21    0.13
   5   6 -10    0.25    0.32
  -5  -6  10    0.05    0.15
   4   6 -10   -0.01    0.13
  -4  -6  10   -0.01    0.20
   3   6 -10    5.57    0.54
  -3  -6  10    5.63    0.66
   2   6 -10    1.78    0.37
  -2  -6  10    1.70    0.55
  -2  -6  10    1.91    0.44
   1   6 -10   19.13    1.03
  -1  -6  10   19.32    1.38
  -1  -6  10   19.26    1.02
  -1  -6  10   18.92    1.09
   0   6 -10    4.73    0.47
   0  -6  10    5.14    0.95
   0  -6  10    4.43    0.57
   0  -6  10    4.34    0.78
   1  -6  10    5.31    0.56
   1  -6  10    5.95    0.59
   2  -6  10    1.90    0.34
   2  -6  10    2.40    0.55
   3  -6  10    0.43    0.19
   5   5 -10    3.08    0.38
   5   5 -10    2.43    0.54
  -5  -5  10    3.43    0.34
  -5  -5  10    2.36    0.30
   4   5 -10    3.35    0.43
   4   5 -10    2.50    0.68
  -4  -5  10    2.66    0.44
  -4  -5  10    2.48    0.56
  -4  -5  10    2.62    0.35
   3   5 -10    2.49    0.42
  -3  -5  10    2.59    0.58
  -3  -5  10    2.44    0.43
   2   5 -10    6.54    0.61
  -2  -5  10    7.36    0.87
  -2  -5  10    6.66    0.85
  -2  -5  10    5.65    0.74
   1   5 -10  268.55    7.46
  -1  -5  10  261.39    7.70
  -1  -5  10  258.59    7.92
   0   5 -10    0.67    0.24
   0  -5  10    1.11    0.50
   0  -5  10    0.45    0.31
   0  -5  10    0.53    0.24
   0  -5  10    1.26    0.34
  -1   5 -10    5.65    0.56
   1  -5  10    5.68    0.65
   1  -5  10    6.10    0.75
   1  -5  10    6.26    0.65
   2  -5  10    1.08    0.34
   2  -5  10    1.51    0.36
   3  -5  10   14.01    0.78
   3  -5  10   14.82    0.90
   5   4 -10    4.67    0.67
   5   4 -10    3.48    0.37
  -5  -4  10    3.39    0.34
  -5  -4  10    4.12    0.57
  -5  -4  10    4.16    0.42
   4   4 -10    9.95    0.74
  -4  -4  10    8.60    0.72
  -4  -4  10   11.21    1.02
   3   4 -10    0.41    0.38
   3   4 -10    0.60    0.26
  -3  -4  10    0.68    0.32
  -3  -4  10    0.49    0.29
  -3  -4  10   -0.01    0.15
  -3  -4  10    0.17    0.24
   2   4 -10    0.14    0.19
  -2  -4  10    0.86    0.32
  -2  -4  10   -0.43    0.19
  -2  -4  10    0.13    0.29
  -2  -4  10    0.35    0.33
  -2  -4  10   -0.14    0.21
   1   4 -10   86.91    2.93
  -1  -4  10   86.29    3.30
  -1  -4  10   84.25    3.24
  -1  -4  10   85.05    3.01
   0   4 -10  174.52    5.22
   0  -4  10  176.37    5.66
   0  -4  10  179.38    5.26
   0  -4  10  173.08    5.49
  -1   4 -10    0.09    0.20
   1  -4  10    0.26    0.22
   1  -4  10    0.27    0.25
   1  -4  10   -0.34    0.31
   1  -4  10    0.23    0.18
   1  -4  10    0.32    0.34
  -2   4 -10    3.19    0.48
   2  -4  10    2.34    0.46
   2  -4  10    3.32    0.61
   2  -4  10    2.79    0.52
   3  -4  10    1.23    0.29
   3  -4  10    1.14    0.37
   4  -4  10    1.46    0.36
   6   3 -10   -0.08    0.17
  -6  -3  10   -0.11    0.08
  -6  -3  10    0.14    0.18
   5   3 -10    4.71    0.52
   5   3 -10    5.53    0.75
  -5  -3  10    4.72    0.61
  -5  -3  10    4.06    0.44
  -5  -3  10    4.02    0.45
   4   3 -10    4.56    0.85
   4   3 -10    4.32    0.48
  -4  -3  10    4.52    0.48
  -4  -3  10    4.36    0.60
  -4  -3  10    4.86    0.84
   3   3 -10    1.57    0.50
  -3  -3  10    1.73    0.33
  -3  -3  10    2.26    0.50
  -3  -3  10    1.79    0.40
  -3  -3  10    2.29    0.66
   2   3 -10   14.53    1.24
   2   3 -10   15.26    0.90
  -2  -3  10   14.32    1.06
  -2  -3  10   14.01    1.10
  -2  -3  10   14.72    0.80
  -2  -3  10   14.41    0.93
   1   3 -10   25.67    1.42
   1   3 -10   26.97    1.32
  -1  -3  10   27.65    1.39
  -1  -3  10   26.67    1.71
   0   3 -10    9.43    0.69
   0  -3  10    9.41    1.09
   0  -3  10    9.64    0.67
   1  -3  10    2.54    0.53
   1  -3  10    1.65    0.34
  -2   3 -10   10.35    0.75
   2  -3  10    9.04    0.75
   2  -3  10    9.50    0.75
   2  -3  10    9.36    0.93
   2  -3  10    8.89    0.84
  -3   3 -10    0.30    0.19
   3  -3  10    0.22    0.31
   3  -3  10    0.28    0.26
  -4   3 -10   -0.15    0.13
   4  -3  10    0.15    0.24
   4  -3  10    0.00    0.22
   5  -3  10    0.10    0.15
   5   2 -10    0.69    0.36
  -5  -2  10   -0.18    0.14
  -5  -2  10    0.21    0.15
  -5  -2  10   -0.57    0.26
   4   2 -10    3.35    0.80
   4   2 -10    4.26    0.48
  -4  -2  10    4.62    0.82
  -4  -2  10    4.65    0.47
  -4  -2  10    3.62    0.55
   3   2 -10    0.44    0.22
   3   2 -10    0.36    0.40
  -3  -2  10   -0.12    0.19
  -3  -2  10    0.62    0.21
  -3  -2  10    0.96    0.36
   2   2 -10    7.34    0.68
   2   2 -10    7.26    0.61
  -2  -2  10    7.67    0.66
  -2  -2  10    8.11    0.57
  -2  -2  10    7.96    0.93
   1   2 -10    4.92    0.53
  -1  -2  10    4.96    0.58
   0  -2  10    6.94    0.48
   0  -2  10    7.67    0.57
   1  -2  10   20.42    0.97
   1  -2  10   19.25    1.24
  -2   2 -10    0.58    0.22
   2  -2  10    0.25    0.17
   2  -2  10    0.87    0.37
  -3   2 -10   10.34    0.78
   3  -2  10   10.37    0.96
   3  -2  10   11.40    0.83
   4  -2  10    2.04    0.45
   4  -2  10    1.34    0.55
  -5   2 -10    0.01    0.13
   5  -2  10    0.31    0.17
   5   1 -10    0.11    0.26
  -5  -1  10    0.07    0.13
  -5  -1  10    0.30    0.16
   4   1 -10    0.63    0.37
  -4  -1  10    0.80    0.27
  -4  -1  10    0.17    0.19
   3   1 -10    1.79    0.62
   3   1 -10    2.06    0.41
   3   1 -10    1.83    0.46
  -3  -1  10    2.16    0.43
  -3  -1  10    1.95    0.37
  -3  -1  10    2.09    0.65
   2   1 -10    4.68    0.57
   2   1 -10    4.12    0.82
  -2  -1  10    3.97    0.40
  -2  -1  10    4.16    0.45
  -2  -1  10    4.17    0.61
   1   1 -10    9.20    0.74
   0  -1  10   18.14    0.75
   1  -1  10    1.73    0.26
  -2   1 -10    2.08    0.38
   2  -1  10    1.97    0.50
   2  -1  10    1.63    0.32
  -3   1 -10   79.40    2.77
   3  -1  10   78.43    2.74
   3  -1  10   78.44    2.89
   3  -1  10   76.94    3.31
  -4   1 -10   40.99    1.78
   4  -1  10   43.40    2.23
   4  -1  10   41.16    1.84
  -5   1 -10    3.44    0.41
   5  -1  10    2.42    0.43
   5  -1  10    2.24    0.48
   5  -1  10    2.08    0.45
  -6   1 -10   -0.12    0.12
   6  -1  10    0.09    0.27
   5   0 -10    0.07    0.21
  -5   0  10    0.28    0.16
  -5   0  10    0.24    0.13
  -4   0  10    0.09    0.19
   3   0 -10   11.95    1.14
   3   0 -10   12.59    1.12
  -3   0  10   12.77    0.88
  -3   0  10   12.82    0.81
   2   0 -10    7.88    0.62
   2   0 -10    8.49    0.93
   2   0 -10    8.14    0.80
  -2   0  10    7.84    0.59
  -2   0  10    8.03    0.66
   1   0 -10    0.01    0.16
   0   0 -10   77.90    2.79
   0   0 -10   75.19    5.70
   0   0  10   81.31    5.49
  -1   0 -10    1.16    1.10
   1   0  10    0.64    0.16
   2   0  10    1.71    0.29
  -3   0 -10   23.55    1.21
   3   0  10   22.18    1.58
   3   0  10   22.55    1.14
   3   0  10   23.10    1.09
  -4   0 -10  294.39    8.36
   4   0  10  326.08    8.74
   4   0  10  284.24    9.12
   4   0  10  280.40    9.16
  -5   0 -10    1.75    0.35
   5   0  10    1.36    0.30
   5   0  10    2.16    0.68
  -6   0 -10    1.96    0.30
   6   0  10    3.19    0.41
   6   0  10    3.14    0.45
  -5   1  10    0.79    0.17
  -5   1  10    1.17    0.22
   4  -1 -10    0.15    0.27
   4  -1 -10   -0.02    0.21
   4  -1 -10    0.17    0.15
  -4   1  10    0.05    0.12
  -4   1  10    0.12    0.16
   3  -1 -10    0.98    0.37
   3  -1 -10    1.79    0.53
   3  -1 -10    1.76    0.45
   3  -1 -10    2.12    0.57
  -3   1  10    1.56    0.32
  -3   1  10    1.73    0.39
   2  -1 -10    6.22    0.64
   2  -1 -10    4.61    0.71
   2  -1 -10    7.46    0.83
  -2   1  10    6.20    0.58
  -2   1  10    5.93    0.50
   1  -1 -10   12.42    0.98
   1  -1 -10   11.59    1.00
   0  -1 -10   65.49    2.52
  -1  -1 -10   31.08    3.87
   1   1  10   31.11    1.06
   2   1  10   12.41    0.71
  -3  -1 -10    2.08    0.38
  -3  -1 -10    1.98    0.51
   3   1  10    1.85    0.34
   3   1  10    2.72    0.69
  -4  -1 -10   29.28    1.98
   4   1  10   33.42    1.52
   4   1  10   33.39    1.56
   4   1  10   33.61    1.42
  -5  -1 -10   32.21    1.49
  -5  -1 -10   24.21    1.93
   5   1  10   29.48    1.90
  -6  -1 -10   -0.13    0.12
   4  -2 -10    3.22    0.52
   4  -2 -10    2.31    0.34
  -4   2  10    3.00    0.48
  -4   2  10    2.96    0.36
   3  -2 -10    0.63    0.33
   3  -2 -10    1.50    0.40
   3  -2 -10    0.86    0.33
   3  -2 -10    0.81    0.33
  -3   2  10    0.39    0.19
  -3   2  10    0.72    0.29
   2  -2 -10    0.14    0.27
   2  -2 -10    0.19    0.29
   2  -2 -10    0.00    0.30
   2  -2 -10    0.50    0.37
  -2   2  10    0.34    0.24
  -2   2  10    0.21    0.19
   1  -2 -10    0.83    0.25
   1  -2 -10    1.47    0.42
   1  -2 -10    0.48    0.31
   1  -2 -10    0.35    0.37
  -1   2  10    1.04    0.21
  -1  -2 -10   24.53    1.36
   2   2  10    0.82    0.30
  -3  -2 -10   21.67    1.13
  -3  -2 -10   23.14    1.56
   3   2  10   21.09    1.07
   3   2  10   22.33    1.09
  -4  -2 -10   18.87    1.52
  -4  -2 -10   18.88    1.11
   4   2  10   20.23    1.08
   4   2  10   18.97    1.56
   4   2  10   20.00    1.12
  -5  -2 -10    1.02    0.54
  -5  -2 -10    1.79    0.39
   5   2  10    1.44    0.26
   5   2  10    1.94    0.63
  -6  -2 -10   11.70    0.76
  -6  -2 -10   11.18    0.99
   6   2  10   11.63    1.05
   4  -3 -10    0.48    0.22
  -4   3  10    0.68    0.32
   3  -3 -10    3.43    0.55
   3  -3 -10    3.38    0.52
   3  -3 -10    2.81    0.56
  -3   3  10    4.11    0.38
  -3   3  10    3.59    0.39
   2  -3 -10    0.42    0.28
   2  -3 -10    0.26    0.25
   2  -3 -10   -0.01    0.24
   2  -3 -10    0.00    0.17
  -2   3  10    0.06    0.18
  -2   3  10   -0.01    0.17
   1  -3 -10    0.52    0.35
   1  -3 -10    0.72    0.28
   1  -3 -10    0.18    0.25
   1  -3 -10    0.16    0.28
   1  -3 -10    0.10    0.29
  -1   3  10   -0.09    0.15
   0  -3 -10    8.94    0.74
   0  -3 -10    8.28    0.86
   0  -3 -10    8.42    0.81
   0  -3 -10    8.13    0.83
   0   3  10    9.15    0.61
  -1  -3 -10    5.90    0.56
  -1  -3 -10    6.39    0.68
  -1  -3 -10    6.34    0.74
   1   3  10    6.94    0.54
  -2  -3 -10    0.10    0.23
  -2  -3 -10    0.51    0.39
   2   3  10    0.51    0.15
   2   3  10    0.40    0.17
  -3  -3 -10    2.78    0.68
  -3  -3 -10    2.73    0.53
  -3  -3 -10    2.68    0.41
   3   3  10    1.76    0.33
   3   3  10    2.18    0.39
  -4  -3 -10   13.84    1.03
  -4  -3 -10   12.59    1.37
   4   3  10   13.17    0.90
   4   3  10   12.87    0.88
  -5  -3 -10    1.03    0.44
  -5  -3 -10    1.51    0.35
   5   3  10    1.94    0.61
   5   3  10    1.35    0.28
  -6  -3 -10    1.52    0.28
  -6  -3 -10    1.53    0.43
   6   3  10    1.88    0.53
   6   3  10    1.00    0.22
   3  -4 -10    1.56    0.27
   3  -4 -10    1.32    0.39
   2  -4 -10    0.55    0.28
   2  -4 -10    0.94    0.33
   2  -4 -10    0.61    0.35
   1  -4 -10   -0.05    0.25
   1  -4 -10    0.45    0.38
   1  -4 -10   -0.63    0.55
   1  -4 -10    0.14    0.16
   1  -4 -10    0.02    0.26
  -1   4  10    0.02    0.19
   0  -4 -10    0.60    0.25
   0  -4 -10    0.19    0.26
   0  -4 -10    0.75    0.33
   0  -4 -10    0.31    0.31
   0   4  10    0.57    0.24
  -1  -4 -10    0.93    0.40
  -1  -4 -10    1.06    0.29
  -1  -4 -10    1.14    0.41
  -1  -4 -10    1.02    0.35
   1   4  10    1.19    0.28
  -2  -4 -10   10.83    1.05
  -2  -4 -10   12.14    1.08
  -2  -4 -10   13.40    0.98
  -2  -4 -10   12.90    0.86
   2   4  10   12.03    0.78
  -3  -4 -10    4.36    0.51
  -3  -4 -10    4.43    0.85
   3   4  10    4.51    0.49
   3   4  10    4.32    0.49
  -4  -4 -10    3.42    0.42
  -4  -4 -10    4.08    0.65
  -4  -4 -10    2.65    0.64
   4   4  10    3.66    0.46
   4   4  10    2.92    0.51
   4   4  10    3.09    0.82
  -5  -4 -10   12.97    1.19
   5   4  10   10.82    0.93
  -6  -4 -10    0.34    0.18
  -6  -4 -10    0.51    0.26
   6   4  10    0.34    0.15
   6   4  10    0.61    0.32
   3  -5 -10    1.47    0.31
   2  -5 -10    2.26    0.52
   2  -5 -10    2.45    0.39
   1  -5 -10    1.68    0.42
   0  -5 -10    2.16    0.44
   0  -5 -10    1.90    0.57
   0  -5 -10    1.64    0.48
  -1  -5 -10    1.12    0.40
  -1  -5 -10    0.32    0.38
  -1  -5 -10    0.38    0.25
  -1  -5 -10    0.52    0.29
  -1  -5 -10    0.11    0.36
   1   5  10    1.02    0.32
  -2  -5 -10   13.80    1.18
  -2  -5 -10   15.59    0.99
  -2  -5 -10   15.05    1.17
  -2  -5 -10   13.73    1.08
   2   5  10   13.87    1.29
  -3  -5 -10    0.28    0.29
  -3  -5 -10    0.34    0.33
  -3  -5 -10    0.56    0.26
   3   5  10    0.87    0.26
  -4  -5 -10    1.99    0.45
  -4  -5 -10    1.89    0.55
   4   5  10    1.71    0.36
  -5  -5 -10    0.27    0.32
  -5  -5 -10    0.28    0.23
   5   5  10    0.63    0.23
   5   5  10   -0.02    0.41
   6   5  10    1.67    0.48
   6   5  10    1.66    0.33
   2  -6 -10    0.08    0.11
   2  -6 -10    0.00    0.18
   1  -6 -10    0.67    0.27
   1  -6 -10    0.31    0.19
   1  -6 -10    0.19    0.26
   0  -6 -10    7.84    0.88
   0  -6 -10    8.65    0.74
   0  -6 -10    7.56    0.80
  -1  -6 -10    0.39    0.31
  -1  -6 -10    0.07    0.25
  -1  -6 -10    0.49    0.22
  -2  -6 -10    2.05    0.42
  -2  -6 -10    2.20    0.54
  -2  -6 -10    2.09    0.55
  -2  -6 -10    1.91    0.41
   2   6  10    2.68    0.42
  -3  -6 -10    0.68    0.30
  -3  -6 -10    0.61    0.23
  -3  -6 -10    0.26    0.27
   3   6  10    0.61    0.24
  -4  -6 -10   15.91    1.19
  -4  -6 -10   16.73    1.12
   4   6  10   16.56    0.97
  -5  -6 -10   -0.26    0.18
   5   6  10    0.11    0.15
  -6  -6 -10    0.32    0.20
   6   6  10    0.51    0.27
   6   6  10    0.16    0.11
   1  -7 -10   -0.07    0.16
   1  -7 -10    0.26    0.13
   0  -7 -10    0.23    0.20
   0  -7 -10    0.19    0.15
  -1  -7 -10    2.28    0.42
  -1  -7 -10    4.17    0.57
  -1  -7 -10    3.87    0.67
  -2  -7 -10    0.68    0.32
  -2  -7 -10    0.29    0.20
   2   7  10    0.36    0.22
  -3  -7 -10    0.09    0.25
  -3  -7 -10    0.07    0.17
   3   7  10    0.34    0.14
  -4  -7 -10    0.23    0.22
  -4  -7 -10    0.46    0.23
   4   7  10    0.17    0.14
  -5  -7 -10   13.86    0.82
   5   7  10   12.63    0.71
  -1  -8 -10    0.49    0.21
  -1  -8 -10    0.02    0.10
  -2  -8 -10    2.91    0.34
  -2  -8 -10    2.81    0.49
  -3  -8 -10   -0.02    0.17
  -3  -8 -10    0.13    0.10
  -4  -8 -10    0.17    0.17
   4   8  10   -0.10    0.13
   3   8 -11   -0.04    0.13
  -3  -8  11    0.09    0.13
  -2  -8  11    4.77    0.41
  -1  -8  11    2.31    0.30
   4   7 -11    2.61    0.30
  -4  -7  11    2.71    0.30
   3   7 -11    0.68    0.21
  -3  -7  11    0.83    0.20
   2   7 -11    3.40    0.38
   1   7 -11    0.29    0.16
  -1  -7  11    0.38    0.20
   0  -7  11    0.19    0.18
   0  -7  11    0.04    0.21
   1  -7  11    0.44    0.13
   1  -7  11    0.03    0.14
   5   6 -11    1.32    0.28
  -5  -6  11    1.79    0.32
   4   6 -11    1.62    0.31
  -4  -6  11    2.22    0.45
   3   6 -11    1.42    0.32
  -3  -6  11    1.87    0.45
   2   6 -11    0.25    0.18
  -2  -6  11    0.26    0.22
   1   6 -11    0.60    0.22
  -1  -6  11    0.24    0.23
  -1  -6  11    0.49    0.22
  -1  -6  11    0.07    0.33
   0   6 -11    1.04    0.28
   0  -6  11    1.42    0.29
   0  -6  11    1.04    0.33
   1  -6  11    2.29    0.39
   1  -6  11    2.20    0.38
   2  -6  11    0.26    0.16
   2  -6  11    0.18    0.14
   5   5 -11    0.36    0.15
   5   5 -11    1.09    0.32
  -5  -5  11    0.54    0.18
  -5  -5  11    0.55    0.24
   4   5 -11    2.33    0.54
   4   5 -11    1.98    0.37
  -4  -5  11    2.41    0.56
  -4  -5  11    2.04    0.37
   3   5 -11    0.84    0.28
   3   5 -11   -0.05    0.36
  -3  -5  11    0.32    0.28
   2   5 -11   35.62    1.62
  -2  -5  11   38.03    1.91
   1   5 -11    7.57    0.69
  -1  -5  11    7.28    0.75
  -1  -5  11    7.09    0.84
   0   5 -11    2.04    0.40
   0  -5  11    2.62    0.64
   0  -5  11    2.82    0.51
  -1   5 -11    1.09    0.39
   1  -5  11    2.19    0.43
   1  -5  11    2.22    0.45
   2  -5  11    2.35    0.40
   2  -5  11    2.36    0.46
   3  -5  11    0.07    0.17
   5   4 -11    0.21    0.29
   5   4 -11    0.25    0.14
  -5  -4  11    0.03    0.10
  -5  -4  11   -0.08    0.13
  -5  -4  11    0.02    0.21
   4   4 -11    0.01    0.18
   4   4 -11    0.38    0.37
  -4  -4  11   -0.04    0.12
  -4  -4  11   -0.05    0.16
  -4  -4  11    0.22    0.24
   3   4 -11    1.89    0.37
   3   4 -11    2.20    0.64
  -3  -4  11    1.90    0.43
  -3  -4  11    1.50    0.50
  -3  -4  11    1.44    0.29
   2   4 -11   25.02    2.04
   2   4 -11   27.69    1.37
  -2  -4  11   28.15    1.68
  -2  -4  11   28.46    1.43
  -2  -4  11   30.65    1.81
   1   4 -11  104.36    3.46
  -1  -4  11  105.81    3.84
  -1  -4  11  103.07    3.67
  -1  -4  11  106.29    3.82
   0   4 -11    9.30    0.73
   0  -4  11    8.81    1.06
   0  -4  11    8.91    0.90
   0  -4  11    8.43    0.68
  -1   4 -11    4.15    0.48
   1  -4  11    5.41    0.72
   1  -4  11    4.88    0.58
   1  -4  11    4.64    0.60
  -2   4 -11    2.04    0.36
   2  -4  11    1.76    0.41
   2  -4  11    2.28    0.51
   2  -4  11    2.31    0.44
  -3   4 -11   10.76    0.71
   3  -4  11   10.34    0.84
   4  -4  11    0.28    0.18
   5   3 -11    0.75    0.25
   5   3 -11    0.38    0.33
  -5  -3  11    0.37    0.18
  -5  -3  11    0.43    0.19
  -5  -3  11    0.42    0.26
   4   3 -11    2.58    0.64
   4   3 -11    3.40    0.41
  -4  -3  11    4.22    0.43
  -4  -3  11    4.14    0.74
  -4  -3  11    3.32    0.52
   3   3 -11    0.70    0.24
   3   3 -11    0.27    0.34
  -3  -3  11    0.63    0.26
  -3  -3  11    0.68    0.38
  -3  -3  11    0.75    0.23
  -3  -3  11    0.31    0.31
   2   3 -11    7.02    0.64
   2   3 -11    7.80    0.99
  -2  -3  11    6.77    0.77
  -2  -3  11    7.23    0.84
  -2  -3  11    6.87    0.67
  -2  -3  11    8.37    0.58
   1   3 -11   -0.37    0.34
   1   3 -11   -0.04    0.22
   1   3 -11    0.07    0.17
  -1  -3  11   -0.28    0.22
  -1  -3  11    0.12    0.18
  -1  -3  11    0.10    0.15
  -1  -3  11   -0.12    0.23
   0   3 -11    3.82    0.46
   0  -3  11    3.59    0.67
   0  -3  11    3.90    0.44
  -1   3 -11    1.15    0.31
   1  -3  11    1.85    0.37
   1  -3  11    1.36    0.47
   1  -3  11    1.26    0.31
  -2   3 -11    4.53    0.52
   2  -3  11    4.08    0.58
   2  -3  11    5.11    0.82
   2  -3  11    4.78    0.64
  -3   3 -11   10.16    0.73
   3  -3  11   10.14    0.86
   3  -3  11    8.17    0.80
  -4   3 -11    0.87    0.26
   4  -3  11    0.70    0.29
   5   2 -11    2.43    0.53
  -5  -2  11    2.50    0.32
  -5  -2  11    3.23    0.47
  -5  -2  11    2.44    0.37
   4   2 -11    1.16    0.27
  -4  -2  11    0.94    0.49
   3   2 -11   -0.23    0.14
   3   2 -11   -0.42    0.26
  -3  -2  11    0.34    0.33
  -3  -2  11    0.02    0.14
  -3  -2  11    0.07    0.19
   2   2 -11    3.12    0.76
   2   2 -11    3.29    0.58
   2   2 -11    4.70    0.50
  -2  -2  11    3.16    0.51
  -2  -2  11    3.20    0.45
  -2  -2  11    3.59    0.66
   1   2 -11   28.53    1.34
   1   2 -11   30.33    1.50
   1   2 -11   29.07    1.87
  -1  -2  11   28.49    1.39
  -1  -2  11   28.04    1.78
   0   2 -11    4.58    0.50
   0  -2  11    4.17    0.39
   0  -2  11    4.61    0.68
   0  -2  11    4.84    0.82
  -1   2 -11   57.88    2.17
   1  -2  11   54.98    2.39
   1  -2  11   50.69    1.92
  -2   2 -11    6.14    0.59
   2  -2  11    6.01    0.56
   2  -2  11    5.94    0.81
  -3   2 -11    1.87    0.38
   3  -2  11    1.43    0.40
   3  -2  11    1.98    0.55
   3  -2  11    2.33    0.50
  -4   2 -11    0.94    0.24
   4  -2  11    1.43    0.35
   4  -2  11    1.09    0.33
   4  -2  11    1.15    0.39
  -5   2 -11   -0.07    0.16
   5  -2  11    0.01    0.20
   5  -2  11   -0.28    0.13
   5   1 -11   -0.20    0.30
   5   1 -11   -0.16    0.20
  -5  -1  11   -0.12    0.09
  -5  -1  11    0.27    0.19
   4   1 -11    0.15    0.30
  -4  -1  11   -0.26    0.13
  -4  -1  11   -0.28    0.30
  -4  -1  11   -0.13    0.17
   3   1 -11    3.10    0.77
   3   1 -11    3.67    0.46
  -3  -1  11    2.63    0.48
  -3  -1  11    3.43    0.41
  -3  -1  11    4.09    0.79
   2   1 -11    0.36    0.33
   2   1 -11    0.23    0.18
   2   1 -11   -0.32    0.26
  -2  -1  11   -0.01    0.14
  -2  -1  11    1.22    0.31
  -2  -1  11    0.09    0.22
   1   1 -11    8.08    0.64
   1   1 -11    7.38    0.74
   1   1 -11    8.42    0.95
  -1  -1  11    8.32    0.68
  -1  -1  11    7.66    0.56
  -1  -1  11    8.19    0.80
   0   1 -11    3.26    0.38
  -1   1 -11   76.06    2.60
   1  -1  11   76.20    2.39
   1  -1  11   73.55    2.97
  -2   1 -11    4.15    0.50
   2  -1  11    3.98    0.79
   2  -1  11    4.35    0.45
   2  -1  11    4.96    0.48
  -3   1 -11    5.96    0.60
   3  -1  11    6.30    0.68
   3  -1  11    5.75    0.95
   3  -1  11    6.49    0.62
  -4   1 -11   -0.04    0.17
   4  -1  11    0.51    0.40
   4  -1  11    0.37    0.25
  -5   1 -11    0.88    0.21
   5  -1  11    0.17    0.26
   5  -1  11    0.60    0.20
   5  -1  11    0.81    0.28
  -6   1 -11    0.31    0.12
   6  -1  11    0.05    0.15
   5   0 -11   -0.14    0.20
  -5   0  11    0.08    0.09
  -5   0  11    0.17    0.13
   4   0 -11    1.15    0.44
  -4   0  11    1.03    0.27
  -4   0  11    0.68    0.26
   3   0 -11    4.46    0.83
  -3   0  11    4.66    0.49
  -3   0  11    4.62    0.54
   2   0 -11    1.91    0.34
   2   0 -11    1.91    0.63
   2   0 -11    2.36    0.53
  -2   0  11    2.29    0.45
  -2   0  11    2.25    0.60
  -2   0  11    2.41    0.39
   1   0 -11   10.52    1.15
   1   0 -11   11.75    0.75
   1   0 -11   10.09    0.88
  -1   0  11   11.98    0.77
   0   0 -11   93.54    3.30
   1   0  11   18.11    0.77
  -2   0 -11    2.76    0.45
   2   0  11    2.18    0.33
   2   0  11    2.28    0.36
   2   0  11    2.27    0.63
  -3   0 -11    3.64    0.54
  -3   0 -11    3.31    0.72
   3   0  11    3.20    0.47
   3   0  11    3.24    0.41
   3   0  11    4.37    0.87
  -4   0 -11   16.64    1.03
   4   0  11   16.21    1.40
   4   0  11   16.75    1.01
   4   0  11   11.73    0.97
  -5   0 -11    0.42    0.24
   5   0  11    0.50    0.19
  -6   0 -11    0.34    0.14
   6   0  11    0.54    0.21
   6   0  11    0.15    0.19
  -5   1  11    0.08    0.09
   4  -1 -11    0.18    0.23
   4  -1 -11    0.31    0.16
  -4   1  11    0.57    0.18
  -4   1  11    0.31    0.13
   3  -1 -11    1.06    0.36
   3  -1 -11    1.72    0.52
  -3   1  11    1.54    0.30
  -3   1  11    1.48    0.34
   2  -1 -11    0.14    0.20
   2  -1 -11   -0.41    0.28
   2  -1 -11    0.17    0.33
  -2   1  11   -0.09    0.15
  -2   1  11   -0.07    0.18
   1  -1 -11   12.29    0.96
   1  -1 -11   15.10    1.15
   1  -1 -11   14.24    1.15
   1  -1 -11   14.29    1.16
  -1   1  11   15.40    0.83
  -1   1  11   16.71    1.05
   0  -1 -11   12.55    1.00
   0  -1 -11   12.07    1.04
   0   1  11   12.39    0.72
  -1  -1 -11    5.59    0.66
   1   1  11    7.24    0.63
  -2  -1 -11   19.00    1.03
  -2  -1 -11   18.61    1.40
   2   1  11   19.57    0.89
   2   1  11   17.49    1.40
   2   1  11   18.49    1.36
  -3  -1 -11  143.13    5.26
  -3  -1 -11  142.83    4.46
   3   1  11  148.49    4.36
   3   1  11  144.88    4.98
   3   1  11  145.55    5.32
  -4  -1 -11   -0.02    0.41
  -4  -1 -11   -0.08    0.16
   4   1  11    0.66    0.26
   4   1  11    0.16    0.18
   4   1  11    0.24    0.22
   4   1  11   -0.04    0.29
  -5  -1 -11   -0.28    0.34
  -5  -1 -11    0.30    0.24
   5   1  11    0.65    0.56
  -6  -1 -11    1.23    0.26
   6   1  11    1.83    0.42
   4  -2 -11    0.86    0.31
   4  -2 -11    1.00    0.28
  -4   2  11    0.92    0.23
  -4   2  11    0.75    0.15
   3  -2 -11   -0.05    0.13
   3  -2 -11    0.35    0.23
   3  -2 -11   -0.54    0.22
  -3   2  11   -0.25    0.11
  -3   2  11    0.00    0.18
   2  -2 -11    0.19    0.32
   2  -2 -11    0.09    0.30
   2  -2 -11    0.27    0.30
  -2   2  11    0.38    0.22
  -2   2  11    0.66    0.22
   1  -2 -11   10.90    1.02
   1  -2 -11    9.21    0.89
   1  -2 -11   11.50    1.08
  -1   2  11   10.86    0.72
  -1   2  11   10.99    0.69
   0  -2 -11   12.27    1.03
   0  -2 -11   12.05    1.03
   0  -2 -11   10.48    0.94
  -1  -2 -11    1.06    0.43
  -1  -2 -11    0.99    0.40
  -1  -2 -11    1.56    0.42
   1   2  11    0.93    0.25
  -2  -2 -11    6.49    0.72
  -2  -2 -11    6.25    1.06
  -2  -2 -11    6.71    0.58
   2   2  11    6.59    0.54
   2   2  11    5.89    0.47
   2   2  11    6.92    0.86
  -3  -2 -11   32.93    2.00
  -3  -2 -11   34.11    1.52
   3   2  11   34.13    2.11
   3   2  11   33.78    1.46
  -4  -2 -11   39.81    2.33
  -4  -2 -11   42.89    1.82
   4   2  11   43.49    2.48
   4   2  11   42.76    1.74
  -5  -2 -11    1.76    0.38
  -5  -2 -11    1.91    0.64
   5   2  11    3.80    0.94
   5   2  11    2.35    0.36
  -6  -2 -11   -0.26    0.29
  -6  -2 -11    0.18    0.15
   6   2  11   -0.05    0.26
   4  -3 -11    0.15    0.19
   3  -3 -11    0.31    0.17
   3  -3 -11    0.21    0.25
  -3   3  11    0.31    0.14
  -3   3  11    0.20    0.15
   2  -3 -11    0.23    0.20
   2  -3 -11    0.36    0.26
   2  -3 -11    0.15    0.19
  -2   3  11    0.41    0.13
  -2   3  11    0.32    0.17
   1  -3 -11    2.74    0.79
   1  -3 -11    3.35    0.58
   1  -3 -11    2.75    0.61
   1  -3 -11    2.70    0.62
  -1   3  11    2.82    0.55
   0  -3 -11    5.87    0.65
   0  -3 -11    6.29    0.83
   0  -3 -11    6.70    0.78
   0  -3 -11    6.28    0.72
   0   3  11    6.47    0.52
  -1  -3 -11    9.85    0.94
  -1  -3 -11    9.80    0.75
  -1  -3 -11    9.04    0.90
   1   3  11    9.69    0.65
  -2  -3 -11    1.10    0.44
  -2  -3 -11    1.17    0.40
   2   3  11    1.19    0.28
  -3  -3 -11    0.51    0.25
  -3  -3 -11    0.35    0.26
  -3  -3 -11    0.10    0.36
   3   3  11    1.21    0.30
   3   3  11    0.50    0.45
   3   3  11    0.52    0.24
  -4  -3 -11   14.94    0.94
  -4  -3 -11   15.05    1.13
  -4  -3 -11   15.91    1.40
   4   3  11   14.78    0.93
   4   3  11   13.92    1.39
   4   3  11   16.43    0.97
  -5  -3 -11    0.03    0.18
  -5  -3 -11    0.21    0.31
   5   3  11    0.42    0.17
   5   3  11   -0.18    0.33
  -6  -3 -11    1.47    0.43
  -6  -3 -11    1.48    0.32
   6   3  11    1.09    0.24
   6   3  11    2.13    0.56
   3  -4 -11    0.12    0.21
   3  -4 -11   -0.04    0.12
   2  -4 -11   -0.17    0.14
   2  -4 -11   -0.31    0.23
  -2   4  11    0.32    0.16
   1  -4 -11    0.53    0.26
   1  -4 -11    0.68    0.39
   1  -4 -11    0.30    0.30
   1  -4 -11    0.66    0.31
  -1   4  11    1.03    0.21
   0  -4 -11    1.69    0.49
   0  -4 -11    1.43    0.48
   0  -4 -11    1.52    0.40
   0  -4 -11    1.71    0.40
   0   4  11    1.42    0.38
  -1  -4 -11    0.91    0.40
  -1  -4 -11    1.54    0.42
  -1  -4 -11    0.51    0.28
  -1  -4 -11    0.38    0.38
   1   4  11    0.97    0.23
  -2  -4 -11    3.00    0.58
  -2  -4 -11    2.45    0.61
  -2  -4 -11    2.95    0.51
   2   4  11    2.52    0.41
  -3  -4 -11    2.56    0.60
  -3  -4 -11    2.09    0.64
   3   4  11    2.29    0.41
  -4  -4 -11    0.38    0.38
  -4  -4 -11    1.53    0.36
  -4  -4 -11    0.79    0.22
   4   4  11    0.63    0.27
   4   4  11    0.89    0.48
  -5  -4 -11    0.68    0.41
  -5  -4 -11    0.37    0.20
   5   4  11    1.10    0.48
  -6  -4 -11    3.06    0.32
  -6  -4 -11    3.23    0.58
   6   4  11    2.88    0.31
   6   4  11    3.53    0.64
   2  -5 -11    0.78    0.37
   1  -5 -11    0.69    0.28
   1  -5 -11    1.16    0.44
   1  -5 -11    0.73    0.29
   0  -5 -11   -0.08    0.25
   0  -5 -11   -0.01    0.16
   0  -5 -11    0.24    0.33
   0   5  11   -0.14    0.14
  -1  -5 -11   -0.04    0.16
  -1  -5 -11    0.05    0.25
  -1  -5 -11   -0.02    0.25
   1   5  11    0.20    0.14
  -2  -5 -11    1.62    0.48
  -2  -5 -11    1.49    0.52
  -2  -5 -11    1.50    0.46
  -2  -5 -11    1.62    0.38
   2   5  11    1.38    0.34
  -3  -5 -11    1.06    0.43
  -3  -5 -11    1.07    0.39
  -3  -5 -11    1.15    0.27
   3   5  11    1.17    0.30
  -4  -5 -11    1.82    0.54
   4   5  11    1.44    0.33
  -5  -5 -11    1.86    0.54
   5   5  11    2.57    0.67
   5   5  11    2.67    0.42
  -6  -5 -11    0.13    0.19
   6   5  11    0.56    0.28
   6   5  11    0.06    0.11
   1  -6 -11   -0.14    0.31
   1  -6 -11    0.05    0.14
   0  -6 -11   -0.08    0.11
   0  -6 -11    0.22    0.25
   0  -6 -11   -0.18    0.19
  -1  -6 -11    0.30    0.26
  -1  -6 -11    0.25    0.17
  -1  -6 -11    0.11    0.27
   1   6  11    0.15    0.14
  -2  -6 -11    0.32    0.23
  -2  -6 -11    0.09    0.18
   2   6  11    0.03    0.15
  -3  -6 -11   -0.09    0.15
  -3  -6 -11   -0.18    0.22
  -3  -6 -11   -0.06    0.19
   3   6  11   -0.14    0.17
  -4  -6 -11    2.80    0.57
  -4  -6 -11    2.84    0.51
   4   6  11    3.14    0.39
  -5  -6 -11   -0.05    0.18
   5   6  11    0.08    0.12
  -6  -6 -11    0.31    0.19
   6   6  11   -0.04    0.09
   0  -7 -11   -0.25    0.15
   0  -7 -11   -0.02    0.08
   0  -7 -11   -0.02    0.16
  -1  -7 -11    0.64    0.29
  -1  -7 -11    0.44    0.19
  -1  -7 -11    0.74    0.31
  -2  -7 -11   -0.12    0.19
  -2  -7 -11    0.05    0.13
   2   7  11    0.02    0.16
  -3  -7 -11    0.84    0.32
  -3  -7 -11    0.37    0.19
   3   7  11    0.76    0.20
  -4  -7 -11    0.03    0.17
  -4  -7 -11    0.37    0.22
   4   7  11    0.31    0.14
   5   7  11    1.84    0.27
  -2  -8 -11    0.16    0.11
  -2  -8 -11    0.05    0.17
  -3  -8 -11    0.02    0.14
  -3  -8 -11   -0.05    0.09
  -4  -8 -11    0.17    0.16
   4   8  11    0.26    0.10
   3   7 -12    0.60    0.19
   2   7 -12    1.40    0.24
  -2  -7  12    1.50    0.40
  -1  -7  12   -0.01    0.14
   0  -7  12    2.64    0.32
   1  -7  12    1.15    0.22
   4   6 -12    0.17    0.13
  -4  -6  12    0.10    0.16
   3   6 -12    3.40    0.41
  -3  -6  12    2.98    0.52
   2   6 -12   -0.24    0.12
  -2  -6  12   -0.35    0.15
   1   6 -12    0.24    0.17
  -1  -6  12    0.49    0.22
   0   6 -12    0.17    0.17
   0  -6  12    0.21    0.19
   0  -6  12    0.24    0.18
   1  -6  12    0.22    0.17
   1  -6  12    0.09    0.15
   2  -6  12    0.53    0.16
   2  -6  12    0.78    0.20
   5   5 -12    0.22    0.11
   5   5 -12   -0.16    0.22
  -5  -5  12    0.58    0.22
   4   5 -12    2.24    0.34
   4   5 -12    2.58    0.57
  -4  -5  12    2.92    0.42
  -4  -5  12    3.18    0.55
   3   5 -12    2.45    0.58
   3   5 -12    1.73    0.36
  -3  -5  12    1.60    0.37
  -3  -5  12    2.09    0.51
   2   5 -12    4.10    0.50
  -2  -5  12    5.77    0.72
   1   5 -12    4.05    0.48
  -1  -5  12    4.12    0.69
   0   5 -12   15.24    0.92
   0  -5  12   15.67    1.02
   0  -5  12   15.23    1.00
  -1   5 -12    0.13    0.13
   1  -5  12    0.11    0.17
   1  -5  12    0.37    0.22
  -2   5 -12    1.58    0.28
   2  -5  12    1.57    0.35
   2  -5  12    1.55    0.28
   3  -5  12    0.22    0.17
   5   4 -12    0.58    0.33
   5   4 -12    0.26    0.16
  -5  -4  12    0.35    0.20
  -5  -4  12    0.67    0.18
  -5  -4  12    0.53    0.15
   4   4 -12   -0.16    0.28
   4   4 -12    0.18    0.18
  -4  -4  12    0.47    0.25
  -4  -4  12    0.22    0.13
  -4  -4  12    0.33    0.20
   3   4 -12   -0.06    0.15
   3   4 -12   -0.59    0.30
  -3  -4  12   -0.05    0.15
  -3  -4  12   -0.21    0.19
  -3  -4  12   -0.17    0.18
   2   4 -12  113.53    4.37
   2   4 -12  107.95    3.51
  -2  -4  12  106.80    3.94
  -2  -4  12   94.85    3.11
  -2  -4  12  105.96    3.57
   1   4 -12   -0.30    0.15
  -1  -4  12    0.26    0.27
   0   4 -12   23.84    1.26
   0  -4  12   25.61    1.49
   0  -4  12   24.66    1.46
  -1   4 -12   -0.29    0.15
   1  -4  12   -0.13    0.17
   1  -4  12   -0.47    0.19
   1  -4  12    0.03    0.27
  -2   4 -12   38.10    1.59
   2  -4  12   40.34    1.99
   2  -4  12   36.07    1.55
   2  -4  12   35.99    1.58
  -3   4 -12   -0.04    0.14
   3  -4  12    0.12    0.19
   4  -4  12    0.02    0.12
   5   3 -12    4.12    0.58
  -5  -3  12    3.98    0.45
  -5  -3  12    4.55    0.42
  -5  -3  12    3.88    0.32
   4   3 -12    0.00    0.23
   4   3 -12    0.23    0.18
  -4  -3  12    0.04    0.17
  -4  -3  12    0.02    0.13
  -4  -3  12    0.28    0.23
   3   3 -12    0.77    0.28
   3   3 -12    0.86    0.40
  -3  -3  12    0.58    0.26
  -3  -3  12    0.64    0.21
  -3  -3  12    0.55    0.36
   2   3 -12   66.69    2.49
   2   3 -12   66.37    3.20
  -2  -3  12   69.24    2.58
  -2  -3  12   69.27    3.10
  -2  -3  12   67.12    2.94
  -2  -3  12   70.51    2.32
   1   3 -12  303.99    9.47
   1   3 -12  305.93    8.46
   1   3 -12  291.61    8.67
  -1  -3  12  299.33    8.55
  -1  -3  12  294.53    8.95
  -1  -3  12  314.90    8.74
  -1  -3  12  300.20    8.16
   0   3 -12    6.20    0.60
   0  -3  12    5.97    0.56
   0  -3  12    6.13    0.75
  -1   3 -12    6.14    0.95
   1  -3  12    4.57    0.57
   1  -3  12    5.06    0.59
  -2   3 -12    8.53    0.72
   2  -3  12    8.17    0.88
   2  -3  12    8.15    0.80
  -3   3 -12   18.85    1.01
   3  -3  12   19.06    1.17
  -4   3 -12   -0.05    0.11
   4  -3  12   -0.23    0.15
   5   2 -12    1.79    0.39
  -5  -2  12    1.85    0.42
  -5  -2  12    1.17    0.20
  -5  -2  12    1.88    0.31
   4   2 -12    2.41    0.64
  -4  -2  12    2.18    0.35
  -4  -2  12    2.10    0.41
  -4  -2  12    2.17    0.53
   3   2 -12    4.60    0.89
   3   2 -12    3.82    0.46
  -3  -2  12    4.07    0.78
  -3  -2  12    4.63    0.47
  -3  -2  12    3.89    0.57
   2   2 -12   11.47    1.16
   2   2 -12   10.52    0.96
  -2  -2  12   11.18    1.13
  -2  -2  12    9.69    1.01
   1   2 -12   16.42    1.33
   1   2 -12   17.14    1.57
   1   2 -12   18.03    1.03
  -1  -2  12   16.93    1.04
  -1  -2  12   17.37    0.90
  -1  -2  12   15.82    1.21
   0   2 -12   15.59    1.43
   0   2 -12   12.99    0.86
   0  -2  12   14.65    0.77
   0  -2  12   12.46    1.05
   0  -2  12   13.98    0.94
  -1   2 -12    5.15    0.53
   1  -2  12    4.45    0.48
   1  -2  12    4.37    0.78
  -2   2 -12    1.22    0.33
   2  -2  12    0.78    0.25
  -3   2 -12    0.42    0.16
   3  -2  12   -0.17    0.20
   3  -2  12   -0.15    0.26
  -4   2 -12    0.43    0.19
   4  -2  12    0.49    0.30
   4  -2  12   -0.05    0.21
   4  -2  12    0.18    0.20
  -5   2 -12    0.91    0.20
   5  -2  12    1.74    0.29
   5   1 -12    2.84    0.40
  -5  -1  12    2.06    0.31
  -5  -1  12    1.76    0.26
   4   1 -12    1.28    0.46
  -4  -1  12    1.04    0.26
  -4  -1  12    0.64    0.24
   3   1 -12    0.82    0.41
   3   1 -12    0.24    0.21
  -3  -1  12    0.89    0.39
  -3  -1  12    0.55    0.21
  -3  -1  12    0.62    0.25
   2   1 -12    0.36    0.27
   2   1 -12    0.16    0.18
   2   1 -12   -0.62    0.32
  -2  -1  12   -0.14    0.13
  -2  -1  12   -0.26    0.15
  -2  -1  12    0.05    0.32
   1   1 -12   33.64    2.00
   1   1 -12   32.57    1.46
   1   1 -12   32.70    2.00
  -1  -1  12   33.37    1.53
  -1  -1  12   32.11    1.81
  -1  -1  12   32.66    1.37
   0   1 -12    7.59    0.61
   0   1 -12    8.49    0.95
   0   1 -12    7.37    0.76
   0  -1  12    7.62    0.67
   0  -1  12    7.40    0.80
   0  -1  12    8.43    0.59
  -1   1 -12    1.53    0.59
  -1   1 -12    1.85    0.39
   1  -1  12    1.75    0.28
   1  -1  12    3.32    0.50
   1  -1  12    2.00    0.51
  -2   1 -12    7.30    0.66
   2  -1  12    6.48    0.54
   2  -1  12    7.26    0.92
  -3   1 -12    1.16    0.34
   3  -1  12    1.06    0.39
   3  -1  12    1.67    0.47
   3  -1  12    1.62    0.54
  -4   1 -12   -0.30    0.17
   4  -1  12    0.15    0.36
  -5   1 -12    0.30    0.18
   5  -1  12    0.59    0.18
   5  -1  12    0.02    0.15
  -5   0  12   -0.22    0.08
  -5   0  12    0.01    0.06
   4   0 -12    0.85    0.35
  -4   0  12    0.63    0.24
  -4   0  12    0.87    0.24
   3   0 -12   -0.15    0.28
  -3   0  12    0.01    0.13
  -3   0  12   -0.25    0.14
   2   0 -12    0.33    0.24
   2   0 -12    0.43    0.38
   2   0 -12    0.29    0.34
  -2   0  12    0.11    0.21
  -2   0  12    0.37    0.17
  -2   0  12   -0.52    0.42
   1   0 -12    4.57    0.83
   1   0 -12    4.26    0.74
   1   0 -12    3.47    0.42
  -1   0  12    5.90    0.73
  -1   0  12    4.22    0.44
  -1   0  12    4.22    0.50
   0   0 -12    0.63    0.34
   0   0 -12    0.43    0.21
   0   0  12    0.32    0.19
   0   0  12    0.76    0.27
   0   0  12    0.13    0.33
  -1   0 -12    2.52    0.41
  -1   0 -12    1.78    0.54
   1   0  12    2.03    0.44
  -2   0 -12    4.11    0.48
  -2   0 -12    5.13    0.89
   2   0  12    4.03    0.45
   2   0  12    3.95    0.43
   2   0  12    3.98    0.83
  -3   0 -12   34.70    1.96
  -3   0 -12   33.33    2.15
   3   0  12   32.07    1.39
   3   0  12   33.07    1.50
  -4   0 -12    2.07    0.44
   4   0  12    1.95    0.40
   4   0  12    1.81    0.59
  -5   0 -12   -0.32    0.15
   5   0  12    0.33    0.20
  -6   0 -12    0.90    0.18
   6   0  12    0.53    0.19
   4  -1 -12    0.43    0.22
   4  -1 -12    0.61    0.18
  -4   1  12    0.59    0.19
  -4   1  12    0.57    0.16
   3  -1 -12    0.75    0.44
  -3   1  12    0.37    0.18
  -3   1  12    1.00    0.29
   2  -1 -12    3.13    0.72
   2  -1 -12    2.79    0.62
   2  -1 -12    3.30    0.60
  -2   1  12    3.11    0.40
  -2   1  12    3.00    0.52
   1  -1 -12    5.25    0.54
   1  -1 -12    4.54    0.79
   1  -1 -12    4.98    0.66
   1  -1 -12    5.09    0.90
  -1   1  12    5.72    0.51
  -1   1  12    4.93    0.53
   0  -1 -12    1.27    0.48
   0   1  12    1.52    0.53
   0   1  12    1.69    0.36
   0   1  12    1.73    0.33
  -1  -1 -12    0.28    0.25
  -1  -1 -12    0.11    0.30
  -1  -1 -12    0.04    0.12
   1   1  12    0.32    0.18
   1   1  12    0.29    0.33
  -2  -1 -12    7.83    0.98
  -2  -1 -12    7.59    0.78
   2   1  12    7.73    0.54
   2   1  12    7.73    0.97
  -3  -1 -12  232.47    7.62
  -3  -1 -12  238.74    6.71
   3   1  12  229.75    6.53
   3   1  12  222.32    6.56
   3   1  12  234.61    7.66
  -4  -1 -12   19.70    1.54
  -4  -1 -12   16.31    1.06
   4   1  12   17.67    0.99
   4   1  12   17.17    0.93
   4   1  12   16.91    1.45
  -5  -1 -12    5.26    0.57
  -5  -1 -12    5.38    0.87
   5   1  12    5.41    0.91
  -6  -1 -12    3.43    0.36
   4  -2 -12   -0.14    0.14
  -4   2  12   -0.05    0.12
  -4   2  12    0.25    0.10
   3  -2 -12    1.91    0.41
   3  -2 -12    2.28    0.44
   3  -2 -12    1.19    0.34
  -3   2  12    2.01    0.31
  -3   2  12    1.79    0.30
   2  -2 -12    0.16    0.24
   2  -2 -12    0.27    0.26
  -2   2  12    0.08    0.14
  -2   2  12    0.26    0.15
   1  -2 -12    2.71    0.61
   1  -2 -12    2.45    0.59
  -1   2  12    1.91    0.36
  -1   2  12    1.93    0.38
   0  -2 -12   19.60    1.40
   0  -2 -12   17.82    1.35
   0  -2 -12   20.17    1.33
   0   2  12   21.95    1.05
  -1  -2 -12    2.42    0.71
  -1  -2 -12    1.34    0.45
  -1  -2 -12    2.56    0.41
  -1  -2 -12    1.50    0.55
   1   2  12    2.08    0.38
  -2  -2 -12    0.93    0.28
  -2  -2 -12    0.14    0.29
  -2  -2 -12    0.46    0.38
   2   2  12   -0.26    0.38
   2   2  12    0.57    0.20
  -3  -2 -12   35.88    2.15
  -3  -2 -12   37.68    1.63
   3   2  12   34.62    2.20
   3   2  12   36.72    1.56
  -4  -2 -12  135.33    4.31
  -4  -2 -12  137.40    5.16
   4   2  12  139.15    4.21
   4   2  12  136.59    5.19
  -5  -2 -12    3.99    0.79
  -5  -2 -12    3.70    0.48
   5   2  12    4.04    0.86
   5   2  12    4.65    0.41
  -6  -2 -12    0.03    0.14
   6   2  12    0.12    0.22
   3  -3 -12    0.24    0.16
   3  -3 -12   -0.02    0.22
  -3   3  12    0.38    0.14
   2  -3 -12    0.75    0.30
   2  -3 -12    0.43    0.26
   2  -3 -12    0.24    0.25
  -2   3  12    0.55    0.20
   1  -3 -12   11.75    1.03
   1  -3 -12   14.08    1.05
   1  -3 -12   12.02    0.96
  -1   3  12   12.15    0.78
   0  -3 -12    9.33    1.00
   0  -3 -12    8.23    1.31
   0   3  12   10.29    0.69
  -1  -3 -12    1.43    0.50
  -1  -3 -12    1.43    0.51
  -1  -3 -12    1.54    0.36
  -1  -3 -12    1.07    0.44
   1   3  12    1.40    0.30
  -2  -3 -12    4.38    0.48
  -2  -3 -12    4.72    0.83
  -2  -3 -12    3.64    0.49
  -2  -3 -12    4.67    0.78
   2   3  12    1.86    0.67
   2   3  12    3.70    0.46
  -3  -3 -12   29.04    1.66
  -3  -3 -12   27.57    1.57
  -3  -3 -12   28.32    1.85
   3   3  12   29.44    1.36
  -4  -3 -12    1.72    0.57
  -4  -3 -12    2.32    0.43
  -4  -3 -12    2.04    0.44
   4   3  12    1.87    0.35
   4   3  12    2.47    0.71
  -5  -3 -12    1.26    0.28
  -5  -3 -12    0.72    0.46
   5   3  12    1.19    0.50
   5   3  12    1.26    0.27
  -6  -3 -12    0.08    0.12
  -6  -3 -12   -0.34    0.18
   6   3  12    0.18    0.23
   3  -4 -12    0.36    0.29
   2  -4 -12   -0.35    0.20
   2  -4 -12    0.01    0.16
  -2   4  12    0.20    0.13
   1  -4 -12    0.37    0.25
   1  -4 -12    0.16    0.27
   1  -4 -12    0.18    0.26
  -1   4  12    0.34    0.17
   0  -4 -12   11.79    1.09
   0  -4 -12   13.75    0.99
   0  -4 -12   12.51    0.96
   0  -4 -12   12.31    1.11
   0   4  12   12.31    0.76
  -1  -4 -12    3.40    0.64
  -1  -4 -12    2.49    0.46
  -1  -4 -12    3.36    0.71
   1   4  12    3.08    0.44
  -2  -4 -12   -0.75    0.35
  -2  -4 -12   -0.16    0.17
  -2  -4 -12   -0.17    0.26
   2   4  12    0.38    0.19
  -3  -4 -12    2.64    0.70
  -3  -4 -12    3.13    0.64
   3   4  12    2.50    0.41
   3   4  12    1.80    0.68
  -4  -4 -12   12.11    0.74
  -4  -4 -12   10.55    1.11
  -4  -4 -12   12.55    0.95
   4   4  12   10.92    0.79
   4   4  12   13.79    1.27
  -5  -4 -12    0.94    0.23
  -5  -4 -12    1.10    0.49
   5   4  12    0.78    0.42
   5   4  12    0.81    0.23
  -6  -4 -12    3.90    0.30
   6   4  12    2.74    0.28
   2  -5 -12   -0.17    0.18
   2  -5 -12   -0.26    0.09
   1  -5 -12   -0.02    0.22
   1  -5 -12    0.02    0.13
   0  -5 -12    0.18    0.31
   0  -5 -12    0.17    0.26
   0  -5 -12    0.23    0.19
   0   5  12    0.05    0.13
  -1  -5 -12   -0.24    0.21
  -1  -5 -12   -0.43    0.24
  -1  -5 -12    0.14    0.21
  -1  -5 -12    0.33    0.21
  -2  -5 -12    0.73    0.38
  -2  -5 -12    0.61    0.36
  -2  -5 -12    0.63    0.25
   2   5  12    0.83    0.25
  -3  -5 -12   -0.47    0.18
  -3  -5 -12   -0.37    0.20
  -3  -5 -12   -0.06    0.27
   3   5  12    0.19    0.16
  -4  -5 -12   10.43    1.02
  -4  -5 -12    9.05    0.82
   4   5  12   10.51    0.75
  -5  -5 -12    0.70    0.34
   5   5  12    1.19    0.40
   5   5  12    0.64    0.22
  -6  -5 -12    0.82    0.28
   6   5  12    0.55    0.15
   6   5  12    1.13    0.46
   1  -6 -12    0.31    0.15
   1  -6 -12    0.17    0.23
   0  -6 -12    0.14    0.27
   0  -6 -12    0.70    0.31
   0  -6 -12    0.36    0.18
  -1  -6 -12    1.87    0.38
  -1  -6 -12    1.50    0.45
  -1  -6 -12    1.63    0.46
   1   6  12    2.32    0.28
  -2  -6 -12    0.25    0.23
  -2  -6 -12    0.54    0.33
  -2  -6 -12    0.59    0.23
   2   6  12    0.42    0.17
  -3  -6 -12    2.31    0.39
  -3  -6 -12    3.39    0.61
  -3  -6 -12    2.55    0.46
   3   6  12    2.92    0.37
  -4  -6 -12    0.01    0.15
  -4  -6 -12    0.52    0.30
   4   6  12   -0.04    0.13
  -5  -6 -12    3.20    0.58
   5   6  12    1.74    0.32
   0  -7 -12    0.31    0.22
   0  -7 -12    0.09    0.12
   0  -7 -12   -0.10    0.15
  -1  -7 -12   -0.01    0.17
  -1  -7 -12    0.11    0.11
  -2  -7 -12    1.05    0.35
  -2  -7 -12    0.90    0.28
   2   7  12    0.88    0.21
  -3  -7 -12    2.43    0.29
   3   7  12    2.65    0.31
  -4  -7 -12    0.20    0.20
  -4  -7 -12    0.41    0.19
   4   7  12    0.31    0.15
  -5  -7 -12    0.52    0.18
   5   7  12    0.44    0.13
   3   7 -13    1.13    0.25
   2   7 -13    9.36    0.55
  -2  -7  13   10.50    0.64
   1   7 -13    0.62    0.19
  -1  -7  13    0.65    0.18
   4   6 -13    0.21    0.13
  -4  -6  13   -0.02    0.14
   3   6 -13    0.89    0.23
  -3  -6  13    2.02    0.39
   2   6 -13   -0.01    0.13
  -2  -6  13    0.08    0.18
   1   6 -13   -0.21    0.14
  -1  -6  13    0.00    0.14
  -1  -6  13   -0.13    0.15
   0   6 -13    0.05    0.14
   0  -6  13    0.19    0.16
   1  -6  13    0.00    0.15
   1  -6  13   -0.01    0.12
   4   5 -13    0.51    0.29
   4   5 -13   -0.01    0.13
  -4  -5  13   -0.05    0.18
   3   5 -13   -0.03    0.36
   3   5 -13    0.04    0.17
  -3  -5  13   -0.25    0.17
   2   5 -13    5.85    0.58
  -2  -5  13    6.15    0.71
   1   5 -13    3.70    0.47
  -1  -5  13    2.30    0.47
   0   5 -13    3.90    0.45
   0  -5  13    3.14    0.48
   0  -5  13    3.71    0.47
  -1   5 -13    0.71    0.26
   1  -5  13    0.90    0.23
   1  -5  13    0.80    0.29
  -2   5 -13    2.00    0.32
   3  -5  13   -0.06    0.12
   4   4 -13    1.17    0.39
   4   4 -13    1.54    0.47
  -4  -4  13    1.08    0.17
  -4  -4  13    1.36    0.29
  -4  -4  13    1.33    0.38
   3   4 -13    5.16    0.52
   3   4 -13    5.11    0.74
  -3  -4  13    4.96    0.70
  -3  -4  13    4.57    0.53
   2   4 -13   11.54    0.83
  -2  -4  13   10.81    1.02
  -2  -4  13   11.22    0.84
   1   4 -13    1.23    0.34
  -1  -4  13    1.64    0.47
   0   4 -13    0.17    0.16
   0  -4  13   -0.20    0.17
  -1   4 -13    1.60    0.34
   1  -4  13    1.24    0.42
  -2   4 -13    0.11    0.17
   2  -4  13    0.40    0.24
   2  -4  13   -0.01    0.19
  -3   4 -13    0.23    0.15
   3  -4  13    0.17    0.18
   5   3 -13    0.31    0.21
  -5  -3  13    0.29    0.10
  -5  -3  13    0.34    0.15
  -5  -3  13    0.21    0.12
   4   3 -13   -0.05    0.18
   4   3 -13    0.10    0.29
  -4  -3  13    0.28    0.14
  -4  -3  13   -0.37    0.15
  -4  -3  13    0.12    0.17
   3   3 -13   10.22    1.06
   3   3 -13    8.11    0.81
  -3  -3  13    9.22    0.94
  -3  -3  13    9.54    0.78
  -3  -3  13    9.70    0.62
   2   3 -13   45.60    1.85
   2   3 -13   43.45    2.41
  -2  -3  13   42.60    1.88
  -2  -3  13   42.41    2.20
  -2  -3  13   39.39    1.58
   1   3 -13    0.95    0.44
  -1  -3  13   -0.21    0.16
  -1  -3  13    0.12    0.27
  -1  -3  13   -0.30    0.19
   0   3 -13    9.60    0.76
   0  -3  13    8.36    0.88
  -1   3 -13   -0.19    0.17
   1  -3  13   -0.06    0.25
  -2   3 -13   13.73    0.92
   2  -3  13   14.15    1.16
   2  -3  13   14.01    1.03
  -3   3 -13   -0.10    0.12
   3  -3  13   -0.06    0.21
   3  -3  13    0.19    0.20
  -4   3 -13    2.47    0.28
   4  -3  13    2.59    0.41
   5   2 -13    0.29    0.18
  -5  -2  13    0.41    0.16
  -5  -2  13    0.10    0.08
   4   2 -13    1.29    0.43
  -4  -2  13    0.70    0.30
  -4  -2  13    0.55    0.19
  -4  -2  13    0.65    0.21
   3   2 -13    4.89    1.00
   3   2 -13    3.69    0.67
  -3  -2  13    5.13    0.54
  -3  -2  13    4.50    0.49
   2   2 -13   10.55    0.80
   2   2 -13    9.53    1.13
  -2  -2  13   11.80    1.08
  -2  -2  13    9.72    0.81
  -2  -2  13   10.44    0.71
   1   2 -13   36.83    2.01
   1   2 -13   39.30    1.99
   1   2 -13   38.64    2.29
  -1  -2  13   43.77    1.98
  -1  -2  13   43.35    2.00
   0   2 -13   -0.32    0.28
   0   2 -13    0.15    0.26
   0   2 -13    0.34    0.22
   0  -2  13    0.08    0.17
   0  -2  13   -0.01    0.27
  -1   2 -13    5.33    0.69
   1  -2  13    4.89    0.60
  -2   2 -13    9.73    0.78
   2  -2  13   11.72    0.83
   2  -2  13    9.85    1.04
  -3   2 -13    7.09    0.60
   3  -2  13    4.93    0.83
   3  -2  13    5.01    0.61
  -4   2 -13    4.14    0.43
   4  -2  13    4.92    0.53
   4  -2  13    4.45    0.53
  -5   2 -13    0.05    0.10
   5  -2  13   -0.06    0.13
   4   1 -13    1.08    0.37
  -4  -1  13    0.55    0.21
  -4  -1  13    0.01    0.28
  -4  -1  13    0.62    0.20
   3   1 -13    0.09    0.20
   3   1 -13    0.48    0.41
  -3  -1  13   -0.32    0.30
  -3  -1  13    0.12    0.15
  -3  -1  13    0.12    0.18
   2   1 -13    8.28    1.03
   2   1 -13    8.95    0.89
   2   1 -13    8.86    0.67
  -2  -1  13    9.32    1.01
  -2  -1  13    9.28    0.66
  -2  -1  13    9.26    0.76
   1   1 -13    3.47    0.64
   1   1 -13    2.00    0.38
   1   1 -13    3.06    0.76
  -1  -1  13    2.95    0.52
  -1  -1  13    2.38    0.66
  -1  -1  13    3.38    0.41
   0   1 -13   19.27    1.28
   0   1 -13   17.66    1.41
   0   1 -13   18.71    1.03
   0  -1  13   17.06    1.08
   0  -1  13   18.65    0.96
   0  -1  13   15.75    1.26
  -1   1 -13    2.34    0.43
  -1   1 -13    3.48    0.74
   1  -1  13    1.21    0.49
   1  -1  13    2.33    0.36
  -2   1 -13    0.35    0.43
  -2   1 -13    0.88    0.30
   2  -1  13    1.49    0.32
   2  -1  13    0.76    0.28
   2  -1  13    0.77    0.54
  -3   1 -13   -0.04    0.17
   3  -1  13   -0.08    0.18
   3  -1  13    0.23    0.34
  -4   1 -13   -0.07    0.16
   4  -1  13    0.32    0.18
   4  -1  13    0.13    0.33
  -5   1 -13    0.66    0.21
   5  -1  13    1.12    0.21
   5  -1  13    1.09    0.26
   5  -1  13    0.79    0.23
  -4   0  13    1.32    0.30
  -4   0  13    0.81    0.31
   3   0 -13   -0.32    0.27
  -3   0  13    0.47    0.19
  -3   0  13    0.26    0.16
   2   0 -13    2.98    0.73
  -2   0  13    4.60    0.83
  -2   0  13    4.31    0.46
  -2   0  13    3.78    0.56
   1   0 -13    6.91    0.97
   1   0 -13    6.52    0.60
   1   0 -13    7.97    0.85
  -1   0  13    9.56    0.97
  -1   0  13    6.99    0.64
  -1   0  13    7.10    0.60
   0   0 -13   24.38    1.20
   0   0 -13   25.08    1.54
   0   0 -13   22.57    1.67
   0   0  13   22.50    1.52
   0   0  13   24.43    1.26
   0   0  13   24.72    1.16
  -1   0 -13    1.64    0.46
  -1   0 -13    1.12    0.42
  -1   0 -13    0.85    0.26
   1   0  13    1.19    0.28
   1   0  13    0.46    0.40
  -2   0 -13    3.19    0.79
  -2   0 -13    2.41    0.45
   2   0  13    1.28    0.29
   2   0  13    2.23    0.36
   2   0  13    2.66    0.70
  -3   0 -13    1.46    0.63
  -3   0 -13    1.51    0.37
   3   0  13    1.85    0.58
   3   0  13    1.87    0.34
   3   0  13    1.49    0.33
  -4   0 -13    6.45    1.13
  -4   0 -13    4.52    0.56
   4   0  13    6.05    1.11
  -5   0 -13    0.56    0.20
   4  -1 -13    0.08    0.23
   4  -1 -13   -0.08    0.10
  -4   1  13    0.23    0.11
  -4   1  13   -0.03    0.09
   3  -1 -13    1.24    0.44
  -3   1  13    0.96    0.24
  -3   1  13    1.11    0.26
   2  -1 -13    2.35    0.64
  -2   1  13    1.91    0.38
  -2   1  13    2.32    0.37
   1  -1 -13   28.85    1.82
   1  -1 -13   27.84    1.29
   1  -1 -13   30.45    1.84
  -1   1  13   28.94    1.30
   0  -1 -13    3.39    0.73
   0  -1 -13    1.76    0.58
   0  -1 -13    3.21    0.66
   0  -1 -13    3.70    0.45
   0   1  13    3.71    0.44
   0   1  13    3.47    0.72
   0   1  13    4.70    0.51
  -1  -1 -13    9.78    1.09
  -1  -1 -13   11.49    1.02
  -1  -1 -13   10.93    0.76
   1   1  13   12.03    0.76
  -2  -1 -13    0.11    0.20
  -2  -1 -13   -0.08    0.36
   2   1  13   -0.08    0.36
   2   1  13    0.10    0.19
  -3  -1 -13   41.46    2.38
  -3  -1 -13   40.91    1.77
   3   1  13   41.88    2.39
   3   1  13   39.94    1.65
   3   1  13   41.10    1.71
  -4  -1 -13    2.21    0.43
  -4  -1 -13    2.40    0.63
   4   1  13    1.14    0.26
   4   1  13    1.50    0.60
  -5  -1 -13   -0.02    0.15
  -5  -1 -13    1.01    0.34
   5   1  13    0.05    0.27
  -6  -1 -13    0.07    0.12
   6   1  13    0.10    0.21
   6   1  13   -0.10    0.15
   3  -2 -13    0.09    0.19
   3  -2 -13   -0.32    0.28
   3  -2 -13    0.13    0.16
  -3   2  13    0.29    0.15
  -3   2  13    0.29    0.13
   2  -2 -13    2.56    0.51
   2  -2 -13    1.70    0.48
  -2   2  13    2.09    0.38
  -2   2  13    2.58    0.50
   1  -2 -13    7.40    0.95
   1  -2 -13    5.55    0.79
   1  -2 -13    5.91    0.73
  -1   2  13    6.16    0.55
  -1   2  13    6.45    0.60
   0  -2 -13    7.83    0.81
   0  -2 -13    7.73    0.94
   0   2  13    7.97    0.73
  -1  -2 -13    8.07    0.93
  -1  -2 -13    7.24    0.60
   1   2  13    6.76    0.97
   1   2  13    7.70    0.61
  -2  -2 -13   77.09    3.41
  -2  -2 -13   84.03    3.26
  -2  -2 -13   75.78    2.64
   2   2  13   79.50    2.68
   2   2  13   72.67    3.44
  -3  -2 -13    0.87    0.30
  -3  -2 -13    0.68    0.48
  -3  -2 -13    0.77    0.46
   3   2  13    1.01    0.51
  -4  -2 -13    5.60    0.59
  -4  -2 -13    4.29    0.85
   4   2  13    5.23    1.01
   4   2  13    5.30    0.53
  -5  -2 -13    1.10    0.30
  -5  -2 -13    1.95    0.45
   5   2  13    1.31    0.50
  -6  -2 -13    1.25    0.22
  -6  -2 -13    1.43    0.31
   6   2  13    1.60    0.40
   3  -3 -13    0.11    0.12
   2  -3 -13    0.46    0.23
   2  -3 -13    0.33    0.27
   2  -3 -13    0.12    0.24
  -2   3  13    0.51    0.16
   1  -3 -13    2.82    0.58
   1  -3 -13    3.32    0.65
   1  -3 -13    3.16    0.56
  -1   3  13    3.34    0.41
   0  -3 -13   -0.39    0.30
   0  -3 -13    0.16    0.35
   0  -3 -13    0.15    0.18
   0  -3 -13    0.38    0.31
   0   3  13    0.42    0.22
  -1  -3 -13    5.51    0.73
  -1  -3 -13    4.85    0.85
  -1  -3 -13    4.84    0.85
  -1  -3 -13    4.94    0.57
   1   3  13    4.57    0.47
  -2  -3 -13   20.79    1.44
  -2  -3 -13   24.21    1.29
  -2  -3 -13   19.87    1.51
   2   3  13   20.09    1.09
  -3  -3 -13   59.49    2.92
  -3  -3 -13   63.68    2.26
   3   3  13   65.38    2.33
   3   3  13   63.08    3.11
  -4  -3 -13   -0.44    0.26
  -4  -3 -13    0.03    0.17
   4   3  13   -0.07    0.35
  -5  -3 -13   -0.05    0.15
  -5  -3 -13    0.27    0.25
   5   3  13    0.13    0.29
   5   3  13    0.18    0.16
  -6  -3 -13    2.58    0.55
  -6  -3 -13    2.14    0.27
   6   3  13    2.95    0.53
   2  -4 -13    0.12    0.21
   2  -4 -13   -0.03    0.18
  -2   4  13   -0.26    0.13
   1  -4 -13    1.93    0.42
   1  -4 -13    1.90    0.49
   1  -4 -13    0.85    0.34
  -1   4  13    1.11    0.24
   0  -4 -13    4.28    0.59
   0  -4 -13    3.78    0.59
   0  -4 -13    2.81    0.63
   0  -4 -13    3.37    0.67
   0   4  13    4.00    0.44
  -1  -4 -13    0.77    0.27
  -1  -4 -13    0.22    0.32
  -1  -4 -13    0.66    0.37
   1   4  13    0.79    0.18
  -2  -4 -13    0.00    0.17
  -2  -4 -13   -0.54    0.30
   2   4  13    0.45    0.17
  -3  -4 -13    6.23    0.87
   3   4  13    7.45    0.63
   3   4  13    6.71    0.95
  -4  -4 -13    5.68    0.63
  -4  -4 -13    6.23    0.83
  -4  -4 -13    4.82    0.44
   4   4  13    4.88    0.54
   4   4  13    5.34    0.97
  -5  -4 -13    0.90    0.37
   5   4  13    0.98    0.38
   5   4  13    1.01    0.25
  -6  -4 -13   -0.06    0.11
  -6  -4 -13   -0.22    0.13
   6   4  13    0.20    0.13
   6   4  13    0.20    0.21
   2  -5 -13    0.15    0.19
   2  -5 -13    0.15    0.15
   1  -5 -13    0.68    0.24
   1  -5 -13    0.64    0.32
   1  -5 -13    0.37    0.24
   0  -5 -13    0.04    0.15
   0  -5 -13    0.31    0.29
   0  -5 -13    0.36    0.25
   0   5  13    0.00    0.13
  -1  -5 -13    2.41    0.56
  -1  -5 -13    2.36    0.60
  -1  -5 -13    2.27    0.41
  -1  -5 -13    2.62    0.44
   1   5  13    2.38    0.39
  -2  -5 -13    0.30    0.21
  -2  -5 -13    1.69    0.47
   2   5  13    0.43    0.21
  -3  -5 -13    1.26    0.45
  -3  -5 -13    1.38    0.43
  -3  -5 -13    1.17    0.28
   3   5  13    1.09    0.29
  -4  -5 -13    1.62    0.47
  -4  -5 -13    1.57    0.36
   4   5  13    0.92    0.26
  -5  -5 -13    2.41    0.54
   5   5  13    2.64    0.55
   5   5  13    1.92    0.29
  -6  -5 -13    0.43    0.24
   6   5  13   -0.01    0.09
   6   5  13    0.22    0.20
   1  -6 -13    0.03    0.12
   1  -6 -13   -0.04    0.19
   0  -6 -13    0.42    0.21
   0  -6 -13    0.08    0.22
   0  -6 -13    0.21    0.14
  -1  -6 -13   -0.03    0.21
  -1  -6 -13    0.45    0.28
  -1  -6 -13    0.12    0.16
   1   6  13    0.07    0.14
  -2  -6 -13    0.00    0.20
  -2  -6 -13    0.35    0.16
  -2  -6 -13    0.53    0.34
   2   6  13    0.61    0.20
  -3  -6 -13    0.61    0.28
  -3  -6 -13    0.60    0.18
  -3  -6 -13    0.55    0.24
   3   6  13    0.61    0.18
  -4  -6 -13    2.54    0.42
  -4  -6 -13    1.85    0.40
   4   6  13    1.52    0.31
  -5  -6 -13    0.07    0.18
   5   6  13    0.08    0.11
  -1  -7 -13    0.00    0.16
  -1  -7 -13   -0.10    0.10
  -2  -7 -13    0.01    0.12
  -2  -7 -13    0.37    0.19
   2   7  13    0.36    0.14
  -3  -7 -13   -0.03    0.17
  -3  -7 -13   -0.27    0.12
   3   7  13    0.42    0.12
  -4  -7 -13    0.24    0.22
   4   7  13    0.00    0.09
   1   7 -14    0.26    0.18
  -1  -7  14    0.47    0.15
   3   6 -14    0.11    0.14
  -3  -6  14    0.19    0.17
   2   6 -14   -0.03    0.14
  -2  -6  14    0.43    0.18
   1   6 -14    1.89    0.30
  -1  -6  14    1.16    0.24
  -1  -6  14    1.99    0.27
   0   6 -14    2.29    0.30
   0  -6  14    2.53    0.32
   0  -6  14    2.45    0.32
   1  -6  14    0.10    0.11
   4   5 -14    0.77    0.18
   4   5 -14    0.81    0.39
  -4  -5  14    1.26    0.32
   3   5 -14    0.18    0.15
  -3  -5  14    0.39    0.23
   2   5 -14   -0.15    0.12
  -2  -5  14   -0.06    0.16
   1   5 -14   -0.11    0.14
  -1  -5  14   -0.02    0.21
   0   5 -14    4.25    0.44
   0  -5  14    4.11    0.54
   0  -5  14    3.58    0.40
   0  -5  14    3.15    0.43
  -1   5 -14    0.09    0.16
   1  -5  14    0.08    0.16
   1  -5  14    0.16    0.17
  -2   5 -14    0.09    0.20
   2  -5  14    0.53    0.22
   4   4 -14    1.22    0.38
   4   4 -14    0.85    0.20
  -4  -4  14    1.91    0.40
  -4  -4  14    1.52    0.28
   3   4 -14    0.57    0.21
   3   4 -14    0.50    0.42
  -3  -4  14    0.97    0.26
  -3  -4  14    1.04    0.35
  -3  -4  14    0.19    0.16
   2   4 -14    1.75    0.50
   2   4 -14    0.57    0.25
  -2  -4  14    0.71    0.36
   1   4 -14   14.60    0.94
  -1  -4  14   15.87    1.62
   0   4 -14    5.33    0.60
   0  -4  14    4.13    0.97
  -1   4 -14    0.85    0.23
   1  -4  14    1.71    0.44
   1  -4  14    1.03    0.34
  -2   4 -14    1.02    0.24
   2  -4  14    0.92    0.30
   2  -4  14    0.70    0.31
  -3   4 -14    3.61    0.36
   3  -4  14    4.51    0.45
   4   3 -14    0.59    0.18
   4   3 -14    1.00    0.37
  -4  -3  14    0.42    0.21
  -4  -3  14    0.49    0.14
  -4  -3  14    1.36    0.33
   3   3 -14   11.48    1.06
   3   3 -14   11.09    0.73
  -3  -3  14   12.03    1.03
  -3  -3  14    9.91    0.76
  -3  -3  14   10.75    0.63
   2   3 -14    1.00    0.30
  -2  -3  14    0.66    0.30
  -2  -3  14    0.85    0.35
  -2  -3  14    1.11    0.41
   1   3 -14   24.39    1.74
   1   3 -14   25.55    1.30
  -1  -3  14   24.58    1.58
  -1  -3  14   23.68    1.07
   0   3 -14    4.40    0.54
   0  -3  14    3.80    0.74
  -1   3 -14   31.65    1.51
  -2   3 -14   -0.03    0.16
   2  -3  14   -0.05    0.17
   2  -3  14    0.15    0.24
  -3   3 -14    0.21    0.17
   3  -3  14   -0.08    0.22
   3  -3  14   -0.07    0.14
  -4   3 -14   -0.08    0.20
   4  -3  14    0.22    0.16
   4   2 -14    0.39    0.30
  -4  -2  14    0.33    0.21
  -4  -2  14    0.22    0.17
  -4  -2  14    0.12    0.12
   3   2 -14   16.34    1.32
   3   2 -14   13.88    0.82
  -3  -2  14   15.29    0.96
  -3  -2  14   16.90    1.25
  -3  -2  14   15.77    0.85
   2   2 -14  138.38    5.19
   2   2 -14  151.32    4.42
  -2  -2  14  139.26    4.50
  -2  -2  14  145.66    4.26
  -2  -2  14  138.07    4.98
   1   2 -14    9.29    1.08
   1   2 -14    9.22    0.73
   1   2 -14    8.35    0.98
  -1  -2  14    8.39    0.95
  -1  -2  14    8.34    0.64
  -1  -2  14    8.49    0.76
   0   2 -14    0.98    0.30
   0   2 -14    1.13    0.46
   0   2 -14    1.42    0.38
   0  -2  14    0.95    0.25
   0  -2  14    0.56    0.35
  -1   2 -14   16.50    1.53
  -1   2 -14   17.24    1.07
   1  -2  14   17.57    0.96
  -2   2 -14   57.74    2.27
   2  -2  14   57.08    2.74
  -3   2 -14    0.61    0.22
   3  -2  14    0.31    0.25
   3  -2  14    0.55    0.36
  -4   2 -14   -0.13    0.18
   4  -2  14    0.12    0.20
   4   1 -14    0.74    0.34
  -4  -1  14    0.65    0.20
  -4  -1  14    0.68    0.19
   3   1 -14    0.59    0.36
  -3  -1  14    0.58    0.24
  -3  -1  14    0.71    0.25
  -3  -1  14    0.39    0.31
   2   1 -14   19.57    1.02
   2   1 -14   19.14    1.56
  -2  -1  14   18.44    1.11
  -2  -1  14   18.35    1.39
  -2  -1  14   18.63    0.99
   1   1 -14   46.36    1.83
   1   1 -14   46.43    2.28
   1   1 -14   42.88    2.43
  -1  -1  14   43.36    1.90
  -1  -1  14   42.63    2.28
  -1  -1  14   42.05    2.25
   0   1 -14    6.38    0.59
   0   1 -14    5.64    0.73
   0  -1  14    5.57    0.60
   0  -1  14    4.98    0.91
   0  -1  14    4.86    0.49
  -1   1 -14    1.75    0.39
   1  -1  14    2.24    0.51
   1  -1  14    0.69    0.44
  -2   1 -14    0.41    0.46
  -2   1 -14   -0.07    0.18
   2  -1  14    0.21    0.21
   2  -1  14    0.28    0.32
  -3   1 -14    5.95    0.60
   3  -1  14    4.52    0.88
   3  -1  14    5.24    0.60
  -4   1 -14    1.85    0.34
   4  -1  14    1.91    0.50
   4  -1  14    2.21    0.38
   4  -1  14    1.31    0.54
  -5   1 -14    0.47    0.17
   5  -1  14    0.85    0.18
   4   0 -14    0.19    0.20
   4   0 -14    0.03    0.15
  -4   0  14    0.08    0.13
  -4   0  14    0.16    0.11
   3   0 -14   -0.47    0.23
  -3   0  14   -0.13    0.11
  -3   0  14   -0.11    0.14
   2   0 -14   19.18    1.26
   2   0 -14   19.72    1.52
  -2   0  14   19.58    1.11
  -2   0  14   20.36    1.04
  -2   0  14   21.29    1.46
   1   0 -14    3.23    0.67
   1   0 -14    2.69    0.42
   1   0 -14    2.10    0.73
  -1   0  14    3.39    0.41
  -1   0  14    3.36    0.70
  -1   0  14    2.85    0.48
   0   0 -14    1.08    0.54
   0   0 -14    1.18    0.44
   0   0 -14    1.58    0.44
   0   0  14    1.25    0.30
  -1   0 -14   17.43    1.30
  -1   0 -14   17.84    1.63
   1   0  14   15.93    1.39
  -2   0 -14    0.07    0.37
  -2   0 -14    0.19    0.21
   2   0  14    0.04    0.14
   2   0  14    0.69    0.39
  -3   0 -14   -0.05    0.30
  -3   0 -14   -0.17    0.16
   3   0  14   -0.02    0.18
   3   0  14    0.20    0.35
  -4   0 -14    0.00    0.38
  -4   0 -14    0.42    0.24
   4   0  14    0.42    0.39
   4   0  14    0.24    0.17
  -5   0 -14    1.02    0.30
   5   0  14    0.86    0.37
   4  -1 -14   -0.06    0.11
  -4   1  14    0.30    0.12
  -4   1  14   -0.01    0.10
   3  -1 -14   -0.33    0.19
  -3   1  14   -0.10    0.13
  -3   1  14   -0.16    0.07
  -2   1  14    0.43    0.19
  -2   1  14    0.04    0.26
   1  -1 -14    1.66    0.56
  -1   1  14    2.14    0.36
  -1   1  14    2.36    0.41
  -1   1  14    2.49    0.65
   0  -1 -14    1.40    0.52
   0  -1 -14    1.11    0.75
   0  -1 -14    0.52    0.23
   0   1  14    0.88    0.32
   0   1  14    0.91    0.28
  -1  -1 -14    0.86    0.39
  -1  -1 -14    1.58    0.62
  -1  -1 -14    0.80    0.47
   1   1  14    1.16    0.27
  -2  -1 -14    1.21    0.53
  -2  -1 -14    1.40    0.33
   2   1  14    1.47    0.33
   2   1  14    1.55    0.57
  -3  -1 -14   -0.09    0.17
  -3  -1 -14    0.64    0.41
   3   1  14    0.09    0.18
  -4  -1 -14    0.44    0.36
  -4  -1 -14    0.76    0.29
   4   1  14    0.31    0.40
   4   1  14    1.05    0.21
   4   1  14    0.85    0.24
  -5  -1 -14    0.36    0.21
  -5  -1 -14    1.11    0.32
   5   1  14    0.51    0.34
   3  -2 -14    0.47    0.20
  -3   2  14    0.53    0.17
  -3   2  14    0.82    0.23
   2  -2 -14    0.04    0.17
   2  -2 -14   -0.39    0.20
   2  -2 -14   -0.04    0.23
   2  -2 -14    0.29    0.63
  -2   2  14   -0.11    0.13
  -2   2  14   -0.19    0.17
   1  -2 -14    0.70    0.41
   1  -2 -14    1.21    0.37
  -1   2  14    0.58    0.23
  -1   2  14    1.02    0.26
   0  -2 -14   -0.40    0.31
   0  -2 -14    0.42    0.33
   0  -2 -14   -0.31    0.34
   0   2  14   -0.06    0.16
  -1  -2 -14    0.23    0.34
  -1  -2 -14    0.02    0.36
  -1  -2 -14    0.45    0.22
  -1  -2 -14    0.22    0.24
   1   2  14   -0.20    0.45
   1   2  14   -0.24    0.12
  -2  -2 -14   41.57    1.69
  -2  -2 -14   41.10    2.33
  -2  -2 -14   45.99    2.29
   2   2  14   37.69    2.31
   2   2  14   42.66    1.72
  -3  -2 -14   14.54    0.90
  -3  -2 -14   12.48    1.25
   3   2  14   14.10    0.87
   3   2  14   14.30    1.31
  -4  -2 -14    6.24    0.82
  -4  -2 -14    6.36    0.58
   4   2  14    5.03    0.50
   4   2  14    5.93    1.02
  -5  -2 -14    2.58    0.59
   5   2  14    2.00    0.26
   5   2  14    1.99    0.54
  -6  -2 -14    6.84    0.52
   6   2  14    8.47    0.76
   3  -3 -14    0.11    0.10
  -3   3  14   -0.16    0.08
   2  -3 -14    0.90    0.30
   2  -3 -14    0.32    0.22
  -2   3  14    0.40    0.16
   1  -3 -14    1.80    0.44
   1  -3 -14    2.19    0.51
   1  -3 -14    2.18    0.49
   1  -3 -14    2.37    0.54
  -1   3  14    1.85    0.31
   0  -3 -14   -0.05    0.28
   0  -3 -14    0.19    0.29
   0  -3 -14    0.15    0.18
   0   3  14    0.03    0.16
  -1  -3 -14    0.21    0.27
  -1  -3 -14   -0.31    0.17
   1   3  14    0.20    0.16
  -2  -3 -14   14.32    1.28
  -2  -3 -14   15.78    0.94
  -2  -3 -14   14.40    0.85
   2   3  14   14.86    0.90
   2   3  14   12.85    1.32
  -3  -3 -14  118.84    4.51
  -3  -3 -14  115.82    3.60
   3   3  14  120.82    4.64
   3   3  14  114.20    3.67
  -4  -3 -14   14.99    1.00
  -4  -3 -14   16.30    1.33
  -4  -3 -14   15.27    0.86
   4   3  14   15.98    1.36
   4   3  14   15.76    0.90
  -5  -3 -14    0.24    0.22
  -5  -3 -14    0.12    0.16
   5   3  14    0.68    0.35
   5   3  14    0.23    0.15
  -6  -3 -14    4.68    0.31
   2  -4 -14    1.25    0.36
   2  -4 -14    0.62    0.21
   1  -4 -14    0.32    0.21
   1  -4 -14    0.38    0.29
   1  -4 -14    0.67    0.31
  -1   4  14    0.26    0.20
   0  -4 -14    2.80    0.50
   0  -4 -14    2.32    0.57
   0  -4 -14    2.99    0.61
   0  -4 -14    2.31    0.44
   0   4  14    2.25    0.35
  -1  -4 -14    0.72    0.48
  -1  -4 -14    0.73    0.35
  -1  -4 -14    0.19    0.18
   1   4  14    0.49    0.20
  -2  -4 -14    9.53    1.03
  -2  -4 -14   11.62    1.07
   2   4  14   12.07    0.78
  -3  -4 -14    2.77    0.59
  -3  -4 -14    3.17    0.76
   3   4  14    2.61    0.62
   3   4  14    3.41    0.51
  -4  -4 -14    7.35    0.67
  -4  -4 -14    7.27    0.86
   4   4  14    6.92    0.86
   4   4  14    6.85    0.58
   5   4  14    1.87    0.45
   5   4  14    1.45    0.32
   1  -5 -14    1.89    0.31
   1  -5 -14    2.37    0.42
   0  -5 -14    1.08    0.33
   0  -5 -14    1.30    0.38
   0  -5 -14    1.14    0.28
   0   5  14    1.01    0.21
  -1  -5 -14    0.16    0.27
  -1  -5 -14    0.07    0.15
   1   5  14    0.30    0.11
  -2  -5 -14    0.43    0.23
  -2  -5 -14   -0.10    0.19
  -2  -5 -14    0.00    0.12
   2   5  14    0.45    0.15
  -3  -5 -14   16.09    1.13
  -3  -5 -14   17.59    1.21
   3   5  14   17.94    0.95
  -4  -5 -14    0.04    0.23
  -4  -5 -14    0.40    0.23
   4   5  14   -0.01    0.15
  -5  -5 -14    1.16    0.36
   5   5  14    0.99    0.20
   5   5  14    0.48    0.36
   0  -6 -14    0.80    0.20
  -1  -6 -14   -0.04    0.10
  -1  -6 -14    0.24    0.19
   1   6  14   -0.24    0.11
  -2  -6 -14    0.20    0.14
  -2  -6 -14    0.29    0.22
   2   6  14    0.19    0.13
  -3  -6 -14    3.08    0.40
  -3  -6 -14    2.15    0.42
   3   6  14    1.80    0.28
  -4  -6 -14    0.15    0.16
  -4  -6 -14   -0.08    0.16
   4   6  14    0.10    0.12
  -5  -6 -14    0.88    0.31
   5   6  14    0.70    0.18
  -2  -7 -14    1.09    0.30
  -2  -7 -14    0.79    0.17
  -3  -7 -14    0.46    0.22
   2   6 -15    0.00    0.12
  -2  -6  15   -0.11    0.11
   1   6 -15    0.92    0.21
  -1  -6  15    1.07    0.25
  -1  -6  15    1.25    0.33
   0  -6  15    1.81    0.28
   0  -6  15    1.75    0.29
   3   5 -15    0.24    0.14
  -3  -5  15    0.25    0.19
   2   5 -15    0.21    0.17
  -2  -5  15    0.19    0.31
   1   5 -15    2.68    0.34
  -1  -5  15    1.94    0.38
   0   5 -15    0.07    0.15
   0  -5  15   -0.06    0.21
   0  -5  15    0.33    0.16
   0  -5  15    0.24    0.15
  -1   5 -15    2.25    0.29
   1  -5  15    1.92    0.33
  -2   5 -15    0.52    0.28
   2  -5  15    0.90    0.22
   4   4 -15    0.14    0.17
   4   4 -15   -0.04    0.10
  -4  -4  15    0.09    0.18
   3   4 -15    6.14    0.69
   3   4 -15    6.26    0.73
   2   4 -15   -0.06    0.36
   2   4 -15    0.25    0.18
  -2  -4  15   -0.18    0.22
   1   4 -15    2.16    0.39
  -1  -4  15    2.38    0.53
   0   4 -15    0.05    0.15
   0  -4  15   -0.40    0.16
  -1   4 -15    2.42    0.40
   1  -4  15    1.78    0.40
   1  -4  15    1.77    0.43
  -2   4 -15    1.16    0.27
   2  -4  15    0.67    0.25
  -3   4 -15    0.64    0.14
   3  -4  15    1.13    0.25
   4   3 -15    0.04    0.22
  -4  -3  15    0.03    0.12
  -4  -3  15    0.01    0.10
   3   3 -15    4.03    0.45
   3   3 -15    4.06    0.81
  -3  -3  15    4.37    0.47
  -3  -3  15    3.49    0.64
   2   3 -15    0.61    0.26
   2   3 -15    0.32    0.37
  -2  -3  15    0.80    0.30
  -2  -3  15    0.75    0.19
  -2  -3  15    0.85    0.41
   1   3 -15    3.07    0.68
   1   3 -15    3.64    0.66
  -1  -3  15    3.65    0.37
   0   3 -15    1.16    0.33
   0  -3  15    0.93    0.40
  -1   3 -15    0.02    0.12
   1  -3  15   -0.38    0.21
  -2   3 -15    0.36    0.23
   2  -3  15    0.65    0.33
   2  -3  15    0.97    0.32
  -3   3 -15    0.24    0.16
   3  -3  15    0.47    0.22
   3  -3  15    0.37    0.18
   4   2 -15    0.89    0.30
  -4  -2  15    0.80    0.21
  -4  -2  15    0.51    0.20
  -4  -2  15    0.34    0.13
   3   2 -15    2.07    0.33
   3   2 -15    2.09    0.58
  -3  -2  15    2.27    0.51
  -3  -2  15    1.70    0.36
  -3  -2  15    1.87    0.30
   2   2 -15    4.15    0.49
   2   2 -15    3.20    0.77
  -2  -2  15    3.90    0.58
  -2  -2  15    4.77    0.85
  -2  -2  15    4.13    0.44
   1   2 -15    7.09    0.65
   1   2 -15    7.07    0.92
  -1  -2  15    7.07    0.55
  -1  -2  15    6.07    0.67
  -1  -2  15    7.40    0.86
   0   2 -15    0.47    0.36
   0   2 -15   -0.15    0.15
   0  -2  15    0.22    0.16
   0  -2  15    0.03    0.28
  -1   2 -15    6.53    0.64
  -1   2 -15    4.82    0.88
  -2   2 -15    1.32    0.44
  -3   2 -15    4.15    0.46
   3  -2  15    4.00    0.68
   3  -2  15    3.38    0.46
  -4   2 -15    3.14    0.34
   4  -2  15    2.44    0.35
   4  -2  15    2.94    0.34
   4   1 -15    1.37    0.32
  -4  -1  15    1.04    0.19
  -4  -1  15    0.91    0.20
   3   1 -15    7.51    0.83
  -3  -1  15    5.72    0.48
  -3  -1  15    6.53    0.58
  -3  -1  15    7.33    0.75
   2   1 -15   22.82    1.10
   2   1 -15   23.60    1.68
  -2  -1  15   24.92    1.15
  -2  -1  15   24.94    1.28
  -2  -1  15   23.37    1.54
   1   1 -15   -0.14    0.17
   1   1 -15    0.84    0.38
  -1  -1  15    0.16    0.17
  -1  -1  15    0.32    0.29
  -1  -1  15    0.39    0.22
   0   1 -15    0.91    0.28
   0   1 -15    0.74    0.46
   0  -1  15    0.42    0.35
   0  -1  15    0.63    0.21
  -1   1 -15    4.51    0.55
  -1   1 -15    4.41    0.88
   1  -1  15    4.39    0.45
  -2   1 -15    8.05    1.08
  -2   1 -15    9.92    0.78
   2  -1  15    9.10    0.61
   2  -1  15   10.43    1.10
  -3   1 -15    4.94    0.54
   3  -1  15    4.01    0.51
   3  -1  15    3.97    0.76
  -4   1 -15    0.46    0.20
   4  -1  15    0.88    0.33
   4  -1  15    0.66    0.22
  -5   1 -15    0.82    0.21
   3   0 -15    1.66    0.45
  -3   0  15    2.65    0.41
  -3   0  15    2.60    0.32
   2   0 -15    6.72    0.88
  -2   0  15    6.65    0.58
  -2   0  15    8.86    0.89
  -2   0  15    7.42    0.63
   1   0 -15    1.10    0.27
   1   0 -15    0.66    0.43
  -1   0  15    0.90    0.28
  -1   0  15    1.19    0.45
  -1   0  15    0.77    0.25
   0   0 -15    0.43    0.22
   0   0 -15    1.37    0.46
   0   0  15    0.25    0.34
   0   0  15    0.34    0.19
  -1   0 -15    0.22    0.54
  -1   0 -15    0.45    0.22
  -1   0 -15   -0.32    0.34
   1   0  15    0.04    0.19
  -2   0 -15    0.44    0.37
  -2   0 -15    0.41    0.24
   2   0  15    0.39    0.20
   2   0  15   -0.08    0.28
  -3   0 -15    0.50    0.41
  -3   0 -15   -0.10    0.14
   3   0  15    0.01    0.19
   3   0  15    0.13    0.19
   3   0  15    0.24    0.42
  -4   0 -15    9.47    0.89
  -4   0 -15    8.65    0.70
   4   0  15    8.13    0.91
  -5   0 -15    0.11    0.13
   5   0  15   -0.27    0.19
   3  -1 -15    0.51    0.23
   3  -1 -15    0.88    0.23
  -3   1  15    0.80    0.19
  -3   1  15    1.12    0.19
   2  -1 -15    2.30    0.58
  -2   1  15    3.31    0.40
  -2   1  15    3.16    0.45
   1  -1 -15    0.03    0.30
  -1   1  15    0.31    0.18
  -1   1  15   -0.19    0.43
   0  -1 -15    1.19    0.47
   0  -1 -15    0.79    0.24
   0   1  15    0.79    0.25
   0   1  15    0.29    0.39
  -1  -1 -15    0.21    0.17
  -1  -1 -15   -0.01    0.36
   1   1  15   -0.20    0.14
   1   1  15   -0.16    0.31
  -2  -1 -15    3.29    0.78
  -2  -1 -15    4.34    0.50
   2   1  15    4.76    0.93
   2   1  15    4.58    0.47
  -3  -1 -15    2.58    0.44
  -3  -1 -15    2.86    1.01
   3   1  15    2.95    0.49
   3   1  15    2.90    0.75
  -4  -1 -15    1.59    0.35
  -4  -1 -15    2.02    0.57
   4   1  15    1.27    0.24
   4   1  15    1.17    0.47
  -5  -1 -15    0.05    0.12
  -5  -1 -15    0.18    0.25
   5   1  15    0.10    0.24
   3  -2 -15    0.62    0.16
  -3   2  15    0.25    0.10
   2  -2 -15    7.04    0.64
   2  -2 -15    6.65    0.67
  -2   2  15    6.82    0.50
  -2   2  15    6.67    0.47
   1  -2 -15    0.32    0.27
  -1   2  15   -0.43    0.15
  -1   2  15   -0.07    0.12
   0  -2 -15    6.93    0.86
   0   2  15    6.53    0.58
  -1  -2 -15    2.50    0.65
  -1  -2 -15    2.89    0.48
  -1  -2 -15    2.52    0.38
   1   2  15    3.00    0.73
   1   2  15    2.85    0.44
  -2  -2 -15   32.28    1.99
  -2  -2 -15   25.61    1.26
   2   2  15   32.46    2.01
   2   2  15   27.40    1.32
  -3  -2 -15    1.24    0.51
  -3  -2 -15    1.47    0.36
   3   2  15    1.10    0.32
  -4  -2 -15    5.08    0.73
  -4  -2 -15    3.49    0.43
   4   2  15    4.67    0.45
   4   2  15    4.81    0.86
  -5  -2 -15    0.01    0.19
  -5  -2 -15    0.24    0.17
   5   2  15    0.30    0.31
   2  -3 -15    0.93    0.24
  -2   3  15    0.83    0.17
   1  -3 -15    4.90    0.57
   1  -3 -15    4.99    0.56
   1  -3 -15    5.04    0.56
   1  -3 -15    4.72    0.56
  -1   3  15    5.19    0.45
   0  -3 -15    1.57    0.43
   0  -3 -15    1.32    0.44
   0  -3 -15    1.51    0.36
   0   3  15    1.52    0.31
  -1  -3 -15   11.44    0.98
  -1  -3 -15   12.47    1.12
   1   3  15   12.64    0.80
  -2  -3 -15    5.72    0.95
  -2  -3 -15    4.77    0.56
   2   3  15    6.49    0.57
   2   3  15    6.99    0.89
  -3  -3 -15   14.54    1.25
  -3  -3 -15   12.19    0.73
   3   3  15   13.46    1.25
   3   3  15   12.74    0.81
  -4  -3 -15    0.59    0.21
  -4  -3 -15    0.68    0.40
  -4  -3 -15    1.11    0.28
   4   3  15    0.40    0.19
   4   3  15    1.73    0.47
  -5  -3 -15    1.48    0.37
  -5  -3 -15    1.02    0.20
   5   3  15    0.75    0.17
   1  -4 -15    0.09    0.19
   1  -4 -15    0.27    0.17
   1  -4 -15    0.55    0.23
  -1   4  15   -0.05    0.09
   0  -4 -15    0.78    0.30
   0  -4 -15    0.94    0.35
   0  -4 -15    0.38    0.22
   0  -4 -15    0.40    0.27
   0   4  15    0.47    0.19
  -1  -4 -15   10.17    0.90
  -1  -4 -15    9.04    0.90
  -1  -4 -15    8.75    0.70
   1   4  15    9.28    0.65
  -2  -4 -15   32.71    1.80
   2   4  15   33.98    1.42
  -3  -4 -15    1.16    0.37
  -3  -4 -15    0.61    0.38
   3   4  15    0.59    0.24
  -4  -4 -15    0.36    0.28
  -4  -4 -15    0.54    0.26
   4   4  15    0.44    0.18
   4   4  15    0.39    0.36
  -5  -4 -15    2.63    0.49
   5   4  15    1.56    0.23
   5   4  15    3.07    0.54
   1  -5 -15    0.62    0.16
   0  -5 -15    0.27    0.20
   0  -5 -15    0.50    0.19
   0   5  15    0.50    0.14
  -1  -5 -15    0.12    0.22
  -1  -5 -15    0.11    0.14
  -1  -5 -15   -0.26    0.17
   1   5  15    0.34    0.16
  -2  -5 -15    2.39    0.49
  -2  -5 -15    2.32    0.47
  -2  -5 -15    1.95    0.37
   2   5  15    2.47    0.36
  -3  -5 -15   10.44    0.84
  -3  -5 -15    9.69    0.84
   3   5  15    9.04    0.61
  -4  -5 -15    0.05    0.16
  -4  -5 -15   -0.12    0.19
   4   5  15    0.18    0.15
  -5  -5 -15    0.02    0.17
   5   5  15    0.16    0.14
  -1  -6 -15    0.18    0.17
  -1  -6 -15    0.08    0.10
   1   6  15   -0.11    0.10
  -2  -6 -15    0.80    0.26
  -2  -6 -15    0.92    0.17
   2   6  15    0.51    0.14
  -3  -6 -15    1.01    0.29
   3   6  15    0.61    0.16
  -4  -6 -15    0.25    0.17
  -4  -6 -15   -0.07    0.17
   4   6  15   -0.02    0.09
   2   5 -16    0.31    0.17
  -2  -5  16   -0.11    0.24
   1   5 -16    0.78    0.23
  -1  -5  16    0.55    0.18
  -1  -5  16    0.63    0.21
   0   5 -16   -0.23    0.11
   0  -5  16   -0.08    0.13
   0  -5  16   -0.49    0.27
  -1   5 -16    0.90    0.25
   1  -5  16    1.29    0.25
   3   4 -16    0.00    0.13
  -3  -4  16    0.19    0.18
   2   4 -16   -0.59    0.28
   2   4 -16    0.19    0.21
  -2  -4  16    0.64    0.31
   1   4 -16    5.16    0.50
  -1  -4  16    5.51    0.61
   0   4 -16    0.26    0.20
  -1   4 -16   -0.14    0.14
   1  -4  16   -0.10    0.12
  -2   4 -16    1.07    0.21
   2  -4  16    0.78    0.24
   3   3 -16    0.56    0.26
   3   3 -16    0.44    0.15
  -3  -3  16    0.35    0.15
  -3  -3  16    0.48    0.26
  -3  -3  16    0.69    0.21
   2   3 -16    4.47    0.99
   2   3 -16    5.23    0.49
  -2  -3  16    5.88    0.70
  -2  -3  16    4.64    0.43
   1   3 -16    5.91    0.81
   1   3 -16    5.12    0.54
  -1  -3  16    4.75    0.67
   0   3 -16    0.06    0.16
   0   3 -16   -0.06    0.33
   0  -3  16    0.41    0.29
  -1   3 -16    1.21    0.32
   1  -3  16    0.44    0.33
  -2   3 -16    5.72    0.51
   2  -3  16    5.86    0.57
   2  -3  16    6.38    0.67
  -3   3 -16    0.65    0.17
   3  -3  16    0.50    0.19
   3   2 -16    4.27    0.60
  -3  -2  16    4.29    0.52
  -3  -2  16    3.64    0.33
  -3  -2  16    3.30    0.39
   2   2 -16   10.67    1.03
   2   2 -16    8.93    0.64
  -2  -2  16   10.21    0.90
  -2  -2  16    9.61    0.72
  -2  -2  16    9.31    0.60
   1   2 -16   10.34    1.09
   1   2 -16   10.77    0.80
  -1  -2  16   11.11    1.01
  -1  -2  16    9.88    0.64
   0   2 -16    3.80    0.67
   0   2 -16    3.59    0.67
   0  -2  16    3.53    0.39
  -1   2 -16    1.56    0.46
  -1   2 -16    0.03    0.20
   1  -2  16    0.13    0.29
  -2   2 -16   -0.06    0.16
   2  -2  16    0.14    0.24
  -3   2 -16    2.21    0.39
   3  -2  16    2.61    0.50
   3  -2  16    2.93    0.38
  -4   2 -16    1.23    0.24
   4  -2  16    1.60    0.36
   3   1 -16   22.30    1.31
  -3  -1  16   18.62    0.87
  -3  -1  16   22.12    1.01
   2   1 -16    0.36    0.18
   2   1 -16   -0.14    0.30
  -2  -1  16    0.43    0.32
  -2  -1  16    0.64    0.20
  -2  -1  16    0.01    0.15
   1   1 -16    0.07    0.30
   1   1 -16    0.00    0.16
  -1  -1  16    0.23    0.18
  -1  -1  16   -0.21    0.20
  -1  -1  16    0.21    0.18
   0   1 -16   10.15    1.10
   0   1 -16   10.14    0.76
   0  -1  16   10.02    0.68
   0  -1  16   10.01    1.00
  -1   1 -16   53.50    2.11
   1  -1  16   52.45    1.99
  -2   1 -16   -0.13    0.37
  -2   1 -16    0.60    0.25
   2  -1  16    1.19    0.51
  -3   1 -16    0.24    0.17
   3  -1  16    0.71    0.22
   3  -1  16    0.13    0.27
  -4   1 -16    1.05    0.24
   4  -1  16    1.16    0.34
   4  -1  16    1.50    0.27
   3   0 -16    6.02    0.63
  -3   0  16    5.79    0.43
   2   0 -16   24.41    1.53
  -2   0  16   24.49    1.44
  -2   0  16   23.53    1.14
  -2   0  16   23.93    1.10
   1   0 -16   12.42    0.77
   1   0 -16   13.37    1.23
  -1   0  16   15.51    0.87
  -1   0  16   13.89    0.89
  -1   0  16   14.29    1.16
   0   0 -16    1.69    0.36
   0   0 -16    1.45    0.51
   0   0  16    1.50    0.42
   0   0  16    1.57    0.53
  -1   0 -16    2.71    0.46
  -1   0 -16    1.90    0.64
   1   0  16    2.91    0.71
   1   0  16    2.97    0.38
  -2   0 -16   13.91    0.94
  -2   0 -16   12.26    1.70
   2   0  16   14.16    0.83
  -3   0 -16    0.06    0.25
  -3   0 -16    0.02    0.18
   3   0  16   -0.08    0.21
   3   0  16    0.17    0.18
   3   0  16   -0.22    0.28
  -4   0 -16    0.43    0.19
   4   0  16    0.61    0.20
   4   0  16    0.71    0.32
  -5   0 -16   -0.10    0.11
   5   0  16   -0.02    0.22
  -3   1  16    2.40    0.26
   2  -1 -16    2.71    0.54
  -2   1  16    2.68    0.34
  -2   1  16    2.67    0.30
   1  -1 -16    6.55    0.86
  -1   1  16    6.77    0.53
  -1   1  16    5.55    0.51
   0  -1 -16    1.28    0.50
   0  -1 -16    1.20    0.30
   0   1  16    1.07    0.29
  -1  -1 -16    0.46    0.37
  -1  -1 -16    0.40    0.23
   1   1  16    0.38    0.18
   1   1  16    0.91    0.43
  -2  -1 -16   -0.26    0.13
  -2  -1 -16    0.06    0.32
   2   1  16    0.05    0.20
  -3  -1 -16    1.30    0.33
  -3  -1 -16    0.90    0.44
   3   1  16    0.88    0.28
   3   1  16    1.20    0.50
   3   1  16    1.22    0.28
  -4  -1 -16    3.44    0.40
  -4  -1 -16    2.22    0.61
   4   1  16    2.98    0.64
  -5  -1 -16   -0.08    0.10
   5   1  16    0.00    0.18
   2  -2 -16    3.67    0.43
  -2   2  16    3.36    0.33
   1  -2 -16    0.92    0.27
   1  -2 -16    0.87    0.39
  -1   2  16    1.15    0.27
   0  -2 -16    0.12    0.28
   0  -2 -16   -0.12    0.11
   0   2  16    0.11    0.15
  -1  -2 -16    1.75    0.38
  -1  -2 -16    1.22    0.57
  -1  -2 -16    1.37    0.33
   1   2  16    0.96    0.51
   1   2  16    1.42    0.37
  -2  -2 -16    0.07    0.34
  -2  -2 -16    0.31    0.20
   2   2  16    0.30    0.33
   2   2  16    0.07    0.13
  -3  -2 -16    1.15    0.47
  -3  -2 -16    0.42    0.20
   3   2  16    1.32    0.46
  -4  -2 -16    2.32    0.36
  -4  -2 -16    1.55    0.50
   4   2  16    2.13    0.54
  -5  -2 -16   -0.18    0.11
   5   2  16   -0.07    0.22
   2  -3 -16    0.11    0.11
  -2   3  16    0.05    0.10
   1  -3 -16    0.71    0.25
   1  -3 -16    0.50    0.20
   1  -3 -16    0.46    0.19
  -1   3  16    0.67    0.17
   0  -3 -16    0.33    0.28
   0  -3 -16    0.11    0.18
   0   3  16    0.26    0.18
  -1  -3 -16    0.54    0.26
  -1  -3 -16    0.75    0.39
   1   3  16    0.50    0.19
  -2  -3 -16    0.69    0.23
  -2  -3 -16    1.44    0.53
   2   3  16    2.67    0.55
   2   3  16    1.54    0.34
  -3  -3 -16    3.37    0.70
  -3  -3 -16    3.20    0.39
   3   3  16    3.71    0.43
   3   3  16    3.60    0.71
  -4  -3 -16   -0.03    0.14
  -4  -3 -16   -0.35    0.25
  -4  -3 -16   -0.09    0.15
   4   3  16    0.12    0.15
   4   3  16    0.40    0.26
  -5  -3 -16    2.38    0.46
   5   3  16    2.46    0.48
   5   3  16    1.56    0.24
   1  -4 -16    0.41    0.28
   0  -4 -16    0.41    0.22
   0  -4 -16    0.18    0.18
   0  -4 -16    0.22    0.20
   0   4  16    0.39    0.15
  -1  -4 -16    1.61    0.42
  -1  -4 -16    1.59    0.43
  -1  -4 -16    1.19    0.29
   1   4  16    1.07    0.24
  -2  -4 -16   26.49    1.16
  -2  -4 -16   27.72    1.53
  -2  -4 -16   26.04    2.03
   2   4  16   25.19    1.16
  -3  -4 -16    8.68    0.74
  -3  -4 -16    8.51    0.86
   3   4  16    6.57    0.99
   3   4  16    8.07    0.60
  -4  -4 -16   -0.08    0.17
  -4  -4 -16    0.07    0.22
   4   4  16   -0.05    0.13
   4   4  16    0.23    0.30
   5   4  16    2.52    0.23
   0  -5 -16   -0.02    0.15
   0  -5 -16    0.04    0.12
   0   5  16   -0.03    0.09
  -1  -5 -16    2.03    0.26
  -1  -5 -16    2.41    0.46
   1   5  16    2.24    0.26
  -2  -5 -16    1.76    0.30
  -2  -5 -16    2.11    0.35
  -2  -5 -16    1.89    0.43
   2   5  16    1.48    0.25
  -3  -5 -16   12.03    0.84
   3   5  16   12.56    0.68
  -4  -5 -16    4.21    0.50
   4   5  16    3.19    0.31
  -2  -6 -16    6.65    0.55
   2   6  16    5.35    0.36
  -3  -6 -16   -0.24    0.24
   3   6  16    0.17    0.14
   1   5 -17    3.76    0.35
  -1  -5  17    4.22    0.32
   0   5 -17    4.59    0.40
   2   4 -17    1.54    0.25
   2   4 -17    1.85    0.45
  -2  -4  17    2.02    0.39
   1   4 -17    0.48    0.20
   0   4 -17    0.14    0.16
   0  -4  17    0.15    0.17
   0  -4  17   -0.03    0.22
  -1   4 -17    0.04    0.13
   1  -4  17   -0.02    0.14
   1  -4  17    0.08    0.18
  -2   4 -17    1.70    0.27
   2  -4  17    1.45    0.24
   3   3 -17    0.04    0.12
   2   3 -17    1.10    0.35
   2   3 -17    1.25    0.24
  -2  -3  17    0.93    0.35
   1   3 -17    0.22    0.31
   1   3 -17   -0.05    0.12
  -1  -3  17    0.37    0.23
   0   3 -17    0.04    0.17
   0   3 -17   -0.19    0.31
  -1   3 -17    1.71    0.31
   1  -3  17    1.87    0.51
  -2   3 -17    5.72    0.49
   2  -3  17    6.84    0.56
   3  -3  17   -0.14    0.10
   3   2 -17   -0.02    0.22
  -3  -2  17    0.36    0.15
  -3  -2  17    0.74    0.22
   2   2 -17    1.77    0.61
   2   2 -17    1.47    0.27
  -2  -2  17    2.07    0.51
  -2  -2  17    0.95    0.19
   1   2 -17    1.31    0.30
   1   2 -17    0.73    0.36
  -1  -2  17    1.48    0.43
   0   2 -17   -0.13    0.13
   0   2 -17    0.10    0.29
   0  -2  17    0.04    0.14
  -1   2 -17    2.84    0.46
   1  -2  17    2.63    0.63
  -2   2 -17    0.19    0.15
   2  -2  17    0.38    0.28
   2  -2  17    0.06    0.18
  -3   2 -17    0.35    0.18
   3  -2  17    0.17    0.14
   3  -2  17    0.39    0.22
  -3  -1  17    1.40    0.30
   2   1 -17    2.14    0.27
   2   1 -17    1.67    0.48
  -2  -1  17    1.89    0.41
  -2  -1  17    1.11    0.25
   1   1 -17    0.22    0.18
   1   1 -17   -0.44    0.26
  -1  -1  17   -0.24    0.18
  -1  -1  17   -0.22    0.12
   0   1 -17    1.24    0.43
   0   1 -17    0.80    0.26
   0  -1  17    0.78    0.22
  -1   1 -17    2.35    0.55
  -1   1 -17    1.13    0.32
   1  -1  17    0.56    0.19
   1  -1  17    2.16    0.61
  -2   1 -17    1.71    0.51
  -2   1 -17    1.08    0.28
   2  -1  17    0.91    0.42
  -3   1 -17    1.86    0.34
   3  -1  17    1.87    0.44
   3  -1  17    1.69    0.32
   4  -1  17   15.83    0.64
   4  -1  17   14.01    0.82
   3   0 -17    1.13    0.22
  -3   0  17    1.77    0.25
   1   0 -17    0.90    0.40
   1   0 -17   -0.03    0.19
  -1   0  17    0.54    0.19
  -1   0  17    0.26    0.29
   0   0 -17    0.74    0.25
   0   0 -17    0.94    0.39
   0   0  17    0.66    0.22
  -1   0 -17    8.83    1.01
  -1   0 -17    6.91    0.62
   1   0  17    8.69    0.96
   1   0  17    7.53    0.58
  -2   0 -17    0.21    0.28
   2   0  17    0.72    0.39
   2   0  17    0.09    0.14
  -3   0 -17    0.49    0.34
  -3   0 -17    0.67    0.21
   3   0  17    0.73    0.37
  -4   0 -17    4.35    0.42
   4   0  17    5.21    0.60
   2  -1 -17    4.00    0.42
   2  -1 -17    3.77    0.51
  -2   1  17    3.85    0.36
   1  -1 -17    0.03    0.25
  -1   1  17    0.51    0.36
  -1   1  17    0.07    0.13
   0  -1 -17   -0.01    0.22
   0  -1 -17    0.31    0.34
   0   1  17    0.10    0.35
   0   1  17    0.10    0.17
  -1  -1 -17    0.37    0.22
  -1  -1 -17    0.53    0.16
  -1  -1 -17    1.19    0.48
   1   1  17    0.53    0.21
   1   1  17    0.42    0.39
  -2  -1 -17    0.23    0.18
  -2  -1 -17    0.43    0.36
   2   1  17   -0.16    0.27
   2   1  17    0.45    0.18
  -3  -1 -17    8.40    0.62
  -3  -1 -17    9.01    0.96
   3   1  17    9.16    0.96
   3   1  17    6.56    0.49
  -4  -1 -17    0.56    0.24
  -4  -1 -17    0.35    0.15
   4   1  17    0.56    0.28
   2  -2 -17    1.22    0.26
  -2   2  17    0.90    0.17
   1  -2 -17    0.37    0.21
  -1   2  17    0.35    0.17
   0  -2 -17    0.12    0.15
   0  -2 -17   -0.14    0.24
   0   2  17    0.08    0.14
  -1  -2 -17    1.90    0.34
  -1  -2 -17    1.61    0.52
   1   2  17    2.37    0.61
   1   2  17    1.91    0.34
  -2  -2 -17   -0.29    0.14
  -2  -2 -17   -0.12    0.26
   2   2  17   -0.03    0.13
   2   2  17    0.34    0.33
  -3  -2 -17    1.20    0.32
  -3  -2 -17    1.36    0.49
   3   2  17    1.63    0.46
   3   2  17    2.11    0.32
  -4  -2 -17    1.35    0.36
   4   2  17    0.85    0.17
   4   2  17    0.88    0.34
   1  -3 -17   -0.18    0.10
   1  -3 -17   -0.11    0.16
  -1   3  17   -0.20    0.07
   0  -3 -17    0.74    0.30
   0   3  17    0.64    0.19
  -1  -3 -17    6.63    0.63
  -1  -3 -17    8.27    0.80
   1   3  17    7.41    0.56
  -2  -3 -17    0.23    0.30
   2   3  17    0.31    0.18
   2   3  17    0.46    0.35
  -3  -3 -17    5.71    0.72
   3   3  17    6.82    0.77
   3   3  17    5.73    0.47
  -4  -3 -17   -0.17    0.17
  -4  -3 -17    0.31    0.21
   4   3  17   -0.07    0.23
   4   3  17   -0.06    0.09
   0  -4 -17    0.77    0.21
   0  -4 -17    0.47    0.22
   0   4  17    0.61    0.14
  -1  -4 -17    5.78    0.54
  -1  -4 -17    5.50    0.44
  -1  -4 -17    5.94    0.62
   1   4  17    5.53    0.43
  -3  -4 -17    0.16    0.28
  -3  -4 -17    0.31    0.17
   3   4  17    0.04    0.13
  -4  -4 -17    0.36    0.23
   4   4  17    0.11    0.13
   4   4  17    0.94    0.33
  -1  -5 -17    4.15    0.38
   1   5  17    4.47    0.32
  -2  -5 -17   -0.05    0.15
  -2  -5 -17    0.02    0.20
   2   5  17    0.08    0.11
  -3  -5 -17   -0.01    0.15
  -3  -5 -17    0.11    0.18
   3   5  17    0.21    0.11
   1   4 -18    0.52    0.17
  -1  -4  18    0.72    0.26
   0   4 -18    2.51    0.30
   0  -4  18    3.78    0.36
   0  -4  18    3.34    0.42
   1  -4  18    2.65    0.35
   2   3 -18    0.45    0.17
   2   3 -18    0.49    0.24
  -2  -3  18    0.25    0.19
   1   3 -18    0.04    0.14
   0   3 -18    0.19    0.15
   0   3 -18   -0.24    0.33
   0  -3  18    0.18    0.26
  -1   3 -18    0.06    0.12
   1  -3  18   -0.16    0.25
   1  -3  18    0.27    0.18
  -2   3 -18    0.16    0.14
   2  -3  18    0.11    0.13
   2  -3  18    0.39    0.25
   2   2 -18    0.32    0.15
   2   2 -18    0.46    0.30
  -2  -2  18    0.84    0.26
  -2  -2  18    0.48    0.15
   1   2 -18    0.06    0.28
   1   2 -18    0.16    0.12
  -1  -2  18    0.09    0.12
   0   2 -18   -0.16    0.28
   0   2 -18    0.03    0.12
  -1   2 -18    1.07    0.25
  -1   2 -18    1.52    0.41
   1  -2  18    1.62    0.44
  -2   2 -18    1.34    0.24
   2  -2  18    1.41    0.29
   2  -2  18    1.91    0.45
  -3   2 -18    0.17    0.13
   3  -2  18    0.37    0.22
   3  -2  18    0.18    0.26
  -2  -1  18    3.40    0.31
   1   1 -18   -0.20    0.12
  -1  -1  18    0.03    0.13
   0   1 -18    0.63    0.20
   0   1 -18    0.41    0.27
   0  -1  18    0.36    0.17
  -1   1 -18    0.60    0.22
   1  -1  18    0.67    0.17
   1  -1  18    0.78    0.40
  -2   1 -18    6.73    0.77
  -2   1 -18    6.39    0.52
   2  -1  18    5.74    0.75
  -3   1 -18   -0.15    0.11
   3  -1  18   -0.09    0.10
   2   0 -18    0.28    0.15
   2   0 -18    0.13    0.21
  -2   0  18    0.14    0.11
   0   0 -18   19.52    1.39
   0   0  18   19.75    0.93
   0   0  18   19.49    1.42
  -1   0 -18   -0.10    0.26
  -1   0 -18    0.10    0.13
   1   0  18   -0.03    0.12
  -2   0 -18    0.18    0.17
   2   0  18    0.35    0.30
   2   0  18    0.28    0.14
  -3   0 -18   -0.01    0.26
  -3   0 -18    0.06    0.13
   3   0  18    0.07    0.14
   3   0  18    0.16    0.26
  -4   0 -18    3.19    0.33
   2  -1 -18    2.68    0.41
  -2   1  18    2.90    0.32
   1  -1 -18    1.09    0.34
   1  -1 -18    0.48    0.19
  -1   1  18    0.99    0.22
   0  -1 -18    3.06    0.61
   0  -1 -18    1.66    0.40
   0   1  18    2.53    0.33
   0   1  18    4.26    0.70
  -1  -1 -18    9.76    0.63
  -1  -1 -18    7.94    0.60
  -1  -1 -18    9.64    0.98
   1   1  18    9.15    0.61
   1   1  18    9.60    0.98
  -2  -1 -18    0.44    0.22
  -2  -1 -18    0.85    0.39
   2   1  18    1.22    0.22
   2   1  18    1.13    0.42
  -3  -1 -18    0.00    0.11
  -3  -1 -18    0.39    0.24
   3   1  18    0.22    0.28
   3   1  18   -0.04    0.11
  -4  -1 -18   -0.30    0.19
  -4  -1 -18    0.09    0.11
   4   1  18    0.11    0.22
   1  -2 -18    0.13    0.15
   1  -2 -18    0.32    0.15
   1  -2 -18    0.40    0.23
  -1   2  18    0.53    0.15
   0  -2 -18    0.94    0.57
  -1  -2 -18   -0.12    0.22
  -1  -2 -18   -0.01    0.11
   1   2  18   -0.03    0.11
   1   2  18   -0.41    0.31
  -2  -2 -18    2.68    0.55
   2   2  18    3.36    0.62
   2   2  18    2.94    0.37
  -3  -2 -18    1.65    0.46
  -3  -2 -18    0.85    0.22
   3   2  18    0.81    0.18
   3   2  18    1.41    0.41
  -4  -2 -18    0.23    0.13
   4   2  18    0.53    0.25
   0  -3 -18    0.50    0.20
   0  -3 -18    0.73    0.24
   0  -3 -18    0.41    0.18
   0   3  18    0.50    0.16
  -1  -3 -18    0.37    0.14
  -1  -3 -18    0.25    0.23
   1   3  18    0.19    0.13
  -2  -3 -18    0.24    0.24
   2   3  18    0.18    0.15
   2   3  18   -0.03    0.35
  -3  -3 -18    0.29    0.24
  -3  -3 -18    0.33    0.18
   3   3  18    0.11    0.13
  -4  -3 -18    0.10    0.24
   4   3  18    0.04    0.10
   4   3  18    0.32    0.24
  -1  -4 -18   -0.07    0.14
  -1  -4 -18   -0.09    0.21
  -1  -4 -18    0.01    0.12
   1   4  18    0.06    0.09
  -2  -4 -18    1.31    0.31
  -2  -4 -18    1.20    0.30
   2   4  18    0.86    0.19
  -3  -4 -18    0.47    0.19
  -3  -4 -18    0.41    0.25
   3   4  18    0.07    0.10
  -1  -3  19    0.94    0.29
   0   3 -19    3.41    0.32
   0  -3  19    3.98    0.51
  -1   3 -19    0.90    0.17
   1  -3  19    1.99    0.36
   1  -3  19    1.29    0.47
   1   2 -19    0.02    0.11
   1   2 -19    0.46    0.35
  -1  -2  19    0.19    0.24
   0   2 -19   -0.50    0.24
   0   2 -19    0.31    0.15
   0  -2  19    0.47    0.30
  -1   2 -19    3.00    0.32
   1  -2  19    3.37    0.59
   2  -2  19    1.13    0.23
   1   1 -19    0.51    0.27
  -1  -1  19    0.02    0.10
  -1  -1  19    0.26    0.23
   0   1 -19    0.20    0.15
   0   1 -19    0.41    0.17
   0   1 -19    1.32    0.39
   0  -1  19    0.31    0.13
   0  -1  19    0.95    0.37
  -1   1 -19    0.27    0.12
  -1   1 -19    0.19    0.30
   1  -1  19    0.64    0.30
  -2   1 -19    1.01    0.34
  -2   1 -19    1.06    0.23
   2  -1  19    1.79    0.46
   2  -1  19    1.75    0.30
   1   0 -19    0.08    0.09
   1   0 -19    0.51    0.26
  -1   0  19    0.02    0.09
   0   0 -19    0.32    0.21
   0   0 -19   -0.03    0.32
   0   0 -19    0.13    0.12
   0   0  19   -0.08    0.11
   0   0  19    0.34    0.25
  -1   0 -19   -0.16    0.10
  -1   0 -19   -0.25    0.26
   1   0  19    0.13    0.12
   1   0  19   -0.55    0.23
  -2   0 -19   -0.16    0.20
  -2   0 -19   -0.12    0.11
   2   0  19    0.73    0.34
  -3   0 -19    5.12    0.38
   3   0  19    4.47    0.37
   3   0  19    7.04    0.65
   1  -1 -19   -0.05    0.16
   1  -1 -19    0.16    0.14
   1  -1 -19    0.06    0.11
  -1   1  19   -0.15    0.08
   0  -1 -19    1.19    0.38
   0  -1 -19    2.09    0.25
   0   1  19    1.32    0.22
   0   1  19    1.91    0.47
  -1  -1 -19    0.43    0.27
   1   1  19    0.19    0.14
   1   1  19   -0.55    0.25
  -2  -1 -19    0.08    0.13
  -2  -1 -19    0.63    0.28
   2   1  19   -0.06    0.25
   2   1  19    0.03    0.11
  -3  -1 -19    2.63    0.38
  -3  -1 -19    3.85    0.82
   3   1  19    4.34    0.56
   0  -2 -19    0.34    0.20
   0  -2 -19    0.18    0.13
   0   2  19   -0.04    0.11
  -1  -2 -19    0.47    0.25
   1   2  19    0.25    0.13
   1   2  19    0.88    0.33
  -2  -2 -19    2.60    0.50
   2   2  19    2.54    0.28
  -3  -2 -19    0.02    0.20
   3   2  19    0.12    0.11
   3   2  19    0.46    0.40
  -1  -3 -19    0.26    0.17
  -1  -3 -19    0.14    0.16
   1   3  19    0.05    0.10
  -2  -3 -19    0.91    0.30
  -2  -3 -19    0.75    0.23
   2   3  19    0.46    0.13
  -3  -3 -19    0.70    0.18
  -3  -3 -19    0.46    0.21
   3   3  19    0.64    0.40
   0   1 -20   -0.13    0.17
   0  -1  20   -0.11    0.28
  -1   1 -20    0.16    0.10
   1  -1  20   -0.11    0.17
   0   0 -20    0.56    0.32
   0   0  20    0.55    0.25
  -2   0 -20   -0.04    0.18
  -2   0 -20    0.20    0.10
   2   0  20    0.37    0.12
  -1  -1 -20   -0.08    0.17
   1   1  20    0.15    0.12
   1   1  20    0.51    0.26
  -2  -1 -20    1.20    0.36
   2   1  20    0.30    0.26
   0   0   0    0.00    0.00
;
_publcif_info_exptl_table_max_cols 4
_publcif_info_exptl_table_use_headnotes n
loop_
_space_group_symop_operation_xyz
'x, y, z'
'-x, -y, -z'
loop_
_atom_site_label
_atom_site_fract_x
_atom_site_fract_y
_atom_site_fract_z
_atom_site_U_iso_or_equiv
_atom_site_adp_type
_atom_site_calc_flag
_atom_site_occupancy
_atom_site_type_symbol
O5 0.5858(3) 0.6245(2) 0.16615(8) 0.0706(4) Uani d 1 O
O1 0.4295(3) 0.3874(2) 0.31439(9) 0.0690(4) Uani d 1 O
O2 0.7250(3) 0.4865(2) 0.30083(8) 0.0627(4) Uani d 1 O
H2 0.669601 0.527065 0.259536 0.094 Uiso calc 1 H
O3 0.8674(3) -0.2658(2) 0.86228(9) 0.0800(5) Uani d 1 O
C22 0.1248(4) 0.6608(3) 0.04853(15) 0.0740(6) Uani d 1 C
H22A 0.168188 0.605931 -0.004878 0.111 Uiso calc 1 H
H22B 0.001196 0.774524 0.047525 0.111 Uiso calc 1 H
H22C 0.070932 0.586661 0.085025 0.111 Uiso calc 1 H
N1 0.3272(3) 0.6839(2) 0.07558(9) 0.0551(4) Uani d 1 N
C20 0.4144(4) 0.6090(3) 0.14082(11) 0.0571(5) Uani d 1 C
H20 0.341451 0.539693 0.169662 0.069 Uiso calc 1 H
C21 0.4278(4) 0.7999(3) 0.03014(13) 0.0728(6) Uani d 1 C
H21A 0.499603 0.746324 -0.022471 0.109 Uiso calc 1 H
H21B 0.544322 0.817775 0.05852 0.109 Uiso calc 1 H
H21C 0.305834 0.912282 0.024388 0.109 Uiso calc 1 H
O4 1.1466(3) -0.0850(2) 0.85964(9) 0.0778(5) Uani d 1 O
H4 1.089036 -0.158141 0.876237 0.117 Uiso calc 1 H
C11 1.0576(4) -0.0148(3) 0.79152(11) 0.0550(5) Uani d 1 C
C10 0.8928(3) -0.0673(2) 0.75914(10) 0.0507(4) Uani d 1 C
C9 0.8125(3) 0.0043(2) 0.68716(10) 0.0484(4) Uani d 1 C
H9 0.70557 -0.033392 0.665432 0.058 Uiso calc 1 H
C8 0.8864(3) 0.1295(2) 0.64705(10) 0.0441(4) Uani d 1 C
C4 0.8119(3) 0.1980(2) 0.56804(9) 0.0425(4) Uani d 1 C
C5 0.6175(3) 0.1810(3) 0.53937(11) 0.0524(4) Uani d 1 C
H5 0.529097 0.125794 0.570769 0.063 Uiso calc 1 H
C7 0.5534(3) 0.2445(3) 0.46531(11) 0.0524(4) Uani d 1 C
H7 0.424075 0.229948 0.447455 0.063 Uiso calc 1 H
C1 0.6787(3) 0.3295(2) 0.41724(10) 0.0436(4) Uani d 1 C
C3AA 0.5974(3) 0.4022(2) 0.33956(10) 0.0486(4) Uani d 1 C
C12 1.1290(4) 0.1141(3) 0.75379(12) 0.0613(5) Uani d 1 C
H12 1.2348 0.152849 0.775663 0.074 Uiso calc 1 H
C13 1.0430(3) 0.1848(3) 0.68398(11) 0.0546(5) Uani d 1 C
H13 1.090408 0.272969 0.66012 0.065 Uiso calc 1 H
C14 0.8075(4) -0.1969(3) 0.79897(12) 0.0669(6) Uani d 1 C
H14 0.700321 -0.229934 0.774831 0.08 Uiso calc 1 H
C3 0.9384(3) 0.2805(3) 0.51795(10) 0.0512(4) Uani d 1 C
H3 1.07026 0.292639 0.534894 0.061 Uiso calc 1 H
C2 0.8747(3) 0.3448(2) 0.44396(10) 0.0507(4) Uani d 1 C
H2A 0.9639 0.398569 0.412006 0.061 Uiso calc 1 H
loop_
_atom_site_aniso_label
_atom_site_aniso_U_11
_atom_site_aniso_U_22
_atom_site_aniso_U_33
_atom_site_aniso_U_12
_atom_site_aniso_U_13
_atom_site_aniso_U_23
O5 0.0748(9) 0.0933(11) 0.0589(8) -0.0425(8) -0.0300(7) 0.0308(7)
O1 0.0742(9) 0.0906(11) 0.0616(8) -0.0455(8) -0.0326(7) 0.0194(7)
O2 0.0706(9) 0.0803(9) 0.0518(7) -0.0396(8) -0.0251(6) 0.0254(7)
O3 0.1159(14) 0.0807(11) 0.0572(9) -0.0494(10) -0.0217(8) 0.0300(8)
C22 0.0778(15) 0.0847(16) 0.0760(14) -0.0418(13) -0.0332(12) 0.0184(12)
N1 0.0613(9) 0.0623(10) 0.0493(8) -0.0282(8) -0.0185(7) 0.0176(7)
C20 0.0655(12) 0.0629(12) 0.0485(10) -0.0275(10) -0.0157(8) 0.0165(8)
C21 0.0790(14) 0.0893(16) 0.0635(12) -0.0434(13) -0.0217(10) 0.0338(11)
O4 0.0948(12) 0.0944(12) 0.0610(9) -0.0454(9) -0.0395(8) 0.0344(8)
C11 0.0598(11) 0.0615(11) 0.0458(9) -0.0213(9) -0.0164(8) 0.0113(8)
C10 0.0615(11) 0.0499(10) 0.0430(9) -0.0224(8) -0.0089(7) 0.0077(7)
C9 0.0546(10) 0.0534(10) 0.0440(9) -0.0261(8) -0.0114(7) 0.0058(7)
C8 0.0447(9) 0.0457(9) 0.0421(8) -0.0159(7) -0.0077(7) 0.0051(7)
C4 0.0415(8) 0.0444(9) 0.0417(8) -0.0152(7) -0.0067(6) 0.0041(7)
C5 0.0501(10) 0.0643(11) 0.0520(10) -0.0301(9) -0.0122(7) 0.0156(8)
C7 0.0481(9) 0.0648(11) 0.0530(10) -0.0287(9) -0.0146(7) 0.0113(8)
C1 0.0446(9) 0.0452(9) 0.0419(8) -0.0159(7) -0.0096(6) 0.0033(7)
C3AA 0.0533(10) 0.0502(10) 0.0452(9) -0.0203(8) -0.0129(7) 0.0038(7)
C12 0.0669(12) 0.0775(14) 0.0553(10) -0.0404(11) -0.0233(9) 0.0141(9)
C13 0.0606(11) 0.0630(11) 0.0516(10) -0.0335(9) -0.0164(8) 0.0137(8)
C14 0.0932(16) 0.0679(13) 0.0534(11) -0.0435(12) -0.0179(10) 0.0154(9)
C3 0.0493(9) 0.0663(11) 0.0486(9) -0.0307(9) -0.0157(7) 0.0137(8)
C2 0.0531(10) 0.0605(11) 0.0477(9) -0.0300(9) -0.0126(7) 0.0131(8)
loop_
_atom_type_symbol
_atom_type_description
_atom_type_scat_dispersion_real
_atom_type_scat_dispersion_imag
_atom_type_scat_source
C C 0.0181 0.0091 'International Tables Vol C Tables 4.2.6.8 and 6.1.1.4'
H H 0 0 'International Tables Vol C Tables 4.2.6.8 and 6.1.1.4'
N N 0.0311 0.018 'International Tables Vol C Tables 4.2.6.8 and 6.1.1.4'
O O 0.0492 0.0322 'International Tables Vol C Tables 4.2.6.8 and 6.1.1.4'
loop_
_geom_angle_atom_site_label_1
_geom_angle_atom_site_label_2
_geom_angle_atom_site_label_3
_geom_angle
C3AA O2 H2 109.5
N1 C22 H22A 109.5
N1 C22 H22B 109.5
H22A C22 H22B 109.5
N1 C22 H22C 109.5
H22A C22 H22C 109.5
H22B C22 H22C 109.5
C20 N1 C22 122.04(17)
C20 N1 C21 120.14(17)
C22 N1 C21 117.77(17)
O5 C20 N1 124.44(18)
O5 C20 H20 117.8
N1 C20 H20 117.8
N1 C21 H21A 109.5
N1 C21 H21B 109.5
H21A C21 H21B 109.5
N1 C21 H21C 109.5
H21A C21 H21C 109.5
H21B C21 H21C 109.5
C11 O4 H4 109.5
O4 C11 C12 119.14(18)
O4 C11 C10 121.59(17)
C12 C11 C10 119.26(17)
C9 C10 C11 119.45(16)
C9 C10 C14 119.92(17)
C11 C10 C14 120.63(17)
C8 C9 C10 122.31(16)
C8 C9 H9 118.8
C10 C9 H9 118.8
C9 C8 C13 116.19(15)
C9 C8 C4 122.32(15)
C13 C8 C4 121.46(15)
C3 C4 C5 116.59(15)
C3 C4 C8 120.79(15)
C5 C4 C8 122.61(15)
C7 C5 C4 121.39(16)
C7 C5 H5 119.3
C4 C5 H5 119.3
C5 C7 C1 121.06(16)
C5 C7 H7 119.5
C1 C7 H7 119.5
C2 C1 C7 118.40(15)
C2 C1 C3AA 122.45(15)
C7 C1 C3AA 119.15(15)
O1 C3AA O2 122.95(16)
O1 C3AA C1 123.49(16)
O2 C3AA C1 113.55(15)
C13 C12 C11 119.82(18)
C13 C12 H12 120.1
C11 C12 H12 120.1
C12 C13 C8 122.85(17)
C12 C13 H13 118.6
C8 C13 H13 118.6
O3 C14 C10 124.3(2)
O3 C14 H14 117.9
C10 C14 H14 117.9
C2 C3 C4 122.29(16)
C2 C3 H3 118.9
C4 C3 H3 118.9
C3 C2 C1 120.25(16)
C3 C2 H2A 119.9
C1 C2 H2A 119.9
loop_
_geom_bond_atom_site_label_1
_geom_bond_atom_site_label_2
_geom_bond_distance
O5 C20 1.232(2)
O1 C3AA 1.208(2)
O2 C3AA 1.319(2)
O2 H2 0.82
O3 C14 1.224(3)
C22 N1 1.450(3)
C22 H22A 0.96
C22 H22B 0.96
C22 H22C 0.96
N1 C20 1.319(2)
N1 C21 1.455(3)
C20 H20 0.93
C21 H21A 0.96
C21 H21B 0.96
C21 H21C 0.96
O4 C11 1.354(2)
O4 H4 0.82
C11 C12 1.385(3)
C11 C10 1.398(3)
C10 C9 1.397(2)
C10 C14 1.450(3)
C9 C8 1.384(2)
C9 H9 0.93
C8 C13 1.405(2)
C8 C4 1.486(2)
C4 C3 1.393(2)
C4 C5 1.394(2)
C5 C7 1.382(3)
C5 H5 0.93
C7 C1 1.385(2)
C7 H7 0.93
C1 C2 1.383(2)
C1 C3AA 1.487(2)
C12 C13 1.374(3)
C12 H12 0.93
C13 H13 0.93
C14 H14 0.93
C3 C2 1.382(2)
C3 H3 0.93
C2 H2A 0.93
loop_
_geom_hbond_atom_site_label_D
_geom_hbond_atom_site_label_H
_geom_hbond_atom_site_label_A
_geom_hbond_distance_DH
_geom_hbond_distance_HA
_geom_hbond_distance_DA
_geom_hbond_angle_DHA
_geom_hbond_publ_flag
O2 H2 O5 0.82 1.79 2.6019(19) 171.6 yes
loop_
_geom_torsion_atom_site_label_1
_geom_torsion_atom_site_label_2
_geom_torsion_atom_site_label_3
_geom_torsion_atom_site_label_4
_geom_torsion
C22 N1 C20 O5 179.9(2)
C21 N1 C20 O5 -2.7(3)
O4 C11 C10 C9 -177.74(18)
C12 C11 C10 C9 3.3(3)
O4 C11 C10 C14 1.4(3)
C12 C11 C10 C14 -177.6(2)
C11 C10 C9 C8 -1.4(3)
C14 C10 C9 C8 179.41(18)
C10 C9 C8 C13 -1.7(3)
C10 C9 C8 C4 176.34(16)
C9 C8 C4 C3 -160.75(17)
C13 C8 C4 C3 17.2(3)
C9 C8 C4 C5 18.1(3)
C13 C8 C4 C5 -164.02(17)
C3 C4 C5 C7 -0.6(3)
C8 C4 C5 C7 -179.41(17)
C4 C5 C7 C1 -0.8(3)
C5 C7 C1 C2 2.0(3)
C5 C7 C1 C3AA -177.51(17)
C2 C1 C3AA O1 178.54(18)
C7 C1 C3AA O1 -2.0(3)
C2 C1 C3AA O2 -2.1(2)
C7 C1 C3AA O2 177.32(16)
O4 C11 C12 C13 179.0(2)
C10 C11 C12 C13 -2.0(3)
C11 C12 C13 C8 -1.3(3)
C9 C8 C13 C12 3.1(3)
C4 C8 C13 C12 -174.95(18)
C9 C10 C14 O3 -179.6(2)
C11 C10 C14 O3 1.3(4)
C5 C4 C3 C2 0.8(3)
C8 C4 C3 C2 179.67(17)
C4 C3 C2 C1 0.3(3)
C7 C1 C2 C3 -1.7(3)
C3AA C1 C2 C3 177.74(17)
loop_
_publcif_info_datablock.id
_publcif_info_datablock.publ_exptl
_publcif_info_datablock.publ_geom
_publcif_info_datablock.structure
{094c8960-5b26-41d1-a527-b05a83d2c2d1} ? ? ?
{2c6a6e14-d8ac-41e7-aefe-edb4ac613980} y y y
loop_
_publcif_info_exptl_table_extra_item
sin_theta_over_lambda_max
loop_
_publcif_info_tables.block_id
_publcif_info_tables.reference_item
{094c8960-5b26-41d1-a527-b05a83d2c2d1} '_publcif_info_datablock.publ_exptl'
{2c6a6e14-d8ac-41e7-aefe-edb4ac613980} '_geom_hbond_atom_site_label_D'
loop_
_publcif_info_cif.paper_type
CE
