#------------------------------------------------------------------------------
#$Date: 2019-11-04 14:25:22 +0200 (Mon, 04 Nov 2019) $
#$Revision: 223005 $
#$URL: file:///home/coder/svn-repositories/cod/cif/4/03/45/4034500.cif $
#------------------------------------------------------------------------------
#
# This file is available in the Crystallography Open Database (COD),
# http://www.crystallography.net/
#
# All data on this site have been placed in the public domain by the
# contributors.
#
data_4034500
loop_
_publ_author_name
'Seo, Chris S. G.'
'Tannoux, Thibault'
'Smith, Samantha A. M.'
'Lough, Alan J.'
'Morris, Robert H.'
_publ_section_title
;
 Enantioselective Hydrogenation of Activated Aryl Imines Catalyzed by an
 Iron(II) P-NH-P' Complex.
;
_journal_issue                   18
_journal_name_full               'The Journal of organic chemistry'
_journal_page_first              12040
_journal_page_last               12049
_journal_paper_doi               10.1021/acs.joc.9b01964
_journal_volume                  84
_journal_year                    2019
_chemical_absolute_configuration ad
_chemical_formula_moiety         'C15 H17 N O2 S'
_chemical_formula_sum            'C15 H17 N O2 S'
_chemical_formula_weight         275.35
_space_group_crystal_system      monoclinic
_space_group_IT_number           4
_space_group_name_Hall           'P 2yb'
_space_group_name_H-M_alt        'P 1 21 1'
_atom_sites_solution_hydrogens   mixed
_audit_creation_method           SHELXL-2016/6
_cell_angle_alpha                90
_cell_angle_beta                 105.061(2)
_cell_angle_gamma                90
_cell_formula_units_Z            2
_cell_length_a                   8.0431(5)
_cell_length_b                   10.1175(6)
_cell_length_c                   8.8692(6)
_cell_measurement_reflns_used    6304
_cell_measurement_temperature    150(2)
_cell_measurement_theta_max      26.99
_cell_measurement_theta_min      2.38
_cell_volume                     696.95(8)
_computing_cell_refinement       APEX2
_computing_data_collection       'APEX2 (Bruker, 2014)'
_computing_data_reduction        'SAINT (Bruker, 2014)'
_computing_molecular_graphics    'PLATON (Spek, 2009)'
_computing_publication_material  'SHELXTL (Sheldrick, 2008)'
_computing_structure_refinement  'SHELXL-2016/6 (Sheldrick, 2016)'
_computing_structure_solution    'SHELXT (Sheldrick, 2015)'
_diffrn_ambient_temperature      150(2)
_diffrn_measured_fraction_theta_full 1.000
_diffrn_measured_fraction_theta_max 0.999
_diffrn_measurement_device_type  'Bruker Kappa APEX-DUO CCD'
_diffrn_measurement_method       '\f and \w scans'
_diffrn_radiation_type           MoK\a
_diffrn_radiation_wavelength     0.71073
_diffrn_reflns_av_R_equivalents  0.0316
_diffrn_reflns_av_unetI/netI     0.0309
_diffrn_reflns_Laue_measured_fraction_full 1.000
_diffrn_reflns_Laue_measured_fraction_max 0.999
_diffrn_reflns_limit_h_max       10
_diffrn_reflns_limit_h_min       -10
_diffrn_reflns_limit_k_max       13
_diffrn_reflns_limit_k_min       -13
_diffrn_reflns_limit_l_max       11
_diffrn_reflns_limit_l_min       -11
_diffrn_reflns_number            15372
_diffrn_reflns_point_group_measured_fraction_full 1.000
_diffrn_reflns_point_group_measured_fraction_max 0.996
_diffrn_reflns_theta_full        25.242
_diffrn_reflns_theta_max         27.531
_diffrn_reflns_theta_min         2.378
_diffrn_source
'sealed tube with Bruker Triumph monochromator'
_exptl_absorpt_coefficient_mu    0.229
_exptl_absorpt_correction_T_max  0.7456
_exptl_absorpt_correction_T_min  0.7090
_exptl_absorpt_correction_type   multi-scan
_exptl_absorpt_process_details   'SADABS (Bruker, 2014)'
_exptl_crystal_colour            colourless
_exptl_crystal_density_diffrn    1.312
_exptl_crystal_description       Shard
_exptl_crystal_F_000             292
_exptl_crystal_size_max          0.260
_exptl_crystal_size_mid          0.160
_exptl_crystal_size_min          0.150
_refine_diff_density_max         0.256
_refine_diff_density_min         -0.269
_refine_diff_density_rms         0.040
_refine_ls_abs_structure_details
; 
 Flack x determined using 1279 quotients [(I+)-(I-)]/[(I+)+(I-)] 
 (Parsons, Flack and Wagner, Acta Cryst. B69 (2013) 249-259). 
;
_refine_ls_abs_structure_Flack   0.02(2)
_refine_ls_extinction_method     none
_refine_ls_goodness_of_fit_ref   1.056
_refine_ls_hydrogen_treatment    mixed
_refine_ls_matrix_type           full
_refine_ls_number_parameters     178
_refine_ls_number_reflns         3221
_refine_ls_number_restraints     1
_refine_ls_restrained_S_all      1.055
_refine_ls_R_factor_all          0.0359
_refine_ls_R_factor_gt           0.0303
_refine_ls_shift/su_max          0.001
_refine_ls_shift/su_mean         0.000
_refine_ls_structure_factor_coef Fsqd
_refine_ls_weighting_details
'w=1/[\s^2^(Fo^2^)+(0.0365P)^2^+0.0674P] where P=(Fo^2^+2Fc^2^)/3'
_refine_ls_weighting_scheme      calc
_refine_ls_wR_factor_gt          0.0656
_refine_ls_wR_factor_ref         0.0683
_reflns_Friedel_coverage         0.886
_reflns_Friedel_fraction_full    1.000
_reflns_Friedel_fraction_max     0.993
_reflns_number_gt                2966
_reflns_number_total             3221
_reflns_threshold_expression     'I > 2\s(I)'
_cod_data_source_file            jo9b01964_si_002.cif
_cod_data_source_block           4a_d18148_a
_cod_original_sg_symbol_H-M      'P 21'
_cod_database_code               4034500
_shelx_shelxl_version_number     2016/6
_shelx_space_group_comment
; 
The symmetry employed for this shelxl refinement is uniquely defined 
by the following loop, which should always be used as a source of 
symmetry information in preference to the above space-group names. 
They are only intended as comments. 
;
_shelx_estimated_absorpt_t_min   0.943
_shelx_estimated_absorpt_t_max   0.966
_shelx_res_file
; 
TITL d18148_a.res in P2(1) 
    d18148_a.res 
    created by SHELXL-2016/6 at 15:24:15 on 11-Sep-2018 
REM Old TITL d18148 in P2(1) 
  
REM SHELXT solution in P2(1) 
REM R1 0.074,  Rweak 0.034,  Alpha 0.000,  Orientation as input 
REM Flack x =  0.041 ( 0.022 ) from Parsons' quotients 
REM Formula found by SHELXT:  C15 N O2 S 
  
CELL  0.71073   8.0431  10.1175   8.8692   90.000  105.061   90.000 
ZERR    2.000   0.0005   0.0006   0.0006    0.000    0.002    0.000 
LATT -1 
SYMM -X, 1/2+Y, -Z 
SFAC C H N O S 
UNIT 30 34 2 4 2 
TEMP -123.180 
SIZE 0.15 0.16 0.26 
ACTA 
L.S. 5 
BOND $H 
CONF 
HTAB 
FMAP 2 
PLAN 20 
WGHT    0.036500    0.067400 
FVAR       0.91975 
S1    5    0.437653    0.503821    1.010463    11.00000    0.02484    0.01717 = 
         0.01449    0.00077    0.00495    0.00245 
O1    4    0.515011    0.629977    1.062200    11.00000    0.03617    0.01858 = 
         0.02036   -0.00346   -0.00075    0.00342 
O2    4    0.335463    0.439053    1.098613    11.00000    0.03334    0.03583 = 
         0.02271    0.00511    0.01321    0.00280 
N1    3    0.594012    0.404490    1.007253    11.00000    0.02414    0.01353 = 
         0.02003    0.00186    0.00421   -0.00057 
H1N   2    0.558628    0.331660    0.979794    11.00000    0.02725 
C1    1    0.746997    0.446703    0.956726    11.00000    0.02099    0.02196 = 
         0.01727    0.00017    0.00311   -0.00269 
AFIX  13 
H1A   2    0.801236    0.521754    1.025424    11.00000   -1.20000 
AFIX   0 
C2    1    0.708422    0.494743    0.788319    11.00000    0.01790    0.02107 = 
         0.01976    0.00237    0.00571    0.00300 
C3    1    0.624403    0.413974    0.664223    11.00000    0.02803    0.02242 = 
         0.02401   -0.00145    0.00708    0.00189 
AFIX  43 
H3A   2    0.591411    0.326817    0.683892    11.00000   -1.20000 
AFIX   0 
C4    1    0.589007    0.460962    0.511996    11.00000    0.03400    0.03617 = 
         0.02009   -0.00470    0.00400    0.01029 
AFIX  43 
H4A   2    0.530638    0.406000    0.428032    11.00000   -1.20000 
AFIX   0 
C5    1    0.638014    0.586921    0.481823    11.00000    0.03566    0.04733 = 
         0.02429    0.01299    0.01246    0.01417 
AFIX  43 
H5A   2    0.614379    0.618413    0.377491    11.00000   -1.20000 
AFIX   0 
C6    1    0.721367    0.666573    0.603968    11.00000    0.03661    0.03285 = 
         0.03964    0.01484    0.01700   -0.00003 
AFIX  43 
H6A   2    0.755476    0.753260    0.583685    11.00000   -1.20000 
AFIX   0 
C7    1    0.755953    0.620888    0.756926    11.00000    0.02485    0.02689 = 
         0.02999    0.00209    0.00678   -0.00616 
AFIX  43 
H7A   2    0.812712    0.676894    0.840449    11.00000   -1.20000 
AFIX   0 
C8    1    0.873652    0.332103    0.988639    11.00000    0.02511    0.03923 = 
         0.02729    0.00855    0.00564    0.00839 
AFIX 137 
H8A   2    0.892854    0.303711    1.097459    11.00000   -1.50000 
H8B   2    0.983120    0.360438    0.969996    11.00000   -1.50000 
H8C   2    0.826607    0.258306    0.919031    11.00000   -1.50000 
AFIX   0 
C9    1    0.307620    0.522554    0.817752    11.00000    0.01927    0.01958 = 
         0.01543   -0.00141    0.00444    0.00234 
C10   1    0.322333    0.632979    0.729234    11.00000    0.02141    0.01591 = 
         0.02139   -0.00175    0.00366    0.00068 
AFIX  43 
H10A  2    0.397045    0.703490    0.773721    11.00000   -1.20000 
AFIX   0 
C11   1    0.226410    0.638887    0.574939    11.00000    0.02554    0.02126 = 
         0.02078    0.00408    0.00606    0.00410 
AFIX  43 
H11A  2    0.235959    0.714325    0.513963    11.00000   -1.20000 
AFIX   0 
C12   1    0.116774    0.536858    0.507814    11.00000    0.01829    0.03067 = 
         0.01991   -0.00334    0.00309    0.00665 
C13   1    0.101995    0.427761    0.599429    11.00000    0.02117    0.02874 = 
         0.02754   -0.00783    0.00529   -0.00776 
AFIX  43 
H13A  2    0.024843    0.358395    0.555813    11.00000   -1.20000 
AFIX   0 
C14   1    0.198411    0.419112    0.753410    11.00000    0.02509    0.02109 = 
         0.02372    0.00019    0.00856   -0.00245 
AFIX  43 
H14A  2    0.189904    0.343337    0.814221    11.00000   -1.20000 
AFIX   0 
C15   1    0.019796    0.541784    0.337798    11.00000    0.03200    0.04438 = 
         0.02327   -0.00365   -0.00145    0.00283 
AFIX 137 
H15A  2   -0.079394    0.482074    0.319401    11.00000   -1.50000 
H15B  2    0.096023    0.514269    0.273493    11.00000   -1.50000 
H15C  2   -0.020275    0.632211    0.309996    11.00000   -1.50000 
  
AFIX   0 
HKLF 4 
  
  
  
  
REM  d18148_a.res in P2(1) 
REM R1 =  0.0303 for    2966 Fo > 4sig(Fo)  and  0.0359 for all    3221 data 
REM    178 parameters refined using      1 restraints 
  
END 
  
WGHT      0.0360      0.0716 
  
REM Instructions for potential hydrogen bonds 
EQIV $1 -x+1, y-1/2, -z+2 
HTAB N1 O1_$1 
  
REM Highest difference peak  0.256,  deepest hole -0.269,  1-sigma level  0.040 
Q1    1   0.3642  0.5141  0.9147  11.00000  0.05    0.26 
Q2    1   0.7351  0.4600  0.8668  11.00000  0.05    0.19 
Q3    1   0.3373  0.5594  0.7696  11.00000  0.05    0.17 
Q4    1   0.6550  0.4182  0.5773  11.00000  0.05    0.17 
Q5    1   0.7331  0.7222  0.8644  11.00000  0.05    0.16 
Q6    1   0.3120  0.4566  0.7665  11.00000  0.05    0.16 
Q7    1   0.5529  0.5629  0.3048  11.00000  0.05    0.15 
Q8    1   0.7107  0.5947  0.5599  11.00000  0.05    0.14 
Q9    1   0.1749  0.4184  0.6749  11.00000  0.05    0.14 
Q10   1   0.2437  0.6382  0.6587  11.00000  0.05    0.13 
Q11   1   0.7621  0.6406  0.6765  11.00000  0.05    0.13 
Q12   1   0.6848  0.7438  0.9335  11.00000  0.05    0.13 
Q13   1   0.5907  0.3989  1.1180  11.00000  0.05    0.13 
Q14   1   0.7212  0.6432  0.6734  11.00000  0.05    0.12 
Q15   1   0.6348  0.6011  1.1349  11.00000  0.05    0.12 
Q16   1   1.0154  0.6070  1.0595  11.00000  0.05    0.12 
Q17   1   0.6839  0.5765  0.7685  11.00000  0.05    0.12 
Q18   1   0.5807  0.4538  0.5922  11.00000  0.05    0.12 
Q19   1   0.2438  0.3005  0.8387  11.00000  0.05    0.12 
Q20   1   0.5391  0.6402  0.7762  11.00000  0.05    0.12 
;
_shelx_res_checksum              62596
_shelx_hkl_file
; 
   1   0   0 2371.36   55.39 
   1   0   0 2309.77   55.39 
   1   0   0 2359.56   55.29 
   1   0   0 2372.46   55.29 
  -1   0   0 2432.16   55.39 
  -1   0   0 2428.86   55.39 
  -1   0   0 2351.96   55.39 
  -1   0   0 2360.26   55.39 
  -2   0   0  245.78    7.60 
   2   0   0  240.68    7.40 
   2   0   0  236.58    7.40 
   2   0   0  237.68    7.30 
   2   0   0  236.08    7.30 
  -2   0   0  228.48    7.40 
  -2   0   0  240.98    7.20 
  -2   0   0  242.48    7.30 
  -2   0   0  240.78    7.40 
   3   0   0   87.39    4.30 
  -3   0   0   84.39    4.40 
  -3   0   0   88.29    4.80 
  -3   0   0   97.99    4.50 
  -3   0   0   84.89    4.60 
  -3   0   0   80.89    4.70 
   3   0   0   92.49    5.00 
   3   0   0   94.89    4.70 
   3   0   0   86.39    4.80 
   3   0   0   85.49    4.60 
  -4   0   0    6.10    2.40 
  -4   0   0    7.20    2.30 
  -4   0   0    2.20    2.70 
   4   0   0    8.10    3.00 
   4   0   0   -0.20    2.50 
   4   0   0    4.90    2.10 
   4   0   0    7.20    2.60 
   4   0   0    5.90    2.60 
  -5   0   0    4.10    3.00 
   5   0   0    4.70    2.50 
  -5   0   0   -0.70    2.10 
   5   0   0   -0.10    2.80 
  -5   0   0   -4.10    2.70 
   5   0   0    1.90    2.70 
   6   0   0   92.49    7.10 
   6   0   0   95.19    6.30 
  -6   0   0   93.39    6.80 
  -6   0   0  102.29    7.00 
   6   0   0  101.59    6.80 
   6   0   0  113.09    6.90 
  -6   0   0   97.99    7.10 
   7   0   0  100.99    7.90 
   7   0   0   71.29    6.70 
  -7   0   0   90.39    7.40 
  -7   0   0   93.59    7.60 
   7   0   0   83.79    7.20 
  -7   0   0   87.39    7.60 
   7   0   0   81.09    6.90 
   8   0   0    7.10    4.70 
  -8   0   0   -0.60    4.40 
   8   0   0    2.90    3.50 
  -8   0   0   -0.80    4.40 
  -8   0   0   -5.20    3.80 
   8   0   0    0.20    4.40 
  -9   0   0   94.99    9.20 
  -9   0   0  111.09    9.80 
   9   0   0  108.69    8.50 
   9   0   0   87.99    9.20 
  -9   0   0  106.69    9.40 
   9   0   0  109.09    8.80 
 -10   0   0   -6.10    4.50 
  10   0   0    7.10    5.50 
 -10   0   0    3.50    5.70 
 -10   0   0   -2.80    5.30 
   0  -1   0   -6.80    0.90 
   0  -1   0   -7.30    0.50 
   0  -1   0   -7.40    0.50 
   0  -1   0   -7.60    0.80 
   0   1   0   -7.10    1.00 
   0   1   0   -8.10    1.10 
   0   1   0   -7.20    0.90 
  -1  -1   0   30.00    1.80 
  -1  -1   0   30.60    1.90 
  -1  -1   0   30.50    1.70 
   1  -1   0   32.90    2.50 
   1  -1   0   32.00    2.40 
  -1  -1   0   30.70    1.60 
  -1  -1   0   33.50    1.80 
  -1  -1   0   30.80    1.80 
   1  -1   0   32.50    2.20 
   1  -1   0   27.20    2.10 
   1  -1   0   32.00    2.10 
   1  -1   0   23.90    1.90 
  -1   1   0   31.70    2.40 
   1   1   0   29.70    1.80 
   1   1   0   32.20    1.80 
   1   1   0   33.00    1.60 
  -1   1   0   33.90    2.50 
   1   1   0   33.20    2.60 
   1   1   0   33.10    1.60 
  -1   1   0   37.40    2.40 
  -1   1   0   34.90    2.60 
  -1   1   0   34.40    2.40 
   1   1   0   35.90    2.00 
   2  -1   0  342.57    9.90 
   2  -1   0  367.56   10.10 
  -2  -1   0  353.16    8.80 
  -2  -1   0  360.16    9.80 
  -2  -1   0  369.16    9.90 
   2  -1   0  364.26   10.20 
   2  -1   0  363.26   10.30 
  -2  -1   0  366.36    9.90 
   2  -1   0  354.76    9.40 
   2  -1   0  343.47   10.10 
  -2  -1   0  359.26    9.90 
  -2  -1   0  353.46    9.70 
  -2   1   0  371.66   10.30 
   2   1   0  365.26   10.20 
   2   1   0  372.26    9.70 
  -2   1   0  347.07   10.30 
   2   1   0  353.46    9.80 
   2   1   0  348.87    9.60 
  -2   1   0  352.36   10.20 
  -2   1   0  351.86   10.40 
   2   1   0  363.96    9.90 
  -2   1   0  363.56   10.20 
   2   1   0  363.86    9.70 
  -3  -1   0  362.46   10.80 
  -3  -1   0  339.87   10.60 
   3  -1   0  369.96   11.20 
   3  -1   0  367.26   10.90 
  -3  -1   0  367.06   10.50 
   3  -1   0  359.76   11.00 
   3  -1   0  355.36   11.00 
  -3  -1   0  346.47   10.60 
  -3  -1   0  364.66   10.60 
   3  -1   0  365.96    9.50 
  -3   1   0  347.37   10.90 
  -3   1   0  371.36   11.10 
   3   1   0  351.46   10.40 
   3   1   0  347.57   10.40 
   3   1   0  362.36   10.30 
  -3   1   0  365.96   11.00 
   3   1   0  367.86   10.60 
   3   1   0  374.86   11.20 
  -3   1   0  372.06   10.80 
   4  -1   0   17.30    2.80 
   4  -1   0   13.90    1.60 
  -4  -1   0   14.70    3.00 
   4  -1   0   17.40    3.30 
  -4  -1   0   13.20    2.90 
   4  -1   0   13.30    3.20 
   4  -1   0   16.80    3.20 
  -4  -1   0   17.50    2.80 
  -4  -1   0   16.30    3.10 
   4   1   0   12.10    2.70 
  -4   1   0   14.40    3.30 
   4   1   0   16.30    2.70 
  -4   1   0   23.20    3.50 
   4   1   0   25.60    3.10 
   4   1   0   19.40    2.90 
  -4   1   0   18.10    3.50 
   4   1   0   22.00    3.20 
   5  -1   0    7.10    1.20 
   5  -1   0   10.40    3.30 
   5  -1   0    8.60    3.20 
   5  -1   0    8.10    3.20 
   5  -1   0    8.50    3.40 
  -5  -1   0    5.90    2.90 
  -5  -1   0    8.30    2.50 
  -5  -1   0    9.40    3.00 
   5   1   0    4.10    2.90 
   5   1   0    8.20    2.90 
  -5   1   0    6.90    2.60 
   5   1   0    6.60    3.40 
  -5   1   0    7.70    2.80 
   5   1   0    4.10    2.60 
  -5   1   0    7.80    3.30 
  -6  -1   0   78.69    6.30 
   6  -1   0   81.99    6.60 
   6  -1   0  100.49    6.80 
  -6  -1   0   85.99    6.30 
   6  -1   0   78.99    7.00 
   6  -1   0   89.79    6.80 
  -6  -1   0   80.59    6.50 
   6   1   0   76.29    6.40 
   6   1   0   77.39    5.90 
  -6   1   0   69.29    6.60 
   6   1   0   76.89    6.60 
  -6   1   0   75.59    5.70 
  -6   1   0   74.69    6.50 
   6   1   0   75.69    5.90 
   7  -1   0  217.88   11.20 
   7  -1   0  224.98   10.80 
  -7  -1   0  222.08   10.80 
   7  -1   0  206.18   10.40 
  -7  -1   0  225.48   10.60 
   7  -1   0  193.18   10.40 
  -7  -1   0  214.28   10.40 
  -7   1   0  228.48   11.00 
   7   1   0  218.78   11.00 
  -7   1   0  239.88   11.10 
   7   1   0  227.88   10.80 
   7   1   0  229.08   10.30 
  -7   1   0  240.08   11.50 
  -8  -1   0   75.49    7.60 
  -8  -1   0   84.39    8.10 
   8  -1   0   75.19    7.50 
   8  -1   0   87.69    8.50 
   8  -1   0   82.79    7.80 
  -8  -1   0   82.09    7.80 
  -8   1   0   77.49    7.90 
  -8   1   0   78.69    8.10 
   8   1   0   93.99    8.30 
  -8   1   0   79.89    7.50 
   8   1   0   85.39    7.50 
   8   1   0   99.49    8.70 
   9  -1   0   47.00    6.90 
   9  -1   0   50.99    7.80 
  -9  -1   0   42.00    7.10 
   9  -1   0   39.80    6.60 
  -9  -1   0   45.00    6.60 
  -9  -1   0   39.50    6.70 
   9   1   0   47.60    7.30 
  -9   1   0   60.19    7.80 
  -9   1   0   48.10    7.20 
   9   1   0   52.49    6.90 
  -9   1   0   37.70    6.40 
 -10  -1   0  116.69   10.60 
  10  -1   0  139.69   10.60 
  10  -1   0  121.69   11.30 
 -10  -1   0  114.19   10.50 
 -10  -1   0  101.69   11.50 
  10  -1   0  125.49   10.80 
  10   1   0  144.19   11.50 
 -10   1   0  125.89   11.10 
 -10   1   0  112.29   10.60 
   0  -2   0 7571.64  176.18 
   0  -2   0 7434.46  175.38 
   0  -2   0 7778.72  176.78 
   0  -2   0 7615.24  176.38 
   0  -2   0 7763.02  178.48 
   0  -2   0 7476.45  175.38 
   0  -2   0 7778.02  176.88 
   0  -2   0 7446.25  177.78 
   0   2   0 7340.17  178.38 
   0   2   0 7408.96  179.28 
  -1  -2   0  840.92   19.80 
  -1  -2   0  825.72   20.80 
   1  -2   0  830.52   20.60 
   1  -2   0  826.82   20.50 
  -1  -2   0  860.01   21.00 
  -1  -2   0  851.51   19.80 
   1  -2   0  847.92   21.10 
  -1  -2   0  845.22   20.70 
   1  -2   0  833.12   20.60 
   1  -2   0  795.22   20.60 
   1  -2   0  826.82   20.50 
   1   2   0  847.02   19.80 
   1   2   0  840.52   20.80 
   1   2   0  832.02   20.90 
  -1   2   0  851.11   20.60 
  -1   2   0  840.32   20.60 
  -1   2   0  872.31   20.50 
  -1   2   0  850.21   20.50 
  -1   2   0  821.92   20.60 
   1   2   0  843.22   21.00 
  -2  -2   0  149.88    4.80 
   2  -2   0  153.38    5.90 
   2  -2   0  138.29    5.60 
   2  -2   0  149.19    5.30 
   2  -2   0  143.79    5.30 
   2  -2   0  151.28    5.70 
  -2  -2   0  154.38    4.90 
  -2  -2   0  151.58    4.80 
  -2  -2   0  148.89    5.00 
  -2  -2   0  149.19    4.80 
  -2  -2   0  147.39    5.70 
   2  -2   0  144.19    5.80 
  -2   2   0  149.59    5.50 
   2   2   0  141.39    4.30 
  -2   2   0  138.69    5.60 
   2   2   0  137.19    4.60 
  -2   2   0  143.19    5.40 
   2   2   0  138.79    4.80 
   2   2   0  145.59    5.90 
  -2   2   0  146.39    5.50 
  -2   2   0  143.19    5.60 
   3  -2   0  191.58    7.40 
   3  -2   0  179.98    7.20 
   3  -2   0  170.78    6.80 
  -3  -2   0  197.78    6.70 
  -3  -2   0  180.48    6.20 
   3  -2   0  200.88    7.60 
  -3  -2   0  179.98    5.40 
   3  -2   0  186.88    6.30 
  -3  -2   0  180.68    6.40 
  -3  -2   0  194.08    6.40 
   3   2   0  190.38    6.30 
  -3   2   0  194.68    7.30 
  -3   2   0  193.08    7.30 
   3   2   0  189.88    6.40 
   3   2   0  191.88    6.30 
   3   2   0  177.08    7.40 
  -3   2   0  191.88    7.50 
   3   2   0  184.88    6.00 
  -3   2   0  203.28    7.10 
  -3   2   0  186.18    6.80 
   3   2   0  190.88    6.00 
  -4  -2   0  703.43   19.00 
  -4  -2   0  705.53   18.80 
   4  -2   0  725.03   19.50 
  -4  -2   0  655.33   18.70 
   4  -2   0  708.13   17.90 
   4  -2   0  714.03   19.60 
   4  -2   0  688.33   19.50 
  -4  -2   0  682.23   18.60 
   4   2   0  688.33   18.20 
   4   2   0  687.83   18.30 
   4   2   0  695.63   18.60 
  -4   2   0  659.93   19.50 
  -4   2   0  698.43   19.50 
   4   2   0  680.93   19.70 
  -4   2   0  709.73   19.90 
   5  -2   0  103.99    4.40 
   5  -2   0   98.89    6.60 
  -5  -2   0  101.39    6.00 
   5  -2   0   99.79    6.40 
   5  -2   0  107.89    6.00 
  -5  -2   0  103.49    5.90 
  -5  -2   0  103.29    5.90 
  -5   2   0  103.99    6.90 
   5   2   0  111.39    5.60 
  -5   2   0   86.49    6.40 
   5   2   0  102.69    6.80 
   5   2   0  106.79    5.10 
  -5   2   0  100.69    5.90 
   5   2   0  109.79    5.70 
   6  -2   0   93.59    6.70 
   6  -2   0  103.79    4.20 
  -6  -2   0   97.19    6.70 
  -6  -2   0  107.09    6.70 
   6  -2   0  113.19    7.60 
  -6  -2   0   99.09    6.60 
   6  -2   0  100.89    7.40 
   6   2   0   90.69    6.30 
   6   2   0   99.69    6.20 
  -6   2   0  102.39    7.70 
   6   2   0   92.29    7.40 
  -6   2   0   98.89    6.40 
  -6   2   0   79.39    6.80 
   6   2   0   88.99    6.50 
   7  -2   0  116.39    8.40 
   7  -2   0  123.29    8.40 
  -7  -2   0  111.59    7.60 
  -7  -2   0  110.59    7.80 
   7  -2   0  108.29    7.80 
  -7  -2   0  108.39    7.60 
   7  -2   0   90.19    8.30 
   7   2   0  112.29    7.20 
  -7   2   0  102.29    8.60 
   7   2   0  110.09    7.70 
  -7   2   0  109.69    8.10 
  -7   2   0  116.59    8.40 
   7   2   0   92.99    8.20 
   8  -2   0   56.29    6.80 
   8  -2   0   61.19    7.20 
  -8  -2   0   61.19    6.90 
  -8  -2   0   65.39    6.80 
  -8  -2   0   70.19    7.30 
   8  -2   0   60.49    7.70 
   8   2   0   47.60    6.30 
   8   2   0   50.29    7.00 
  -8   2   0   67.49    7.30 
  -8   2   0   56.39    7.20 
  -8   2   0   66.69    7.60 
  -9  -2   0   44.10    7.00 
   9  -2   0   62.79    7.80 
   9  -2   0   50.89    8.10 
  -9  -2   0   53.59    7.30 
   9  -2   0   49.90    7.10 
  -9  -2   0   39.40    6.50 
  -9   2   0   51.09    7.60 
  -9   2   0   33.30    7.10 
   9   2   0   54.89    7.20 
   0  -3   0    5.10    0.90 
   0  -3   0   -0.90    1.10 
   0  -3   0   -0.10    1.10 
   0  -3   0    0.50    1.50 
   0  -3   0   -1.10    1.00 
   0  -3   0    1.20    1.70 
   0  -3   0    1.10    1.20 
   0  -3   0   -0.60    0.80 
   0  -3   0   -1.70    1.70 
   0   3   0   -2.20    2.10 
  -1  -3   0  314.07    9.50 
   1  -3   0  321.37    8.90 
   1  -3   0  301.37    8.90 
   1  -3   0  311.27    9.70 
  -1  -3   0  311.07    9.20 
  -1  -3   0  323.67    7.70 
   1  -3   0  315.87    8.90 
   1  -3   0  317.97    8.70 
   1  -3   0  313.87    8.90 
  -1  -3   0  313.67    9.50 
   1  -3   0  311.17    8.90 
  -1  -3   0  330.07    7.70 
   1   3   0  318.57    9.40 
  -1   3   0  301.37    8.60 
  -1   3   0  323.07    9.50 
   1   3   0  312.77    9.70 
  -1   3   0  317.57    8.50 
  -1   3   0  310.57    8.50 
  -1   3   0  331.47    9.00 
   2  -3   0  190.68    6.90 
  -2  -3   0  196.98    5.80 
  -2  -3   0  193.18    5.50 
  -2  -3   0  199.38    5.80 
   2  -3   0  192.68    6.90 
  -2  -3   0  194.98    7.10 
   2  -3   0  194.98    7.00 
   2  -3   0  194.18    6.80 
   2  -3   0  188.58    7.00 
   2  -3   0  200.58    6.80 
  -2  -3   0  192.78    6.60 
  -2  -3   0  188.78    5.50 
  -2  -3   0  194.78    7.20 
  -2   3   0  209.18    6.80 
  -2   3   0  206.48    6.70 
  -2   3   0  210.28    7.00 
  -2   3   0  208.08    7.20 
   2   3   0  214.88    7.10 
   2   3   0  201.98    5.70 
   2   3   0  203.68    5.30 
   3  -3   0  886.01   23.10 
  -3  -3   0  883.71   21.80 
  -3  -3   0  891.41   22.00 
  -3  -3   0  856.81   21.70 
   3  -3   0  848.32   23.00 
   3  -3   0  864.91   23.00 
  -3  -3   0  865.21   21.80 
  -3  -3   0  873.41   23.20 
   3  -3   0  868.21   23.00 
   3  -3   0  872.31   22.90 
  -3  -3   0  876.51   21.90 
   3   3   0  872.01   20.80 
   3   3   0  868.11   23.20 
  -3   3   0  843.62   22.60 
   3   3   0  862.91   20.70 
   3   3   0  870.51   21.80 
  -3   3   0  879.41   22.80 
  -3   3   0  871.91   23.00 
   3   3   0  876.71   21.50 
  -3   3   0  861.71   23.20 
   3   3   0  829.72   21.40 
  -4  -3   0   98.39    4.80 
  -4  -3   0   99.99    5.20 
   4  -3   0   90.79    5.90 
  -4  -3   0  105.49    5.00 
  -4  -3   0   96.49    4.00 
   4  -3   0   93.89    5.40 
   4  -3   0  103.79    6.20 
  -4  -3   0  103.49    5.40 
   4   3   0   94.19    5.60 
  -4   3   0  101.79    5.90 
  -4   3   0   93.09    5.90 
   4   3   0   95.99    4.70 
   4   3   0  100.69    4.20 
  -4   3   0   89.49    6.10 
   5  -3   0  104.39    6.90 
   5  -3   0  115.29    6.90 
  -5  -3   0  103.79    5.80 
   5  -3   0  113.69    7.40 
   5  -3   0  112.79    6.50 
  -5  -3   0   98.49    5.80 
  -5  -3   0   99.79    5.70 
  -5   3   0  106.69    6.80 
  -5   3   0  108.19    6.50 
   5   3   0  115.49    5.70 
  -5   3   0  108.29    6.80 
   5   3   0  116.29    4.90 
   5   3   0  110.09    7.20 
  -6  -3   0  194.58    9.00 
   6  -3   0  204.68   10.10 
  -6  -3   0  207.58    9.00 
   6  -3   0  198.88    9.70 
  -6  -3   0  205.58    9.00 
   6  -3   0  199.98   10.00 
   6   3   0  213.88    8.40 
   6   3   0  204.58    7.80 
   6   3   0  213.28    9.00 
  -6   3   0  209.68    9.80 
  -6   3   0  194.38    9.20 
   6   3   0  193.38   10.30 
  -6   3   0  214.28   10.20 
  -7  -3   0   25.20    4.80 
  -7  -3   0   26.60    4.80 
   7  -3   0   33.60    5.60 
   7  -3   0   32.00    5.30 
  -7  -3   0   31.90    5.30 
   7  -3   0   34.50    6.20 
   7  -3   0   31.50    5.80 
  -7   3   0   27.20    5.40 
   7   3   0   22.30    4.50 
  -7   3   0   25.20    5.60 
  -7   3   0   26.90    5.40 
   7   3   0   25.60    4.90 
   8  -3   0   59.69    6.90 
  -8  -3   0   63.59    7.20 
   8  -3   0   72.29    8.20 
   8  -3   0   67.59    7.60 
  -8  -3   0   58.79    6.60 
  -8  -3   0   66.99    6.90 
  -8   3   0   63.29    7.10 
  -8   3   0   70.29    7.70 
  -8   3   0   75.19    8.00 
   8   3   0   68.39    7.40 
   8   3   0   75.49    6.00 
  -9  -3   0   -0.60    4.30 
  -9  -3   0    8.50    4.50 
   9  -3   0    2.20    4.50 
  -9  -3   0    5.40    4.70 
   9  -3   0   -2.60    3.80 
   9  -3   0    4.20    5.20 
  -9   3   0    0.90    4.90 
   9   3   0   -0.50    5.10 
  -9   3   0   -4.90    5.00 
   0  -4   0  810.32   21.00 
   0  -4   0  815.22   19.20 
   0  -4   0  823.92   20.40 
   0  -4   0  794.42   19.20 
   0  -4   0  801.12   19.50 
   0  -4   0  806.22   19.50 
   0  -4   0  805.42   21.50 
   0  -4   0  775.72   19.40 
   0  -4   0  819.62   19.50 
   0   4   0  781.92   20.90 
   1  -4   0  413.16   11.20 
   1  -4   0  429.46   12.50 
   1  -4   0  415.46   11.30 
  -1  -4   0  419.16   12.40 
   1  -4   0  424.46   11.50 
  -1  -4   0  415.76   12.30 
  -1  -4   0  410.46   11.80 
  -1  -4   0  411.36   10.00 
  -1  -4   0  433.66   10.00 
   1  -4   0  419.26   11.40 
   1  -4   0  407.56   11.10 
   1  -4   0  426.56   11.40 
   1   4   0  398.96   12.40 
  -1   4   0  410.66   10.60 
  -1   4   0  405.86   10.60 
  -1   4   0  417.56   11.10 
   1   4   0  402.56   11.90 
  -1   4   0  410.86   12.30 
  -2  -4   0  389.06    9.70 
  -2  -4   0  380.06   10.00 
   2  -4   0  392.66   12.00 
   2  -4   0  393.96   11.40 
   2  -4   0  377.76   11.50 
  -2  -4   0  388.36   11.70 
  -2  -4   0  378.26    9.60 
  -2  -4   0  401.86   12.20 
   2  -4   0  387.86   11.50 
   2  -4   0  403.96   11.50 
   2  -4   0  390.26   11.70 
  -2  -4   0  392.26   10.00 
  -2  -4   0  383.56   11.60 
   2  -4   0  380.76   11.60 
  -2   4   0  381.76   11.00 
   2   4   0  407.16    9.70 
  -2   4   0  387.16   11.10 
   2   4   0  398.46   11.80 
  -2   4   0  375.96   11.20 
  -2   4   0  398.16   11.60 
  -2   4   0  393.96   12.10 
  -3  -4   0   31.30    2.50 
  -3  -4   0   38.90    3.40 
   3  -4   0   38.00    4.00 
  -3  -4   0   34.40    2.70 
   3  -4   0   46.00    4.00 
   3  -4   0   39.10    3.80 
   3  -4   0   33.10    3.80 
   3  -4   0   27.90    3.60 
  -3  -4   0   35.20    2.80 
  -3  -4   0   33.10    2.60 
   3  -4   0   40.70    4.10 
  -3   4   0   38.00    4.00 
   3   4   0   33.30    2.50 
   3   4   0   33.30    4.10 
  -3   4   0   38.90    3.60 
  -3   4   0   39.00    3.70 
  -3   4   0   39.50    3.60 
  -4  -4   0   15.10    2.60 
   4  -4   0   13.70    3.60 
   4  -4   0   14.90    3.60 
  -4  -4   0   17.40    2.50 
  -4  -4   0   14.50    2.50 
   4  -4   0   12.00    3.70 
   4  -4   0   20.80    3.70 
  -4  -4   0   19.10    2.70 
  -4  -4   0   16.70    2.70 
   4  -4   0   16.10    2.90 
  -4   4   0   14.40    3.30 
   4   4   0   11.70    3.00 
  -4   4   0   12.10    3.50 
  -4   4   0   18.90    3.50 
   5  -4   0   16.40    3.90 
   5  -4   0   12.00    3.50 
   5  -4   0    9.20    3.90 
   5  -4   0   17.40    4.10 
  -5  -4   0   12.70    3.00 
  -5  -4   0   14.80    3.20 
  -5  -4   0   12.80    3.00 
  -5  -4   0   14.00    2.10 
   5  -4   0   13.10    2.80 
  -5   4   0   15.00    3.80 
   5   4   0   11.80    1.70 
   5   4   0   10.80    2.90 
   5   4   0   12.80    3.40 
  -5   4   0   17.60    3.90 
   5   4   0    8.80    1.70 
  -5   4   0   15.70    3.50 
   6  -4   0   80.29    7.10 
   6  -4   0   86.59    6.40 
  -6  -4   0   94.59    6.50 
  -6  -4   0   88.89    6.50 
   6  -4   0   88.49    7.50 
   6  -4   0   81.89    7.30 
  -6  -4   0   89.69    6.50 
   6  -4   0   91.19    5.40 
   6   4   0   82.69    7.70 
   6   4   0   94.89    5.90 
  -6   4   0   91.19    7.20 
  -6   4   0   94.29    7.40 
  -6   4   0   83.99    7.60 
   6   4   0   91.59    4.60 
   7  -4   0  267.37   12.20 
  -7  -4   0  293.97   11.90 
   7  -4   0  266.67   12.70 
   7  -4   0  280.47   13.40 
  -7  -4   0  275.57   11.40 
  -7  -4   0  299.17   11.60 
  -7   4   0  272.47   12.50 
  -7   4   0  250.47   12.80 
  -7   4   0  283.17   12.90 
   7   4   0  269.77    9.30 
   7   4   0  280.07   13.20 
  -8  -4   0  129.49    8.60 
   8  -4   0  120.99    9.80 
   8  -4   0  128.99    9.30 
  -8  -4   0  135.79    9.20 
   8  -4   0  133.79    8.90 
  -8  -4   0  120.09    8.40 
   8   4   0  129.69   10.40 
  -8   4   0  125.09    9.70 
  -8   4   0  109.59    8.70 
   9  -4   0   13.00    6.40 
  -9  -4   0   19.50    5.20 
   9  -4   0   25.90    6.70 
  -9  -4   0   20.30    5.20 
  -9  -4   0   18.60    5.80 
   9  -4   0   10.70    5.10 
  -9   4   0    9.80    5.90 
   9   4   0   23.20    6.80 
  -9   4   0   14.80    6.40 
   0  -5   0   -0.80    1.30 
   0  -5   0   -2.50    1.70 
   0  -5   0   -2.70    1.30 
   0  -5   0    2.20    1.30 
   0  -5   0    0.00    1.20 
   0  -5   0   -0.80    1.30 
   0  -5   0   -0.10    1.10 
   0  -5   0    2.90    2.80 
   0  -5   0    0.40    2.00 
   0   5   0   -0.30    2.70 
  -1  -5   0   28.60    1.40 
   1  -5   0   26.90    2.70 
   1  -5   0   28.90    2.80 
   1  -5   0   21.90    2.40 
   1  -5   0   24.90    2.50 
  -1  -5   0   24.30    1.30 
   1  -5   0   27.00    2.80 
  -1  -5   0   22.40    3.50 
   1  -5   0   29.00    2.70 
  -1  -5   0   24.40    3.40 
  -1  -5   0   22.20    1.50 
  -1  -5   0   26.30    3.00 
   1  -5   0   21.00    2.40 
   1   5   0   28.50    3.30 
  -1   5   0   25.70    3.60 
   1   5   0   27.10    3.90 
  -1   5   0   23.70    1.70 
  -1   5   0   25.40    1.70 
  -2  -5   0  706.73   16.60 
  -2  -5   0  706.03   19.30 
  -2  -5   0  689.63   16.70 
   2  -5   0  675.23   18.60 
  -2  -5   0  718.13   20.20 
   2  -5   0  689.53   18.60 
  -2  -5   0  694.43   16.30 
  -2  -5   0  666.33   16.30 
   2  -5   0  645.94   18.30 
   2  -5   0  681.53   18.50 
   2  -5   0  663.73   18.70 
   2  -5   0  707.73   18.70 
   2   5   0  685.63   19.20 
  -2   5   0  700.03   18.70 
  -2   5   0  682.13   17.80 
  -2   5   0  664.93   18.20 
  -2   5   0  692.93   19.40 
  -2   5   0  695.93   17.90 
   2   5   0  706.43   19.80 
  -3  -5   0  511.95   13.40 
   3  -5   0  526.85   15.50 
  -3  -5   0  510.85   13.60 
   3  -5   0  537.55   15.70 
   3  -5   0  509.45   15.40 
  -3  -5   0  522.75   13.40 
   3  -5   0  559.04   15.60 
   3  -5   0  512.75   15.60 
  -3  -5   0  503.05   15.10 
  -3  -5   0  525.25   13.50 
   3   5   0  515.45   15.90 
   3   5   0  504.95   13.00 
  -3   5   0  539.65   15.00 
  -3   5   0  501.85   14.80 
  -3   5   0  517.25   15.50 
  -3   5   0  515.85   15.20 
   3   5   0  521.65   13.10 
  -4  -5   0  254.47    8.50 
  -4  -5   0  274.47    8.60 
   4  -5   0  263.37   10.50 
   4  -5   0  258.07   10.20 
   4  -5   0  262.37   10.20 
  -4  -5   0  262.87    8.50 
  -4  -5   0  263.37    9.10 
  -4  -5   0  258.47    8.30 
   4  -5   0  263.07   10.60 
   4   5   0  254.57   10.20 
  -4   5   0  254.27    9.90 
  -4   5   0  274.17    9.90 
   4   5   0  259.27    8.10 
  -4   5   0  265.57   10.50 
  -5  -5   0  272.07    9.20 
   5  -5   0  286.77   11.10 
  -5  -5   0  274.37    9.70 
   5  -5   0  285.87   11.90 
  -5  -5   0  273.27    9.70 
   5  -5   0  268.67   11.40 
  -5  -5   0  274.07    9.70 
   5  -5   0  282.07   11.70 
  -5   5   0  269.57   10.90 
  -5   5   0  268.17   11.10 
   5   5   0  279.57    9.30 
   5   5   0  292.27   12.00 
  -5   5   0  281.57   11.20 
  -6  -5   0   21.10    3.90 
  -6  -5   0   28.00    4.20 
   6  -5   0   21.00    5.20 
   6  -5   0   22.00    5.10 
  -6  -5   0   25.50    4.00 
   6  -5   0   27.60    5.60 
  -6   5   0   31.20    5.70 
  -6   5   0   29.80    5.10 
  -6   5   0   28.30    5.00 
   6   5   0   28.40    5.40 
   7  -5   0    9.70    5.00 
   7  -5   0   13.70    5.50 
   7  -5   0   -1.90    4.50 
  -7  -5   0    8.60    3.50 
  -7  -5   0    5.80    3.70 
  -7  -5   0    6.90    3.70 
  -7   5   0    7.30    4.50 
  -7   5   0    9.70    5.00 
   7   5   0   19.70    5.70 
   8  -5   0   45.80    6.90 
   8  -5   0   48.20    6.50 
  -8  -5   0   46.10    6.30 
  -8  -5   0   53.99    6.40 
   8  -5   0   50.49    6.60 
  -8  -5   0   47.30    5.90 
  -8   5   0   50.29    7.60 
  -8   5   0   53.59    7.00 
   8   5   0   43.60    6.60 
   9  -5   0    2.60    6.10 
   9  -5   0    3.90    4.70 
   9  -5   0    9.10    6.10 
  -9  -5   0   13.50    4.70 
  -9  -5   0   15.20    5.20 
  -9  -5   0    5.50    4.50 
  -9   5   0   14.30    5.60 
   9   5   0    9.70    6.10 
  -9   5   0   10.10    6.30 
   0  -6   0  447.36   11.40 
   0  -6   0  420.16   11.50 
   0  -6   0  432.16   11.20 
   0  -6   0  434.46   11.50 
   0  -6   0  426.76   12.60 
   0  -6   0  427.86   11.30 
   0  -6   0  427.66   11.30 
   0   6   0  439.66   13.60 
   1  -6   0  219.08    7.60 
   1  -6   0  218.68    7.20 
  -1  -6   0  204.88    5.80 
  -1  -6   0  227.88    5.50 
   1  -6   0  208.28    7.30 
   1  -6   0  216.48    7.10 
   1  -6   0  210.98    7.20 
  -1  -6   0  215.78    5.90 
  -1  -6   0  211.98    5.40 
   1  -6   0  219.38    7.00 
   1  -6   0  212.98    7.30 
  -1  -6   0  203.58    5.40 
  -1  -6   0  213.48    7.90 
  -1  -6   0  219.98    5.50 
   1   6   0  196.98    8.80 
   1   6   0  212.48    8.20 
  -1   6   0  206.08    8.70 
   2  -6   0  128.09    6.00 
   2  -6   0  129.09    6.30 
   2  -6   0  157.78    6.80 
  -2  -6   0  151.78    4.30 
   2  -6   0  142.39    6.60 
  -2  -6   0  160.18    3.70 
  -2  -6   0  142.79    3.90 
  -2  -6   0  148.09    3.90 
   2  -6   0  143.49    6.20 
  -2   6   0  154.48    6.00 
  -2   6   0  147.09    5.40 
   2   6   0  145.59    7.10 
  -2   6   0  149.88    5.30 
   2   6   0  143.29    7.10 
  -2   6   0  146.09    7.30 
  -3  -6   0   38.20    2.30 
   3  -6   0   33.00    4.20 
   3  -6   0   38.90    4.30 
  -3  -6   0   35.30    2.60 
   3  -6   0   41.10    4.40 
  -3  -6   0   34.70    2.40 
   3  -6   0   36.50    4.00 
  -3  -6   0   33.60    2.40 
   3  -6   0   39.80    4.30 
  -3   6   0   35.50    3.40 
   3   6   0   33.90    4.50 
  -3   6   0   35.40    3.60 
  -3   6   0   35.40    3.70 
  -3   6   0   34.80    4.10 
  -3   6   0   28.20    4.40 
  -4  -6   0  150.08    5.70 
  -4  -6   0  151.98    5.90 
   4  -6   0  147.49    7.70 
   4  -6   0  151.88    7.90 
  -4  -6   0  166.18    6.10 
  -4  -6   0  152.38    5.80 
   4  -6   0  158.08    8.30 
   4  -6   0  150.28    8.10 
  -4   6   0  158.98    8.10 
  -4   6   0  142.89    7.30 
   4   6   0  146.19    8.40 
  -4   6   0  149.88    7.50 
   4   6   0  143.49    5.00 
   5  -6   0   78.09    6.90 
  -5  -6   0   70.29    4.80 
  -5  -6   0   74.89    5.20 
  -5  -6   0   73.49    4.90 
   5  -6   0   66.29    6.50 
   5  -6   0   63.39    6.80 
  -5   6   0   65.69    6.10 
  -5   6   0   74.19    6.90 
   5   6   0   72.59    7.10 
  -5   6   0   74.99    6.10 
   6  -6   0   29.20    5.20 
   6  -6   0   34.80    5.80 
   6  -6   0   22.80    4.60 
  -6  -6   0   25.30    3.90 
  -6  -6   0   28.70    3.90 
  -6  -6   0   24.20    4.10 
   6   6   0   13.40    5.00 
  -6   6   0   35.20    5.20 
  -6   6   0   26.10    5.70 
   7  -6   0  237.88   12.20 
   7  -6   0  241.98   11.90 
  -7  -6   0  262.07   10.60 
   7  -6   0  247.58   12.80 
  -7  -6   0  258.77   10.80 
  -7  -6   0  247.68   10.80 
  -7   6   0  235.28   11.70 
  -7   6   0  247.08   12.70 
   7   6   0  251.67   13.20 
   8  -6   0   55.79    8.00 
   8  -6   0   57.29    8.70 
  -8  -6   0   65.69    6.60 
   8  -6   0   47.90    7.50 
  -8  -6   0   64.99    6.50 
  -8   6   0   80.79    8.50 
  -8   6   0   80.29    8.20 
   8   6   0   76.29    9.00 
   0  -7   0   -0.60    1.40 
   0  -7   0   -0.60    1.50 
   0  -7   0    2.00    1.50 
   0  -7   0    1.40    1.60 
   0  -7   0   -0.60    1.40 
   0  -7   0    3.20    1.50 
   0   7   0    0.40    3.00 
  -1  -7   0   67.79    2.60 
   1  -7   0   75.99    4.10 
  -1  -7   0   79.59    2.30 
  -1  -7   0   69.69    2.20 
   1  -7   0   67.59    4.10 
  -1  -7   0   70.39    2.90 
  -1  -7   0   70.89    2.70 
   1  -7   0   65.29    4.60 
   1  -7   0   64.59    4.10 
  -1  -7   0   73.29    2.90 
   1  -7   0   73.09    4.20 
   1  -7   0   71.19    4.40 
   1  -7   0   73.69    4.20 
   1   7   0   63.39    5.90 
  -1   7   0   65.29    5.70 
   2  -7   0  326.57   11.10 
  -2  -7   0  320.47    8.20 
   2  -7   0  327.47   10.90 
  -2  -7   0  342.47    8.30 
   2  -7   0  322.87   10.80 
  -2  -7   0  335.17    8.50 
   2  -7   0  345.07   11.00 
   2  -7   0  334.87   11.00 
   2   7   0  330.97   11.80 
  -2   7   0  313.07   12.00 
  -2   7   0  326.57    9.00 
  -2   7   0  329.57    9.00 
   2   7   0  344.17   12.70 
  -3  -7   0  131.29    4.50 
   3  -7   0  119.39    6.70 
   3  -7   0  124.79    6.90 
   3  -7   0  129.59    7.10 
  -3  -7   0  128.39    4.40 
   3  -7   0  136.59    7.20 
  -3  -7   0  132.09    4.50 
   3  -7   0  130.79    6.90 
  -3   7   0  126.39    5.90 
   3   7   0  120.49    7.50 
  -3   7   0  126.39    7.80 
  -3   7   0  131.29    6.50 
  -4  -7   0  152.08    5.80 
   4  -7   0  149.29    8.30 
   4  -7   0  151.28    8.20 
  -4  -7   0  152.38    5.80 
   4  -7   0  146.39    8.40 
  -4  -7   0  161.08    5.40 
   4  -7   0  144.99    8.60 
  -4  -7   0  153.48    5.90 
  -4   7   0  166.68    9.20 
  -4   7   0  150.88    7.40 
   4   7   0  153.78    8.20 
  -4   7   0  164.18    8.90 
   5  -7   0   56.99    6.80 
  -5  -7   0   65.49    4.70 
  -5  -7   0   77.39    5.00 
  -5  -7   0   69.49    4.50 
   5  -7   0   63.89    6.70 
   5  -7   0   63.49    6.60 
  -5   7   0   59.79    6.40 
  -5   7   0   78.09    6.40 
   5   7   0   69.39    6.70 
  -5   7   0   79.49    7.60 
   6  -7   0   25.90    5.50 
  -6  -7   0   25.40    3.70 
   6  -7   0   24.30    5.60 
  -6  -7   0   30.30    3.80 
   6  -7   0   29.00    5.70 
   6   7   0   18.90    5.60 
  -6   7   0   28.70    5.30 
  -6   7   0   24.80    5.60 
   7  -7   0   13.40    5.40 
  -7  -7   0   -1.00    3.00 
  -7  -7   0    3.30    3.20 
   7  -7   0    0.50    4.90 
   7  -7   0   -7.50    4.40 
  -7   7   0   -5.10    3.70 
   7   7   0    6.20    4.90 
  -8  -7   0    8.10    3.80 
   8  -7   0    9.30    6.00 
   8  -7   0    0.30    4.90 
  -8  -7   0    7.40    3.80 
   8  -7   0    1.30    5.40 
  -8   7   0    8.70    5.40 
   8   7   0    6.50    5.40 
   0  -8   0  337.47    9.70 
   0  -8   0  360.46    9.90 
   0  -8   0  344.57   10.20 
   0  -8   0  341.27   10.00 
   0  -8   0  366.06   10.20 
   0  -8   0  355.66   10.20 
   0   8   0  360.46   12.90 
  -1  -8   0  273.67    7.70 
  -1  -8   0  270.97    7.60 
   1  -8   0  279.57    9.10 
  -1  -8   0  276.97    7.70 
   1  -8   0  280.17    9.10 
   1  -8   0  287.97    9.20 
   1  -8   0  271.47    9.10 
  -1  -8   0  278.57    7.70 
   1  -8   0  260.87    9.20 
  -1   8   0  296.47   11.60 
   1   8   0  276.87   11.70 
  -2  -8   0   45.50    2.10 
   2  -8   0   59.89    5.00 
   2  -8   0   42.00    4.10 
  -2  -8   0   40.80    2.10 
   2  -8   0   49.70    4.50 
   2  -8   0   50.69    4.40 
   2  -8   0   44.90    4.40 
  -2  -8   0   49.90    2.20 
  -2  -8   0   44.70    2.10 
   2   8   0   44.10    5.90 
  -2   8   0   53.09    5.70 
   2   8   0   46.80    5.30 
   3  -8   0   19.60    4.10 
  -3  -8   0   23.80    1.90 
  -3  -8   0   26.70    2.10 
   3  -8   0   27.70    4.40 
   3  -8   0   24.40    4.40 
   3  -8   0   13.70    3.60 
  -3   8   0   21.70    2.80 
   3   8   0   30.70    5.00 
  -3   8   0   33.20    5.10 
   4  -8   0   78.59    6.60 
   4  -8   0   75.19    6.80 
   4  -8   0   91.39    7.30 
  -4  -8   0   85.69    4.10 
   4   8   0   78.49    7.30 
  -4   8   0   79.59    5.50 
  -4   8   0   95.69    7.80 
  -5  -8   0   -2.90    2.00 
   5  -8   0    0.40    4.10 
   5  -8   0   -3.70    3.70 
   5  -8   0   -3.00    3.70 
   5   8   0   -5.80    3.80 
  -5   8   0    4.60    3.50 
  -5   8   0    1.90    4.40 
   6  -8   0    9.80    4.90 
  -6  -8   0   12.80    3.20 
   6  -8   0    3.90    4.80 
   6  -8   0    7.90    4.50 
  -6   8   0    6.70    4.90 
  -6   8   0   13.00    4.00 
   6   8   0   21.80    5.80 
   7  -8   0   30.40    6.40 
  -7  -8   0   34.00    4.60 
   7  -8   0   35.60    6.90 
   7  -8   0   25.20    6.30 
  -7   8   0   28.90    5.80 
   7   8   0   16.50    5.70 
  -7   8   0   35.80    7.30 
   8   8   0   66.29   10.00 
   0  -9   0    1.70    1.70 
   0  -9   0   -0.50    1.90 
   0  -9   0   -2.10    1.80 
   0  -9   0    0.10    1.60 
   0  -9   0    0.30    1.80 
   0   9   0    8.70    4.30 
   1  -9   0  108.09    5.80 
  -1  -9   0  114.59    5.00 
  -1  -9   0  107.09    4.20 
  -1  -9   0  112.89    4.30 
   1  -9   0  125.19    5.90 
   1  -9   0  116.59    5.80 
   1  -9   0  117.19    5.70 
   1   9   0  125.99    8.50 
  -1   9   0  114.89    8.10 
   2  -9   0   35.00    4.20 
  -2  -9   0   36.80    1.80 
  -2  -9   0   32.60    1.80 
   2  -9   0   30.10    4.10 
   2  -9   0   30.10    4.00 
   2  -9   0   36.90    4.30 
   2   9   0   39.50    6.10 
  -2   9   0   32.00    4.80 
  -3  -9   0   35.20    1.90 
   3  -9   0   37.60    5.10 
   3  -9   0   36.00    5.00 
   3  -9   0   41.90    5.00 
  -3   9   0   34.50    5.70 
   3   9   0   34.30    5.40 
   4  -9   0  127.59    8.50 
   4  -9   0  113.59    8.50 
  -4  -9   0  119.79    4.40 
   4  -9   0  121.09    8.30 
   4   9   0  104.89    8.50 
  -4   9   0  112.69    6.10 
  -4   9   0  113.69    8.80 
   5  -9   0   73.19    7.30 
  -5  -9   0   71.69    4.30 
   5  -9   0   68.69    7.10 
   5  -9   0   56.99    6.80 
   5   9   0   68.49    7.60 
  -5   9   0   69.99    7.90 
  -5   9   0   62.09    5.50 
   6  -9   0   46.00    6.80 
  -6  -9   0   61.29    4.90 
   6  -9   0   43.10    6.90 
   6  -9   0   56.19    7.20 
  -6   9   0   60.49    6.30 
   6   9   0   57.99    7.80 
  -6   9   0   57.79    7.70 
   7  -9   0    8.30    6.00 
   7  -9   0   20.40    6.10 
   7  -9   0    3.00    5.20 
  -7  -9   0    5.90    3.10 
  -7   9   0   12.70    4.90 
  -7   9   0    5.20    6.10 
   7   9   0   15.40    6.20 
   0 -10   0  419.86   11.10 
   0 -10   0  396.76   11.90 
   0 -10   0  407.16   11.90 
   0  10   0  408.16   15.90 
   1 -10   0  148.19    6.90 
   1 -10   0  142.49    6.40 
   1 -10   0  136.79    7.80 
   1 -10   0  154.58    6.90 
  -1 -10   0  148.19    5.10 
  -1 -10   0  150.08    5.10 
   1  10   0  156.58    9.80 
  -1  10   0  123.89    9.00 
   2 -10   0   49.20    5.00 
  -2 -10   0   46.60    1.70 
  -2 -10   0   43.80    1.60 
   2 -10   0   41.30    4.40 
   2 -10   0   40.50    4.60 
  -2  10   0   41.30    6.10 
   2  10   0   41.10    6.50 
   3 -10   0    5.50    3.30 
   3 -10   0   12.10    4.20 
   3 -10   0   17.50    4.00 
  -3  10   0   12.80    4.70 
   3  10   0   17.20    4.90 
   4 -10   0    9.20    4.10 
  -4 -10   0   11.50    1.30 
   4 -10   0   12.50    4.70 
   4 -10   0   11.00    4.80 
   4  10   0   20.30    5.50 
  -4  10   0   17.90    5.20 
   5 -10   0   49.40    6.60 
  -5 -10   0   49.70    3.40 
   5 -10   0   41.30    6.40 
   5 -10   0   45.20    6.40 
  -5  10   0   45.00    7.10 
   5  10   0   54.09    7.30 
  -6 -10   0   20.40    3.00 
   6 -10   0   25.30    6.10 
   6 -10   0   27.20    6.20 
   6 -10   0   27.80    6.10 
  -6  10   0   15.80    6.10 
   6  10   0   16.00    6.20 
   0 -11   0    0.00    2.00 
   0 -11   0   -1.50    2.00 
   0  11   0   -3.30    4.00 
   1 -11   0   43.70    4.40 
  -1 -11   0   41.10    2.80 
   1 -11   0   40.00    3.70 
  -1 -11   0   38.90    2.80 
   1  11   0   47.30    6.90 
  -1  11   0   35.00    6.20 
   2 -11   0   17.50    3.50 
   2 -11   0   17.40    3.80 
  -2  11   0   14.50    4.90 
   2  11   0   19.40    5.70 
   3 -11   0   30.30    4.90 
   3 -11   0   41.90    5.20 
  -3  11   0   28.50    5.80 
   4 -11   0  123.19    9.10 
   4 -11   0  135.29    9.00 
   4 -11   0  145.99    9.70 
   4  11   0  141.19   10.10 
  -4  11   0  134.49   10.10 
   5 -11   0  118.19    8.90 
   5 -11   0   92.99    8.60 
   5 -11   0  100.89    9.00 
   5  11   0  109.79   10.00 
  -5  11   0  127.19   10.10 
   0 -12   0   55.29    4.10 
   0  12   0   57.49    7.90 
  -1 -12   0   35.80    2.50 
  -1 -12   0   38.70    2.50 
   1 -12   0   38.70    4.20 
  -1  12   0   35.60    6.70 
   1  12   0   44.30    7.20 
   2 -12   0    6.90    3.50 
   2 -12   0   13.20    3.50 
   2  12   0    0.40    5.20 
  -2  12   0    3.40    5.00 
   3 -12   0   -1.00    3.30 
   3 -12   0    1.90    3.50 
  -3  12   0    6.00    5.50 
   4 -12   0   27.00    6.20 
   4 -12   0   41.00    5.80 
  -4  12   0   35.50    6.80 
   0 -13   0   -0.80    2.00 
   0  13   0    3.50    5.00 
   1 -13   0    6.30    3.00 
  -1  13   0    8.80    5.60 
   1  13   0    5.10    5.60 
  10   0  -1   53.39    7.30 
  10   0  -1   56.89    8.40 
  10   0  -1   51.49    7.90 
 -10   0   1   55.89    7.80 
 -10   0   1   50.79    7.90 
 -10   0   1   49.99    6.90 
   9   0  -1  109.29    8.70 
   9   0  -1   98.39    9.30 
  -9   0   1   79.09    8.80 
   9   0  -1   81.19    8.80 
  -9   0   1   95.39    9.00 
  -9   0   1  101.79    9.10 
   8   0  -1   16.80    4.70 
   8   0  -1   15.20    4.20 
  -8   0   1   14.30    4.70 
  -8   0   1   20.30    4.40 
  -8   0   1   20.20    5.40 
  -7   0   1   20.20    4.90 
   7   0  -1   14.10    4.90 
  -7   0   1   32.60    5.30 
   7   0  -1   25.50    4.70 
   7   0  -1   22.00    4.60 
  -7   0   1   25.80    5.00 
  -6   0   1   -0.90    3.10 
   6   0  -1   -0.10    3.10 
   6   0  -1   -1.40    2.60 
   6   0  -1    2.50    3.30 
  -6   0   1   -3.20    3.20 
  -6   0   1   -2.00    3.40 
   5   0  -1   21.30    3.70 
  -5   0   1   25.20    3.80 
   5   0  -1   24.30    3.80 
  -5   0   1   21.30    3.70 
  -5   0   1   27.40    4.10 
   4   0  -1  180.88    7.10 
   4   0  -1  179.08    7.20 
   4   0  -1  169.38    7.30 
  -4   0   1  171.78    4.70 
  -4   0   1  178.68    7.70 
  -4   0   1  171.98    7.30 
  -4   0   1  175.08    7.30 
   4   0  -1  177.78    8.10 
   4   0  -1  183.18    7.30 
  -4   0   1  179.98    7.60 
  -3   0   1  431.46   12.60 
   3   0  -1  471.85   12.70 
  -3   0   1  456.05   12.80 
  -3   0   1  460.95   11.10 
  -3   0   1  422.56   12.30 
   3   0  -1  461.25   12.80 
  -3   0   1  460.65   12.70 
   3   0  -1  369.86   12.20 
   3   0  -1  472.45   12.70 
  -2   0   1    4.90    2.30 
   2   0  -1   11.80    1.90 
  -2   0   1    5.20    2.20 
  -2   0   1    4.20    2.40 
   2   0  -1    7.90    2.30 
   2   0  -1    3.70    2.20 
  -2   0   1   -1.50    1.10 
   2   0  -1    5.80    1.70 
   1   0  -1 1492.65   36.10 
   1   0  -1 1499.85   36.10 
  -1   0   1 1561.14   36.20 
  -1   0   1 1536.35   36.10 
   1   0  -1 1456.65   36.10 
   1   0  -1 1556.04   36.10 
  -1   0   1 1578.34   36.20 
   0   0   1  575.84   14.00 
   0   0   1  587.94   14.00 
   0   0   1  567.14   13.90 
   0   0  -1  570.14   13.90 
   0   0  -1  550.24   14.00 
   0   0  -1  562.04   14.00 
   0   0   1  578.14   13.90 
   1   0   1 2422.46   57.19 
  -1   0  -1 2419.26   57.29 
   1   0   1 2425.26   57.29 
   1   0   1 2527.25   57.39 
  -1   0  -1 2476.55   57.39 
   1   0   1 2479.75   57.39 
  -1   0  -1 2435.26   57.39 
  -1   0  -1 2489.55   57.49 
   1   0   1 2344.07   57.39 
  -1   0  -1 2414.96   57.19 
   1   0   1 2435.16   57.39 
   2   0   1  839.22   21.60 
  -2   0  -1  874.11   21.40 
   2   0   1  868.81   21.50 
   2   0   1  830.72   21.50 
  -2   0  -1  879.51   21.70 
   2   0   1  842.12   21.40 
  -2   0  -1  848.12   21.50 
  -2   0  -1  866.91   21.70 
   2   0   1  835.32   21.70 
  -2   0  -1  813.62   21.50 
  -2   0  -1  877.81   21.60 
   2   0   1  865.81   21.40 
   3   0   1  113.49    5.40 
   3   0   1  114.49    5.00 
  -3   0  -1  111.19    5.70 
  -3   0  -1  127.89    5.70 
  -3   0  -1  117.39    5.30 
   3   0   1  114.39    5.00 
  -3   0  -1  110.39    5.50 
  -3   0  -1  117.59    5.60 
   3   0   1  114.89    5.30 
   3   0   1  117.29    5.40 
  -4   0  -1    9.40    3.30 
   4   0   1    5.10    2.80 
  -4   0  -1   13.20    3.20 
   4   0   1    6.90    2.60 
  -4   0  -1    8.60    2.80 
   4   0   1    8.90    2.90 
   4   0   1    4.20    3.10 
   4   0   1    5.40    2.50 
  -4   0  -1    7.90    3.00 
   4   0   1   11.10    2.90 
   5   0   1   51.29    4.80 
  -5   0  -1   47.90    4.50 
  -5   0  -1   53.49    5.00 
   5   0   1   55.39    5.40 
  -5   0  -1   48.50    4.70 
   5   0   1   48.80    4.90 
   5   0   1   48.50    4.70 
  -5   0  -1   51.49    5.00 
  -6   0  -1    3.30    3.60 
  -6   0  -1    3.50    3.00 
   6   0   1   -2.30    3.60 
  -6   0  -1    3.70    2.80 
   6   0   1    6.00    3.30 
   6   0   1   -0.10    3.20 
   6   0   1    3.10    3.50 
  -6   0  -1    3.10    3.60 
  -7   0  -1  228.68   11.00 
  -7   0  -1  216.08   10.50 
   7   0   1  214.28   10.70 
   7   0   1  215.18   10.30 
   7   0   1  226.98   11.20 
  -7   0  -1  214.58   10.80 
  -8   0  -1  248.88   12.30 
  -8   0  -1  228.48   12.20 
   8   0   1  233.58   11.90 
  -8   0  -1  214.28   11.70 
   8   0   1  238.78   12.30 
   9   0   1    5.00    4.70 
  -9   0  -1    6.00    4.90 
   9   0   1    6.70    4.50 
   9   0   1   17.80    6.00 
  -9   0  -1    7.50    4.30 
  -9   0  -1    2.70    5.00 
 -10  -1   1   10.60    5.70 
 -10  -1   1   17.40    6.30 
 -10  -1   1   27.50    6.60 
  10  -1  -1   34.00    7.30 
  10  -1  -1   30.60    6.90 
  10  -1  -1   25.60    7.00 
 -10   1   1   21.10    6.60 
  10   1  -1   23.70    6.90 
  10   1  -1   20.30    5.30 
 -10   1   1   29.40    6.90 
   9  -1  -1   32.00    6.10 
  -9  -1   1   29.10    6.00 
  -9  -1   1   34.30    6.30 
   9  -1  -1   29.80    5.80 
  -9  -1   1   31.60    6.30 
   9  -1  -1   26.10    6.40 
  -9   1   1   23.70    6.10 
   9   1  -1   27.70    6.30 
   9   1  -1   28.60    5.40 
   9   1  -1   25.90    6.60 
  -9   1   1   41.40    7.10 
  -9   1   1   33.70    6.40 
   8  -1  -1   12.70    4.70 
   8  -1  -1    8.90    4.90 
  -8  -1   1    6.60    3.60 
  -8  -1   1    5.40    4.40 
  -8  -1   1    9.20    3.60 
   8   1  -1   11.90    5.00 
  -8   1   1    9.00    4.70 
  -8   1   1    5.20    4.90 
   8   1  -1    6.00    3.90 
  -8   1   1    4.20    4.40 
  -7  -1   1  155.78    8.70 
  -7  -1   1  130.89    7.60 
   7  -1  -1  149.39    8.70 
   7  -1  -1  137.09    9.00 
   7  -1  -1  148.79    8.80 
  -7  -1   1  149.69    8.80 
   7   1  -1  147.09    8.30 
  -7   1   1  139.69    8.70 
  -7   1   1  144.79    8.80 
   7   1  -1  142.29    9.20 
   7   1  -1  137.69    8.00 
  -7   1   1  139.59    8.30 
   6  -1  -1   69.19    6.00 
   6  -1  -1   55.19    5.70 
  -6  -1   1   67.09    6.10 
  -6  -1   1   58.09    5.50 
  -6  -1   1   63.89    5.50 
   6   1  -1   51.19    5.20 
   6   1  -1   66.59    5.40 
  -6   1   1   63.49    5.90 
  -6   1   1   69.19    6.10 
   6   1  -1   68.59    6.40 
  -6   1   1   72.19    6.40 
  -5  -1   1   65.79    5.20 
  -5  -1   1   71.99    5.30 
  -5  -1   1   67.89    5.20 
   5  -1  -1   60.09    5.40 
   5  -1  -1   72.79    5.60 
   5  -1  -1   63.79    5.20 
   5   1  -1   56.19    5.20 
  -5   1   1   62.29    4.80 
  -5   1   1   54.29    5.10 
   5   1  -1   61.89    5.00 
  -5   1   1   56.09    5.20 
   5   1  -1   54.89    5.20 
   5   1  -1   65.19    4.90 
   4  -1  -1  106.79    5.40 
  -4  -1   1  103.79    5.50 
  -4  -1   1  100.29    5.50 
   4  -1  -1  110.49    5.90 
  -4  -1   1  102.09    5.20 
   4  -1  -1  114.99    6.10 
   4  -1  -1  110.89    5.70 
  -4  -1   1   99.19    5.30 
   4  -1  -1  115.39    5.90 
  -4  -1   1  106.09    2.80 
   4   1  -1   92.49    5.10 
  -4   1   1   96.59    5.40 
  -4   1   1   97.19    5.80 
   4   1  -1   97.99    5.30 
  -4   1   1  121.59    6.10 
   4   1  -1  109.29    5.10 
  -4   1   1  104.79    3.90 
   4   1  -1   94.19    6.10 
   4   1  -1  107.79    5.30 
   3  -1  -1  601.84   16.70 
  -3  -1   1  599.54   16.30 
  -3  -1   1  604.54   16.40 
   3  -1  -1  607.94   15.40 
  -3  -1   1  586.24   16.20 
   3  -1  -1  608.24   16.60 
  -3  -1   1  617.34   16.30 
   3  -1  -1  610.74   16.80 
   3  -1  -1  604.74   16.50 
  -3   1   1  620.04   16.60 
   3   1  -1  616.54   16.20 
  -3   1   1  605.64   15.40 
  -3   1   1  613.74   16.70 
  -3   1   1  627.74   16.60 
   3   1  -1  639.74   16.10 
   3   1  -1  601.94   16.10 
  -2  -1   1 9791.02  225.68 
   2  -1  -1 9406.16  225.08 
  -2  -1   1 9381.76  226.18 
  -2  -1   1 9658.83  223.98 
   2  -1  -1 9556.14  225.18 
  -2  -1   1 9999.00  225.38 
   2  -1  -1 9669.93  224.98 
   2  -1  -1 9376.06  222.18 
  -2   1   1 9437.86  223.48 
   2   1  -1 9656.43  224.28 
   2   1  -1 9342.77  223.98 
   2   1  -1 9369.96  224.38 
  -2   1   1 9463.45  224.68 
   2   1  -1 9529.55  225.18 
  -2   1   1 9690.93  222.78 
  -2   1   1 9418.46  223.78 
  -2   1   1 9344.96  225.28 
   1  -1  -1   48.80    2.90 
   1  -1  -1   51.39    3.00 
  -1  -1   1   52.69    2.80 
   1  -1  -1   53.39    2.80 
  -1  -1   1   53.09    2.60 
   1  -1  -1   51.59    2.90 
  -1  -1   1   54.29    2.90 
  -1  -1   1   57.19    2.70 
  -1  -1   1   52.29    2.60 
   1  -1  -1   55.29    2.90 
  -1   1   1   55.09    3.20 
  -1   1   1   53.79    2.80 
   1   1  -1   55.49    2.90 
  -1   1   1   56.99    3.10 
   1   1  -1   56.79    2.70 
  -1   1   1   58.79    2.90 
   1   1  -1   50.09    3.00 
   1   1  -1   54.49    2.60 
  -1   1   1   55.89    2.80 
   1   1  -1   55.89    2.80 
   0  -1   1 1463.05   34.30 
   0  -1  -1 1443.76   33.90 
   0  -1  -1 1436.16   33.90 
   0  -1   1 1509.75   34.30 
   0  -1   1 1422.66   34.20 
   0  -1  -1 1460.55   33.90 
   0  -1   1 1447.66   34.20 
   0  -1  -1 1422.56   34.00 
   0  -1  -1 1436.36   34.50 
   0   1   1 1452.15   33.80 
   0   1  -1 1469.85   34.30 
   0   1  -1 1436.16   34.20 
   0   1   1 1434.26   34.00 
   0   1   1 1420.76   33.80 
   0   1   1 1452.15   34.50 
   0   1   1 1419.56   33.90 
   0   1  -1 1453.25   34.20 
   0   1  -1 1485.85   34.20 
  -1  -1  -1  231.78    6.70 
  -1  -1  -1  247.18    6.70 
   1  -1   1  241.78    7.30 
   1  -1   1  251.37    7.20 
   1  -1   1  248.88    7.50 
   1  -1   1  242.88    6.50 
   1  -1   1  250.37    7.40 
  -1  -1  -1  234.98    6.70 
  -1  -1  -1  242.08    6.80 
  -1  -1  -1  243.68    7.30 
   1  -1   1  230.78    7.40 
  -1  -1  -1  239.88    6.60 
  -1   1  -1  237.98    7.00 
  -1   1  -1  241.38    7.20 
   1   1   1  245.68    6.80 
  -1   1  -1  246.08    7.40 
   1   1   1  248.78    7.00 
   1   1   1  248.68    6.60 
  -1   1  -1  247.58    7.20 
   1   1   1  245.98    7.20 
   1   1   1  248.98    6.70 
  -1   1  -1  241.38    7.30 
   1   1   1  246.08    6.60 
   1   1   1  248.48    6.80 
  -2  -1  -1  617.74   16.10 
  -2  -1  -1  664.53   16.30 
   2  -1   1  651.43   17.00 
   2  -1   1  653.23   16.20 
   2  -1   1  633.24   16.70 
  -2  -1  -1  641.44   16.30 
   2  -1   1  667.43   16.90 
   2  -1   1  587.04   16.70 
   2  -1   1  678.83   16.90 
  -2  -1  -1  657.73   16.40 
  -2  -1  -1  656.93   16.50 
   2  -1   1  561.34   16.30 
  -2  -1  -1  639.44   16.60 
  -2   1  -1  629.84   16.80 
  -2   1  -1  635.84   16.60 
   2   1   1  656.73   16.10 
   2   1   1  621.94   16.30 
   2   1   1  598.54   16.10 
   2   1   1  625.74   15.60 
  -2   1  -1  624.14   16.70 
   2   1   1  618.04   16.00 
   2   1   1  640.84   16.70 
   2   1   1  617.94   16.10 
  -2   1  -1  605.74   16.70 
   2   1   1  631.04   16.30 
   3  -1   1  149.59    6.40 
   3  -1   1  148.99    6.20 
  -3  -1  -1  145.79    6.10 
   3  -1   1  138.39    6.40 
   3  -1   1  147.79    6.30 
  -3  -1  -1  148.99    6.20 
   3  -1   1  154.18    6.30 
  -3  -1  -1  155.38    6.10 
   3  -1   1  159.28    6.00 
  -3  -1  -1  153.68    5.90 
  -3  -1  -1  155.28    6.30 
  -3  -1  -1  145.59    6.30 
   3  -1   1  153.48    6.60 
   3   1   1  154.88    5.70 
  -3   1  -1  151.98    6.80 
   3   1   1  150.98    6.00 
  -3   1  -1  153.88    6.60 
   3   1   1  140.99    6.00 
   3   1   1  151.28    6.20 
  -3   1  -1  146.49    6.50 
  -3   1  -1  147.79    6.60 
   3   1   1  149.88    4.60 
   3   1   1  154.88    5.90 
   3   1   1  148.99    6.00 
  -4  -1  -1  108.79    6.00 
   4  -1   1  105.89    6.10 
   4  -1   1  109.39    5.70 
  -4  -1  -1  127.49    6.00 
  -4  -1  -1  114.39    5.90 
   4  -1   1  112.59    6.20 
  -4  -1  -1  105.19    5.80 
   4  -1   1  105.49    6.40 
   4  -1   1  119.89    6.20 
   4   1   1  108.19    5.30 
   4   1   1  111.29    5.60 
  -4   1  -1  117.29    6.30 
  -4   1  -1  110.69    6.20 
   4   1   1  108.19    6.20 
  -4   1  -1  119.89    6.50 
   4   1   1  115.99    3.40 
  -4   1  -1  122.39    6.70 
   4   1   1  118.09    6.00 
  -5  -1  -1   43.90    4.80 
   5  -1   1   38.60    4.20 
   5  -1   1   37.30    4.50 
   5  -1   1   44.30    5.10 
  -5  -1  -1   44.10    4.60 
   5  -1   1   38.50    2.40 
  -5  -1  -1   42.70    4.50 
   5  -1   1   40.90    4.80 
  -5  -1  -1   38.40    4.30 
  -5   1  -1   43.20    5.10 
   5   1   1   42.50    4.70 
  -5   1  -1   51.59    5.00 
   5   1   1   42.70    4.80 
  -5   1  -1   42.00    4.90 
  -5   1  -1   40.70    4.30 
   5   1   1   35.80    4.10 
   6  -1   1   12.80    3.40 
  -6  -1  -1    6.70    3.50 
   6  -1   1   11.60    3.80 
   6  -1   1    8.90    1.10 
  -6  -1  -1    8.40    3.70 
   6  -1   1    2.70    4.20 
   6  -1   1    7.00    3.60 
  -6  -1  -1    7.80    3.90 
  -6  -1  -1   10.80    3.80 
   6   1   1    7.40    3.00 
   6   1   1   13.00    4.10 
  -6   1  -1    7.70    4.20 
  -6   1  -1    5.60    4.00 
  -6   1  -1   12.50    4.00 
  -6   1  -1    9.70    4.10 
   6   1   1   12.20    3.50 
  -7  -1  -1  119.59    8.20 
   7  -1   1  104.99    8.10 
  -7  -1  -1  119.19    8.30 
   7  -1   1  118.59    9.00 
   7  -1   1  118.59    8.20 
  -7  -1  -1  122.69    8.50 
   7   1   1  108.29    8.30 
  -7   1  -1  116.59    8.60 
  -7   1  -1  122.79    8.70 
   7   1   1  116.29    8.20 
  -7   1  -1  122.19    8.90 
  -8  -1  -1   44.40    6.30 
  -8  -1  -1   35.60    6.10 
   8  -1   1   21.20    5.30 
  -8  -1  -1   37.10    6.30 
   8  -1   1   38.40    5.90 
   8  -1   1   29.50    5.70 
  -8   1  -1   29.00    6.00 
  -8   1  -1   22.40    5.60 
   8   1   1   26.00    5.80 
   8   1   1   23.80    5.70 
   8   1   1   22.30    4.70 
  -8   1  -1   40.10    6.70 
  -9  -1  -1   18.40    5.60 
   9  -1   1   24.60    6.50 
   9  -1   1   25.80    5.80 
  -9  -1  -1    8.60    5.30 
  -9  -1  -1   11.50    4.60 
  -9   1  -1   13.30    5.70 
   9   1   1   10.60    5.70 
   9   1   1   22.70    4.90 
  -9   1  -1   19.10    6.20 
  -9   1  -1   17.20    5.90 
 -10  -2   1   37.50    6.90 
  10  -2  -1   41.60    8.00 
  10  -2  -1   38.30    7.10 
  10  -2  -1   38.50    7.00 
 -10  -2   1   35.30    7.10 
 -10  -2   1   30.60    6.80 
 -10   2   1   38.60    7.50 
 -10   2   1   22.40    6.90 
  10   2  -1   39.20    7.80 
  -9  -2   1   53.29    7.10 
   9  -2  -1   37.30    6.50 
   9  -2  -1   40.00    7.20 
   9  -2  -1   47.20    7.10 
  -9  -2   1   54.89    6.90 
  -9  -2   1   51.79    7.10 
   9   2  -1   67.19    8.20 
  -9   2   1   45.60    7.60 
  -9   2   1   63.19    9.00 
  -9   2   1   45.30    7.10 
   9   2  -1   42.10    6.00 
  -8  -2   1  100.29    8.20 
   8  -2  -1   90.59    8.50 
  -8  -2   1   94.09    8.00 
  -8  -2   1   97.59    8.00 
   8  -2  -1   85.39    8.10 
   8  -2  -1   95.59    8.40 
  -8   2   1  103.19    9.00 
  -8   2   1  100.29    7.60 
   8   2  -1   93.49    8.30 
  -8   2   1   80.49    8.10 
   8   2  -1   99.19    7.60 
   7  -2  -1  112.19    8.20 
  -7  -2   1   99.09    7.40 
   7  -2  -1  100.49    7.80 
  -7  -2   1   94.79    7.20 
  -7  -2   1   90.99    7.30 
  -7   2   1  105.79    7.10 
  -7   2   1   85.89    7.50 
  -7   2   1   93.29    8.00 
   7   2  -1  110.59    8.40 
   7   2  -1   86.29    6.80 
  -6  -2   1   49.50    5.10 
  -6  -2   1   51.29    5.00 
   6  -2  -1   51.59    5.20 
   6  -2  -1   51.39    5.70 
  -6  -2   1   43.60    4.90 
   6   2  -1   53.29    4.90 
  -6   2   1   51.59    5.20 
   6   2  -1   50.69    5.40 
  -6   2   1   51.79    5.50 
   6   2  -1   45.40    4.50 
  -6   2   1   41.30    5.10 
  -5  -2   1   36.50    4.10 
  -5  -2   1   42.90    4.40 
   5  -2  -1   36.70    3.00 
   5  -2  -1   34.80    4.60 
   5  -2  -1   36.10    4.50 
   5  -2  -1   43.10    4.60 
  -5  -2   1   37.00    4.00 
   5   2  -1   39.50    4.80 
   5   2  -1   46.30    3.80 
  -5   2   1   41.50    4.90 
   5   2  -1   32.50    3.70 
   5   2  -1   40.00    3.70 
  -5   2   1   47.60    4.40 
  -5   2   1   33.40    3.90 
   4  -2  -1  380.26   12.00 
  -4  -2   1  385.76   11.80 
  -4  -2   1  371.66   11.60 
  -4  -2   1  364.16    9.80 
  -4  -2   1  388.76   11.70 
   4  -2  -1  354.46   12.20 
  -4  -2   1  386.36   11.70 
   4  -2  -1  381.86   12.40 
   4  -2  -1  391.66   12.40 
   4  -2  -1  381.26   10.80 
   4   2  -1  372.16   11.20 
   4   2  -1  400.66   12.60 
   4   2  -1  384.46   11.10 
  -4   2   1  370.36   12.10 
  -4   2   1  378.66   12.20 
  -4   2   1  392.06   12.60 
  -4   2   1  392.76   11.00 
   4   2  -1  382.26   11.50 
   3  -2  -1  632.64   17.60 
  -3  -2   1  660.93   17.00 
   3  -2  -1  643.84   17.70 
   3  -2  -1  629.64   16.80 
   3  -2  -1  631.24   17.70 
   3  -2  -1  629.64   17.60 
  -3  -2   1  626.54   17.00 
  -3  -2   1  634.44   16.80 
  -3  -2   1  658.43   17.10 
   3   2  -1  642.74   16.80 
  -3   2   1  650.33   17.70 
   3   2  -1  644.54   16.50 
  -3   2   1  607.54   17.40 
  -3   2   1  635.74   17.30 
   3   2  -1  657.33   17.00 
   3   2  -1  672.53   16.60 
   3   2  -1  666.73   17.00 
   3   2  -1  670.73   17.80 
  -3   2   1  641.74   17.40 
  -3   2   1  652.13   16.90 
   2  -2  -1 3496.65   81.99 
  -2  -2   1 3465.55   81.59 
   2  -2  -1 3471.85   81.99 
  -2  -2   1 3576.74   81.69 
   2  -2  -1 3600.14   81.99 
  -2  -2   1 3449.85   81.49 
  -2  -2   1 3479.55   82.19 
   2  -2  -1 3406.56   81.99 
  -2  -2   1 3428.56   81.39 
   2  -2  -1 3425.46   82.09 
  -2   2   1 3369.46   81.99 
  -2   2   1 3451.05   82.09 
   2   2  -1 3403.76   81.49 
  -2   2   1 3559.94   81.89 
   2   2  -1 3484.15   81.19 
   2   2  -1 3554.04   82.19 
   2   2  -1 3573.24   81.19 
  -2   2   1 3517.85   81.89 
  -2   2   1 3493.45   82.09 
   1  -2  -1 1264.77   30.20 
  -1  -2   1 1293.57   30.30 
  -1  -2   1 1259.57   30.80 
   1  -2  -1 1249.28   30.30 
   1  -2  -1 1259.67   30.20 
  -1  -2   1 1250.37   30.00 
   1  -2  -1 1277.27   30.10 
  -1  -2   1 1270.97   29.90 
  -1  -2   1 1270.27   30.10 
   1  -2  -1 1246.68   30.90 
  -1  -2   1 1248.28   29.90 
   1   2  -1 1260.17   29.80 
   1   2  -1 1266.57   30.80 
  -1   2   1 1277.97   30.30 
  -1   2   1 1252.67   30.00 
   1   2  -1 1286.17   30.10 
   1   2  -1 1291.77   29.80 
   1   2  -1 1258.17   30.20 
  -1   2   1 1233.68   30.90 
  -1   2   1 1254.37   30.00 
  -1   2   1 1269.47   30.10 
  -1   2   1 1235.08   30.10 
   0  -2   1 1318.27   30.60 
   0  -2  -1 1285.77   30.60 
   0  -2  -1 1296.97   30.70 
   0  -2   1 1298.77   31.20 
   0  -2  -1 1320.57   31.20 
   0  -2  -1 1316.47   30.50 
   0  -2  -1 1332.97   31.70 
   0  -2   1 1324.57   31.30 
   0  -2  -1 1305.57   31.90 
   0  -2   1 1347.77   31.20 
   0  -2  -1 1328.67   30.50 
   0  -2   1 1304.67   31.10 
   0   2  -1 1287.27   31.00 
   0   2  -1 1305.37   31.80 
   0   2   1 1294.97   30.50 
   0   2  -1 1344.07   31.10 
   0   2  -1 1305.77   30.60 
   0   2   1 1292.57   30.60 
   0   2   1 1295.57   31.80 
   0   2  -1 1320.87   31.30 
   0   2   1 1292.27   31.20 
   0   2  -1 1279.57   31.10 
  -1  -2  -1 1350.76   32.90 
   1  -2   1 1390.56   33.90 
  -1  -2  -1 1407.16   32.80 
  -1  -2  -1 1375.56   33.80 
  -1  -2  -1 1364.96   33.00 
  -1  -2  -1 1379.36   32.80 
  -1  -2  -1 1388.06   33.00 
   1  -2   1 1378.36   33.90 
   1  -2   1 1405.76   33.80 
   1  -2   1 1393.86   34.00 
   1  -2   1 1408.06   33.90 
   1  -2   1 1439.76   33.90 
   1   2   1 1403.56   34.10 
  -1   2  -1 1387.96   33.70 
   1   2   1 1392.46   33.90 
   1   2   1 1431.06   33.00 
   1   2   1 1401.46   33.00 
   1   2   1 1418.86   32.80 
   1   2   1 1394.76   32.70 
  -1   2  -1 1455.65   33.80 
  -1   2  -1 1390.56   33.90 
  -1   2  -1 1464.95   34.00 
   2  -2   1    1.20    2.50 
  -2  -2  -1   -1.30    1.50 
   2  -2   1   -1.50    2.20 
  -2  -2  -1    0.80    1.70 
   2  -2   1    1.20    1.90 
   2  -2   1    1.40    1.70 
  -2  -2  -1    3.90    1.60 
  -2  -2  -1    0.30    1.50 
   2  -2   1   -1.10    1.00 
   2  -2   1    1.80    2.30 
  -2  -2  -1   -0.50    1.50 
  -2  -2  -1    0.60    0.90 
  -2  -2  -1   -0.50    1.50 
  -2   2  -1   -0.40    2.20 
   2   2   1   -0.70    1.30 
  -2   2  -1    0.00    2.40 
   2   2   1    2.00    1.30 
   2   2   1    0.80    1.20 
   2   2   1    0.20    0.40 
  -2   2  -1   -2.90    2.20 
   2   2   1    0.00    1.60 
   2   2   1   -0.80    1.40 
  -2   2  -1   -1.40    1.70 
   2   2   1   -1.80    1.70 
  -2   2  -1   -1.80    1.60 
   2   2   1    3.00    1.70 
   3  -2   1   47.80    4.30 
   3  -2   1   42.80    3.80 
  -3  -2  -1   47.70    3.80 
  -3  -2  -1   42.80    3.40 
  -3  -2  -1   49.30    3.60 
   3  -2   1   53.69    3.80 
  -3  -2  -1   44.80    3.50 
   3  -2   1   45.70    3.90 
   3  -2   1   45.10    4.40 
  -3  -2  -1   38.50    3.90 
   3  -2   1   47.70    4.00 
  -3  -2  -1   49.40    3.60 
  -3   2  -1   58.69    4.30 
   3   2   1   43.30    3.40 
   3   2   1   43.20    2.80 
   3   2   1   57.89    3.70 
  -3   2  -1   51.89    4.00 
  -3   2  -1   52.59    4.30 
   3   2   1   40.90    4.20 
   3   2   1   49.90    3.30 
  -3   2  -1   49.40    4.00 
   3   2   1   56.09    3.30 
  -3   2  -1   53.59    4.30 
   3   2   1   52.99    3.20 
   3   2   1   50.89    3.40 
   4  -2   1  278.97   10.10 
  -4  -2  -1  285.97    9.80 
  -4  -2  -1  272.77    9.50 
   4  -2   1  281.37   10.30 
  -4  -2  -1  289.77    9.70 
   4  -2   1  293.97    9.60 
   4  -2   1  283.87   10.30 
   4  -2   1  271.37    9.90 
   4  -2   1  285.47    8.70 
  -4  -2  -1  301.17    9.80 
  -4   2  -1  291.87   10.60 
  -4   2  -1  283.17   10.70 
   4   2   1  279.77    7.70 
   4   2   1  288.07    9.10 
  -4   2  -1  284.97   10.40 
   4   2   1  288.87    8.90 
   4   2   1  279.57   10.50 
   4   2   1  275.67    9.70 
   4   2   1  294.47    9.50 
  -4   2  -1  301.17   10.50 
   5  -2   1  158.08    7.40 
  -5  -2  -1  173.78    7.80 
   5  -2   1  167.88    8.30 
   5  -2   1  175.48    8.30 
  -5  -2  -1  166.68    7.50 
  -5  -2  -1  163.48    7.50 
  -5  -2  -1  162.88    7.50 
   5  -2   1  169.58    5.90 
   5  -2   1  138.99    8.00 
   5  -2   1  153.48    7.90 
   5   2   1  166.68    6.80 
  -5   2  -1  157.48    8.50 
   5   2   1  161.08    7.80 
  -5   2  -1  166.18    8.40 
  -5   2  -1  159.98    7.60 
   5   2   1  161.28    6.90 
   5   2   1  158.78    7.50 
   5   2   1  163.98    7.10 
  -5   2  -1  149.69    8.00 
  -6  -2  -1   54.19    5.90 
   6  -2   1   54.79    6.00 
   6  -2   1   58.69    6.30 
  -6  -2  -1   61.39    5.70 
   6  -2   1   68.79    6.50 
   6  -2   1   62.29    3.50 
   6  -2   1   65.39    6.00 
  -6  -2  -1   63.59    5.90 
  -6   2  -1   55.89    6.00 
   6   2   1   66.79    5.60 
   6   2   1   61.59    5.10 
  -6   2  -1   64.39    6.10 
   6   2   1   59.09    6.00 
  -6   2  -1   63.29    6.40 
  -6   2  -1   54.49    6.40 
   6   2   1   61.29    5.80 
  -7  -2  -1   58.39    6.30 
   7  -2   1   50.99    5.90 
  -7  -2  -1   38.10    5.60 
   7  -2   1   50.19    6.10 
  -7  -2  -1   59.29    6.30 
   7  -2   1   54.69    6.50 
   7  -2   1   46.40    6.30 
   7   2   1   56.29    6.90 
  -7   2  -1   41.10    6.10 
   7   2   1   57.59    5.20 
   7   2   1   36.90    5.60 
  -7   2  -1   55.99    6.60 
  -7   2  -1   53.19    6.80 
   8  -2   1  171.88   10.10 
  -8  -2  -1  163.88   10.00 
   8  -2   1  173.08   11.20 
  -8  -2  -1  178.28   10.40 
  -8  -2  -1  182.88   10.50 
   8  -2   1  178.38   10.70 
   8   2   1  178.18   11.20 
  -8   2  -1  169.98   11.10 
   8   2   1  174.38    9.10 
   8   2   1  187.88   10.50 
  -8   2  -1  178.48   10.90 
  -8   2  -1  176.28   11.10 
  -9  -2  -1    3.80    4.80 
  -9  -2  -1    1.60    4.40 
   9  -2   1    0.80    4.40 
   9  -2   1    5.40    5.60 
  -9  -2  -1    3.20    4.70 
  -9   2  -1    2.20    5.20 
   9   2   1    6.10    4.10 
  -9   2  -1    9.10    4.50 
   9   2   1    9.70    5.60 
  10  -3  -1   96.79    9.80 
 -10  -3   1   91.79    9.50 
 -10  -3   1   97.59    9.40 
  10  -3  -1   97.39    9.70 
  10  -3  -1  118.79   11.90 
  10   3  -1  124.19   12.80 
 -10   3   1   91.89   10.20 
  -9  -3   1   46.10    6.60 
  -9  -3   1   47.00    6.70 
   9  -3  -1   43.00    7.00 
  -9  -3   1   33.80    6.10 
   9  -3  -1   44.50    7.20 
   9  -3  -1   48.40    6.90 
  -9   3   1   33.20    6.60 
  -9   3   1   33.50    6.90 
   9   3  -1   40.60    6.40 
  -8  -3   1   10.10    4.40 
  -8  -3   1   23.80    5.10 
   8  -3  -1   13.20    5.60 
  -8  -3   1   13.00    4.60 
   8  -3  -1   13.20    5.30 
   8   3  -1    7.00    4.90 
   8   3  -1   12.80    3.80 
  -8   3   1    6.00    5.20 
  -8   3   1   15.00    4.40 
   8   3  -1   15.40    5.60 
  -8   3   1    5.00    4.50 
   7  -3  -1   67.69    7.10 
   7  -3  -1   53.39    6.50 
  -7  -3   1   61.79    6.30 
  -7  -3   1   61.89    6.40 
  -7  -3   1   67.99    6.20 
   7   3  -1   72.09    5.70 
   7   3  -1   61.39    7.10 
  -7   3   1   69.99    7.00 
  -7   3   1   63.59    6.30 
  -7   3   1   56.19    6.90 
   6  -3  -1   16.30    4.50 
  -6  -3   1   30.10    4.30 
   6  -3  -1   25.80    4.60 
  -6  -3   1   26.60    4.20 
   6  -3  -1   25.50    4.40 
  -6  -3   1   24.30    4.10 
  -6   3   1   20.90    4.80 
   6   3  -1   22.20    3.30 
   6   3  -1   24.00    3.40 
  -6   3   1   27.40    4.70 
   6   3  -1   26.30    3.60 
  -6   3   1   20.20    4.40 
   6   3  -1   24.00    4.90 
  -5  -3   1   18.70    1.80 
   5  -3  -1   13.90    3.80 
   5  -3  -1   18.60    4.00 
  -5  -3   1   18.30    3.40 
  -5  -3   1   11.90    3.00 
  -5  -3   1   17.10    3.30 
   5  -3  -1   14.40    3.80 
   5  -3  -1    9.20    2.30 
   5   3  -1   13.90    3.80 
  -5   3   1   18.00    3.30 
   5   3  -1   13.90    2.90 
   5   3  -1    5.90    1.80 
  -5   3   1   17.30    3.70 
  -5   3   1   12.80    3.30 
   5   3  -1   11.90    2.50 
  -4  -3   1  532.85   15.20 
  -4  -3   1  533.45   15.20 
  -4  -3   1  532.25   14.10 
   4  -3  -1  539.85   16.10 
  -4  -3   1  525.85   14.90 
   4  -3  -1  535.25   16.10 
   4  -3  -1  554.24   16.10 
  -4  -3   1  546.05   15.00 
   4  -3  -1  519.45   16.10 
  -4   3   1  540.25   15.20 
  -4   3   1  530.15   15.90 
   4   3  -1  532.05   14.20 
   4   3  -1  535.65   14.20 
   4   3  -1  548.95   16.30 
  -4   3   1  556.04   15.90 
   4   3  -1  522.95   14.70 
  -4   3   1  520.65   15.90 
  -3  -3   1  595.64   15.30 
   3  -3  -1  551.74   15.90 
  -3  -3   1  563.64   16.30 
  -3  -3   1  567.54   15.00 
  -3  -3   1  566.64   15.00 
  -3  -3   1  577.24   15.20 
   3  -3  -1  554.74   15.90 
   3  -3  -1  579.84   16.10 
  -3  -3   1  566.54   15.30 
   3  -3  -1  556.14   15.90 
   3  -3  -1  543.95   16.00 
  -3   3   1  586.54   16.00 
   3   3  -1  581.24   14.90 
   3   3  -1  562.04   14.30 
  -3   3   1  554.74   16.00 
   3   3  -1  567.94   14.40 
   3   3  -1  570.34   15.10 
   3   3  -1  587.74   16.30 
  -3   3   1  576.14   15.90 
  -3   3   1  586.34   15.80 
  -3   3   1  582.34   15.90 
   2  -3  -1  528.15   14.30 
  -2  -3   1  512.65   13.50 
   2  -3  -1  538.95   14.40 
   2  -3  -1  537.85   14.50 
  -2  -3   1  520.25   13.50 
  -2  -3   1  552.24   13.80 
   2  -3  -1  528.85   14.40 
  -2  -3   1  526.35   13.70 
  -2  -3   1  528.15   14.50 
  -2   3   1  515.55   14.20 
   2   3  -1  540.25   12.80 
  -2   3   1  516.05   14.40 
  -2   3   1  524.25   14.10 
  -2   3   1  543.65   14.10 
   2   3  -1  533.55   12.80 
   2   3  -1  550.84   15.10 
   2   3  -1  535.05   14.60 
   2   3  -1  534.85   13.60 
  -2   3   1  523.25   14.90 
   1  -3  -1  126.99    4.50 
   1  -3  -1  118.99    4.30 
   1  -3  -1  133.49    4.50 
  -1  -3   1  122.39    4.00 
  -1  -3   1  124.49    4.00 
  -1  -3   1  127.29    4.30 
   1  -3  -1  129.49    4.60 
  -1  -3   1  126.69    4.70 
  -1  -3   1  123.19    4.30 
  -1   3   1  122.79    4.70 
  -1   3   1  120.69    5.70 
   1   3  -1  123.89    3.20 
  -1   3   1  118.59    4.50 
  -1   3   1  133.49    4.00 
  -1   3   1  121.09    4.30 
   1   3  -1  120.59    4.10 
   1   3  -1  125.09    5.70 
   1   3  -1  126.49    4.60 
   1   3  -1  125.09    3.20 
  -1   3   1  124.49    4.00 
   0  -3   1  248.38    7.40 
   0  -3   1  251.67    7.20 
   0  -3   1  253.27    6.80 
   0  -3  -1  249.18    7.90 
   0  -3  -1  250.17    6.50 
   0  -3  -1  258.87    7.60 
   0  -3  -1  248.48    8.40 
   0  -3   1  257.97    7.20 
   0  -3  -1  255.97    6.10 
   0  -3   1  257.67    7.40 
   0  -3  -1  250.77    6.10 
   0  -3  -1  251.87    6.50 
   0   3   1  242.98    7.70 
   0   3  -1  265.57    6.90 
   0   3  -1  253.87    6.90 
   0   3  -1  246.58    8.30 
   0   3   1  241.68    6.40 
   0   3  -1  262.27    7.40 
   0   3   1  253.87    8.50 
  -1  -3  -1  398.16   12.00 
   1  -3   1  428.36   11.70 
  -1  -3  -1  416.76   10.20 
   1  -3   1  425.26   11.80 
  -1  -3  -1  419.26   11.70 
  -1  -3  -1  427.36   12.00 
   1  -3   1  428.26   11.80 
  -1  -3  -1  408.66   10.20 
   1  -3   1  406.76   11.70 
  -1  -3  -1  423.86   10.20 
   1  -3   1  411.86   11.50 
   1  -3   1  421.96   11.70 
   1   3   1  423.66   12.10 
   1   3   1  396.66   10.00 
   1   3   1  428.56   12.20 
  -1   3  -1  430.26   11.60 
  -1   3  -1  425.26   11.40 
  -1   3  -1  431.26   12.40 
   1   3   1  443.56   10.10 
  -1   3  -1  432.66   11.70 
  -1   3  -1  416.46   11.30 
   2  -3   1  571.94   15.50 
   2  -3   1  536.05   15.20 
   2  -3   1  570.34   15.60 
  -2  -3  -1  565.24   14.10 
   2  -3   1  549.74   15.40 
   2  -3   1  532.85   15.30 
   2  -3   1  548.75   15.40 
  -2  -3  -1  567.74   13.90 
  -2  -3  -1  551.64   14.10 
  -2  -3  -1  556.54   15.00 
  -2  -3  -1  543.55   13.80 
   2   3   1  553.34   13.50 
  -2   3  -1  553.74   15.40 
   2   3   1  554.44   14.00 
   2   3   1  542.65   15.00 
  -2   3  -1  569.04   15.30 
  -2   3  -1  557.44   15.40 
   2   3   1  566.34   13.60 
   2   3   1  563.74   14.00 
   2   3   1  555.94   15.80 
  -3  -3  -1  614.94   16.70 
  -3  -3  -1  643.24   16.70 
  -3  -3  -1  643.64   16.80 
   3  -3   1  622.44   18.00 
   3  -3   1  665.63   18.40 
   3  -3   1  627.34   17.90 
  -3  -3  -1  622.54   16.50 
  -3  -3  -1  650.83   16.80 
   3  -3   1  643.14   17.80 
   3  -3   1  684.43   18.10 
  -3  -3  -1  625.04   16.50 
  -3   3  -1  644.04   18.20 
  -3   3  -1  614.44   17.60 
  -3   3  -1  595.84   17.50 
  -3   3  -1  631.74   17.90 
   3   3   1  626.94   16.50 
   3   3   1  640.04   18.20 
   3   3   1  626.74   15.40 
   3   3   1  631.24   16.70 
   3   3   1  628.04   15.40 
   3   3   1  639.34   16.20 
  -3   3  -1  657.33   17.90 
   3   3   1  634.84   16.60 
   4  -3   1  328.37   11.30 
  -4  -3  -1  374.96   11.80 
  -4  -3  -1  393.26   11.60 
   4  -3   1  377.96   13.20 
  -4  -3  -1  392.46   12.30 
  -4  -3  -1  381.26   11.80 
   4  -3   1  379.96   12.60 
   4  -3   1  369.46   12.70 
   4  -3   1  394.76   12.80 
  -4  -3  -1  397.76   11.90 
   4   3   1  387.06   10.60 
   4   3   1  386.06   11.20 
  -4   3  -1  384.86   12.70 
   4   3   1  391.26   11.70 
  -4   3  -1  384.16   12.80 
  -4   3  -1  392.16   12.90 
   4   3   1  381.66   10.50 
   4   3   1  383.56   10.70 
   4   3   1  397.76   13.20 
  -4   3  -1  385.76   13.20 
   5  -3   1  321.57   12.60 
  -5  -3  -1  349.47   11.70 
   5  -3   1  309.47   12.30 
  -5  -3  -1  319.47   11.20 
   5  -3   1  337.17   10.60 
   5  -3   1  330.77   12.50 
   5  -3   1  348.27   12.70 
  -5  -3  -1  326.47   11.40 
   5  -3   1  329.97   11.40 
  -5  -3  -1  328.57   11.40 
   5   3   1  345.77   11.40 
   5   3   1  332.47   10.30 
   5   3   1  364.36   11.10 
   5   3   1  333.17   12.40 
   5   3   1  346.37   10.20 
  -5   3  -1  331.47   12.40 
  -5   3  -1  347.37   12.70 
  -5   3  -1  333.97   12.30 
   6  -3   1   48.40    6.40 
  -6  -3  -1   35.00    4.60 
   6  -3   1   58.59    6.30 
   6  -3   1   49.00    5.30 
  -6  -3  -1   55.39    5.60 
  -6  -3  -1   42.30    5.00 
   6  -3   1   50.99    3.90 
   6  -3   1   51.79    6.10 
  -6   3  -1   45.30    6.20 
  -6   3  -1   48.40    5.80 
   6   3   1   50.29    4.10 
   6   3   1   45.60    4.10 
  -6   3  -1   50.29    5.90 
   6   3   1   50.49    6.20 
   6   3   1   45.20    5.00 
  -7  -3  -1   50.19    6.00 
   7  -3   1   44.50    6.80 
  -7  -3  -1   48.40    6.10 
   7  -3   1   51.49    6.70 
  -7  -3  -1   46.20    5.60 
   7  -3   1   50.49    6.50 
   7  -3   1   53.59    5.80 
  -7   3  -1   41.10    6.00 
   7   3   1   49.60    5.70 
  -7   3  -1   43.70    5.70 
  -7   3  -1   44.40    6.10 
   7   3   1   51.09    6.30 
   7   3   1   50.99    4.70 
  -8  -3  -1   16.10    4.90 
   8  -3   1   20.70    5.10 
  -8  -3  -1   22.20    5.10 
   8  -3   1   12.40    5.90 
  -8  -3  -1   19.50    5.00 
   8  -3   1    6.00    5.00 
  -8   3  -1   17.50    5.90 
  -8   3  -1    7.10    4.80 
   8   3   1   16.30    3.90 
   8   3   1   24.90    6.10 
  -9  -3  -1    4.20    4.90 
   9  -3   1   10.50    4.80 
   9  -3   1   21.80    6.30 
   9  -3   1   18.30    5.30 
  -9  -3  -1   10.80    5.10 
  -9  -3  -1   19.80    5.80 
  -9   3  -1   18.10    5.90 
   9   3   1   12.40    6.20 
  -9  -4   1   22.60    5.50 
  -9  -4   1   16.20    5.10 
   9  -4  -1   10.60    6.40 
  -9  -4   1   15.50    5.10 
   9  -4  -1   25.60    6.00 
   9  -4  -1   14.40    6.00 
  -9   4   1   15.90    4.80 
   9   4  -1   15.00    6.20 
  -9   4   1   20.80    6.30 
  -8  -4   1  100.99    7.80 
   8  -4  -1  134.49   10.00 
  -8  -4   1  109.59    8.10 
   8  -4  -1  100.69    9.70 
  -8  -4   1  105.29    7.90 
   8  -4  -1  121.39    9.70 
   8   4  -1  120.29   10.10 
  -8   4   1  117.79    9.30 
  -8   4   1  114.09    8.60 
  -7  -4   1  131.39    7.90 
   7  -4  -1  142.99    9.40 
  -7  -4   1  116.09    7.60 
  -7  -4   1  130.49    7.80 
   7  -4  -1  137.39    9.30 
  -7   4   1  139.39    9.00 
  -7   4   1  118.39    8.70 
   7   4  -1  152.78    9.80 
  -7   4   1  132.99    9.30 
  -6  -4   1   69.99    5.70 
  -6  -4   1   70.49    3.30 
   6  -4  -1   71.09    6.50 
   6  -4  -1   65.69    5.70 
   6  -4  -1   80.89    6.90 
   6  -4  -1   69.09    6.70 
  -6  -4   1   74.69    6.20 
  -6  -4   1   68.89    5.60 
  -6   4   1   74.79    6.60 
   6   4  -1   69.39    6.50 
  -6   4   1   69.09    6.40 
  -6   4   1   75.59    7.20 
   6   4  -1   60.49    4.70 
   6   4  -1   64.89    4.10 
  -5  -4   1   24.90    3.80 
  -5  -4   1   21.10    3.30 
   5  -4  -1   27.10    3.40 
  -5  -4   1   26.00    2.60 
   5  -4  -1   22.30    4.20 
  -5  -4   1   23.50    3.40 
   5  -4  -1   27.80    4.50 
   5  -4  -1   18.60    4.20 
  -5   4   1   28.90    4.40 
  -5   4   1   28.50    4.20 
  -5   4   1   34.10    4.40 
   5   4  -1   29.10    2.50 
   5   4  -1   24.20    2.90 
   5   4  -1   21.20    4.40 
   4  -4  -1   58.99    4.50 
  -4  -4   1   63.09    3.90 
  -4  -4   1   72.29    4.20 
  -4  -4   1   61.69    4.10 
  -4  -4   1   68.29    4.30 
   4  -4  -1   65.69    5.30 
   4  -4  -1   68.99    4.70 
  -4  -4   1   69.39    4.30 
   4  -4  -1   64.09    4.70 
   4  -4  -1   71.79    5.50 
  -4   4   1   69.79    5.40 
   4   4  -1   64.89    3.60 
  -4   4   1   60.69    4.90 
  -4   4   1   68.79    5.00 
   4   4  -1   64.59    5.50 
   4   4  -1   67.79    2.80 
  -3  -4   1  102.79    6.20 
  -3  -4   1   89.29    4.30 
   3  -4  -1   82.89    5.10 
   3  -4  -1   89.89    5.30 
  -3  -4   1   92.39    4.20 
   3  -4  -1   83.39    5.20 
  -3  -4   1   86.59    4.20 
  -3  -4   1   89.29    4.70 
   3  -4  -1   79.89    5.10 
  -3  -4   1   88.49    4.10 
   3  -4  -1   87.19    5.30 
   3   4  -1   98.29    5.60 
   3   4  -1   90.89    3.60 
  -3   4   1   83.39    4.90 
  -3   4   1   88.69    5.30 
   3   4  -1   93.99    4.00 
  -3   4   1   91.59    4.60 
  -3   4   1   96.29    5.60 
  -3   4   1   92.79    4.90 
  -2  -4   1  440.96   11.60 
  -2  -4   1  441.96   13.00 
  -2  -4   1  431.86   11.60 
  -2  -4   1  425.06   11.30 
   2  -4  -1  438.86   12.30 
  -2  -4   1  431.76   11.40 
   2  -4  -1  429.96   12.40 
   2  -4  -1  421.96   12.50 
   2  -4  -1  438.76   12.40 
   2  -4  -1  438.96   13.20 
  -2  -4   1  430.86   12.60 
   2  -4  -1  425.86   12.50 
   2   4  -1  450.25   11.00 
  -2   4   1  448.16   12.30 
  -2   4   1  449.46   12.00 
   2   4  -1  437.56   13.50 
  -2   4   1  456.15   12.80 
  -2   4   1  448.96   13.40 
   2   4  -1  438.16   12.80 
  -2   4   1  451.05   12.00 
  -2   4   1  459.05   12.60 
   1  -4  -1   31.70    3.60 
  -1  -4   1   26.90    2.20 
   1  -4  -1   29.00    2.30 
  -1  -4   1   30.80    2.40 
   1  -4  -1   31.60    2.50 
  -1  -4   1   33.10    2.80 
   1  -4  -1   28.00    2.30 
  -1  -4   1   28.30    2.20 
   1  -4  -1   27.40    2.40 
  -1  -4   1   26.80    2.20 
   1  -4  -1   30.30    3.00 
   1   4  -1   34.00    2.20 
   1   4  -1   34.20    3.00 
  -1   4   1   31.60    1.60 
   1   4  -1   30.20    3.30 
   1   4  -1   32.30    1.80 
  -1   4   1   31.20    3.20 
  -1   4   1   37.80    2.80 
  -1   4   1   27.40    3.40 
  -1   4   1   32.50    2.40 
  -1   4   1   28.70    1.60 
   0  -4  -1  185.18    5.20 
   0  -4   1  199.88    7.00 
   0  -4   1  195.58    6.20 
   0  -4  -1  184.48    6.70 
   0  -4   1  190.08    6.00 
   0  -4   1  188.68    5.90 
   0  -4  -1  192.48    7.50 
   0  -4  -1  195.98    5.20 
   0  -4   1  191.58    5.90 
   0  -4  -1  190.08    4.70 
   0  -4  -1  193.58    4.80 
   0  -4   1  188.78    6.20 
   0  -4   1  190.88    6.10 
   0  -4  -1  190.88    6.80 
   0   4   1  198.08    7.10 
   0   4  -1  177.18    7.40 
   0   4  -1  186.98    5.20 
   0   4  -1  186.68    5.20 
   0   4   1  183.78    4.90 
   0   4   1  185.58    7.30 
  -1  -4  -1  390.06    9.20 
   1  -4   1  386.16   11.20 
   1  -4   1  372.16   11.00 
   1  -4   1  388.46   11.00 
  -1  -4  -1  392.26   11.90 
   1  -4   1  381.66   10.90 
  -1  -4  -1  387.26   11.50 
  -1  -4  -1  375.66    9.20 
  -1  -4  -1  381.86   11.60 
   1  -4   1  395.96   11.20 
   1  -4   1  394.76   11.20 
  -1   4  -1  374.86   10.60 
  -1   4  -1  372.76   10.90 
   1   4   1  397.26   11.90 
  -1   4  -1  384.66   10.60 
   1   4   1  391.26   11.50 
  -1   4  -1  393.96   11.10 
   1   4   1  379.26   11.90 
  -1   4  -1  374.06   12.00 
   2  -4   1  268.27    8.90 
  -2  -4  -1  263.77    7.20 
  -2  -4  -1  264.77    6.90 
  -2  -4  -1  268.37    9.10 
   2  -4   1  275.87    9.60 
  -2  -4  -1  267.37    8.80 
  -2  -4  -1  255.87    6.80 
   2  -4   1  267.27    9.00 
   2  -4   1  275.57    9.10 
   2  -4   1  263.27    8.80 
   2  -4   1  261.17    9.10 
   2  -4   1  258.77    8.70 
  -2  -4  -1  255.17    9.10 
  -2  -4  -1  260.37    7.10 
  -2   4  -1  267.67    8.90 
   2   4   1  256.57    6.70 
   2   4   1  251.47    8.90 
   2   4   1  272.47    6.80 
  -2   4  -1  252.27    8.70 
  -2   4  -1  248.58    8.50 
   2   4   1  250.97    9.10 
   3  -4   1  172.68    7.50 
  -3  -4  -1  164.88    6.60 
  -3  -4  -1  163.28    5.60 
   3  -4   1  161.58    7.30 
   3  -4   1  190.68    7.80 
  -3  -4  -1  160.48    5.90 
  -3  -4  -1  171.68    5.80 
   3  -4   1  166.98    7.30 
   3  -4   1  178.68    7.30 
  -3  -4  -1  166.08    5.90 
  -3  -4  -1  175.38    6.00 
   3  -4   1  171.78    7.60 
   3   4   1  168.38    5.60 
  -3   4  -1  154.48    7.10 
  -3   4  -1  175.38    7.10 
   3   4   1  178.48    8.00 
   3   4   1  177.98    5.70 
  -3   4  -1  191.88    7.50 
   3   4   1  174.08    6.90 
   3   4   1  174.58    5.00 
   4  -4   1   36.90    4.60 
  -4  -4  -1   39.00    3.50 
   4  -4   1   35.10    4.00 
  -4  -4  -1   33.60    3.20 
  -4  -4  -1   37.70    3.50 
   4  -4   1   37.30    3.90 
   4  -4   1   40.00    4.50 
  -4  -4  -1   42.00    3.50 
   4  -4   1   36.70    4.60 
  -4  -4  -1   40.80    3.60 
  -4  -4  -1   36.50    3.30 
   4   4   1   38.90    4.90 
  -4   4  -1   39.20    4.50 
  -4   4  -1   38.20    4.40 
   4   4   1   39.10    3.30 
  -4   4  -1   34.60    4.20 
   4   4   1   32.30    2.60 
   5  -4   1   60.29    6.10 
   5  -4   1   61.39    5.90 
   5  -4   1   73.29    6.20 
   5  -4   1   57.69    5.60 
  -5  -4  -1   61.09    4.70 
  -5  -4  -1   63.99    5.10 
  -5  -4  -1   67.79    5.30 
   5   4   1   60.39    2.90 
   5   4   1   61.19    4.70 
   5   4   1   76.89    6.70 
  -5   4  -1   67.79    6.20 
  -5   4  -1   65.99    6.00 
   5   4   1   53.39    3.80 
   5   4   1   58.89    2.90 
  -5   4  -1   54.79    6.20 
   6  -4   1   58.69    6.60 
   6  -4   1   50.69    5.50 
  -6  -4  -1   44.70    4.90 
   6  -4   1   57.49    6.90 
  -6  -4  -1   47.70    4.90 
  -6  -4  -1   56.69    5.30 
   6  -4   1   70.49    7.00 
  -6   4  -1   54.99    6.40 
  -6   4  -1   49.20    6.40 
   6   4   1   61.89    5.10 
  -6   4  -1   47.60    6.10 
   6   4   1   63.49    6.90 
   6   4   1   61.49    3.70 
   7  -4   1    9.60    4.00 
   7  -4   1    9.40    4.00 
  -7  -4  -1    4.70    3.50 
   7  -4   1    6.60    4.10 
   7  -4   1    2.40    4.60 
  -7  -4  -1    6.00    3.80 
  -7  -4  -1    2.60    4.00 
   7   4   1    1.10    3.10 
  -7   4  -1    0.90    4.70 
  -7   4  -1    3.00    4.40 
  -7   4  -1    2.00    4.50 
   7   4   1    6.80    4.80 
  -8  -4  -1   60.19    6.70 
  -8  -4  -1   72.19    7.30 
   8  -4   1   60.89    6.70 
   8  -4   1   58.19    8.10 
  -8  -4  -1   66.09    7.10 
   8  -4   1   57.19    7.70 
  -8   4  -1   67.29    7.80 
   8   4   1   53.69    7.70 
   9  -4   1   70.69    7.40 
   9  -4   1   49.80    8.30 
  -9  -4  -1   65.19    7.50 
   9  -4   1   69.69    8.60 
  -9  -4  -1   55.89    7.00 
   9   4   1   54.69    8.40 
  -9   4  -1   64.49    7.60 
  -9  -5   1   72.99    7.80 
   9  -5  -1   74.29    8.80 
   9  -5  -1   68.59    9.00 
  -9  -5   1   96.89    8.40 
  -9  -5   1   76.89    7.80 
  -9   5   1   73.19    9.30 
   9   5  -1   87.49    9.70 
  -9   5   1   85.19    8.80 
  -8  -5   1   29.80    5.30 
   8  -5  -1   26.00    5.50 
  -8  -5   1   33.90    5.20 
   8  -5  -1   38.20    6.80 
   8  -5  -1   32.30    6.50 
  -8  -5   1   30.40    5.30 
  -8   5   1   34.90    6.20 
   8   5  -1   27.00    5.60 
  -8   5   1   19.50    6.20 
   7  -5  -1   40.10    5.80 
  -7  -5   1   45.10    5.10 
  -7  -5   1   42.70    5.10 
   7  -5  -1   41.60    6.70 
   7  -5  -1   37.50    6.20 
  -7  -5   1   37.40    5.40 
  -7   5   1   50.69    6.20 
  -7   5   1   34.30    5.70 
   7   5  -1   38.90    6.60 
  -6  -5   1   43.30    4.90 
  -6  -5   1   48.80    5.00 
   6  -5  -1   51.39    5.70 
   6  -5  -1   40.70    5.30 
  -6  -5   1   44.40    4.70 
  -6   5   1   46.60    5.80 
  -6   5   1   52.19    6.30 
   6   5  -1   47.70    2.10 
   6   5  -1   50.59    6.40 
  -6   5   1   49.90    5.80 
  -5  -5   1  103.79    5.30 
  -5  -5   1   87.19    5.60 
  -5  -5   1  100.59    5.80 
   5  -5  -1   94.39    6.30 
  -5  -5   1  103.09    5.70 
   5  -5  -1  105.89    7.40 
   5  -5  -1  110.49    6.50 
  -5   5   1  101.09    6.60 
   5   5  -1   96.49    4.60 
  -5   5   1  100.49    6.60 
   5   5  -1  102.39    7.40 
  -5   5   1  101.59    7.20 
  -4  -5   1  334.47   10.30 
  -4  -5   1  342.87   10.80 
  -4  -5   1  339.47   10.20 
  -4  -5   1  344.97   10.30 
   4  -5  -1  325.67   11.70 
   4  -5  -1  335.27   12.00 
  -4  -5   1  316.37   10.30 
   4  -5  -1  323.07   11.60 
   4  -5  -1  341.47   11.60 
  -4   5   1  332.97   11.80 
  -4   5   1  333.77   11.40 
   4   5  -1  338.47    9.30 
   4   5  -1  324.87   11.70 
  -4   5   1  322.97   11.10 
  -3  -5   1  457.05   12.40 
   3  -5  -1  460.25   13.90 
   3  -5  -1  468.45   13.90 
   3  -5  -1  473.35   14.10 
  -3  -5   1  458.85   12.50 
  -3  -5   1  448.16   12.40 
  -3  -5   1  468.25   13.90 
  -3  -5   1  449.86   12.30 
   3  -5  -1  455.35   13.90 
   3   5  -1  449.46   11.30 
  -3   5   1  457.65   14.70 
  -3   5   1  456.05   13.20 
  -3   5   1  450.15   13.60 
   3   5  -1  471.85   12.20 
  -3   5   1  470.85   14.10 
   3   5  -1  439.96   14.10 
  -3   5   1  443.06   13.80 
   2  -5  -1  237.48    8.30 
   2  -5  -1  253.17    8.50 
  -2  -5   1  252.57    7.30 
  -2  -5   1  263.57    9.40 
  -2  -5   1  267.47    7.20 
   2  -5  -1  254.77    8.30 
  -2  -5   1  269.77    7.30 
  -2  -5   1  251.77    8.60 
   2  -5  -1  255.67    8.60 
   2  -5  -1  256.47    8.30 
  -2  -5   1  262.47    7.50 
   2   5  -1  246.78    8.80 
  -2   5   1  248.58    9.80 
  -2   5   1  254.27    8.30 
  -2   5   1  255.07    8.90 
  -2   5   1  246.88    7.60 
  -2   5   1  246.08    8.00 
   2   5  -1  252.17    9.80 
  -2   5   1  246.78    7.60 
  -1  -5   1   72.39    5.20 
   1  -5  -1   74.79    3.60 
   1  -5  -1   72.29    4.60 
  -1  -5   1   68.09    3.20 
  -1  -5   1   77.19    3.50 
   1  -5  -1   73.59    3.80 
   1  -5  -1   71.79    3.40 
  -1  -5   1   70.49    4.20 
  -1  -5   1   73.09    3.10 
   1  -5  -1   70.19    3.50 
   1  -5  -1   77.19    3.80 
  -1  -5   1   73.99    3.10 
   1   5  -1   76.49    5.50 
  -1   5   1   59.79    4.70 
   1   5  -1   69.29    4.30 
  -1   5   1   66.29    4.90 
  -1   5   1   62.79    3.40 
   1   5  -1   69.19    2.30 
  -1   5   1   74.29    3.00 
   0  -5  -1  192.98    5.10 
   0  -5   1  194.08    6.20 
   0  -5  -1  203.28    7.40 
   0  -5   1  184.48    6.30 
   0  -5  -1  197.78    7.30 
   0  -5   1  186.18    6.10 
   0  -5   1  186.08    6.30 
   0  -5   1  186.98    6.30 
   0  -5  -1  194.18    9.10 
   0  -5  -1  185.88    5.30 
   0  -5  -1  189.48    5.00 
   0  -5   1  193.78    8.50 
   0  -5   1  187.78    6.30 
   0  -5  -1  188.28    5.40 
   0   5  -1  196.38    6.20 
   0   5   1  182.18    8.20 
   0   5  -1  194.28    7.60 
   0   5   1  190.18    7.40 
   1  -5   1  180.28    6.50 
   1  -5   1  167.58    6.80 
   1  -5   1  168.68    6.70 
  -1  -5  -1  186.78    7.70 
  -1  -5  -1  177.98    7.20 
   1  -5   1  182.68    5.90 
  -1  -5  -1  180.38    7.30 
   1  -5   1  184.38    6.40 
   1  -5   1  182.38    6.80 
   1  -5   1  180.18    6.80 
   1   5   1  169.98    7.90 
   1   5   1  194.28    7.70 
   1   5   1  193.98    7.60 
  -1   5  -1  182.18    5.80 
  -1   5  -1  184.68    5.90 
  -1   5  -1  185.88    7.50 
  -2  -5  -1  258.07    6.50 
   2  -5   1  263.47    9.20 
  -2  -5  -1  256.77    7.00 
   2  -5   1  272.57    9.50 
   2  -5   1  268.67    9.30 
  -2  -5  -1  261.07    7.00 
  -2  -5  -1  261.47    9.60 
  -2  -5  -1  269.87    6.60 
   2  -5   1  269.27    9.20 
   2  -5   1  274.77    9.30 
  -2   5  -1  265.67    9.00 
   2   5   1  273.67    9.80 
   2   5   1  283.07   10.10 
  -2   5  -1  279.97   10.30 
  -2   5  -1  277.57    8.80 
   3  -5   1  121.19    6.50 
   3  -5   1  129.19    6.60 
   3  -5   1  107.69    6.20 
  -3  -5  -1  123.79    4.40 
   3  -5   1  117.49    6.60 
  -3  -5  -1  122.09    4.30 
   3  -5   1  126.29    6.60 
  -3  -5  -1  133.39    4.70 
  -3  -5  -1  117.49    4.60 
  -3  -5  -1  116.29    6.00 
  -3   5  -1  105.89    6.00 
   3   5   1  111.39    3.90 
   3   5   1  115.99    3.90 
  -3   5  -1  112.49    6.20 
   3   5   1  117.09    6.90 
  -3   5  -1  111.59    5.90 
   3   5   1  115.99    6.20 
  -4  -5  -1  322.47   10.10 
  -4  -5  -1  349.87   11.00 
   4  -5   1  333.37   11.90 
   4  -5   1  320.57   12.50 
   4  -5   1  327.17   12.20 
  -4  -5  -1  339.87   10.30 
   4  -5   1  341.97   12.40 
  -4  -5  -1  341.07   10.30 
  -4  -5  -1  327.17   10.20 
  -4   5  -1  334.47   12.00 
  -4   5  -1  316.87   11.70 
   4   5   1  341.37   12.40 
   4   5   1  357.56    9.90 
   5  -5   1  664.83   20.90 
   5  -5   1  686.33   21.20 
   5  -5   1  632.44   20.80 
  -5  -5  -1  691.93   18.90 
   5  -5   1  653.13   20.90 
  -5  -5  -1  683.93   18.60 
  -5  -5  -1  653.33   18.80 
  -5  -5  -1  670.93   18.90 
  -5   5  -1  711.63   21.00 
   5   5   1  689.13   21.20 
  -5   5  -1  654.83   20.30 
   5   5   1  668.23   18.40 
  -6  -5  -1   97.59    6.60 
   6  -5   1   88.09    8.40 
  -6  -5  -1   87.89    6.30 
   6  -5   1   83.79    7.30 
   6  -5   1   79.29    7.60 
  -6  -5  -1   97.89    6.40 
  -6   5  -1   91.09    7.50 
   6   5   1  100.79    8.40 
  -6   5  -1  103.79    7.90 
   7  -5   1   11.20    5.10 
   7  -5   1   12.80    4.30 
  -7  -5  -1   15.90    4.20 
  -7  -5  -1   16.60    4.30 
   7  -5   1   16.30    5.40 
   7  -5   1    7.00    4.20 
  -7  -5  -1    8.50    4.00 
  -7   5  -1   12.80    5.00 
   7   5   1    7.20    4.00 
   8  -5   1    5.50    4.50 
  -8  -5  -1   16.10    5.10 
   8  -5   1   15.60    6.00 
   8  -5   1   16.80    5.00 
  -8  -5  -1   16.00    4.70 
  -8   5  -1   22.40    5.90 
   8   5   1   24.20    6.30 
   9  -5   1    6.90    6.20 
  -9  -5  -1   12.20    5.50 
  -9  -5  -1    6.40    4.70 
   9   5   1   19.20    7.30 
  -9   5  -1   10.10    6.10 
  -9  -6   1   10.20    5.00 
   9  -6  -1   12.50    6.40 
  -9  -6   1    9.60    4.80 
   9  -6  -1   13.00    5.30 
  -9   6   1   10.10    5.60 
  -9   6   1   -0.20    5.60 
   9   6  -1    6.70    6.30 
   8  -6  -1   55.19    7.90 
   8  -6  -1   41.50    7.20 
  -8  -6   1   43.30    5.90 
   8  -6  -1   45.10    7.30 
  -8  -6   1   57.49    6.60 
  -8  -6   1   50.79    5.90 
  -8   6   1   51.19    7.80 
  -8   6   1   60.09    7.20 
   8   6  -1   60.89    8.00 
   7  -6  -1   45.80    6.80 
   7  -6  -1   60.49    7.30 
  -7  -6   1   43.90    5.30 
  -7  -6   1   40.90    5.20 
  -7  -6   1   54.09    5.80 
   7  -6  -1   45.40    7.00 
   7   6  -1   57.49    7.40 
  -7   6   1   41.60    5.90 
  -7   6   1   59.09    6.60 
   6  -6  -1   57.99    6.60 
   6  -6  -1   64.09    6.90 
   6  -6  -1   52.79    6.80 
  -6  -6   1   63.69    5.20 
  -6  -6   1   62.59    5.40 
  -6  -6   1   57.19    5.20 
   6   6  -1   63.69    7.20 
  -6   6   1   60.79    6.20 
  -6   6   1   60.99    6.00 
   5  -6  -1   62.79    6.40 
   5  -6  -1   57.99    6.20 
  -5  -6   1   74.99    4.90 
  -5  -6   1   73.09    5.10 
   5  -6  -1   76.39    6.70 
  -5  -6   1   68.29    5.00 
  -5   6   1   76.09    6.30 
  -5   6   1   65.79    5.70 
  -5   6   1   76.09    6.90 
   5   6  -1   67.49    6.70 
  -4  -6   1   96.29    4.80 
   4  -6  -1  102.29    6.60 
  -4  -6   1  110.29    4.90 
   4  -6  -1  103.69    6.40 
  -4  -6   1  101.39    5.00 
   4  -6  -1  105.09    6.80 
   4  -6  -1  107.19    6.70 
  -4  -6   1   94.29    4.90 
  -4   6   1   96.09    6.70 
  -4   6   1   85.19    5.60 
  -4   6   1  107.89    5.90 
  -4   6   1   88.29    5.80 
   4   6  -1  104.19    6.90 
   3  -6  -1  161.38    7.30 
   3  -6  -1  183.78    7.70 
  -3  -6   1  176.68    5.80 
   3  -6  -1  172.58    7.30 
  -3  -6   1  166.28    5.90 
  -3  -6   1  171.08    5.90 
   3  -6  -1  161.98    7.30 
  -3  -6   1  164.88    5.70 
  -3   6   1  174.48    7.80 
  -3   6   1  163.28    6.50 
  -3   6   1  172.38    7.40 
   3   6  -1  167.48    7.80 
   3   6  -1  173.68    5.30 
  -3   6   1  161.78    7.00 
  -2  -6   1  425.06   11.60 
  -2  -6   1  431.56   11.40 
   2  -6  -1  439.36   12.90 
   2  -6  -1  430.76   12.90 
  -2  -6   1  448.56   11.50 
   2  -6  -1  450.85   12.90 
  -2  -6   1  432.06   11.50 
   2  -6  -1  427.26   12.60 
   2  -6  -1  442.36   13.10 
  -2   6   1  434.36   11.30 
  -2   6   1  447.56   12.70 
  -2   6   1  440.26   13.80 
  -2   6   1  431.46   11.30 
   2   6  -1  440.06   14.60 
  -2   6   1  437.96   14.60 
   2   6  -1  422.86   13.30 
  -2   6   1  442.86   12.20 
   1  -6  -1   92.59    4.00 
   1  -6  -1   95.99    4.30 
   1  -6  -1   93.09    5.20 
   1  -6  -1   95.99    4.40 
   1  -6  -1   88.49    4.40 
  -1  -6   1   93.69    4.00 
  -1  -6   1   92.09    4.00 
  -1  -6   1   97.39    4.80 
   1  -6  -1   99.89    4.20 
  -1  -6   1   93.19    3.80 
  -1  -6   1   96.09    3.70 
   1  -6  -1   91.39    4.30 
   1   6  -1   88.69    5.60 
   1   6  -1  102.99    3.60 
  -1   6   1  102.19    5.70 
   1   6  -1   89.09    4.80 
  -1   6   1  102.19    6.80 
   0  -6  -1  253.67    7.10 
   0  -6   1  259.77    8.10 
   0  -6  -1  263.67    7.20 
   0  -6   1  249.68    8.00 
   0  -6  -1  262.77    6.90 
   0  -6   1  251.17    7.90 
   0  -6   1  260.77    8.30 
   0  -6  -1  261.37    7.00 
   0  -6   1  255.47    7.90 
   0  -6   1  273.77    8.20 
   0  -6  -1  253.07    6.90 
   0  -6  -1  264.87    6.90 
   0  -6   1  261.97    8.10 
   0   6   1  249.88    9.50 
   0   6   1  250.07   10.30 
   0   6  -1  265.87    9.80 
  -1  -6  -1  110.49    2.90 
   1  -6   1  109.69    5.30 
   1  -6   1  112.99    4.80 
   1  -6   1  119.39    5.40 
   1  -6   1  111.39    5.40 
   1  -6   1  106.79    5.20 
  -1  -6  -1  121.39    3.00 
   1  -6   1  124.09    5.50 
   1  -6   1  112.19    5.10 
  -1   6  -1  110.99    4.10 
  -1   6  -1  114.79    4.20 
   1   6   1  102.69    6.20 
   1   6   1  111.89    6.80 
  -1   6  -1  128.19    6.90 
   2  -6   1   86.19    5.10 
   2  -6   1   94.49    5.50 
   2  -6   1   81.49    5.20 
  -2  -6  -1   84.09    2.60 
   2  -6   1   90.99    5.60 
   2  -6   1   79.79    5.10 
  -2   6  -1   90.29    5.00 
   2   6   1   81.79    6.00 
  -2   6  -1   72.69    6.10 
  -2   6  -1   81.89    4.30 
  -2   6  -1   81.39    4.50 
   2   6   1   82.19    5.90 
   3  -6   1   50.09    4.80 
  -3  -6  -1   49.30    2.70 
   3  -6   1   50.29    4.90 
  -3  -6  -1   46.80    2.60 
  -3  -6  -1   45.50    2.80 
   3  -6   1   40.30    4.50 
   3  -6   1   43.70    4.90 
   3  -6   1   48.20    4.70 
  -3   6  -1   43.30    4.30 
   3   6   1   52.99    5.10 
  -3   6  -1   44.20    5.40 
  -3   6  -1   56.19    4.70 
  -3   6  -1   48.90    4.10 
  -4  -6  -1   25.60    2.90 
  -4  -6  -1   20.70    2.70 
  -4  -6  -1   27.30    2.90 
   4  -6   1   23.70    4.60 
   4  -6   1   22.70    4.20 
   4  -6   1   15.50    4.10 
   4  -6   1   21.60    4.40 
   4   6   1   26.70    4.40 
  -4   6  -1   18.10    3.70 
  -4   6  -1   25.90    4.20 
   4   6   1   24.80    2.00 
   5  -6   1   81.39    7.30 
   5  -6   1   72.29    7.20 
  -5  -6  -1   73.09    5.10 
   5  -6   1   75.99    7.10 
  -5  -6  -1   83.89    5.20 
  -5   6  -1   75.39    6.60 
   5   6   1   68.69    6.70 
   6  -6   1   36.70    6.20 
  -6  -6  -1   28.30    4.10 
   6  -6   1   46.90    6.70 
   6  -6   1   36.60    6.00 
  -6  -6  -1   44.70    4.80 
  -6   6  -1   36.50    5.90 
   6   6   1   35.70    5.50 
   7  -6   1   46.00    7.10 
   7  -6   1   32.30    6.30 
   7  -6   1   23.20    4.60 
   7  -6   1   33.60    6.80 
  -7  -6  -1   34.30    5.10 
  -7  -6  -1   40.80    5.30 
   7   6   1   24.80    6.30 
  -7   6  -1   34.40    6.00 
   8  -6   1   51.99    8.00 
   8  -6   1   50.49    8.10 
  -8  -6  -1   50.19    6.10 
   8   6   1   62.89    8.50 
  -8   6  -1   55.49    7.50 
   8  -7  -1    9.70    5.70 
   8  -7  -1    7.20    5.50 
  -8  -7   1    7.30    3.90 
   8  -7  -1    2.00    5.20 
  -8  -7   1    4.70    3.80 
  -8   7   1    2.00    5.00 
  -8   7   1   16.50    5.80 
   8   7  -1    4.70    5.70 
   7  -7  -1    1.40    4.80 
  -7  -7   1    6.40    3.40 
  -7  -7   1    5.10    3.50 
   7  -7  -1   12.40    5.70 
   7  -7  -1    7.20    4.90 
  -7   7   1    4.20    4.60 
   7   7  -1    9.00    5.10 
  -7   7   1   12.60    5.00 
  -6  -7   1   49.20    4.80 
   6  -7  -1   45.90    6.60 
   6  -7  -1   43.80    6.30 
  -6  -7   1   36.30    4.30 
   6  -7  -1   45.30    6.40 
  -6  -7   1   42.30    4.30 
  -6   7   1   41.90    5.30 
   6   7  -1   39.90    5.70 
  -6   7   1   46.80    6.30 
   5  -7  -1   39.60    5.50 
   5  -7  -1   35.60    5.30 
  -5  -7   1   34.60    3.60 
   5  -7  -1   43.40    5.80 
  -5  -7   1   36.30    4.00 
  -5  -7   1   32.90    3.50 
  -5   7   1   34.30    5.30 
   5   7  -1   38.20    5.60 
  -5   7   1   37.40    4.80 
  -5   7   1   31.00    5.00 
   4  -7  -1   54.59    5.90 
   4  -7  -1   48.00    5.30 
  -4  -7   1   38.70    3.30 
   4  -7  -1   45.90    5.10 
  -4  -7   1   47.80    3.80 
   4  -7  -1   43.20    5.20 
  -4  -7   1   47.50    3.50 
  -4  -7   1   47.90    3.70 
   4  -7  -1   44.70    5.10 
  -4   7   1   55.49    5.70 
  -4   7   1   53.99    5.30 
  -4   7   1   44.10    4.30 
  -4   7   1   40.90    4.40 
   4   7  -1   45.70    5.60 
  -4   7   1   44.60    4.20 
   3  -7  -1  486.85   14.80 
   3  -7  -1  462.85   14.60 
  -3  -7   1  476.25   12.90 
   3  -7  -1  471.75   14.90 
  -3  -7   1  494.55   12.90 
  -3  -7   1  497.15   12.60 
  -3  -7   1  484.55   12.80 
   3  -7  -1  493.05   15.00 
   3  -7  -1  486.15   14.90 
  -3   7   1  473.65   13.20 
  -3   7   1  481.45   15.50 
  -3   7   1  463.95   13.20 
   3   7  -1  482.45   15.50 
   3   7  -1  452.45   16.00 
  -3   7   1  479.25   14.70 
   3   7  -1  426.76   11.30 
  -3   7   1  485.45   14.10 
   2  -7  -1  173.08    7.20 
   2  -7  -1  183.68    7.20 
   2  -7  -1  174.28    7.00 
   2  -7  -1  171.18    7.30 
   2  -7  -1  192.28    7.30 
  -2  -7   1  181.28    5.80 
  -2  -7   1  170.48    5.70 
  -2  -7   1  179.08    5.50 
  -2  -7   1  170.88    5.80 
  -2   7   1  173.78    6.20 
   2   7  -1  190.78    9.30 
  -2   7   1  183.98    8.30 
   2   7  -1  180.08    7.80 
  -1  -7   1   13.70    1.90 
   1  -7  -1   15.40    2.30 
   1  -7  -1   18.40    2.50 
   1  -7  -1   17.60    2.40 
  -1  -7   1   17.00    2.20 
  -1  -7   1   16.80    2.10 
   1  -7  -1   15.10    2.30 
  -1  -7   1   17.20    2.00 
   1  -7  -1   10.90    2.10 
   1  -7  -1   15.80    2.40 
  -1  -7   1   25.40    3.10 
  -1  -7   1   18.00    2.10 
  -1  -7   1   14.30    2.00 
  -1   7   1   15.70    3.60 
  -1   7   1   16.50    3.70 
   1   7  -1   12.00    3.80 
   0  -7   1   23.30    2.90 
   0  -7   1   27.60    2.90 
   0  -7  -1   28.40    2.10 
   0  -7  -1   25.20    2.00 
   0  -7   1   26.00    2.70 
   0  -7  -1   27.50    2.20 
   0  -7  -1   24.90    1.90 
   0  -7   1   25.60    2.80 
   0  -7   1   27.70    2.70 
   0  -7  -1   26.80    2.20 
   0  -7   1   26.60    2.90 
   0  -7   1   24.70    2.80 
   0  -7  -1   27.60    2.00 
   0   7   1   30.70    4.20 
   0   7   1   24.90    4.70 
   0   7  -1   27.80    4.00 
   1  -7   1   37.80    3.50 
  -1  -7  -1   30.50    1.30 
   1  -7   1   32.70    3.50 
   1  -7   1   38.60    3.20 
   1  -7   1   29.20    3.50 
  -1  -7  -1   32.10    1.30 
   1  -7   1   28.70    3.30 
   1  -7   1   32.20    3.40 
   1   7   1   25.90    4.30 
  -1   7  -1   23.40    4.40 
   1   7   1   25.30    4.20 
   2  -7   1   53.99    4.70 
   2  -7   1   52.39    4.50 
   2  -7   1   47.40    3.70 
   2  -7   1   50.29    4.80 
   2  -7   1   46.20    4.30 
   2  -7   1   42.30    4.60 
  -2   7  -1   49.50    3.70 
   2   7   1   52.79    5.50 
  -2   7  -1   43.60    3.40 
  -2   7  -1   41.30    5.30 
   3  -7   1   57.39    5.20 
   3  -7   1   58.09    5.40 
   3  -7   1   70.29    5.80 
   3  -7   1   53.79    5.30 
  -3  -7  -1   60.69    2.80 
   3  -7   1   50.39    5.40 
  -3  -7  -1   61.39    2.70 
  -3  -7  -1   63.09    2.90 
  -3   7  -1   53.69    4.70 
  -3   7  -1   66.49    6.60 
  -3   7  -1   53.29    4.50 
  -3   7  -1   58.29    4.60 
   3   7   1   56.79    5.70 
   4  -7   1  193.18    9.50 
  -4  -7  -1  193.38    6.80 
   4  -7   1  182.48    9.50 
  -4  -7  -1  190.88    6.60 
   4  -7   1  197.28    9.70 
  -4   7  -1  204.48    8.90 
   4   7   1  195.48    9.60 
  -4   7  -1  172.28   10.10 
   5  -7   1  288.27   12.80 
  -5  -7  -1  279.77   10.90 
   5  -7   1  300.67   12.80 
  -5  -7  -1  272.87    9.60 
   5  -7   1  302.47   12.90 
  -5   7  -1  301.07   11.70 
   5   7   1  278.87   13.00 
   6  -7   1  139.59    9.80 
   6  -7   1  121.69    9.50 
  -6  -7  -1  121.69    6.70 
   6  -7   1  118.59    9.20 
   6   7   1  133.49   10.00 
  -6   7  -1  130.59    8.50 
   7  -7   1   20.80    6.20 
  -7  -7  -1   22.90    4.30 
   7  -7   1   17.50    5.00 
   7  -7   1   17.80    6.00 
  -7   7  -1   27.00    5.60 
   7   7   1    8.20    4.60 
   8  -7   1   24.70    7.10 
  -8  -7  -1   29.10    5.00 
   8  -7   1   23.30    6.90 
   8   7   1   18.00    6.80 
  -8   7  -1   26.50    6.10 
   8  -8  -1   30.80    7.10 
  -8  -8   1   31.80    4.80 
   8  -8  -1   27.40    6.70 
   8  -8  -1   25.80    7.10 
  -8  -8   1   30.20    4.80 
  -8   8   1   37.00    6.10 
   8   8  -1   35.30    7.30 
   7  -8  -1   27.70    6.40 
  -7  -8   1   13.30    3.60 
   7  -8  -1   19.40    5.80 
  -7  -8   1   18.80    3.80 
   7  -8  -1   23.10    6.00 
  -7   8   1   18.60    5.30 
   7   8  -1   16.10    5.80 
  -7   8   1    6.40    5.40 
  -6  -8   1   37.30    4.30 
   6  -8  -1   39.20    6.20 
   6  -8  -1   38.60    6.40 
  -6  -8   1   38.10    4.00 
   6  -8  -1   45.00    6.60 
  -6   8   1   48.00    5.70 
  -6   8   1   25.20    5.50 
  -6   8   1   39.40    6.30 
   6   8  -1   48.10    6.70 
   5  -8  -1   42.10    6.00 
  -5  -8   1   52.79    4.00 
  -5  -8   1   54.69    4.30 
   5  -8  -1   46.30    6.10 
   5  -8  -1   54.09    6.40 
  -5   8   1   55.09    6.60 
   5   8  -1   58.49    6.70 
  -5   8   1   58.29    6.30 
  -5   8   1   66.29    5.40 
  -4  -8   1   26.40    2.40 
  -4  -8   1   28.50    2.90 
   4  -8  -1   21.20    4.70 
   4  -8  -1   23.20    4.30 
   4  -8  -1   18.00    4.70 
  -4  -8   1   25.40    3.10 
  -4   8   1   28.10    4.70 
  -4   8   1   31.40    5.20 
  -4   8   1   21.40    3.30 
   4   8  -1   30.00    5.00 
   3  -8  -1  114.59    6.50 
   3  -8  -1   86.69    5.90 
   3  -8  -1  103.59    6.40 
  -3  -8   1   96.19    4.50 
  -3  -8   1  104.59    3.70 
   3  -8  -1  115.49    6.90 
  -3  -8   1   98.99    4.30 
  -3   8   1   97.79    7.10 
  -3   8   1   98.09    6.10 
   3   8  -1   88.89    6.80 
  -3   8   1   98.69    4.10 
   3   8  -1  112.99    8.40 
  -2  -8   1  517.15   13.70 
  -2  -8   1  496.75   13.60 
   2  -8  -1  527.35   15.30 
   2  -8  -1  515.35   15.30 
   2  -8  -1  519.65   15.40 
  -2  -8   1  534.85   13.20 
   2  -8  -1  517.85   15.10 
  -2  -8   1  512.45   13.80 
   2  -8  -1  511.05   15.20 
   2   8  -1  528.65   16.30 
  -2   8   1  516.55   16.80 
   2   8  -1  531.45   17.60 
   1  -8  -1  535.55   14.20 
   1  -8  -1  515.65   14.20 
   1  -8  -1  489.25   14.20 
  -1  -8   1  518.15   13.60 
  -1  -8   1  506.05   13.70 
  -1  -8   1  515.65   13.90 
   1  -8  -1  518.25   14.40 
  -1  -8   1  501.65   13.50 
   1  -8  -1  494.65   14.00 
  -1  -8   1  511.35   13.90 
  -1  -8   1  513.15   13.90 
   1  -8  -1  529.25   14.50 
  -1   8   1  527.15   16.70 
   1   8  -1  492.85   17.00 
   0  -8   1  183.08    7.00 
   0  -8  -1  196.48    6.30 
   0  -8  -1  185.08    5.50 
   0  -8   1  194.88    7.20 
   0  -8  -1  200.08    6.20 
   0  -8  -1  207.58    5.70 
   0  -8   1  194.88    8.50 
   0  -8   1  203.98    7.80 
   0  -8   1  197.38    7.10 
   0  -8   1  187.28    6.90 
   0  -8  -1  197.18    6.20 
   0  -8   1  188.98    7.10 
   0  -8  -1  186.58    6.10 
   0   8  -1  209.38   10.00 
   0   8   1  203.88    9.30 
  -1  -8  -1  203.58    5.40 
  -1  -8  -1  214.48    5.50 
   1  -8   1  205.28    8.10 
   1  -8   1  213.78    8.20 
   1  -8   1  214.48    8.10 
   1  -8   1  221.78    8.20 
  -1  -8  -1  199.68    5.40 
   1  -8   1  216.48    7.90 
  -1  -8  -1  211.78    5.50 
   1  -8   1  206.58    8.20 
  -1   8  -1  216.98    9.70 
   1   8   1  198.58    9.70 
   2  -8   1  162.78    6.60 
   2  -8   1  147.49    7.60 
   2  -8   1  151.28    7.50 
   2  -8   1  153.08    7.40 
   2  -8   1  170.58    7.60 
   2  -8   1  144.79    7.20 
  -2   8  -1  156.48    5.40 
   2   8   1  167.78    8.30 
  -2   8  -1  172.18    9.30 
  -2   8  -1  153.98    5.40 
   3  -8   1   37.70    5.00 
   3  -8   1   39.90    5.20 
  -3  -8  -1   35.90    1.80 
   3  -8   1   36.40    4.90 
  -3   8  -1   36.00    5.70 
   3   8   1   43.80    5.70 
  -3   8  -1   32.50    3.70 
   4  -8   1    7.90    3.90 
  -4  -8  -1   11.70    2.00 
   4  -8   1   12.50    4.40 
   4  -8   1   16.40    4.60 
  -4   8  -1   10.80    4.90 
   4   8   1   12.60    4.80 
  -4   8  -1   11.80    3.60 
   5  -8   1   45.70    6.30 
  -5  -8  -1   34.90    3.40 
   5  -8   1   43.20    6.20 
   5  -8   1   44.70    6.30 
  -5   8  -1   40.10    5.20 
   5   8   1   26.20    5.80 
  -5   8  -1   31.10    6.40 
   6  -8   1   25.10    5.90 
   6  -8   1   19.20    4.80 
  -6  -8  -1   20.70    3.50 
   6  -8   1   20.20    5.80 
  -6   8  -1   23.50    6.50 
  -6   8  -1   31.60    5.20 
   6   8   1   26.70    6.20 
  -7  -8  -1   94.89    6.70 
   7  -8   1   88.99    9.40 
   7  -8   1   99.89    9.70 
   7  -8   1   98.39    9.80 
   7   8   1  119.89   10.90 
  -7   8  -1  109.89    9.20 
   7  -9  -1    1.30    4.90 
   7  -9  -1    6.60    5.50 
   7  -9  -1   -1.70    4.70 
  -7  -9   1    1.50    3.00 
  -7   9   1   -0.10    3.50 
   7   9  -1    6.10    5.40 
  -7   9   1   -4.20    4.70 
  -6  -9   1   18.00    3.40 
   6  -9  -1   10.30    5.50 
   6  -9  -1   14.90    5.30 
   6  -9  -1   12.90    5.70 
  -6   9   1   16.90    5.50 
   6   9  -1   25.00    6.10 
  -6   9   1   24.20    4.40 
  -5  -9   1   28.40    3.30 
   5  -9  -1   30.10    5.40 
   5  -9  -1   28.50    5.60 
   5  -9  -1   35.70    5.80 
   5   9  -1   29.90    5.50 
  -5   9   1   25.90    3.90 
  -5   9   1   41.90    6.10 
  -4  -9   1   39.00    3.10 
   4  -9  -1   38.70    5.70 
   4  -9  -1   31.00    5.00 
   4  -9  -1   33.60    4.90 
   4   9  -1   35.80    5.60 
  -4   9   1   35.60    5.60 
  -3  -9   1  188.08    6.40 
   3  -9  -1  213.58    9.40 
   3  -9  -1  211.28    8.80 
   3  -9  -1  193.38    8.80 
   3   9  -1  187.08    9.90 
   3   9  -1  195.58   11.20 
  -3   9   1  184.18    9.80 
   2  -9  -1  106.89    5.90 
  -2  -9   1   98.09    3.20 
  -2  -9   1  106.09    3.30 
   2  -9  -1  102.49    6.10 
  -2  -9   1  104.19    4.40 
   2  -9  -1  101.19    5.90 
   2  -9  -1   99.39    6.20 
  -2  -9   1   92.49    4.30 
  -2   9   1   98.39    7.30 
   2   9  -1  104.49    8.50 
   1  -9  -1   40.10    3.70 
  -1  -9   1   36.00    3.30 
   1  -9  -1   38.60    3.30 
  -1  -9   1   34.50    3.10 
   1  -9  -1   39.00    3.50 
  -1  -9   1   35.10    3.00 
  -1  -9   1   36.10    3.10 
  -1  -9   1   35.70    2.90 
   1  -9  -1   37.70    3.60 
  -1   9   1   30.60    5.00 
   1   9  -1   29.60    5.00 
   0  -9  -1   66.19    2.60 
   0  -9   1   76.69    4.80 
   0  -9  -1   71.29    3.90 
   0  -9   1   76.79    4.80 
   0  -9  -1   71.59    3.70 
   0  -9  -1   69.19    3.70 
   0  -9  -1   79.29    2.70 
   0  -9   1   77.69    4.50 
   0   9   1   70.59    6.80 
   0   9  -1   71.09    7.10 
   1  -9   1   33.80    4.00 
  -1  -9  -1   27.70    1.50 
   1  -9   1   28.60    3.70 
  -1  -9  -1   26.10    1.50 
   1  -9   1   32.90    3.90 
   1  -9   1   27.30    3.80 
   1   9   1   36.30    5.00 
  -1   9  -1   28.30    5.50 
   2  -9   1   51.69    5.20 
   2  -9   1   61.99    5.50 
   2  -9   1   47.40    4.90 
  -2   9  -1   49.90    6.40 
   3  -9   1   46.30    5.50 
   3  -9   1   44.40    5.30 
   3  -9   1   42.90    5.70 
  -3   9  -1   37.20    6.30 
   3   9   1   40.20    6.10 
  -3   9  -1   41.20    3.50 
   4  -9   1   87.59    7.50 
   4  -9   1   72.69    7.00 
  -4  -9  -1   84.49    3.30 
   4  -9   1   77.39    7.30 
  -4   9  -1   80.89    5.90 
  -4   9  -1   79.39    7.70 
   4   9   1   71.19    7.70 
   5  -9   1   46.90    6.60 
   5  -9   1   50.59    6.90 
   5  -9   1   44.90    6.40 
  -5  -9  -1   52.49    3.80 
  -5   9  -1   47.20    5.30 
   5   9   1   54.09    7.30 
  -5   9  -1   67.89    8.00 
   6  -9   1   56.29    7.50 
  -6  -9  -1   57.49    4.60 
   6  -9   1   64.49    7.70 
   6  -9   1   62.69    7.80 
   6   9   1   57.39    8.00 
  -6   9  -1   42.50    5.90 
  -6   9  -1   53.69    8.00 
   7  -9   1   40.50    7.30 
   7  -9   1   51.09    7.90 
  -7  -9  -1   33.50    4.80 
   7  -9   1   34.50    7.20 
   7   9   1   47.40    8.10 
  -7   9  -1   36.60    8.00 
  -7   9  -1   35.30    6.20 
   6 -10  -1   87.59    8.70 
   6 -10  -1   97.69    9.10 
   6 -10  -1  122.19    9.30 
  -6 -10   1   97.79    5.70 
   6  10  -1   90.69    9.20 
  -6  10   1   99.89    9.70 
  -5 -10   1   38.10    3.30 
   5 -10  -1   36.20    5.90 
   5 -10  -1   38.00    5.80 
   5 -10  -1   29.20    5.40 
   5  10  -1   25.20    5.90 
  -5  10   1   34.10    6.10 
   4 -10  -1   -0.40    3.30 
   4 -10  -1    4.50    3.60 
  -4 -10   1    2.20    1.80 
   4 -10  -1    0.10    3.80 
  -4  10   1    3.00    4.50 
   4  10  -1    3.10    4.40 
   3 -10  -1   20.70    4.30 
   3 -10  -1   16.90    4.20 
  -3 -10   1   19.20    2.20 
   3 -10  -1   18.00    4.00 
  -3 -10   1   18.30    2.10 
   3  10  -1   16.90    4.50 
   3  10  -1   15.90    4.80 
  -3  10   1   22.80    4.90 
   2 -10  -1   40.00    4.60 
  -2 -10   1   32.60    2.80 
   2 -10  -1   37.70    4.30 
  -2 -10   1   33.50    2.80 
   2 -10  -1   36.90    4.20 
   2  10  -1   35.60    6.30 
  -2  10   1   31.10    5.50 
   1 -10  -1  217.88    7.30 
  -1 -10   1  202.08    7.30 
   1 -10  -1  219.78    8.10 
  -1 -10   1  209.98    7.40 
   1 -10  -1  204.48    7.90 
  -1 -10   1  206.28    6.50 
  -1  10   1  205.88   10.70 
   1  10  -1  216.68   11.60 
   0 -10  -1  169.78    6.10 
   0 -10   1  190.78    7.00 
   0 -10   1  174.58    7.30 
   0 -10   1  176.08    7.40 
   0 -10  -1  180.08    6.30 
   0  10  -1  201.48   10.90 
   0  10   1  184.78   10.20 
   1 -10   1  116.09    6.40 
   1 -10   1  109.79    6.50 
  -1 -10  -1  110.69    3.00 
   1 -10   1  109.39    6.30 
  -1  10  -1   95.59    8.50 
   1  10   1   85.39    8.00 
   2 -10   1   98.49    6.60 
   2 -10   1   90.69    6.70 
   2 -10   1  110.79    7.30 
  -2  10  -1  100.69    8.70 
   3 -10   1   18.10    4.50 
   3 -10   1   12.80    3.90 
   3 -10   1   16.20    4.30 
  -3  10  -1   19.30    5.70 
   4 -10   1   17.70    4.80 
   4 -10   1   20.70    4.70 
   4 -10   1   17.30    4.80 
   4  10   1   19.10    5.70 
  -4  10  -1   13.60    5.50 
   5 -10   1   25.70    6.00 
   5 -10   1   34.40    6.30 
  -5 -10  -1   38.10    2.70 
   5 -10   1   27.40    5.80 
  -5  10  -1   20.70    6.40 
   5  10   1   38.10    6.80 
  -6 -10  -1   31.60    3.30 
   6 -10   1   38.60    7.00 
   6 -10   1   35.30    6.60 
   6 -10   1   36.80    7.00 
   6  10   1   38.90    7.40 
  -6  10  -1   24.70    6.80 
  -5 -11   1   70.29    3.80 
   5 -11  -1   62.79    7.50 
   5 -11  -1   61.29    6.90 
   5 -11  -1   53.99    7.10 
  -5  11   1   78.09    8.70 
   5  11  -1   70.69    8.20 
  -4 -11   1   34.00    2.60 
   4 -11  -1   28.00    5.30 
  -4 -11   1   33.50    2.50 
   4 -11  -1   30.30    5.00 
  -4  11   1   35.00    6.00 
   4  11  -1   32.90    5.90 
  -3 -11   1    3.90    1.50 
   3 -11  -1    7.10    3.60 
   3 -11  -1   10.90    3.70 
  -3 -11   1    7.90    1.60 
  -3  11   1    6.90    4.30 
  -2 -11   1   76.09    3.90 
   2 -11  -1   74.39    6.00 
  -2 -11   1   79.59    3.90 
   2 -11  -1   73.89    5.30 
  -2  11   1   79.59    7.90 
   2  11  -1   71.89    7.70 
   1 -11  -1   37.70    3.80 
  -1 -11   1   44.70    3.60 
  -1 -11   1   41.90    3.50 
   1 -11  -1   42.70    3.30 
   1 -11  -1   38.60    3.80 
  -1  11   1   38.00    6.10 
   1  11  -1   40.40    6.90 
   0 -11   1   19.70    2.80 
   0 -11  -1   14.40    2.20 
   0 -11  -1   22.30    2.50 
   0 -11   1   19.40    3.20 
   0  11  -1   22.10    5.70 
   0  11   1   18.70    5.10 
   1 -11   1   35.50    4.30 
   1 -11   1   37.90    4.20 
  -1  11  -1   29.90    6.20 
   1  11   1   29.00    5.90 
   2 -11   1   30.90    4.70 
   2 -11   1   34.00    4.80 
  -2  11  -1   33.00    6.30 
   3 -11   1   11.60    4.40 
   3 -11   1   10.50    4.60 
   3 -11   1   11.20    4.40 
  -3  11  -1   11.80    5.30 
   4 -11   1   21.40    5.20 
   4 -11   1   20.90    5.40 
   4 -11   1   35.10    6.50 
  -4  11  -1   40.10    7.00 
   5 -11   1   56.89    7.60 
   5 -11   1   51.29    7.00 
   5 -11   1   48.90    6.80 
  -5  11  -1   35.00    7.30 
   5  11   1   50.39    7.80 
   4 -12  -1    1.90    3.90 
   4 -12  -1   -4.80    4.00 
  -4  12   1    0.50    4.50 
   3 -12  -1    6.60    3.60 
   3 -12  -1    0.30    3.50 
  -3  12   1    3.20    4.70 
   2 -12  -1   16.00    3.40 
  -2 -12   1   15.60    2.00 
  -2 -12   1   15.40    2.00 
   2 -12  -1   18.00    3.80 
  -2  12   1   22.40    5.60 
   2  12  -1    8.20    5.50 
  -1 -12   1    7.80    2.20 
   1 -12  -1    7.30    2.70 
   1  12  -1    8.60    4.40 
  -1  12   1    1.30    4.70 
   0 -12  -1   58.79    3.60 
   0 -12   1   57.59    4.70 
   0 -12  -1   56.99    3.50 
   0  12  -1   66.09    8.20 
   0  12   1   58.19    7.60 
   1 -12   1   29.50    3.80 
   1 -12   1   27.20    4.20 
   1  12   1   39.30    6.90 
  -1  12  -1   27.80    5.70 
   2 -12   1  109.89    7.20 
   2 -12   1  114.09    7.50 
  -2  12  -1   91.89    9.50 
   3 -12   1   27.60    4.90 
   3 -12   1   11.40    4.60 
  -3  12  -1   21.40    6.10 
  -1 -13   1   36.80    3.30 
   1 -13  -1   44.00    4.00 
  -1  13   1   39.20    7.30 
   1  13  -1   45.20    8.00 
   0 -13   1   13.60    3.10 
   0 -13  -1   10.20    2.10 
   0 -13  -1   10.10    1.80 
   0  13  -1    5.50    5.90 
   0  13   1    8.60    5.50 
  -1  13  -1   16.70    6.00 
   1  13   1    4.50    5.60 
  10   0  -2   -1.70    5.60 
 -10   0   2   -4.30    5.00 
 -10   0   2   -5.50    4.60 
  10   0  -2   -5.20    5.20 
 -10   0   2    8.40    5.70 
  10   0  -2   12.50    5.80 
   9   0  -2   45.20    6.50 
  -9   0   2   44.80    6.90 
   9   0  -2   43.90    7.20 
  -9   0   2   51.29    7.10 
  -9   0   2   50.99    6.60 
   8   0  -2   19.10    4.90 
   8   0  -2   14.80    5.40 
  -8   0   2   20.60    5.30 
  -8   0   2   26.80    5.50 
  -8   0   2   28.40    5.10 
  -7   0   2   45.80    5.90 
  -7   0   2   46.60    5.60 
  -7   0   2   47.80    6.00 
   7   0  -2   55.49    5.90 
   7   0  -2   47.20    5.80 
   6   0  -2  327.97   12.20 
  -6   0   2  325.47   11.90 
  -6   0   2  318.97   11.80 
  -6   0   2  340.07   12.60 
   6   0  -2  331.37   12.10 
   5   0  -2    7.10    3.10 
  -5   0   2    7.90    2.50 
  -5   0   2   10.60    3.40 
  -5   0   2    7.80    1.50 
   5   0  -2    1.20    2.80 
  -5   0   2    7.00    3.10 
   5   0  -2    6.00    3.20 
  -4   0   2  172.48    5.70 
  -4   0   2  165.48    7.00 
   4   0  -2  167.58    7.20 
   4   0  -2  170.78    6.80 
  -4   0   2  171.88    7.30 
   4   0  -2  173.58    7.00 
   4   0  -2  179.98    7.90 
  -4   0   2  174.68    7.00 
  -3   0   2  703.73   19.10 
   3   0  -2  709.83   18.90 
   3   0  -2  724.03   19.00 
  -3   0   2  739.13   19.10 
   3   0  -2  717.53   19.20 
  -3   0   2  716.43   19.30 
  -2   0   2 2305.37   54.89 
   2   0  -2 2377.06   54.69 
   2   0  -2 2277.77   54.79 
   2   0  -2 2294.27   54.79 
  -2   0   2 2299.67   54.79 
   2   0  -2 2275.67   54.79 
  -2   0   2 2260.87   54.69 
  -1   0   2  460.45   12.20 
   1   0  -2  469.85   12.40 
   1   0  -2  472.35   12.30 
  -1   0   2  457.45   12.50 
   1   0  -2  468.95   12.30 
  -1   0   2  456.95   12.30 
   1   0  -2  463.25   11.40 
  -1   0   2  469.95   12.40 
  -1   0   2  472.35   11.40 
   0   0   2 2992.30   69.59 
   0   0   2 3009.00   69.69 
   0   0  -2 2877.01   69.69 
   0   0  -2 2936.51   69.69 
   0   0   2 2947.80   69.69 
   0   0   2 2974.40   69.79 
   0   0  -2 3015.30   69.69 
  -1   0  -2 2265.97   51.79 
   1   0   2 2058.99   51.69 
   1   0   2 2201.48   51.89 
   1   0   2 2102.19   51.59 
   1   0   2 2189.08   51.39 
   1   0   2 2058.69   51.69 
  -1   0  -2 2228.08   51.89 
  -1   0  -2 2204.98   51.89 
  -1   0  -2 2216.28   51.79 
   1   0   2 2140.09   51.59 
  -1   0  -2 2213.98   51.69 
  -1   0  -2 2197.38   51.39 
  -2   0  -2  699.93   18.90 
   2   0   2  711.43   19.10 
   2   0   2  728.33   18.70 
  -2   0  -2  736.73   19.00 
   2   0   2  722.73   19.00 
   2   0   2  719.33   18.60 
  -2   0  -2  746.93   19.20 
   2   0   2  701.53   18.80 
   2   0   2  751.92   19.10 
  -2   0  -2  722.43   18.90 
  -2   0  -2  707.23   18.50 
  -2   0  -2  716.13   19.10 
   3   0   2  422.76   13.00 
  -3   0  -2  393.06   12.60 
   3   0   2  408.96   12.50 
  -3   0  -2  423.66   12.60 
   3   0   2  416.56   12.40 
  -3   0  -2  411.96   12.80 
  -3   0  -2  430.56   12.40 
   3   0   2  405.86   12.30 
   3   0   2  418.76   12.60 
  -3   0  -2  427.76   12.90 
   3   0   2  426.56   12.70 
  -3   0  -2  431.76   12.80 
  -4   0  -2  180.58    8.10 
   4   0   2  190.08    7.90 
   4   0   2  186.38    7.80 
   4   0   2  185.08    7.70 
  -4   0  -2  192.38    8.10 
   4   0   2  190.28    8.30 
  -4   0  -2  190.28    7.70 
  -5   0  -2   48.30    5.20 
   5   0   2   46.00    4.70 
  -5   0  -2   56.39    5.40 
   5   0   2   55.09    5.60 
   5   0   2   39.60    4.70 
  -5   0  -2   42.70    4.90 
   5   0   2   48.10    5.00 
   6   0   2  168.38    8.60 
   6   0   2  167.68    5.00 
   6   0   2  169.28    4.90 
   6   0   2  182.58    9.50 
  -6   0  -2  180.88    8.70 
   6   0   2  168.98    8.80 
   6   0   2  173.48    8.90 
  -6   0  -2  169.18    9.20 
   7   0   2  129.39    8.10 
   7   0   2  109.49    8.20 
   7   0   2  121.09    8.00 
  -7   0  -2  130.69    8.90 
  -7   0  -2  121.59    8.80 
   8   0   2   55.09    6.90 
   8   0   2   49.70    6.40 
   8   0   2   53.49    6.40 
  -8   0  -2   63.29    7.50 
  -8   0  -2   68.79    7.80 
  -9   0  -2   30.50    6.80 
   9   0   2   49.80    7.30 
   9   0   2   59.79    7.20 
  -9   0  -2   36.10    6.20 
  10  -1  -2   14.70    6.30 
  10  -1  -2   24.90    7.10 
 -10  -1   2   27.50    6.60 
 -10  -1   2   19.70    6.10 
 -10  -1   2   12.90    6.00 
  10  -1  -2   15.00    5.70 
 -10   1   2   17.50    6.10 
  10   1  -2   24.60    6.80 
 -10   1   2   28.80    7.10 
  10   1  -2   26.50    5.70 
   9  -1  -2   13.90    5.30 
  -9  -1   2    2.60    4.90 
   9  -1  -2   20.70    6.10 
  -9  -1   2    7.60    4.90 
  -9  -1   2   13.40    5.30 
   9   1  -2    9.10    4.40 
  -9   1   2   10.20    5.30 
  -9   1   2   20.40    6.00 
   9   1  -2   10.10    5.30 
  -9   1   2   -1.40    4.60 
  -8  -1   2   15.30    5.10 
   8  -1  -2   23.70    5.10 
  -8  -1   2   13.60    4.80 
  -8  -1   2   14.60    5.00 
   8   1  -2   20.80    5.60 
   8   1  -2   18.40    4.50 
  -8   1   2   21.40    4.50 
  -8   1   2   17.10    4.40 
  -8   1   2   18.80    4.30 
  -7  -1   2   97.19    6.60 
  -7  -1   2   76.79    6.20 
   7  -1  -2   95.39    7.70 
   7  -1  -2   85.09    7.20 
  -7  -1   2  100.89    7.50 
   7   1  -2   84.99    6.70 
  -7   1   2   91.29    7.40 
   7   1  -2   78.59    7.60 
   7   1  -2   95.29    7.10 
  -7   1   2   96.49    7.00 
  -7   1   2  105.59    7.70 
   6  -1  -2  141.59    8.00 
  -6  -1   2  138.19    7.10 
   6  -1  -2  138.39    7.90 
  -6  -1   2  132.19    7.80 
  -6  -1   2  150.38    7.40 
  -6   1   2  140.69    7.40 
   6   1  -2  143.59    7.60 
  -6   1   2  140.39    8.20 
   6   1  -2  145.59    7.50 
  -6   1   2  145.59    8.00 
   6   1  -2  134.49    7.70 
  -6   1   2  145.09    5.00 
   5  -1  -2  305.07   10.60 
  -5  -1   2  283.67   10.60 
  -5  -1   2  289.97   10.60 
   5  -1  -2  285.87   10.80 
   5  -1  -2  302.67   10.80 
  -5  -1   2  289.27   10.80 
  -5  -1   2  295.57    8.10 
  -5   1   2  295.77   10.90 
   5   1  -2  307.97   10.70 
   5   1  -2  309.77   10.50 
  -5   1   2  303.47    8.80 
  -5   1   2  281.97   10.60 
  -5   1   2  296.37   10.50 
   4  -1  -2  906.51   24.10 
   4  -1  -2  893.51   24.30 
  -4  -1   2  904.21   24.00 
  -4  -1   2  908.31   24.10 
   4  -1  -2  884.71   24.10 
  -4  -1   2  861.01   24.00 
   4   1  -2  939.31   23.90 
   4   1  -2  947.31   24.00 
  -4   1   2  906.31   24.20 
  -4   1   2  929.51   24.60 
   4   1  -2  910.91   23.70 
  -4   1   2  913.81   24.30 
  -4   1   2  914.61   22.90 
   3  -1  -2  230.68    8.30 
   3  -1  -2  233.58    8.30 
  -3  -1   2  227.08    7.80 
  -3  -1   2  236.98    7.90 
  -3  -1   2  244.38    8.10 
  -3  -1   2  229.98    8.00 
   3  -1  -2  244.68    8.30 
  -3   1   2  244.48    8.30 
  -3   1   2  224.48    7.90 
  -3   1   2  249.68    8.30 
   3   1  -2  212.88    7.50 
  -3   1   2  250.17    8.20 
   3   1  -2  237.88    7.90 
   3   1  -2  224.38    7.80 
  -3   1   2  244.88    7.60 
  -2  -1   2  796.92   20.30 
  -2  -1   2  809.72   20.50 
  -2  -1   2  806.32   20.10 
  -2  -1   2  838.12   20.40 
   2  -1  -2  830.72   20.60 
   2  -1  -2  780.12   20.50 
   2  -1  -2  825.02   20.60 
  -2  -1   2  826.72   20.50 
  -2   1   2  790.02   20.50 
   2   1  -2  788.82   20.20 
   2   1  -2  788.22   20.30 
   2   1  -2  768.62   20.30 
  -2   1   2  795.02   20.60 
  -2   1   2  784.62   20.40 
  -2   1   2  798.12   20.30 
  -2   1   2  806.42   20.30 
  -1  -1   2  448.76   11.70 
   1  -1  -2  414.16   11.50 
   1  -1  -2  423.46   11.60 
   1  -1  -2  445.96   11.70 
  -1  -1   2  439.06   11.40 
  -1  -1   2  430.26   11.80 
  -1  -1   2  429.76   11.60 
  -1  -1   2  444.96   12.00 
   1  -1  -2  411.66   11.60 
  -1   1   2  424.16   11.50 
  -1   1   2  450.25   11.80 
   1   1  -2  450.75   11.70 
  -1   1   2  435.16   11.60 
   1   1  -2  444.46   11.70 
   1   1  -2  440.36   11.70 
  -1   1   2  431.96   11.50 
  -1   1   2  450.95   12.00 
   1   1  -2  436.46   11.40 
   0  -1   2  356.56    9.90 
   0  -1  -2  353.66    9.50 
   0  -1  -2  345.37    9.60 
   0  -1  -2  350.86    9.50 
   0  -1   2  354.16   10.10 
   0  -1   2  329.97    9.80 
   0  -1  -2  343.97    9.50 
   0   1   2  349.37    9.50 
   0   1   2  340.97    9.60 
   0   1  -2  344.07   10.00 
   0   1  -2  356.56    9.70 
   0   1  -2  362.86   10.00 
   0   1  -2  351.86    9.90 
   0   1   2  345.77    9.40 
   0   1   2  350.16    9.30 
  -1  -1  -2  568.44   14.60 
  -1  -1  -2  546.65   14.50 
   1  -1   2  577.04   15.00 
   1  -1   2  570.94   14.80 
   1  -1   2  556.54   15.00 
  -1  -1  -2  554.54   14.50 
  -1  -1  -2  544.65   14.60 
   1  -1   2  563.14   14.90 
   1  -1   2  555.04   13.80 
   1  -1   2  528.45   14.60 
  -1  -1  -2  558.34   14.40 
  -1  -1  -2  549.45   14.50 
   1   1   2  549.15   14.50 
  -1   1  -2  556.64   15.00 
   1   1   2  561.64   14.50 
   1   1   2  568.94   14.30 
   1   1   2  548.45   14.40 
  -1   1  -2  555.04   14.90 
   1   1   2  546.05   14.20 
  -1   1  -2  559.24   15.00 
   1   1   2  548.15   14.80 
  -1   1  -2  573.14   14.90 
  -1   1  -2  560.34   13.80 
   2  -1   2  120.09    4.60 
   2  -1   2  129.99    6.00 
   2  -1   2  122.49    5.30 
   2  -1   2  121.29    5.60 
  -2  -1  -2  123.49    5.20 
  -2  -1  -2  123.19    5.10 
  -2  -1  -2  123.69    5.10 
  -2  -1  -2  111.39    5.10 
   2  -1   2  120.09    5.10 
   2  -1   2   89.69    4.90 
   2  -1   2  119.49    5.10 
   2   1   2  111.79    4.60 
   2   1   2  120.79    4.90 
  -2   1  -2  118.89    4.50 
  -2   1  -2  115.79    5.10 
   2   1   2  119.29    5.10 
   2   1   2   89.59    4.60 
   2   1   2  118.89    5.00 
   2   1   2  110.39    4.90 
  -2   1  -2  119.09    5.70 
   2   1   2  119.59    4.90 
  -2   1  -2  118.79    5.70 
  -2   1  -2  107.89    5.50 
   3  -1   2  131.59    6.20 
  -3  -1  -2  147.89    6.30 
  -3  -1  -2  138.49    6.00 
   3  -1   2  141.99    6.10 
  -3  -1  -2  139.09    6.30 
   3  -1   2  140.39    6.50 
   3  -1   2  140.29    7.50 
   3  -1   2  162.38    6.80 
  -3  -1  -2  144.89    6.20 
  -3  -1  -2  148.49    6.30 
  -3  -1  -2  147.19    6.30 
   3  -1   2  140.19    6.90 
   3  -1   2  136.99    5.70 
   3   1   2  142.89    5.30 
   3   1   2  129.99    5.90 
   3   1   2  135.29    6.20 
   3   1   2  129.99    5.90 
   3   1   2  130.09    5.70 
  -3   1  -2  144.79    6.70 
  -3   1  -2  138.69    6.60 
   3   1   2  141.99    5.90 
  -3   1  -2  140.49    6.70 
  -3   1  -2  145.39    6.30 
   4  -1   2  218.88    8.80 
   4  -1   2  212.48    8.50 
  -4  -1  -2  221.08    8.60 
  -4  -1  -2  222.18    8.70 
  -4  -1  -2  218.18    8.60 
   4  -1   2  221.48    9.20 
   4  -1   2  220.88    8.40 
   4   1   2  202.88    8.00 
   4   1   2  232.28    8.80 
  -4   1  -2  206.38    8.80 
   4   1   2  222.28    8.90 
   4   1   2  220.18    8.20 
  -4   1  -2  221.58    8.90 
  -4   1  -2  207.18    9.00 
   4   1   2  218.98    6.80 
   4   1   2  215.88    8.30 
   5  -1   2   70.39    5.30 
  -5  -1  -2   66.99    5.60 
   5  -1   2   62.59    5.80 
  -5  -1  -2   66.19    5.60 
  -5  -1  -2   70.09    5.70 
   5  -1   2   58.49    5.50 
   5   1   2   69.89    5.30 
   5   1   2   60.59    3.00 
  -5   1  -2   67.49    5.90 
   5   1   2   70.29    5.80 
  -5   1  -2   65.19    5.60 
   5   1   2   62.19    5.10 
  -5   1  -2   58.09    5.80 
   5   1   2   51.89    5.50 
   6  -1   2  162.28    9.40 
  -6  -1  -2  154.68    8.60 
  -6  -1  -2  140.59    7.80 
   6  -1   2  146.39    8.10 
   6  -1   2  153.88    8.70 
  -6   1  -2  144.99    8.90 
   6   1   2  149.99    7.80 
   6   1   2  148.79    8.50 
  -6   1  -2  147.69    8.10 
   6   1   2  139.19    8.60 
   6   1   2  161.78    8.20 
  -7  -1  -2   55.49    6.50 
   7  -1   2   47.20    6.10 
   7  -1   2   58.59    6.30 
  -7  -1  -2   64.69    6.80 
   7  -1   2   64.99    7.50 
  -7   1  -2   57.39    6.70 
   7   1   2   57.39    6.60 
   7   1   2   46.30    5.80 
  -7   1  -2   64.99    7.00 
   7   1   2   83.89    7.60 
   8  -1   2   12.30    4.80 
  -8  -1  -2    2.20    4.50 
   8  -1   2    9.60    5.50 
  -8  -1  -2    6.70    4.90 
   8  -1   2    7.20    4.40 
  -8   1  -2    2.90    4.60 
   8   1   2    3.00    4.20 
  -8   1  -2    2.60    4.80 
   8   1   2    7.80    4.90 
   8   1   2    4.70    4.90 
   9  -1   2    6.40    4.70 
  -9  -1  -2   12.80    5.40 
   9  -1   2    2.80    4.40 
   9  -1   2   -0.70    5.20 
  -9  -1  -2   -0.60    4.70 
   9   1   2    8.30    4.30 
  -9   1  -2    4.60    4.20 
   9   1   2   11.80    5.70 
  -9   1  -2    9.20    5.80 
 -10  -2   2   43.60    7.30 
 -10  -2   2   41.50    6.90 
  10  -2  -2   37.70    7.40 
  10  -2  -2   34.60    7.90 
 -10  -2   2   47.10    7.50 
  10  -2  -2   34.90    6.90 
  10   2  -2   28.90    7.30 
 -10   2   2   44.20    7.30 
  10   2  -2   33.40    6.20 
 -10   2   2   48.90    8.00 
  -9  -2   2   50.99    7.00 
  -9  -2   2   54.89    7.10 
  -9  -2   2   56.99    7.40 
   9  -2  -2   54.39    7.90 
   9  -2  -2   54.59    7.50 
  -9   2   2   56.19    7.90 
  -9   2   2   62.79    7.80 
   9   2  -2   60.99    8.00 
   9   2  -2   63.29    6.50 
  -8  -2   2   40.60    5.90 
   8  -2  -2   20.10    5.50 
  -8  -2   2   40.00    5.60 
  -8  -2   2   46.50    6.20 
   8   2  -2   36.00    6.30 
  -8   2   2   34.30    6.00 
  -8   2   2   41.70    6.30 
   8   2  -2   28.00    5.10 
  -8   2   2   38.50    5.70 
  -7  -2   2  133.19    8.40 
  -7  -2   2  139.79    8.50 
   7  -2  -2  140.69    8.30 
   7  -2  -2  153.68    9.20 
  -7  -2   2  148.69    8.60 
   7   2  -2  137.89    7.60 
  -7   2   2  145.89    9.40 
   7   2  -2  150.38    9.50 
  -7   2   2  153.68    9.00 
  -7   2   2  138.89    8.00 
  -6  -2   2  640.84   15.30 
   6  -2  -2  682.33   20.40 
  -6  -2   2  648.14   19.40 
  -6  -2   2  666.63   19.70 
  -6  -2   2  619.84   15.30 
   6  -2  -2  675.83   20.00 
  -6  -2   2  615.54   19.20 
  -6   2   2  639.74   20.00 
   6   2  -2  643.04   18.70 
  -6   2   2  651.73   20.30 
   6   2  -2  654.83   20.30 
  -6   2   2  621.24   17.10 
  -6   2   2  661.13   19.80 
   6   2  -2  619.04   19.00 
   5  -2  -2  132.39    7.20 
   5  -2  -2  121.79    6.80 
  -5  -2   2  121.29    6.50 
  -5  -2   2  116.79    6.40 
   5  -2  -2  120.99    7.10 
  -5  -2   2  120.19    6.60 
  -5   2   2  120.19    6.80 
   5   2  -2  128.49    5.90 
  -5   2   2  117.19    5.20 
   5   2  -2  116.89    6.10 
   5   2  -2  125.59    7.20 
  -5   2   2  125.49    7.00 
   5   2  -2  113.89    6.20 
  -5   2   2  103.29    6.90 
  -4  -2   2   79.99    4.70 
   4  -2  -2   90.99    5.20 
   4  -2  -2   87.69    5.80 
   4  -2  -2   90.59    5.10 
   4  -2  -2   83.29    4.50 
  -4  -2   2   92.09    5.20 
  -4  -2   2   87.49    5.10 
  -4  -2   2   95.09    5.50 
  -4  -2   2   86.39    5.20 
  -4   2   2   98.39    5.70 
  -4   2   2   95.39    4.80 
   4   2  -2   92.99    5.20 
  -4   2   2   89.09    5.60 
   4   2  -2   84.69    5.20 
  -4   2   2   88.09    5.80 
  -3  -2   2  314.67   10.00 
   3  -2  -2  326.77   10.10 
   3  -2  -2  320.17   10.30 
   3  -2  -2  322.77    9.80 
  -3  -2   2  322.37    9.80 
  -3  -2   2  319.37    9.70 
  -3  -2   2  315.47    9.90 
   3  -2  -2  322.27   10.30 
   3  -2  -2  320.97   10.30 
  -3  -2   2  318.07   10.00 
   3   2  -2  313.07    9.80 
  -3   2   2  325.77   10.20 
  -3   2   2  315.97   10.20 
   3   2  -2  316.97    9.60 
   3   2  -2  323.87    9.40 
  -3   2   2  327.57   10.00 
   3   2  -2  311.67    9.60 
  -3   2   2  313.67   10.40 
  -3   2   2  309.47    9.70 
   2  -2  -2  381.86   11.00 
   2  -2  -2  367.56   10.80 
  -2  -2   2  378.36   10.70 
  -2  -2   2  392.36   11.00 
  -2  -2   2  362.76   10.80 
   2  -2  -2  372.46   11.00 
   2  -2  -2  381.86   11.20 
   2  -2  -2  401.36   11.00 
  -2  -2   2  377.36   10.70 
  -2  -2   2  391.86   11.00 
  -2   2   2  377.46   10.80 
   2   2  -2  387.96   10.60 
  -2   2   2  374.96   10.90 
  -2   2   2  374.66   10.90 
   2   2  -2  387.66   11.20 
   2   2  -2  397.16   10.80 
   2   2  -2  387.76   10.60 
  -2   2   2  385.46   10.80 
  -2   2   2  377.96   11.30 
   1  -2  -2  428.56   12.30 
  -1  -2   2  437.36   11.90 
  -1  -2   2  431.76   11.80 
   1  -2  -2  425.66   11.50 
  -1  -2   2  422.26   11.70 
   1  -2  -2  420.76   11.40 
   1  -2  -2  424.26   11.50 
  -1  -2   2  459.35   12.00 
  -1  -2   2  436.06   11.60 
   1  -2  -2  404.56   11.50 
   1   2  -2  446.16   11.60 
   1   2  -2  441.36   12.00 
  -1   2   2  430.16   12.30 
   1   2  -2  427.16   11.60 
  -1   2   2  457.05   11.60 
   1   2  -2  429.76   11.70 
   1   2  -2  439.86   11.70 
  -1   2   2  443.06   11.40 
  -1   2   2  431.26   10.60 
  -1   2   2  438.16   11.40 
  -1   2   2  418.76   11.60 
   0  -2  -2  708.33   17.60 
   0  -2   2  716.03   18.30 
   0  -2  -2  735.43   18.80 
   0  -2   2  739.03   18.50 
   0  -2  -2  712.13   17.50 
   0  -2  -2  719.83   17.60 
   0  -2   2  700.93   18.20 
   0  -2  -2  683.43   17.60 
   0  -2   2  709.83   18.20 
   0  -2  -2  713.13   17.70 
   0   2  -2  732.33   18.50 
   0   2   2  709.53   17.30 
   0   2   2  729.83   18.70 
   0   2   2  697.13   17.50 
   0   2   2  689.23   17.20 
   0   2  -2  738.43   18.20 
   0   2   2  682.23   17.60 
   0   2  -2  710.33   18.10 
   0   2  -2  718.33   18.20 
   1  -2   2 1466.05   35.80 
   1  -2   2 1501.75   35.90 
   1  -2   2 1470.25   35.90 
   1  -2   2 1455.15   34.00 
  -1  -2  -2 1419.76   34.90 
   1  -2   2 1431.66   35.70 
  -1  -2  -2 1496.65   34.90 
  -1  -2  -2 1480.25   34.80 
   1  -2   2 1235.28   35.40 
  -1  -2  -2 1500.95   35.00 
  -1   2  -2 1484.85   35.90 
  -1   2  -2 1488.25   35.70 
   1   2   2 1467.75   34.80 
   1   2   2 1451.15   34.90 
   1   2   2 1492.75   35.80 
  -1   2  -2 1454.65   35.70 
   1   2   2 1477.85   34.40 
   1   2   2 1458.75   35.90 
  -1   2  -2 1474.35   35.80 
   1   2   2 1454.95   34.40 
   2  -2   2  508.25   14.90 
  -2  -2  -2  517.65   14.10 
  -2  -2  -2  511.45   13.80 
   2  -2   2  523.55   15.00 
  -2  -2  -2  523.15   14.80 
  -2  -2  -2  523.35   13.80 
   2  -2   2  527.85   13.30 
  -2  -2  -2  526.25   14.10 
  -2  -2  -2  531.15   14.10 
   2  -2   2  504.05   14.80 
   2  -2   2  536.65   14.80 
   2   2   2  513.45   14.00 
   2   2   2  505.65   14.10 
   2   2   2  520.55   14.70 
   2   2   2  503.95   13.30 
  -2   2  -2  531.35   14.80 
   2   2   2  532.75   13.90 
   2   2   2  513.95   13.70 
  -2   2  -2  525.75   15.00 
   2   2   2  521.35   13.40 
  -2   2  -2  519.55   14.90 
  -2   2  -2  521.15   14.60 
  -2   2  -2  518.65   14.80 
   3  -2   2  195.38    8.60 
   3  -2   2  189.38    6.70 
  -3  -2  -2  189.08    7.40 
   3  -2   2  186.08    8.20 
  -3  -2  -2  199.38    7.40 
   3  -2   2  179.08    7.80 
  -3  -2  -2  187.08    7.10 
  -3  -2  -2  190.18    7.30 
   3  -2   2  197.38    8.10 
   3   2   2  197.48    6.60 
   3   2   2  189.28    6.90 
   3   2   2  201.58    7.40 
  -3   2  -2  186.28    7.90 
  -3   2  -2  214.48    8.10 
   3   2   2  209.88    8.20 
  -3   2  -2  181.88    8.00 
   3   2   2  188.28    6.60 
   3   2   2  202.78    6.60 
   4  -2   2  251.27   10.00 
  -4  -2  -2  266.77    9.40 
  -4  -2  -2  271.67    9.60 
  -4  -2  -2  274.57    9.50 
   4  -2   2  275.57    9.20 
   4  -2   2  268.07   10.30 
   4  -2   2  276.27   10.20 
   4  -2   2  262.37   10.20 
  -4   2  -2  251.27    9.70 
  -4   2  -2  264.67   10.30 
   4   2   2  260.07    8.80 
   4   2   2  275.07    9.30 
   4   2   2  265.57    9.40 
  -4   2  -2  251.77    9.80 
   4   2   2  262.17    8.10 
   4   2   2  261.57   10.30 
   5  -2   2   52.89    5.60 
   5  -2   2   55.99    5.70 
   5  -2   2   52.49    4.60 
  -5  -2  -2   40.00    4.80 
   5  -2   2   49.30    5.80 
  -5  -2  -2   54.49    5.30 
  -5  -2  -2   58.79    5.30 
  -5   2  -2   58.49    5.90 
   5   2   2   58.79    4.60 
   5   2   2   52.89    4.50 
   5   2   2   66.99    5.50 
   5   2   2   63.59    3.10 
  -5   2  -2   62.99    6.00 
   5   2   2   60.49    4.80 
  -5   2  -2   54.39    5.60 
   5   2   2   57.79    5.80 
   6  -2   2   59.69    5.60 
  -6  -2  -2   69.09    6.20 
   6  -2   2   62.19    6.60 
   6  -2   2   61.69    7.00 
  -6  -2  -2   55.89    5.90 
  -6   2  -2   73.49    6.90 
   6   2   2   60.59    6.60 
  -6   2  -2   67.19    6.30 
   6   2   2   65.49    6.20 
   6   2   2   73.99    5.40 
   7  -2   2   80.69    8.20 
   7  -2   2   92.29    7.60 
  -7  -2  -2   93.19    7.80 
  -7  -2  -2   93.69    7.80 
   7   2   2   82.39    7.40 
  -7   2  -2   82.09    8.00 
  -7   2  -2   79.99    8.00 
   7   2   2   89.49    6.70 
   7   2   2   88.69    8.00 
   8  -2   2    1.80    5.20 
   8  -2   2   -0.60    3.90 
   8  -2   2   -1.90    4.00 
  -8  -2  -2   -9.10    3.70 
  -8  -2  -2   -1.50    4.20 
  -8   2  -2    0.10    4.60 
   8   2   2   -1.40    3.30 
   8   2   2    3.00    5.00 
  -8   2  -2   -5.50    4.10 
   9  -2   2   36.20    6.70 
   9  -2   2   53.89    6.90 
  -9  -2  -2   43.60    6.90 
   9  -2   2   54.89    8.30 
  -9  -2  -2   49.70    7.30 
  -9   2  -2   49.50    7.90 
   9   2   2   51.19    7.60 
 -10  -3   2   62.49    8.00 
 -10  -3   2   60.89    8.00 
  10  -3  -2   37.10    7.30 
  10  -3  -2   39.60    8.20 
  10  -3  -2   52.69    8.00 
 -10  -3   2   64.49    8.00 
  10   3  -2   50.39    8.30 
 -10   3   2   28.20    7.30 
 -10   3   2   57.19    8.00 
   9  -3  -2   36.20    6.60 
  -9  -3   2   19.60    5.50 
  -9  -3   2   25.00    5.70 
  -9  -3   2   28.80    5.80 
   9   3  -2   32.70    6.10 
  -9   3   2   29.30    6.70 
  -9   3   2   23.40    5.90 
   9   3  -2   28.10    4.90 
   8  -3  -2    3.50    4.60 
  -8  -3   2    7.20    4.30 
  -8  -3   2   11.20    4.60 
  -8  -3   2   11.90    4.60 
   8  -3  -2   12.10    5.10 
   8   3  -2    7.50    5.00 
  -8   3   2    0.80    4.70 
  -8   3   2    5.40    4.70 
   8   3  -2    9.00    3.80 
  -8   3   2   13.20    5.00 
  -7  -3   2  118.49    7.60 
  -7  -3   2  121.09    7.80 
  -7  -3   2  104.69    7.50 
   7  -3  -2  124.69    8.90 
   7  -3  -2  100.19    8.40 
  -7   3   2  127.39    8.00 
  -7   3   2  116.79    8.20 
   7   3  -2  105.69    8.40 
  -7   3   2  120.99    8.40 
   7   3  -2  117.49    6.90 
  -6  -3   2  303.27   11.30 
   6  -3  -2  308.17   12.20 
   6  -3  -2  309.87   12.10 
   6  -3  -2  300.27   12.40 
  -6  -3   2  284.17   11.30 
   6  -3  -2  287.77   10.00 
  -6  -3   2  299.17    8.30 
  -6  -3   2  323.87   11.50 
   6   3  -2  305.57   10.40 
   6   3  -2  309.07   12.50 
  -6   3   2  299.77   12.00 
   6   3  -2  301.57   10.50 
  -6   3   2  305.17   12.50 
  -6   3   2  302.87   11.90 
   6   3  -2  289.27   10.80 
  -5  -3   2  169.38    7.70 
   5  -3  -2  153.18    8.20 
   5  -3  -2  174.08    7.10 
  -5  -3   2  157.68    7.40 
   5  -3  -2  171.88    7.70 
  -5  -3   2  167.78    7.50 
   5  -3  -2  171.78    8.40 
  -5   3   2  189.08    8.40 
   5   3  -2  177.08    8.60 
   5   3  -2  167.28    6.70 
  -5   3   2  176.58    7.20 
   5   3  -2  179.28    7.50 
   5   3  -2  171.28    6.60 
  -5   3   2  181.58    8.20 
  -5   3   2  184.88    8.60 
  -4  -3   2 1115.59   29.20 
  -4  -3   2 1080.89   29.70 
   4  -3  -2 1108.99   30.00 
  -4  -3   2 1122.89   29.10 
  -4  -3   2 1135.59   29.30 
   4  -3  -2 1146.49   30.00 
   4  -3  -2 1168.58   30.10 
   4  -3  -2 1131.49   29.30 
  -4   3   2 1149.98   29.90 
  -4   3   2 1141.39   29.40 
   4   3  -2 1175.98   28.50 
   4   3  -2 1135.49   30.10 
   4   3  -2 1147.49   28.50 
  -4   3   2 1169.08   30.20 
  -4   3   2 1177.48   29.70 
   3  -3  -2 1211.68   30.90 
   3  -3  -2 1276.67   31.30 
   3  -3  -2 1208.38   31.10 
   3  -3  -2 1215.88   31.20 
  -3  -3   2 1258.67   31.50 
  -3  -3   2 1223.08   30.50 
  -3  -3   2 1210.98   30.60 
  -3  -3   2 1226.98   30.50 
  -3  -3   2 1219.58   30.70 
   3  -3  -2 1182.78   31.10 
  -3   3   2 1228.98   30.80 
   3   3  -2 1222.38   30.00 
  -3   3   2 1220.88   31.00 
  -3   3   2 1241.18   31.30 
   3   3  -2 1236.38   30.50 
   3   3  -2 1257.47   30.40 
   3   3  -2 1207.08   31.10 
  -3   3   2 1213.98   31.20 
  -3   3   2 1232.48   30.90 
   3   3  -2 1221.88   30.00 
  -2  -3   2  367.96   11.00 
   2  -3  -2  367.06   10.60 
   2  -3  -2  332.77   11.10 
  -2  -3   2  355.36   10.40 
   2  -3  -2  383.26   10.80 
  -2  -3   2  378.16   10.30 
   2  -3  -2  377.06   10.80 
  -2  -3   2  381.36   10.60 
   2  -3  -2  382.26   10.70 
  -2  -3   2  373.56   10.40 
  -2   3   2  368.46   10.30 
  -2   3   2  358.16   10.50 
   2   3  -2  364.66   11.40 
  -2   3   2  358.86   11.40 
   2   3  -2  351.16   10.30 
  -2   3   2  348.97   10.70 
   2   3  -2  348.17   10.00 
  -2   3   2  358.76   10.00 
   2   3  -2  361.26    9.90 
   2   3  -2  372.56   10.60 
  -2   3   2  360.96   10.30 
   2   3  -2  362.16   10.00 
   1  -3  -2  246.68    7.40 
  -1  -3   2  261.77    8.00 
   1  -3  -2  250.07    7.20 
   1  -3  -2  255.47    7.60 
  -1  -3   2  263.07    7.90 
   1  -3  -2  257.67    7.50 
  -1  -3   2  254.47    7.60 
   1  -3  -2  244.58    7.50 
  -1  -3   2  258.37    7.70 
  -1   3   2  260.47    7.30 
  -1   3   2  253.57    7.10 
   1   3  -2  266.87    7.50 
   1   3  -2  261.27    7.30 
  -1   3   2  263.77    7.10 
  -1   3   2  255.17    7.40 
   1   3  -2  249.58    8.60 
   1   3  -2  253.97    7.50 
  -1   3   2  260.87    9.00 
  -1   3   2  243.68    7.60 
   1   3  -2  251.47    7.70 
   0  -3  -2  779.32   19.30 
   0  -3   2  773.32   20.10 
   0  -3  -2  783.32   19.10 
   0  -3   2  804.02   20.30 
   0  -3  -2  773.72   19.00 
   0  -3  -2  765.22   20.80 
   0  -3   2  806.92   20.00 
   0  -3  -2  780.92   19.20 
   0  -3  -2  788.82   19.60 
   0  -3   2  803.42   20.10 
   0   3  -2  792.32   18.50 
   0   3  -2  780.72   19.80 
   0   3   2  773.72   20.80 
   0   3   2  762.42   19.10 
   0   3   2  781.12   18.90 
   0   3  -2  790.02   20.00 
   0   3  -2  775.92   20.70 
   0   3  -2  798.92   19.80 
  -1  -3  -2  207.18    6.30 
  -1  -3  -2  214.08    6.10 
  -1  -3  -2  212.88    6.30 
  -1  -3  -2  206.88    7.60 
   1  -3   2  213.38    7.40 
   1  -3   2  212.38    7.50 
  -1  -3  -2  213.48    7.20 
   1  -3   2  229.98    7.70 
   1  -3   2  218.58    7.80 
  -1  -3  -2  209.58    6.10 
   1  -3   2  206.68    7.50 
   1   3   2  217.08    5.90 
  -1   3  -2  233.18    7.50 
  -1   3  -2  217.78    7.20 
   1   3   2  221.58    7.90 
   1   3   2  219.38    8.10 
   1   3   2  215.18    5.80 
  -1   3  -2  201.48    7.30 
   1   3   2  212.08    6.20 
   2  -3   2   58.09    2.80 
  -2  -3  -2   55.59    3.40 
  -2  -3  -2   64.99    3.30 
  -2  -3  -2   54.09    4.30 
   2  -3   2   61.79    4.40 
   2  -3   2   63.99    4.70 
   2  -3   2   69.89    4.20 
  -2  -3  -2   59.79    3.50 
   2  -3   2   62.19    4.80 
  -2  -3  -2   62.69    3.40 
  -2  -3  -2   66.09    4.60 
   2  -3   2   61.89    4.90 
  -2  -3  -2   68.09    3.50 
  -2   3  -2   60.49    4.60 
   2   3   2   54.39    4.20 
   2   3   2   58.49    3.00 
   2   3   2   51.69    3.10 
   2   3   2   58.09    3.30 
  -2   3  -2   62.39    4.30 
  -2   3  -2   60.69    4.70 
   2   3   2   49.99    4.00 
  -2   3  -2   58.89    4.50 
   2   3   2   61.79    3.00 
  -2   3  -2   63.69    4.60 
  -3  -3  -2  612.34   16.50 
   3  -3   2  599.84   17.70 
   3  -3   2  620.04   19.20 
   3  -3   2  616.24   17.80 
   3  -3   2  630.74   17.90 
   3  -3   2  613.94   17.90 
   3  -3   2  622.04   16.00 
  -3  -3  -2  619.04   16.70 
  -3  -3  -2  603.24   16.30 
  -3  -3  -2  612.94   16.40 
  -3   3  -2  613.44   17.90 
   3   3   2  607.04   16.00 
  -3   3  -2  641.14   17.90 
  -3   3  -2  615.74   17.50 
   3   3   2  586.94   15.20 
   3   3   2  602.04   15.30 
   3   3   2  590.54   16.40 
   3   3   2  608.14   16.60 
   3   3   2  602.94   17.90 
  -4  -3  -2  350.76   11.80 
  -4  -3  -2  374.36   11.90 
   4  -3   2  367.56   13.10 
   4  -3   2  377.86   13.50 
   4  -3   2  367.76   11.40 
  -4  -3  -2  388.06   12.10 
   4  -3   2  384.26   12.80 
   4  -3   2  394.36   13.40 
  -4   3  -2  381.16   13.10 
   4   3   2  393.46   10.70 
  -4   3  -2  379.76   12.60 
  -4   3  -2  371.06   13.10 
   4   3   2  371.96   11.70 
   4   3   2  382.76   13.30 
   4   3   2  378.66   11.40 
   4   3   2  383.36   11.10 
   4   3   2  382.06   10.70 
  -5  -3  -2  131.89    6.90 
   5  -3   2  131.49    8.20 
  -5  -3  -2  130.39    6.80 
  -5  -3  -2  129.59    6.80 
   5  -3   2  125.99    6.60 
   5  -3   2  137.99    8.60 
   5  -3   2  132.09    8.20 
   5  -3   2  129.69    6.20 
  -5   3  -2  135.19    8.00 
   5   3   2  118.09    7.90 
   5   3   2  136.59    5.90 
   5   3   2  138.79    6.80 
  -5   3  -2  141.09    8.10 
   5   3   2  129.99    6.30 
   5   3   2   96.99    5.10 
   5   3   2  133.19    5.20 
   6  -3   2  290.87   12.90 
   6  -3   2  260.17   11.60 
  -6  -3  -2  280.87   11.10 
   6  -3   2  269.67   12.20 
  -6  -3  -2  270.97   11.10 
   6  -3   2  277.37   10.60 
  -6   3  -2  265.87   12.10 
  -6   3  -2  264.67   12.20 
   6   3   2  255.97   11.50 
   6   3   2  268.97    9.60 
   6   3   2  262.67   11.00 
   7  -3   2   61.59    7.00 
  -7  -3  -2   53.09    6.00 
   7  -3   2   62.19    6.00 
  -7  -3  -2   58.79    6.40 
   7   3   2   49.90    4.70 
   7   3   2   55.19    6.50 
  -7   3  -2   51.29    7.00 
  -7   3  -2   50.99    6.90 
  -8  -3  -2    8.00    4.70 
  -8  -3  -2    6.80    4.40 
   8  -3   2    7.00    4.00 
   8  -3   2    4.60    4.20 
  -8   3  -2    2.50    5.10 
   8   3   2   10.60    5.50 
   9  -3   2   11.40    5.20 
   9  -3   2   12.00    4.80 
   9  -3   2   12.90    5.80 
  -9  -3  -2    2.40    4.50 
  -9  -3  -2    6.10    5.10 
   9   3   2   24.90    6.40 
  -9   3  -2    9.70    5.90 
  -9  -4   2   91.19    8.50 
  -9  -4   2   88.19    8.30 
   9  -4  -2   76.69    8.60 
  -9  -4   2   84.39    8.00 
   9  -4  -2   84.29    9.10 
  -9   4   2   98.49    9.30 
  -9   4   2   97.89    9.20 
   9   4  -2  104.99    9.90 
  -8  -4   2   67.19    6.90 
  -8  -4   2   37.00    5.70 
  -8  -4   2   44.60    5.90 
   8  -4  -2   45.90    6.90 
   8  -4  -2   39.90    6.80 
   8   4  -2   39.90    4.60 
  -8   4   2   47.80    6.40 
   8   4  -2   50.19    7.20 
  -8   4   2   45.40    6.00 
   7  -4  -2   58.79    6.90 
  -7  -4   2   39.00    5.10 
  -7  -4   2   49.70    5.50 
  -7  -4   2   48.40    5.50 
   7  -4  -2   48.90    6.60 
  -7   4   2   47.90    6.20 
   7   4  -2   47.10    4.40 
   7   4  -2   52.09    6.70 
  -7   4   2   34.00    6.00 
  -7   4   2   45.00    6.10 
  -6  -4   2  224.98    9.50 
  -6  -4   2  212.18    9.30 
  -6  -4   2  218.28    7.20 
   6  -4  -2  208.98   10.20 
   6  -4  -2  217.88   10.70 
  -6  -4   2  219.78    9.30 
   6  -4  -2  220.88    9.90 
   6   4  -2  233.78    8.90 
  -6   4   2  239.38    9.90 
  -6   4   2  205.58    9.90 
   6   4  -2  209.48    7.90 
   6   4  -2  229.58   10.80 
  -6   4   2  206.98   10.50 
   5  -4  -2   97.89    6.90 
  -5  -4   2  112.29    6.00 
   5  -4  -2  109.19    7.20 
  -5  -4   2  101.19    5.80 
  -5  -4   2  113.99    5.10 
   5  -4  -2  111.09    6.90 
  -5  -4   2   99.29    5.90 
  -5   4   2  116.89    6.20 
   5   4  -2  107.39    4.90 
   5   4  -2  116.39    5.70 
   5   4  -2  111.39    7.10 
  -5   4   2  104.69    6.60 
  -5   4   2  109.49    7.20 
  -5   4   2   99.59    6.50 
   5   4  -2  110.29    5.00 
   4  -4  -2  324.87   11.10 
  -4  -4   2  318.07   10.30 
   4  -4  -2  330.27   11.30 
  -4  -4   2  311.97   10.00 
   4  -4  -2  300.37   10.70 
  -4  -4   2  301.87   10.00 
   4  -4  -2  301.37   11.20 
  -4   4   2  305.37   10.50 
   4   4  -2  303.37   10.80 
  -4   4   2  298.97   10.80 
  -4   4   2  322.57   10.80 
   4   4  -2  308.87    8.90 
   4   4  -2  312.07    9.00 
  -4   4   2  308.57   11.00 
  -3  -4   2   73.89    4.20 
  -3  -4   2   68.29    4.00 
   3  -4  -2   72.99    4.80 
   3  -4  -2   64.59    4.70 
  -3  -4   2   64.39    3.70 
   3  -4  -2   69.59    4.90 
   3  -4  -2   77.39    4.80 
  -3  -4   2   69.09    4.00 
   3   4  -2   70.29    4.80 
   3   4  -2   63.79    3.20 
  -3   4   2   67.49    4.70 
   3   4  -2   68.79    3.10 
   3   4  -2   65.99    3.90 
  -3   4   2   71.39    4.30 
  -3   4   2   70.39    5.20 
  -3   4   2   68.49    4.70 
   3   4  -2   66.49    4.70 
   2  -4  -2   38.00    3.40 
  -2  -4   2   39.20    3.10 
  -2  -4   2   43.60    2.90 
  -2  -4   2   41.40    3.70 
   2  -4  -2   42.30    3.30 
  -2  -4   2   40.20    3.10 
  -2  -4   2   34.90    3.00 
   2  -4  -2   40.00    3.60 
   2  -4  -2   41.00    3.50 
   2  -4  -2   45.00    4.40 
   2   4  -2   38.20    3.20 
  -2   4   2   33.30    3.00 
  -2   4   2   29.80    3.60 
   2   4  -2   44.80    3.20 
   2   4  -2   36.80    4.20 
   2   4  -2   39.00    2.80 
  -2   4   2   39.70    3.10 
   2   4  -2   38.50    2.40 
  -2   4   2   32.90    3.40 
   2   4  -2   36.80    2.30 
  -2   4   2   38.10    3.10 
  -2   4   2   38.20    3.10 
  -1  -4   2   84.19    3.90 
  -1  -4   2   85.19    4.30 
   1  -4  -2   82.99    3.90 
  -1  -4   2   85.59    3.90 
   1  -4  -2   82.79    4.10 
  -1  -4   2   80.69    5.00 
  -1  -4   2   88.99    4.20 
   1  -4  -2   84.89    3.90 
   1  -4  -2   86.29    4.00 
   1  -4  -2   93.89    5.20 
   1  -4  -2   81.29    3.70 
   1   4  -2   86.99    4.00 
   1   4  -2   82.69    3.80 
  -1   4   2   84.09    4.20 
   1   4  -2   81.59    3.50 
  -1   4   2   88.19    3.60 
   1   4  -2   80.99    5.40 
  -1   4   2   84.09    2.70 
  -1   4   2   85.79    3.80 
  -1   4   2   88.29    5.10 
  -1   4   2   86.09    2.70 
   1   4  -2   86.69    3.60 
   0  -4   2   83.59    4.40 
   0  -4   2   85.69    4.50 
   0  -4   2   83.89    4.20 
   0  -4  -2   81.59    4.10 
   0  -4  -2   88.59    5.10 
   0  -4  -2   84.09    3.20 
   0  -4   2   84.79    4.30 
   0  -4  -2   83.99    3.40 
   0  -4   2   78.49    4.50 
   0  -4   2   85.49    3.00 
   0  -4  -2   85.49    3.20 
   0  -4  -2   84.79    3.40 
   0  -4  -2   90.59    5.60 
   0   4   2   90.59    4.30 
   0   4  -2   81.09    3.90 
   0   4   2   88.29    2.50 
   0   4  -2   87.89    4.10 
   0   4  -2   84.49    4.30 
   0   4   2   79.19    5.50 
   0   4   2   88.99    3.20 
   0   4  -2   89.29    4.30 
   0   4  -2   84.39    5.40 
  -1  -4  -2  346.37    9.00 
  -1  -4  -2  348.07   11.10 
   1  -4   2  355.96   10.80 
   1  -4   2  336.97   10.50 
   1  -4   2  348.87   10.60 
   1  -4   2  346.17    8.30 
  -1  -4  -2  340.07    8.70 
  -1  -4  -2  339.67    8.70 
   1  -4   2  336.37   10.40 
  -1  -4  -2  358.46   11.00 
  -1  -4  -2  351.26   10.60 
  -1  -4  -2  336.27    8.90 
   1   4   2  342.77    8.70 
  -1   4  -2  323.67   10.50 
   1   4   2  337.97   11.20 
  -1   4  -2  338.37   10.20 
   1   4   2  342.97   11.30 
  -1   4  -2  328.37   10.40 
  -1   4  -2  343.37   10.20 
   1   4   2  320.47    8.60 
  -1   4  -2  327.97   11.30 
   2  -4   2   41.30    3.80 
  -2  -4  -2   52.29    3.10 
  -2  -4  -2   52.89    4.30 
   2  -4   2   45.30    4.30 
  -2  -4  -2   57.59    3.00 
  -2  -4  -2   52.39    3.20 
   2  -4   2   54.99    4.50 
   2  -4   2   50.49    4.10 
  -2  -4  -2   53.99    3.00 
  -2  -4  -2   54.19    2.90 
   2  -4   2   54.89    4.60 
  -2  -4  -2   54.79    4.20 
   2   4   2   50.89    4.30 
  -2   4  -2   60.59    4.50 
  -2   4  -2   56.19    4.50 
   2   4   2   55.59    5.00 
  -2   4  -2   60.69    4.20 
   2   4   2   38.90    2.40 
  -2   4  -2   53.29    4.90 
   2   4   2   52.49    1.80 
   2   4   2   58.89    2.80 
  -3  -4  -2  166.48    6.10 
   3  -4   2  165.08    7.30 
   3  -4   2  153.18    7.50 
  -3  -4  -2  148.09    6.60 
  -3  -4  -2  159.28    6.00 
   3  -4   2  151.08    7.70 
   3  -4   2  167.08    7.60 
  -3  -4  -2  159.78    6.10 
   3   4   2  157.08    6.80 
  -3   4  -2  182.58    7.40 
   3   4   2  159.48    5.10 
   3   4   2  157.78    7.40 
  -3   4  -2  159.18    7.40 
   3   4   2  162.28    5.80 
   4  -4   2    2.70    2.20 
   4  -4   2    2.60    2.80 
   4  -4   2    7.10    3.00 
   4  -4   2    6.10    3.60 
  -4  -4  -2    2.90    2.20 
  -4  -4  -2    1.70    2.20 
  -4  -4  -2    2.00    2.40 
   4  -4   2    2.80    3.10 
   4   4   2    7.20    3.10 
   4   4   2    2.00    1.70 
   4   4   2    1.00    2.10 
  -4   4  -2    5.70    3.30 
  -4   4  -2    6.00    3.40 
   4   4   2    1.70    2.30 
   5  -4   2   44.20    5.10 
   5  -4   2   37.40    5.80 
  -5  -4  -2   38.20    4.40 
   5  -4   2   39.90    5.60 
  -5  -4  -2   42.20    4.40 
  -5  -4  -2   37.90    4.20 
   5  -4   2   33.90    5.40 
   5  -4   2   40.20    4.10 
  -5   4  -2   45.10    5.00 
   5   4   2   38.10    2.60 
   5   4   2   32.00    3.30 
   5   4   2   41.30    4.10 
   5   4   2   31.80    5.40 
   5   4   2   34.10    2.50 
   5   4   2   35.80    3.50 
  -5   4  -2   42.20    5.50 
   6  -4   2   43.80    6.30 
  -6  -4  -2   53.39    5.30 
   6  -4   2   47.30    4.90 
  -6  -4  -2   54.39    5.60 
   6  -4   2   44.30    6.50 
   6  -4   2   61.19    6.40 
  -6   4  -2   53.19    6.00 
  -6   4  -2   48.90    5.70 
   6   4   2   49.30    6.60 
   6   4   2   52.39    3.70 
   6   4   2   49.50    5.80 
   7  -4   2   36.20    6.20 
   7  -4   2   27.50    6.20 
  -7  -4  -2   24.10    5.20 
   7  -4   2   32.50    6.50 
  -7  -4  -2   23.10    4.50 
   7  -4   2   29.30    4.90 
  -7   4  -2   17.80    5.30 
   7   4   2   29.30    6.00 
  -8  -4  -2   55.49    6.60 
   8  -4   2   74.69    9.00 
  -8  -4  -2   73.69    7.80 
   8  -4   2   58.49    6.50 
   8   4   2   65.59    8.50 
  -8   4  -2   59.79    7.60 
  -9  -5   2   22.50    5.40 
   9  -5  -2   21.00    5.70 
  -9  -5   2   32.80    6.00 
  -9  -5   2   37.10    6.00 
   9  -5  -2   32.90    6.90 
  -9   5   2   31.20    6.40 
   9   5  -2   23.80    6.70 
  -9   5   2   31.40    7.10 
   8  -5  -2    2.70    3.70 
   8  -5  -2    5.10    3.90 
  -8  -5   2    1.40    3.60 
  -8  -5   2    2.60    3.80 
  -8  -5   2   -1.60    3.70 
   8   5  -2    9.20    5.20 
  -8   5   2    8.80    5.30 
  -8   5   2   -0.40    4.10 
  -7  -5   2    5.40    3.90 
  -7  -5   2   14.90    4.00 
   7  -5  -2    1.80    4.60 
   7  -5  -2    5.20    4.60 
  -7  -5   2   12.60    3.80 
   7   5  -2   21.70    5.50 
  -7   5   2   15.70    5.20 
  -7   5   2   10.80    4.40 
  -6  -5   2    2.30    3.00 
   6  -5  -2    5.40    4.20 
   6  -5  -2    9.90    4.40 
  -6  -5   2    3.60    3.20 
  -6  -5   2   12.00    3.70 
  -6   5   2    6.20    2.90 
  -6   5   2    9.70    3.60 
  -6   5   2    5.20    3.70 
   6   5  -2    6.40    3.30 
  -5  -5   2   26.00    3.80 
  -5  -5   2   34.60    4.10 
   5  -5  -2   31.90    4.90 
   5  -5  -2   34.40    4.80 
   5  -5  -2   32.60    4.90 
  -5  -5   2   34.20    3.70 
  -5  -5   2   28.40    3.60 
   5   5  -2   31.30    2.30 
  -5   5   2   35.30    4.40 
   5   5  -2   37.20    3.40 
  -5   5   2   26.80    4.20 
  -5   5   2   28.90    4.60 
   5   5  -2   28.50    2.20 
   5   5  -2   29.40    4.80 
  -5   5   2   38.90    4.70 
   4  -5  -2  292.27   10.60 
  -4  -5   2  286.47    9.40 
  -4  -5   2  272.77    9.20 
   4  -5  -2  259.47   10.40 
  -4  -5   2  287.87    9.50 
   4  -5  -2  280.27   10.40 
   4  -5  -2  269.47   10.40 
  -4  -5   2  278.87    9.80 
  -4   5   2  277.07   10.50 
  -4   5   2  271.17    9.70 
  -4   5   2  263.87   10.60 
  -4   5   2  281.37   10.00 
   4   5  -2  275.07   10.50 
  -3  -5   2  502.65   14.20 
  -3  -5   2  502.45   14.20 
  -3  -5   2  520.45   14.10 
   3  -5  -2  517.75   15.10 
   3  -5  -2  491.95   15.00 
  -3  -5   2  490.65   13.90 
   3  -5  -2  512.75   15.10 
  -3   5   2  532.35   14.40 
  -3   5   2  523.15   14.70 
  -3   5   2  493.05   14.90 
   3   5  -2  508.35   16.10 
   3   5  -2  519.95   15.20 
  -3   5   2  504.95   16.10 
  -3   5   2  514.75   14.70 
  -2  -5   2  394.96   10.90 
  -2  -5   2  380.66   11.00 
  -2  -5   2  379.56   10.90 
   2  -5  -2  375.26   11.40 
   2  -5  -2  383.16   11.20 
   2  -5  -2  376.16   11.40 
   2  -5  -2  383.06   11.40 
  -2  -5   2  371.16   11.00 
  -2   5   2  383.16   10.40 
  -2   5   2  386.26   10.40 
  -2   5   2  373.06   11.30 
   2   5  -2  391.26   12.70 
  -2   5   2  390.66   12.90 
   2   5  -2  394.46   11.60 
  -2   5   2  383.16   11.00 
   2   5  -2  397.56   10.90 
  -2   5   2  376.36   11.50 
  -1  -5   2   91.99    4.30 
   1  -5  -2   88.19    4.10 
   1  -5  -2   85.39    3.90 
   1  -5  -2   84.39    4.00 
   1  -5  -2   87.99    4.10 
  -1  -5   2   89.09    4.30 
  -1  -5   2   88.39    4.10 
   1  -5  -2   92.29    4.80 
  -1  -5   2   91.19    4.60 
  -1  -5   2   98.69    4.50 
  -1   5   2   81.89    4.50 
  -1   5   2   90.99    6.20 
   1   5  -2   85.59    5.90 
   1   5  -2   90.59    4.20 
   1   5  -2   90.99    3.10 
  -1   5   2   88.49    3.80 
   1   5  -2   87.39    4.20 
   1   5  -2   84.09    3.00 
   0  -5   2  815.32   21.30 
   0  -5   2  807.72   21.30 
   0  -5   2  835.52   21.60 
   0  -5  -2  816.02   20.20 
   0  -5   2  843.32   21.50 
   0  -5   2  836.82   20.20 
   0  -5  -2  827.52   19.90 
   0  -5  -2  808.22   20.10 
   0  -5  -2  835.82   21.70 
   0  -5  -2  826.72   19.90 
   0  -5   2  822.42   21.60 
   0   5   2  823.72   23.00 
   0   5  -2  836.92   21.40 
   0   5  -2  809.32   22.80 
   0   5  -2  825.42   20.60 
   0   5   2  822.92   21.80 
   0   5  -2  839.42   20.60 
   0   5   2  806.82   19.70 
   1  -5   2  200.38    5.50 
   1  -5   2  193.48    7.60 
  -1  -5  -2  194.18    7.60 
  -1  -5  -2  193.48    5.40 
   1  -5   2  215.68    8.30 
   1  -5   2  189.48    7.50 
   1  -5   2  201.08    7.50 
  -1  -5  -2  198.08    5.20 
  -1  -5  -2  200.98    5.20 
   1  -5   2  199.08    7.70 
  -1  -5  -2  196.08    5.60 
   1   5   2  189.68    8.40 
  -1   5  -2  210.38    8.80 
  -1   5  -2  197.08    7.10 
  -1   5  -2  203.48    6.90 
   2  -5   2  238.28    9.00 
   2  -5   2  229.78    9.10 
   2  -5   2  225.28    8.70 
   2  -5   2  218.08    8.80 
  -2  -5  -2  234.08    6.50 
  -2  -5  -2  227.98    6.80 
  -2  -5  -2  238.88    6.60 
   2  -5   2  241.58    9.00 
  -2  -5  -2  227.98    6.80 
   2   5   2  244.48    9.20 
   2   5   2  242.58    6.00 
   2   5   2  213.48    8.90 
  -2   5  -2  231.68    8.40 
  -2   5  -2  230.98    8.40 
   2   5   2  220.18    5.90 
  -2   5  -2  233.08    9.30 
  -3  -5  -2  135.29    5.30 
  -3  -5  -2  131.59    5.20 
   3  -5   2  135.09    7.30 
   3  -5   2  131.29    7.20 
   3  -5   2  136.49    6.90 
   3  -5   2  139.89    7.10 
  -3  -5  -2  130.89    5.20 
   3   5   2  136.49    7.80 
   3   5   2  136.99    4.70 
   3   5   2  128.59    4.60 
  -3   5  -2  130.69    6.70 
   3   5   2  132.59    6.60 
  -3   5  -2  127.29    6.90 
  -4  -5  -2  135.29    6.10 
   4  -5   2  129.89    8.20 
   4  -5   2  139.19    8.10 
  -4  -5  -2  144.09    6.30 
   4  -5   2  141.49    7.50 
   4  -5   2  150.98    8.00 
  -4  -5  -2  142.59    6.30 
  -4  -5  -2  125.29    6.70 
   4   5   2  139.49    5.60 
  -4   5  -2  144.09    7.80 
   4   5   2  131.49    8.40 
  -4   5  -2  123.39    7.70 
   4   5   2  141.19    6.90 
  -5  -5  -2  164.78    7.50 
   5  -5   2  170.28   10.00 
   5  -5   2  177.28    9.90 
   5  -5   2  179.58    7.50 
  -5  -5  -2  186.08    7.90 
   5  -5   2  159.98    8.90 
  -5  -5  -2  170.78    7.70 
   5   5   2  177.98    7.50 
   5   5   2  184.58   10.10 
  -5   5  -2  183.88    9.30 
  -5   5  -2  180.78    9.50 
   5   5   2  172.88    7.30 
  -6  -5  -2  118.09    7.30 
   6  -5   2  125.19    9.20 
   6  -5   2  125.29    9.40 
   6  -5   2  137.69    7.20 
  -6  -5  -2  128.99    7.70 
   6  -5   2  135.19    8.70 
  -6   5  -2  141.59    9.10 
   6   5   2  111.79    9.20 
   7  -5   2   36.00    5.00 
  -7  -5  -2   47.70    5.60 
  -7  -5  -2   42.20    5.30 
   7  -5   2   31.00    6.50 
   7  -5   2   50.69    7.60 
   7  -5   2   52.29    6.60 
  -7   5  -2   37.20    6.40 
   7   5   2   41.00    7.00 
   8  -5   2   -0.10    4.20 
  -8  -5  -2   -1.50    4.00 
  -8  -5  -2    2.00    3.70 
  -8   5  -2    2.60    5.00 
   8   5   2   -2.40    5.30 
   9  -6  -2   56.69    8.90 
  -9  -6   2   75.99    9.80 
   9  -6  -2   61.99    8.60 
  -9  -6   2   69.49    7.60 
  -9  -6   2   60.99    6.80 
  -9   6   2   53.39    8.30 
   9   6  -2   78.89    9.10 
  -9   6   2   56.69    7.70 
   8  -6  -2   14.50    5.80 
  -8  -6   2    9.50    4.30 
   8  -6  -2   10.30    5.80 
   8  -6  -2    4.60    4.80 
  -8  -6   2   20.60    4.90 
  -8  -6   2   20.50    4.80 
  -8   6   2    8.70    4.80 
   8   6  -2    1.90    5.10 
  -8   6   2    7.40    5.50 
  -7  -6   2   18.10    4.30 
  -7  -6   2   17.80    4.30 
   7  -6  -2   16.40    5.40 
   7  -6  -2   10.60    5.20 
  -7  -6   2   15.20    4.30 
  -7   6   2   16.00    4.30 
   7   6  -2   16.00    5.20 
  -7   6   2   20.80    5.00 
   6  -6  -2    6.90    4.50 
   6  -6  -2   12.80    4.70 
  -6  -6   2   17.90    4.00 
  -6  -6   2   18.50    3.70 
  -6  -6   2   15.30    3.80 
  -6   6   2   17.70    4.30 
   6   6  -2   17.00    5.00 
  -6   6   2   18.10    4.80 
  -5  -6   2   71.69    5.20 
   5  -6  -2   68.49    6.40 
  -5  -6   2   77.99    5.40 
  -5  -6   2   68.09    5.20 
   5  -6  -2   71.49    6.60 
  -5   6   2   67.99    6.40 
  -5   6   2   62.69    6.20 
   5   6  -2   67.19    6.50 
  -5   6   2   77.69    5.90 
  -5   6   2   77.39    6.30 
   4  -6  -2  148.49    7.50 
  -4  -6   2  147.39    6.40 
  -4  -6   2  145.49    6.40 
  -4  -6   2  146.49    6.30 
   4  -6  -2  154.38    7.80 
   4  -6  -2  139.09    7.60 
   4  -6  -2  151.38    7.70 
  -4   6   2  136.79    7.30 
   4   6  -2  157.88    7.90 
  -4   6   2  152.08    8.30 
  -4   6   2  151.68    7.10 
  -4   6   2  144.09    7.60 
  -4   6   2  153.18    6.80 
  -4   6   2  150.78    6.70 
  -3  -6   2  227.18    7.70 
   3  -6  -2  209.58    8.60 
  -3  -6   2  217.18    7.50 
  -3  -6   2  212.98    7.50 
   3  -6  -2  220.58    8.80 
  -3  -6   2  227.38    7.80 
   3  -6  -2  216.28    8.50 
   3  -6  -2  246.98    9.00 
   3   6  -2  220.38    8.80 
  -3   6   2  226.78    8.70 
  -3   6   2  223.88   10.10 
  -3   6   2  222.28    7.60 
  -3   6   2  214.08    8.30 
   3   6  -2  232.48   10.10 
  -3   6   2  217.98    8.10 
  -3   6   2  223.98    7.50 
  -2  -6   2   86.89    4.30 
  -2  -6   2   80.89    4.20 
  -2  -6   2   85.69    4.30 
   2  -6  -2   92.99    4.90 
   2  -6  -2   77.99    4.40 
   2  -6  -2   80.69    4.40 
  -2  -6   2   83.59    5.00 
   2  -6  -2   91.89    5.00 
  -2  -6   2   82.89    4.10 
  -2   6   2   83.89    2.90 
  -2   6   2   61.79    3.70 
  -2   6   2   88.79    6.70 
  -2   6   2   84.89    2.90 
   2   6  -2   82.49    5.70 
  -2   6   2   89.29    5.10 
   2   6  -2   83.89    5.10 
  -2   6   2   87.29    4.60 
   1  -6  -2  104.19    5.40 
  -1  -6   2  101.39    4.90 
  -1  -6   2   97.89    4.60 
   1  -6  -2  108.59    4.60 
  -1  -6   2  100.69    4.80 
   1  -6  -2  102.49    4.40 
  -1  -6   2   97.79    4.90 
  -1  -6   2  101.49    4.70 
   1  -6  -2  112.69    4.60 
   1  -6  -2  110.49    4.50 
  -1   6   2  113.59    3.40 
   1   6  -2  121.69    7.10 
  -1   6   2  111.89    5.90 
  -1   6   2  112.39    7.20 
   1   6  -2  109.59    4.90 
  -1   6   2  114.69    4.30 
   0  -6  -2   80.69    3.30 
   0  -6   2   87.49    5.00 
   0  -6  -2   90.49    5.30 
   0  -6   2   87.39    4.80 
   0  -6   2   86.29    4.80 
   0  -6   2   84.69    4.30 
   0  -6  -2   87.69    3.20 
   0  -6  -2   86.29    3.30 
   0  -6   2   85.89    4.80 
   0  -6  -2   84.09    3.20 
   0  -6   2   82.69    3.80 
   0   6   2   82.29    5.50 
   0   6  -2   79.49    5.50 
   0   6  -2   82.29    3.40 
   0   6  -2   83.79    3.40 
   0   6   2   93.09    6.60 
   1  -6   2  266.67    9.20 
   1  -6   2  273.77    9.30 
  -1  -6  -2  267.17    6.60 
   1  -6   2  267.17    7.40 
   1  -6   2  264.97    9.50 
  -1  -6  -2  260.67    6.90 
  -1  -6  -2  268.97    6.50 
   1  -6   2  264.87    9.30 
   1   6   2  240.18   10.00 
  -1   6  -2  255.57    8.30 
  -1   6  -2  248.58    8.20 
  -1   6  -2  253.87   10.10 
  -2  -6  -2  160.18    4.80 
  -2  -6  -2  162.58    4.80 
   2  -6   2  164.88    7.60 
   2  -6   2  164.48    7.70 
  -2  -6  -2  164.78    5.00 
   2  -6   2  163.88    5.20 
   2  -6   2  162.88    7.50 
   2  -6   2  173.98    7.70 
   2  -6   2  154.28    7.30 
   2   6   2  158.48    8.00 
  -2   6  -2  158.68    6.70 
   2   6   2  162.68    8.40 
  -2   6  -2  179.88    6.90 
  -2   6  -2  167.88    8.60 
  -3  -6  -2  281.17    8.40 
   3  -6   2  287.57   11.30 
   3  -6   2  274.07   10.70 
  -3  -6  -2  282.87    8.20 
   3  -6   2  277.07   11.00 
   3  -6   2  251.97   10.70 
  -3  -6  -2  277.97    8.30 
   3   6   2  274.67   11.50 
   3   6   2  284.57   11.10 
  -3   6  -2  286.37   10.30 
  -3   6  -2  281.27   12.00 
  -3   6  -2  271.27   10.50 
   4  -6   2   50.09    5.80 
   4  -6   2   47.20    5.60 
   4  -6   2   35.40    8.10 
  -4  -6  -2   47.20    3.90 
  -4  -6  -2   49.70    3.90 
  -4  -6  -2   51.49    3.90 
   4  -6   2   55.69    6.30 
  -4   6  -2   60.59    5.60 
   4   6   2   46.50    3.20 
   4   6   2   40.70    5.80 
   4   6   2   52.59    5.20 
  -4   6  -2   53.69    5.50 
  -5  -6  -2   24.90    3.60 
  -5  -6  -2   22.80    3.70 
   5  -6   2   29.90    5.40 
   5  -6   2   20.10    5.00 
   5  -6   2   15.20    5.20 
   5  -6   2   26.70    3.50 
   5   6   2   23.50    5.60 
  -5   6  -2   28.50    4.90 
  -6  -6  -2   65.89    5.70 
   6  -6   2   65.29    5.60 
   6  -6   2   73.99    7.90 
   6  -6   2   56.39    7.50 
   6  -6   2   68.29    7.60 
  -6  -6  -2   73.89    6.00 
   6   6   2   62.79    7.60 
  -6   6  -2   60.49    6.80 
   7  -6   2   22.60    6.20 
  -7  -6  -2   13.40    4.00 
   7  -6   2   17.50    6.10 
   7  -6   2   31.00    6.90 
   7   6   2   10.50    5.80 
  -7   6  -2   19.10    5.60 
  -8  -6  -2   31.70    5.50 
   8  -6   2   21.60    5.90 
   8   6   2   32.70    7.60 
  -8   6  -2   19.00    6.10 
  -8  -7   2   20.90    4.70 
   8  -7  -2   21.50    6.40 
  -8  -7   2   27.40    4.60 
   8  -7  -2   24.40    6.20 
   8  -7  -2   26.50    6.70 
  -8   7   2   18.80    6.20 
  -8   7   2   22.50    5.90 
   8   7  -2    8.80    5.60 
   7  -7  -2    6.90    4.80 
  -7  -7   2    4.90    3.50 
   7  -7  -2    4.50    5.00 
  -7  -7   2    8.60    4.00 
   7  -7  -2    5.00    5.20 
  -7  -7   2    9.60    3.60 
  -7   7   2   -1.00    3.70 
   7   7  -2    9.00    4.20 
  -7   7   2   16.50    5.30 
   6  -7  -2   -3.70    2.90 
   6  -7  -2    1.50    4.20 
  -6  -7   2    0.20    2.90 
  -6  -7   2   -3.20    2.80 
  -6  -7   2   -3.50    2.80 
  -6   7   2   -4.10    3.70 
  -6   7   2    2.30    3.80 
   6   7  -2   -4.30    3.90 
  -6   7   2    0.50    3.70 
  -5  -7   2  134.29    6.70 
   5  -7  -2  144.49    8.60 
  -5  -7   2  139.99    6.70 
   5  -7  -2  130.19    8.20 
  -5  -7   2  123.09    6.40 
  -5   7   2  142.09    8.00 
  -5   7   2  132.59    8.10 
  -5   7   2  138.69    7.40 
   5   7  -2  117.59    8.30 
  -4  -7   2  679.23   18.00 
  -4  -7   2  659.53   18.20 
   4  -7  -2  659.93   20.00 
   4  -7  -2  665.73   19.80 
   4  -7  -2  691.13   20.10 
  -4  -7   2  670.33   18.20 
   4  -7  -2  626.94   19.60 
  -4   7   2  653.23   20.90 
  -4   7   2  664.73   18.30 
  -4   7   2  677.03   18.40 
   4   7  -2  664.03   20.10 
  -4   7   2  640.24   19.50 
  -4   7   2  648.34   19.80 
  -4   7   2  606.04   19.80 
   3  -7  -2  229.08    9.20 
  -3  -7   2  232.38    8.00 
  -3  -7   2  240.08    7.80 
  -3  -7   2  221.48    7.80 
   3  -7  -2  214.78    8.90 
  -3  -7   2  233.48    8.00 
   3  -7  -2  232.78    9.40 
   3  -7  -2  219.78    8.80 
  -3   7   2  240.78    9.10 
  -3   7   2  235.18    7.40 
   3   7  -2  224.48    9.30 
  -3   7   2  241.68    7.40 
  -3   7   2  223.48    9.40 
   3   7  -2  240.48   10.90 
  -3   7   2  230.18   10.40 
  -2  -7   2  153.78    5.90 
  -2  -7   2  148.09    5.80 
   2  -7  -2  153.68    6.50 
   2  -7  -2  148.09    6.30 
  -2  -7   2  152.38    5.90 
   2  -7  -2  154.38    6.70 
   2  -7  -2  146.99    6.50 
  -2  -7   2  155.68    6.00 
  -2   7   2  146.39    5.40 
   2   7  -2  143.29    8.50 
  -2   7   2  145.79    8.90 
   2   7  -2  144.39    6.70 
  -2   7   2  148.49    6.20 
  -2   7   2  141.49    7.00 
   1  -7  -2  145.79    5.60 
  -1  -7   2  148.69    6.20 
  -1  -7   2  142.49    5.80 
   1  -7  -2  141.59    5.50 
   1  -7  -2  149.49    5.70 
   1  -7  -2  153.18    5.40 
  -1  -7   2  142.29    5.90 
  -1  -7   2  146.59    6.00 
  -1  -7   2  146.19    6.00 
   1   7  -2  149.39    6.20 
  -1   7   2  136.19    5.00 
  -1   7   2  141.49    7.00 
  -1   7   2  148.09    8.70 
   1   7  -2  142.69    8.30 
   0  -7   2   12.40    2.20 
   0  -7   2    5.10    2.40 
   0  -7  -2    9.90    1.30 
   0  -7   2    7.90    2.60 
   0  -7  -2    7.50    1.50 
   0  -7  -2    9.10    1.60 
   0  -7   2    7.30    2.60 
   0  -7   2    8.70    2.70 
   0  -7  -2    5.70    1.50 
   0  -7   2    2.80    2.40 
   0   7  -2    7.00    3.80 
   0   7   2    4.50    3.00 
   0   7   2    5.60    3.20 
   1  -7   2   53.49    4.70 
   1  -7   2   52.19    4.60 
   1  -7   2   56.29    3.20 
   1  -7   2   60.29    4.80 
  -1  -7  -2   49.20    2.10 
  -1  -7  -2   53.19    1.90 
   1  -7   2   47.00    4.60 
  -1  -7  -2   51.99    1.90 
   1   7   2   49.40    5.70 
  -1   7  -2   51.69    5.30 
  -1   7  -2   48.70    3.40 
  -1   7  -2   50.39    3.40 
   2  -7   2   48.20    4.80 
   2  -7   2   41.90    2.80 
   2  -7   2   39.00    4.40 
   2  -7   2   40.20    4.60 
   2  -7   2   34.80    4.60 
   2  -7   2   40.20    4.50 
  -2  -7  -2   37.90    1.80 
  -2  -7  -2   33.70    1.90 
  -2  -7  -2   39.00    1.80 
   2   7   2   45.00    5.60 
  -2   7  -2   40.90    3.60 
  -2   7  -2   46.50    5.90 
  -2   7  -2   45.50    3.90 
   2   7   2   34.20    5.20 
   3  -7   2   35.50    4.60 
   3  -7   2   33.30    5.00 
  -3  -7  -2   34.30    2.60 
  -3  -7  -2   34.10    2.70 
  -3  -7  -2   35.10    2.80 
   3  -7   2   32.20    4.90 
   3  -7   2   32.60    4.80 
  -3   7  -2   40.40    6.00 
   3   7   2   32.30    5.40 
   3   7   2   36.30    5.20 
  -3   7  -2   35.70    4.40 
  -4  -7  -2   49.50    4.00 
   4  -7   2   45.90    5.90 
  -4  -7  -2   43.10    3.50 
   4  -7   2   48.10    5.80 
   4  -7   2   45.70    6.00 
   4   7   2   49.00    6.30 
  -4   7  -2   44.80    5.80 
  -4   7  -2   50.09    5.50 
   5  -7   2  251.57   12.10 
  -5  -7  -2  253.47    9.20 
   5  -7   2  241.68   11.50 
   5  -7   2  268.27   12.30 
   5   7   2  248.98   12.70 
  -5   7  -2  252.07   11.10 
  -6  -7  -2   90.79    6.30 
   6  -7   2   82.79    8.40 
   6  -7   2  104.19    9.50 
   6  -7   2   88.19    8.70 
   6   7   2   96.19    9.10 
  -6   7  -2   82.39    8.00 
   7  -7   2    7.20    5.10 
  -7  -7  -2    5.90    3.60 
   7  -7   2    1.30    5.20 
   7  -7   2   -1.50    5.20 
   7   7   2    9.90    5.80 
  -7   7  -2    8.40    4.80 
   8  -8  -2   10.10    5.80 
   8  -8  -2   18.80    5.40 
  -8  -8   2   14.40    4.10 
  -8  -8   2   17.30    4.20 
   8  -8  -2   21.00    6.60 
   8   8  -2   17.90    6.10 
  -8   8   2   16.60    5.30 
  -8   8   2    8.80    6.30 
   7  -8  -2    7.50    5.30 
  -7  -8   2    2.70    3.20 
   7  -8  -2   -0.60    4.60 
   7  -8  -2    1.50    4.90 
  -7  -8   2    2.90    3.30 
   7   8  -2    2.40    4.60 
  -7   8   2    9.70    4.50 
  -7   8   2    4.90    4.60 
  -6  -8   2   22.70    3.80 
  -6  -8   2   22.20    3.60 
   6  -8  -2   20.60    5.30 
   6  -8  -2   14.70    4.90 
   6  -8  -2   18.10    5.30 
  -6   8   2   28.40    5.30 
  -6   8   2   20.10    4.50 
   6   8  -2   19.20    5.10 
   5  -8  -2  137.49    8.70 
  -5  -8   2  141.79    6.60 
   5  -8  -2  139.89    9.30 
   5  -8  -2  140.09    8.80 
  -5  -8   2  146.19    6.80 
   5   8  -2  147.19    8.90 
  -5   8   2  150.68    8.60 
  -5   8   2  152.48    8.60 
  -5   8   2  142.19    7.30 
  -4  -8   2    6.90    2.50 
  -4  -8   2    8.10    2.80 
  -4  -8   2    9.20    2.40 
   4  -8  -2   10.00    3.70 
   4  -8  -2    5.40    3.70 
  -4   8   2   10.00    2.70 
  -4   8   2    7.30    3.30 
  -4   8   2    6.70    3.80 
   4   8  -2    7.70    3.80 
  -3  -8   2  173.08    6.40 
   3  -8  -2  177.08    7.80 
  -3  -8   2  161.08    6.70 
  -3  -8   2  178.58    6.80 
   3  -8  -2  164.28    7.90 
   3  -8  -2  172.18    8.30 
   3   8  -2  176.08    8.30 
  -3   8   2  178.38    8.50 
   3   8  -2  163.98    9.80 
  -3   8   2  162.48   10.10 
  -3   8   2  157.68    7.50 
  -3   8   2  177.78    8.00 
   2  -8  -2  347.97   11.20 
   2  -8  -2  331.97   11.00 
   2  -8  -2  327.47   10.80 
  -2  -8   2  334.17   10.30 
  -2  -8   2  328.07   10.30 
  -2  -8   2  327.97   10.00 
   2  -8  -2  318.37   10.60 
  -2   8   2  328.17   13.40 
   2   8  -2  328.47   13.10 
  -2   8   2  334.77   10.30 
  -2   8   2  329.47   12.30 
   2   8  -2  330.67   11.50 
  -1  -8   2  165.98    6.90 
   1  -8  -2  163.98    5.90 
   1  -8  -2  164.78    6.30 
   1  -8  -2  168.68    6.10 
  -1  -8   2  159.58    6.60 
  -1  -8   2  168.98    6.80 
   1  -8  -2  157.28    6.30 
  -1  -8   2  162.68    6.60 
  -1  -8   2  165.38    6.60 
   1  -8  -2  152.98    6.20 
   1  -8  -2  168.48    6.40 
   1   8  -2  151.78    8.50 
  -1   8   2  164.58    9.00 
  -1   8   2  165.78    8.20 
   0  -8   2   12.70    3.00 
   0  -8  -2   12.80    1.90 
   0  -8  -2   14.70    1.20 
   0  -8  -2   14.60    1.90 
   0  -8   2   12.60    3.00 
   0  -8  -2   16.30    2.00 
   0  -8   2   12.20    3.00 
   0  -8   2   15.70    3.00 
   0  -8  -2   17.30    1.40 
   0  -8  -2   16.60    2.00 
   0  -8   2   21.40    2.80 
   0  -8   2   17.00    3.10 
   0   8   2   16.00    3.80 
   0   8  -2   14.30    4.50 
   0   8   2   14.90    4.70 
   1  -8   2  100.29    5.90 
  -1  -8  -2  105.29    3.10 
  -1  -8  -2  101.99    3.30 
   1  -8   2  106.19    6.00 
   1  -8   2  112.69    4.80 
   1  -8   2  108.59    6.30 
   1  -8   2   98.99    6.30 
  -1  -8  -2  110.29    3.20 
  -1  -8  -2  107.09    3.30 
  -1   8  -2  106.69    3.70 
  -1   8  -2  102.49    3.70 
   1   8   2  106.09    8.00 
  -1   8  -2  109.39    8.10 
   2  -8   2  261.07   10.60 
   2  -8   2  258.47   10.50 
   2  -8   2  274.67   10.70 
   2  -8   2  272.27   10.70 
  -2   8  -2  267.07   11.70 
  -2   8  -2  279.87    9.10 
   2   8   2  268.27   12.00 
   3  -8   2   86.69    6.80 
   3  -8   2   97.29    7.10 
   3  -8   2   87.39    6.90 
  -3   8  -2   84.49    5.80 
   3   8   2   90.09    7.70 
   3   8   2   84.49    7.80 
  -3   8  -2   89.09    7.10 
   4  -8   2   26.80    5.20 
  -4  -8  -2   34.30    2.90 
   4  -8   2   35.50    5.70 
   4  -8   2   39.00    5.80 
   4   8   2   39.80    6.20 
  -4   8  -2   36.00    6.40 
  -4   8  -2   34.80    4.60 
  -5  -8  -2   30.90    3.50 
   5  -8   2   37.20    6.30 
   5  -8   2   29.10    5.90 
   5  -8   2   29.10    5.60 
  -5   8  -2   31.00    5.70 
   5   8   2   34.00    6.50 
  -5   8  -2   33.40    5.10 
  -6  -8  -2   28.30    4.00 
   6  -8   2   39.20    6.40 
   6  -8   2   24.50    5.50 
   6  -8   2   27.50    6.20 
   6   8   2   31.20    6.80 
  -6   8  -2   35.20    7.30 
  -6   8  -2   40.10    5.80 
  -7  -8  -2   12.90    3.90 
   7  -8   2    2.40    4.30 
   7  -8   2   10.00    5.70 
  -7   8  -2    9.60    5.50 
   7   8   2    8.20    4.90 
   7  -9  -2    9.60    5.20 
   7  -9  -2    3.70    5.20 
   7  -9  -2    5.10    5.20 
  -7  -9   2    5.50    3.40 
  -7  -9   2    6.40    3.10 
  -7   9   2   13.10    5.50 
   7   9  -2   11.00    5.50 
  -7   9   2    2.80    4.10 
  -6  -9   2   28.60    4.00 
   6  -9  -2   30.70    5.90 
  -6  -9   2   35.30    3.90 
   6  -9  -2   49.40    7.00 
   6  -9  -2   38.20    6.40 
  -6   9   2   39.40    5.90 
   6   9  -2   39.20    6.50 
  -6   9   2   37.80    5.60 
   5  -9  -2   54.59    6.50 
  -5  -9   2   59.49    4.80 
   5  -9  -2   59.69    6.50 
  -5  -9   2   65.89    4.30 
   5  -9  -2   69.89    6.90 
  -5   9   2   60.49    6.50 
   5   9  -2   58.19    6.70 
  -4  -9   2  123.69    6.00 
   4  -9  -2  136.89    8.40 
   4  -9  -2  114.89    8.00 
   4  -9  -2  129.69    8.20 
  -4  -9   2  127.99    5.30 
   4   9  -2  121.89    8.10 
  -4   9   2  118.29    7.90 
   3  -9  -2  111.19    7.00 
   3  -9  -2  102.29    6.80 
  -3  -9   2   98.49    4.70 
  -3  -9   2  101.49    5.30 
   3  -9  -2  113.69    6.80 
  -3   9   2   99.39    7.20 
   3   9  -2  106.69    7.90 
   3   9  -2  100.59    6.90 
   2  -9  -2  101.69    5.80 
   2  -9  -2   98.29    6.10 
  -2  -9   2  115.29    5.00 
  -2  -9   2  100.99    5.30 
   2  -9  -2  109.19    6.30 
   2  -9  -2  112.79    6.00 
  -2  -9   2  107.19    5.60 
   2   9  -2   89.49    8.30 
   2   9  -2   88.19    6.50 
  -2   9   2   94.09    6.90 
  -1  -9   2   67.19    4.80 
  -1  -9   2   71.79    5.00 
   1  -9  -2   84.09    4.10 
   1  -9  -2   72.09    4.50 
  -1  -9   2   76.09    4.70 
   1  -9  -2   76.49    4.70 
  -1  -9   2   67.69    4.80 
   1  -9  -2   71.29    4.70 
   1   9  -2   67.09    7.30 
  -1   9   2   75.89    6.70 
  -1   9   2   71.99    7.80 
   0  -9   2   70.39    5.10 
   0  -9  -2   63.39    3.30 
   0  -9  -2   61.39    3.30 
   0  -9   2   58.59    4.90 
   0  -9   2   64.69    4.80 
   0  -9   2   52.89    4.60 
   0   9   2   60.99    7.30 
   0   9  -2   58.69    6.80 
   0   9   2   61.19    6.20 
   1  -9   2   68.39    5.60 
   1  -9   2   70.09    5.70 
   1  -9   2   74.19    5.70 
   1   9   2   60.49    7.30 
  -1   9  -2   64.29    7.20 
   2  -9   2   -0.80    3.40 
   2  -9   2    4.40    3.60 
  -2   9  -2    1.50    3.30 
   3  -9   2    0.10    3.50 
   3  -9   2    4.40    3.80 
   3  -9   2    5.10    3.70 
  -3   9  -2    6.20    4.60 
  -3   9  -2   -2.20    2.60 
   4  -9   2   50.79    6.60 
   4  -9   2   50.39    6.40 
   4  -9   2   54.49    6.60 
  -4   9  -2   55.89    6.90 
   4   9   2   57.99    7.50 
  -4   9  -2   56.19    5.40 
   5  -9   2  194.28   11.30 
   5  -9   2  180.78   11.10 
  -5  -9  -2  195.48    7.10 
   5  -9   2  188.88   11.20 
  -5   9  -2  191.08    9.80 
  -5   9  -2  197.58   12.40 
   5   9   2  227.88   12.70 
   6  -9   2   27.50    6.50 
  -6  -9  -2   38.00    4.00 
   6  -9   2   25.50    6.10 
   6  -9   2   20.20    6.20 
  -6   9  -2   23.20    7.20 
  -6   9  -2   29.30    5.80 
   6   9   2   53.39    8.10 
   6 -10  -2   28.20    5.90 
   6 -10  -2   27.50    6.00 
   6 -10  -2   38.50    6.50 
  -6 -10   2   28.60    3.90 
   6  10  -2   38.00    6.50 
  -6  10   2   28.80    6.00 
  -5 -10   2   66.29    4.90 
   5 -10  -2   80.59    7.70 
   5 -10  -2   72.59    7.30 
   5 -10  -2   67.39    7.50 
  -5  10   2   71.89    7.20 
   5  10  -2   65.69    7.40 
   4 -10  -2   22.90    4.70 
   4 -10  -2   17.00    4.60 
  -4 -10   2   24.30    3.10 
   4 -10  -2   17.60    4.60 
  -4  10   2   19.30    5.00 
   4  10  -2   20.40    4.90 
  -3 -10   2   59.39    3.30 
  -3 -10   2   53.59    4.20 
   3 -10  -2   53.89    5.60 
   3 -10  -2   59.49    5.60 
   3 -10  -2   59.79    5.50 
  -3  10   2   62.39    6.50 
   3  10  -2   75.29    6.60 
   3  10  -2   53.39    7.60 
  -2 -10   2  222.08    8.10 
  -2 -10   2  217.98    7.20 
   2 -10  -2  224.88    8.50 
  -2 -10   2  218.88    8.10 
   2 -10  -2  206.88    8.90 
  -2  10   2  228.38   10.70 
   2  10  -2  219.78   12.20 
  -1 -10   2  158.28    6.90 
   1 -10  -2  156.98    5.60 
   1 -10  -2  139.79    6.30 
  -1 -10   2  153.68    6.50 
   1 -10  -2  152.48    6.50 
  -1 -10   2  152.08    6.90 
   1  10  -2  135.19    9.10 
  -1  10   2  154.48    9.10 
   0 -10  -2   10.70    1.90 
   0 -10   2    7.80    2.90 
   0 -10   2   10.00    3.20 
   0 -10   2    7.10    2.80 
   0 -10  -2    9.90    1.80 
   0  10  -2   13.90    5.10 
   0  10   2   16.00    4.60 
   1 -10   2   50.39    5.40 
   1 -10   2   49.90    5.10 
   1 -10   2   54.99    5.30 
  -1  10  -2   54.59    7.10 
   2 -10   2   95.09    6.70 
   2 -10   2   94.79    7.30 
  -2  10  -2  109.39    9.40 
   3 -10   2   23.30    4.80 
   3 -10   2   21.90    4.80 
  -3  10  -2   29.10    6.20 
   4 -10   2    5.00    4.30 
   4 -10   2    8.90    5.00 
  -4  10  -2   -1.20    4.90 
   5 -10   2   37.40    6.60 
   5 -10   2   45.70    6.80 
  -5  10  -2   22.30    6.70 
   5  10   2   31.10    6.90 
   5 -11  -2   27.10    5.80 
   5 -11  -2   28.30    5.90 
   5 -11  -2   36.30    9.80 
  -5 -11   2   28.70    3.40 
  -5  11   2   24.60    5.50 
   5  11  -2   33.10    6.20 
  -4 -11   2    0.40    2.10 
   4 -11  -2   -2.80    3.60 
   4 -11  -2    3.20    3.80 
  -4  11   2   12.10    4.60 
   4  11  -2    4.20    4.10 
  -3 -11   2   38.40    3.60 
  -3 -11   2   43.80    3.60 
   3 -11  -2   38.10    4.70 
   3 -11  -2   29.20    4.60 
   3  11  -2   41.00    7.30 
  -3  11   2   46.90    6.40 
   2 -11  -2  129.49    6.40 
   2 -11  -2  147.29    7.30 
  -2 -11   2  139.79    6.20 
  -2 -11   2  146.49    6.60 
   2  11  -2  129.09   10.50 
  -2  11   2  131.19    9.00 
   1 -11  -2   -1.10    2.10 
  -1 -11   2    1.60    2.50 
   1 -11  -2    2.40    2.40 
  -1 -11   2    1.00    2.10 
  -1  11   2   -1.70    4.20 
   1  11  -2    1.60    5.00 
   0 -11  -2    1.70    1.50 
   0 -11   2    0.60    2.60 
   0 -11  -2    1.00    1.50 
   0 -11   2    0.40    2.80 
   0  11  -2    2.90    3.90 
   0  11   2   -1.80    4.00 
   1 -11   2   14.00    3.80 
   1 -11   2   14.70    3.70 
  -1  11  -2   18.30    5.00 
   2 -11   2   60.69    6.00 
   2 -11   2   57.99    6.10 
   2 -11   2   78.29    8.80 
  -2  11  -2   82.79    8.80 
   3 -11   2   46.80    5.90 
   3 -11   2   61.69    6.60 
  -3  11  -2   45.50    6.80 
   4 -11   2   35.40    6.10 
   4 -11   2   30.10    5.90 
  -4  11  -2   41.50    7.50 
  -4 -12   2    6.20    2.00 
   4 -12  -2    4.70    4.80 
   4 -12  -2   11.10    4.10 
  -4  12   2   12.80    5.40 
   3 -12  -2   26.10    4.50 
   3 -12  -2   31.20    4.40 
  -3 -12   2   28.50    3.00 
   3  12  -2   29.30    6.30 
  -3  12   2   25.70    5.50 
   2 -12  -2   32.80    4.10 
  -2 -12   2   29.40    3.30 
   2  12  -2   41.90    6.80 
  -2  12   2   33.90    6.10 
   1 -12  -2   61.89    4.50 
  -1 -12   2   54.69    4.60 
  -1  12   2   43.50    6.70 
   1  12  -2   43.60    7.70 
   0 -12   2   23.80    3.90 
   0 -12  -2   31.50    2.20 
   0 -12   2   27.30    4.10 
   0 -12  -2   28.30    2.20 
   0  12   2   27.30    6.20 
   0  12  -2   40.10    7.20 
   1 -12   2   23.50    4.10 
   1 -12   2   13.10    3.90 
  -1  12  -2   19.80    6.20 
   2 -12   2   -1.30    3.60 
   2 -12   2   11.60    3.90 
  -2  12  -2   15.30    6.10 
   3 -12   2    0.20    4.20 
   3 -12   2    5.20    4.20 
  -3  12  -2    5.50    5.90 
 -10   0   3    9.90    4.50 
 -10   0   3   11.10    5.80 
  10   0  -3    1.40    6.00 
  10   0  -3    0.80    4.80 
 -10   0   3    7.40    4.40 
   9   0  -3    6.70    4.60 
   9   0  -3   -4.30    5.00 
  -9   0   3   -0.50    4.60 
  -9   0   3    2.20    4.80 
  -9   0   3    2.20    3.70 
  -8   0   3   -6.90    3.70 
   8   0  -3   -1.80    3.80 
  -8   0   3   -2.00    4.30 
  -8   0   3    2.80    4.20 
  -7   0   3  321.17   12.80 
  -7   0   3  332.07   13.50 
   7   0  -3  357.06   13.60 
   7   0  -3  344.67   13.20 
  -7   0   3  342.57    9.40 
  -7   0   3  329.67   13.10 
  -6   0   3  118.39    4.90 
   6   0  -3  109.69    6.50 
  -6   0   3  112.09    6.60 
  -6   0   3  125.59    7.60 
  -6   0   3  116.69    7.60 
   5   0  -3   18.60    4.10 
   5   0  -3    7.20    3.20 
  -5   0   3   18.10    3.80 
  -5   0   3   16.90    2.50 
  -5   0   3   15.80    3.50 
  -5   0   3   13.50    3.20 
   4   0  -3   92.09    5.60 
  -4   0   3   82.39    5.50 
  -4   0   3   80.49    4.90 
   4   0  -3   89.39    5.40 
  -4   0   3   88.39    5.20 
  -3   0   3  263.97    9.10 
  -3   0   3  258.17    9.20 
  -3   0   3  284.37    8.90 
  -3   0   3  265.57    7.90 
   3   0  -3  265.57    9.20 
  -3   0   3  257.47    9.00 
   3   0  -3  273.37    9.00 
   3   0  -3  258.07    9.00 
   3   0  -3  273.57    8.90 
  -2   0   3  213.68    7.40 
  -2   0   3  221.78    6.30 
  -2   0   3  223.88    7.50 
   2   0  -3  227.88    7.90 
  -2   0   3  216.88    7.60 
   2   0  -3  229.78    7.80 
   2   0  -3  230.58    7.90 
  -1   0   3    5.40    1.90 
  -1   0   3    0.70    2.50 
   1   0  -3    4.70    2.40 
  -1   0   3    5.50    1.90 
   1   0  -3    5.40    2.00 
   1   0  -3    5.60    2.40 
  -1   0   3    0.60    1.70 
   1   0  -3    4.80    1.30 
   0   0   3  915.81   23.20 
   0   0   3  919.11   23.30 
   0   0   3  934.01   23.40 
   0   0  -3  930.11   23.50 
   0   0  -3  895.31   23.30 
   0   0  -3  914.51   23.40 
   0   0   3  924.51   23.40 
   1   0   3  541.55   15.30 
   1   0   3  593.74   15.60 
  -1   0  -3  572.44   15.70 
  -1   0  -3  557.44   14.80 
  -1   0  -3  555.44   15.30 
  -1   0  -3  559.24   15.40 
   1   0   3  528.25   15.40 
  -1   0  -3  576.84   15.50 
   1   0   3  583.14   15.50 
   2   0   3 1770.32   42.60 
   2   0   3 1740.23   42.70 
  -2   0  -3 1696.33   42.80 
  -2   0  -3 1745.93   42.90 
   2   0   3 1753.42   42.30 
   2   0   3 1786.62   43.00 
  -2   0  -3 1691.03   43.00 
  -2   0  -3 1661.33   42.60 
   2   0   3 1799.52   43.00 
   2   0   3 1729.53   43.10 
  -2   0  -3 1725.83   43.00 
   3   0   3   21.50    3.30 
  -3   0  -3   13.70    3.40 
  -3   0  -3   20.40    2.90 
   3   0   3   20.20    3.30 
  -3   0  -3   20.30    3.30 
  -3   0  -3   19.10    3.40 
   3   0   3   19.90    3.20 
   3   0   3   20.90    3.10 
  -3   0  -3   14.60    3.20 
   3   0   3   19.60    3.60 
   4   0   3   -1.40    2.30 
  -4   0  -3   -0.90    2.90 
   4   0   3    2.00    2.70 
   4   0   3   -3.90    2.60 
   4   0   3   -2.70    2.40 
  -4   0  -3    3.10    3.00 
  -4   0  -3   -0.80    2.70 
  -5   0  -3  211.58    9.90 
   5   0   3  215.68    9.50 
   5   0   3  237.28   10.00 
  -5   0  -3  218.68   10.10 
   5   0   3  234.48   10.40 
   5   0   3  228.18    9.70 
  -5   0  -3  218.78   10.00 
  -6   0  -3   42.50    6.10 
  -6   0  -3   64.29    6.60 
   6   0   3   56.79    5.90 
   6   0   3   57.29    4.00 
   6   0   3   54.39    5.90 
   6   0   3   58.99    6.10 
   7   0   3    1.70    3.90 
   7   0   3   -0.90    3.60 
  -7   0  -3   -1.40    4.10 
  -7   0  -3   -0.70    4.20 
   7   0   3   -2.40    3.20 
   8   0   3   11.70    4.80 
   8   0   3    9.30    4.60 
  -8   0  -3   11.60    5.40 
  -8   0  -3   11.10    5.40 
   8   0   3   24.60    6.20 
  -9   0  -3   25.10    6.90 
   9   0   3   24.70    5.90 
   9   0   3   17.30    5.90 
  -9   0  -3   39.60    7.40 
  10  -1  -3   11.50    5.60 
 -10  -1   3    7.30    5.60 
  10  -1  -3   11.20    6.40 
 -10  -1   3    0.30    4.90 
 -10  -1   3    5.40    5.50 
 -10   1   3    1.30    5.40 
  10   1  -3    9.00    6.30 
 -10   1   3    1.50    5.40 
  10   1  -3    5.80    5.20 
  -9  -1   3   13.30    5.40 
  -9  -1   3   19.60    4.80 
   9  -1  -3   14.50    5.30 
  -9  -1   3   19.30    5.80 
   9   1  -3   21.00    5.10 
  -9   1   3   25.40    6.20 
  -9   1   3   22.70    5.80 
   9   1  -3   23.10    6.20 
  -9   1   3   15.90    4.70 
   8  -1  -3   69.09    7.10 
  -8  -1   3   72.99    7.50 
  -8  -1   3   80.49    7.70 
  -8  -1   3   69.59    7.30 
  -8   1   3   87.19    8.10 
  -8   1   3   73.09    6.90 
  -8   1   3   60.19    7.40 
   8   1  -3   76.09    7.00 
   8   1  -3   71.79    8.10 
  -7  -1   3   90.29    7.30 
  -7  -1   3  103.39    7.70 
  -7  -1   3   92.59    3.40 
   7  -1  -3   98.69    7.80 
  -7  -1   3   93.89    7.80 
   7  -1  -3   75.89    7.10 
  -7   1   3   94.09    7.80 
  -7   1   3   95.69    7.60 
   7   1  -3   86.69    6.90 
   7   1  -3   97.69    7.30 
  -7   1   3   94.09    8.00 
  -7   1   3  100.69    4.50 
  -6  -1   3  249.48   10.60 
  -6  -1   3  240.98   10.30 
  -6  -1   3  232.98   10.30 
   6  -1  -3  257.47   10.70 
  -6  -1   3  237.78    7.70 
   6   1  -3  240.38   10.10 
  -6   1   3  249.58    8.30 
  -6   1   3  242.78   10.10 
  -6   1   3  236.08   10.80 
  -6   1   3  264.07   10.80 
  -5  -1   3  269.47   10.20 
   5  -1  -3  262.87   10.20 
  -5  -1   3  255.27    9.80 
  -5  -1   3  248.78   10.00 
   5  -1  -3  263.67   10.30 
  -5   1   3  269.27   10.40 
  -5   1   3  260.87   10.10 
   5   1  -3  270.47   10.00 
  -5   1   3  263.07   10.20 
  -5   1   3  273.57    8.80 
  -4  -1   3  230.38    7.90 
   4  -1  -3  231.68    8.50 
  -4  -1   3  227.88    8.90 
  -4  -1   3  226.08    8.70 
  -4  -1   3  221.78    8.60 
   4  -1  -3  222.18    8.70 
  -4   1   3  231.38    8.10 
  -4   1   3  233.78    8.90 
   4   1  -3  217.18    8.40 
  -4   1   3  216.68    8.70 
  -4   1   3  234.18    9.10 
   4   1  -3  211.68    8.20 
   4   1  -3  232.78    8.60 
   3  -1  -3  158.78    6.80 
   3  -1  -3  152.38    6.50 
   3  -1  -3  160.88    7.00 
  -3  -1   3  155.98    6.40 
  -3  -1   3  160.98    6.30 
  -3  -1   3  156.08    6.50 
  -3  -1   3  164.58    6.00 
  -3  -1   3  166.88    6.90 
   3   1  -3  172.08    6.60 
   3   1  -3  170.38    6.40 
  -3   1   3  170.28    7.00 
  -3   1   3  164.68    7.20 
   3   1  -3  175.78    6.90 
  -3   1   3  167.18    6.70 
  -3   1   3  166.08    6.70 
   3   1  -3  176.38    6.50 
  -3   1   3  169.78    6.90 
  -2  -1   3  492.25   13.50 
   2  -1  -3  464.95   13.60 
   2  -1  -3  479.15   13.60 
  -2  -1   3  504.85   13.90 
   2  -1  -3  473.35   13.60 
  -2  -1   3  460.05   13.30 
   2  -1  -3  410.36   13.10 
  -2  -1   3  469.85   12.70 
   2   1  -3  494.85   13.70 
   2   1  -3  503.15   13.60 
  -2   1   3  478.05   13.50 
  -2   1   3  488.15   11.60 
  -2   1   3  492.25   13.50 
   2   1  -3  503.35   12.80 
   2   1  -3  486.35   13.60 
  -2   1   3  482.55   13.70 
  -1  -1   3  587.44   15.90 
   1  -1  -3  595.24   15.70 
   1  -1  -3  577.24   15.70 
  -1  -1   3  567.84   15.90 
  -1  -1   3  590.74   15.20 
  -1  -1   3  591.44   16.10 
   1  -1  -3  607.04   15.80 
   1  -1  -3  579.04   13.90 
   1  -1  -3  560.24   15.70 
   1   1  -3  591.24   15.20 
   1   1  -3  590.54   16.00 
  -1   1   3  589.04   15.50 
   1   1  -3  600.64   15.90 
  -1   1   3  599.44   15.70 
  -1   1   3  588.14   15.50 
   1   1  -3  601.24   15.90 
  -1   1   3  596.84   15.90 
   0  -1  -3  642.44   16.50 
   0  -1   3  609.34   16.80 
   0  -1   3  651.83   17.00 
   0  -1  -3  622.64   16.50 
   0  -1  -3  628.34   16.40 
   0  -1   3  637.34   16.80 
   0  -1  -3  627.14   16.60 
   0   1   3  638.94   16.30 
   0   1  -3  615.64   16.80 
   0   1   3  594.44   16.50 
   0   1  -3  614.64   16.80 
   0   1   3  616.44   16.20 
   0   1   3  616.14   16.40 
   0   1  -3  609.24   16.70 
  -1  -1  -3 1029.00   25.70 
   1  -1   3 1011.40   25.90 
   1  -1   3 1032.00   26.40 
  -1  -1  -3  981.10   25.70 
  -1  -1  -3 1040.60   25.70 
   1  -1   3 1040.00   26.10 
   1  -1   3 1025.20   26.20 
   1  -1   3 1058.39   26.20 
  -1  -1  -3  970.80   25.70 
   1   1   3 1016.70   25.40 
   1   1   3 1052.09   25.70 
  -1   1  -3 1043.20   26.30 
  -1   1  -3 1004.20   26.00 
   1   1   3 1016.10   25.60 
   1   1   3  990.60   25.70 
  -1   1  -3  994.10   26.10 
   1   1   3 1014.00   25.80 
  -1   1  -3 1017.80   24.80 
   2  -1   3  267.77    8.00 
  -2  -1  -3  261.67    8.80 
   2  -1   3  262.27    9.30 
  -2  -1  -3  260.37    8.90 
   2  -1   3  263.27    9.20 
  -2  -1  -3  270.47    8.70 
  -2  -1  -3  252.57    8.80 
   2  -1   3  239.58    9.10 
  -2  -1  -3  269.97    9.00 
   2  -1   3  279.37    9.30 
   2  -1   3  251.47    8.90 
  -2  -1  -3  263.77    8.70 
   2   1   3  262.57    9.00 
   2   1   3  261.77    8.60 
  -2   1  -3  250.07    9.00 
  -2   1  -3  257.17    9.40 
   2   1   3  253.87    8.60 
   2   1   3  264.27    8.50 
  -2   1  -3  256.17    7.90 
   2   1   3  248.88    8.80 
  -2   1  -3  278.57    9.50 
  -2   1  -3  248.18    8.80 
  -3  -1  -3  286.37   10.10 
  -3  -1  -3  294.87   10.30 
   3  -1   3  301.07   10.60 
  -3  -1  -3  297.27   10.30 
   3  -1   3  284.17   10.40 
   3  -1   3  304.67   10.90 
   3  -1   3  289.77   10.40 
  -3  -1  -3  298.27   10.10 
   3  -1   3  298.57    9.50 
   3   1   3  300.77   10.20 
   3   1   3  305.97   10.00 
   3   1   3  295.97   10.30 
  -3   1  -3  297.47   10.30 
   3   1   3  315.27   10.10 
  -3   1  -3  299.07   10.30 
  -3   1  -3  293.27   10.80 
   3   1   3  297.87    9.70 
  -3   1  -3  283.37    9.40 
   4  -1   3   85.49    6.10 
   4  -1   3   83.69    6.10 
  -4  -1  -3   76.99    5.70 
   4  -1   3   83.69    5.10 
   4  -1   3   66.99    6.10 
  -4  -1  -3   76.09    5.70 
  -4  -1  -3   72.29    5.40 
  -4   1  -3   82.89    6.10 
   4   1   3   76.49    5.60 
  -4   1  -3   76.59    5.50 
   4   1   3   77.39    4.80 
   4   1   3   79.89    5.30 
  -4   1  -3   85.39    6.10 
   4   1   3   67.59    5.00 
   4   1   3   67.59    5.50 
  -5  -1  -3  178.28    8.90 
  -5  -1  -3  198.58    9.30 
   5  -1   3  197.08    8.50 
   5  -1   3  188.68    9.20 
  -5  -1  -3  190.58    9.20 
   5  -1   3  207.38    9.70 
   5  -1   3  194.38    9.20 
  -5   1  -3  191.78    9.50 
   5   1   3  189.58    8.80 
   5   1   3  211.58    9.00 
   5   1   3  203.68    9.40 
  -5   1  -3  191.98    9.70 
   5   1   3  186.48    9.10 
   5   1   3  190.18    7.10 
  -5   1  -3  181.58    9.30 
   6  -1   3   44.80    6.30 
  -6  -1  -3   49.50    5.80 
  -6  -1  -3   47.00    5.90 
   6  -1   3   48.60    5.60 
   6  -1   3   47.60    5.80 
  -6   1  -3   47.00    6.20 
   6   1   3   46.00    5.80 
   6   1   3   47.60    6.00 
   6   1   3   32.80    4.70 
  -6   1  -3   36.10    5.00 
   7  -1   3   46.40    7.00 
  -7  -1  -3   50.49    6.60 
   7  -1   3   40.40    5.90 
  -7  -1  -3   44.20    6.30 
   7  -1   3   41.30    5.80 
  -7   1  -3   39.80    6.40 
   7   1   3   44.60    5.50 
   7   1   3   56.89    6.70 
   7   1   3   39.50    6.20 
  -7   1  -3   50.29    6.10 
  -8  -1  -3   25.10    5.80 
   8  -1   3   23.30    6.10 
  -8  -1  -3   22.20    5.70 
   8  -1   3   21.60    5.30 
   8  -1   3   17.30    5.40 
  -8   1  -3   16.40    5.90 
   8   1   3   22.40    5.80 
  -8   1  -3   22.80    6.30 
   8   1   3   21.90    5.00 
  -9  -1  -3    7.00    5.50 
   9  -1   3    2.50    4.60 
   9   1   3    3.20    4.90 
 -10  -2   3   17.40    5.90 
  10  -2  -3   13.90    5.90 
  10  -2  -3   14.50    6.90 
 -10  -2   3   17.10    5.80 
 -10  -2   3    8.50    5.60 
 -10   2   3   12.40    6.00 
 -10   2   3   21.10    6.40 
  10   2  -3   17.30    5.40 
  10   2  -3   16.60    6.40 
  -9  -2   3   44.80    7.00 
  -9  -2   3   46.80    6.90 
   9  -2  -3   52.29    7.30 
  -9  -2   3   44.10    6.70 
  -9   2   3   35.20    6.70 
   9   2  -3   51.29    6.10 
   9   2  -3   48.00    7.80 
  -9   2   3   47.50    7.60 
   8  -2  -3   71.19    9.00 
  -8  -2   3   65.69    7.00 
  -8  -2   3   61.19    7.10 
  -8  -2   3   47.10    6.40 
   8  -2  -3   66.29    7.40 
  -8   2   3   52.49    6.70 
  -8   2   3   58.29    7.00 
  -8   2   3   63.29    7.10 
   8   2  -3   60.79    6.10 
   8   2  -3   64.49    7.80 
  -7  -2   3   42.70    5.70 
  -7  -2   3   50.99    5.50 
   7  -2  -3   54.59    6.10 
  -7  -2   3   56.99    6.20 
   7  -2  -3   70.59    6.90 
  -7   2   3   62.79    6.70 
   7   2  -3   60.79    6.00 
  -7   2   3   63.59    4.50 
   7   2  -3   64.39    7.00 
  -7   2   3   53.59    6.30 
  -7   2   3   51.59    6.60 
  -6  -2   3   35.20    4.40 
   6  -2  -3   31.90    4.60 
  -6  -2   3   32.40    4.60 
   6  -2  -3   30.90    4.80 
   6  -2  -3   33.10    4.50 
  -6  -2   3   34.90    5.00 
   6   2  -3   36.30    4.40 
   6   2  -3   34.40    4.80 
  -6   2   3   39.80    5.20 
  -6   2   3   36.50    5.50 
  -6   2   3   34.00    4.40 
  -6   2   3   40.70    3.80 
  -5  -2   3  353.66   12.00 
   5  -2  -3  386.16   13.00 
  -5  -2   3  350.36   12.30 
  -5  -2   3  360.66   12.50 
   5  -2  -3  370.96   12.70 
  -5   2   3  381.36   12.80 
   5   2  -3  367.76   12.00 
  -5   2   3  375.96   13.10 
  -5   2   3  354.46   11.50 
  -5   2   3  340.57   12.50 
   4  -2  -3  842.42   22.90 
  -4  -2   3  831.72   22.40 
   4  -2  -3  830.92   22.80 
  -4  -2   3  820.02   22.50 
   4  -2  -3  833.12   22.70 
  -4  -2   3  829.52   22.20 
  -4  -2   3  871.21   22.70 
  -4   2   3  796.32   22.10 
  -4   2   3  836.72   23.00 
  -4   2   3  801.42   22.40 
   4   2  -3  809.92   22.00 
  -4   2   3  820.42   22.70 
   4   2  -3  811.12   21.80 
  -3  -2   3  169.58    6.80 
  -3  -2   3  176.98    7.10 
  -3  -2   3  170.98    6.60 
  -3  -2   3  171.08    7.00 
   3  -2  -3  178.58    6.80 
  -3  -2   3  169.68    7.10 
   3  -2  -3  175.38    6.80 
   3  -2  -3  174.68    7.00 
   3  -2  -3  175.28    7.20 
  -3   2   3  173.08    7.00 
   3   2  -3  176.58    6.80 
  -3   2   3  174.58    7.40 
  -3   2   3  177.38    6.80 
   3   2  -3  172.08    6.80 
   3   2  -3  161.18    6.60 
  -3   2   3  167.28    7.10 
  -3   2   3  165.38    7.00 
  -2  -2   3  206.08    7.60 
  -2  -2   3  208.58    7.40 
   2  -2  -3  199.38    7.00 
   2  -2  -3  190.88    7.40 
  -2  -2   3  203.38    7.50 
   2  -2  -3  203.48    7.30 
  -2  -2   3  199.98    6.90 
  -2  -2   3  202.98    7.20 
   2  -2  -3  200.18    7.40 
   2   2  -3  204.08    7.20 
  -2   2   3  210.88    7.20 
  -2   2   3  211.98    7.30 
  -2   2   3  207.38    6.90 
  -2   2   3  227.48    7.70 
   2   2  -3  203.58    7.30 
  -2   2   3  211.48    5.20 
   2   2  -3  211.78    7.30 
  -2   2   3  211.38    8.00 
  -1  -2   3  231.08    7.90 
  -1  -2   3  217.18    7.60 
  -1  -2   3  215.58    7.60 
   1  -2  -3  223.58    7.40 
   1  -2  -3  214.38    5.40 
   1  -2  -3  210.88    7.10 
  -1  -2   3  217.68    7.20 
  -1  -2   3  210.48    7.40 
   1  -2  -3  214.58    7.20 
   1  -2  -3  214.88    7.20 
  -1   2   3  222.48    7.10 
  -1   2   3  228.38    7.10 
   1   2  -3  234.38    7.30 
  -1   2   3  216.08    7.00 
   1   2  -3  213.68    7.40 
  -1   2   3  221.98    8.40 
  -1   2   3  227.38    7.40 
   1   2  -3  213.18    7.50 
   1   2  -3  225.68    7.50 
   0  -2  -3  325.37    9.60 
   0  -2  -3  317.47    9.30 
   0  -2  -3  321.67    9.40 
   0  -2   3  346.47   10.00 
   0  -2  -3  317.87    9.40 
   0  -2   3  326.27   10.20 
   0  -2   3  322.87    9.80 
   0  -2   3  319.97   10.00 
   0   2   3  305.37    9.20 
   0   2   3  321.87   10.30 
   0   2   3  308.37    8.90 
   0   2  -3  311.97    9.90 
   0   2   3  328.37    9.10 
   0   2  -3  301.27    9.70 
   0   2  -3  296.47    9.80 
   0   2   3  315.77    9.40 
   0   2  -3  313.07    9.90 
  -1  -2  -3  358.26   10.30 
  -1  -2  -3  370.76   10.30 
   1  -2   3  358.36   11.30 
   1  -2   3  354.96   11.10 
  -1  -2  -3  356.36   10.40 
  -1  -2  -3  372.86   10.50 
   1  -2   3  365.26   11.00 
   1  -2   3  352.76   11.40 
  -1  -2  -3  362.36   11.00 
   1   2   3  345.37   10.10 
   1   2   3  346.17    9.90 
   1   2   3  358.16    9.90 
   1   2   3  361.26   11.40 
  -1   2  -3  335.37   10.90 
  -1   2  -3  331.57    9.00 
  -1   2  -3  359.86   11.00 
  -1   2  -3  355.06   11.10 
   1   2   3  366.06   10.30 
   1   2   3  341.47   10.30 
   2  -2   3  680.83   18.60 
  -2  -2  -3  643.84   17.80 
  -2  -2  -3  653.63   18.40 
   2  -2   3  664.83   16.70 
  -2  -2  -3  644.94   17.70 
  -2  -2  -3  662.73   17.70 
   2  -2   3  632.84   18.60 
   2  -2   3  680.63   18.80 
  -2  -2  -3  658.13   17.90 
   2  -2   3  666.93   18.70 
  -2  -2  -3  637.04   17.80 
  -2   2  -3  663.43   19.70 
   2   2   3  674.63   17.90 
   2   2   3  662.93   18.60 
   2   2   3  663.53   17.20 
   2   2   3  662.43   17.90 
   2   2   3  672.13   17.60 
   2   2   3  678.13   18.30 
  -2   2  -3  628.44   18.60 
  -2   2  -3  676.33   18.60 
  -2   2  -3  663.13   18.70 
   2   2   3  691.23   17.30 
  -3  -2  -3  119.99    5.70 
   3  -2   3  105.09    4.90 
   3  -2   3   98.49    6.20 
  -3  -2  -3  109.19    5.60 
  -3  -2  -3  108.69    5.50 
  -3  -2  -3  105.79    5.70 
   3  -2   3   92.49    6.20 
   3  -2   3  107.79    6.30 
   3  -2   3  103.79    6.00 
   3   2   3  111.19    5.60 
   3   2   3  100.19    5.30 
  -3   2  -3   99.29    6.20 
  -3   2  -3  115.59    6.50 
   3   2   3  101.59    6.20 
   3   2   3   92.39    4.60 
  -3   2  -3  115.19    6.60 
   3   2   3  115.99    5.60 
   3   2   3  116.69    5.20 
  -4  -2  -3  137.69    6.90 
   4  -2   3  141.19    6.10 
   4  -2   3  142.79    7.50 
   4  -2   3  139.89    7.80 
   4  -2   3  142.59    7.70 
  -4  -2  -3  143.49    7.40 
  -4  -2  -3  142.09    7.10 
   4   2   3  144.89    6.20 
  -4   2  -3  150.38    7.80 
   4   2   3  141.69    7.10 
  -4   2  -3  140.89    7.80 
   4   2   3  146.99    6.30 
  -4   2  -3  141.39    7.40 
   4   2   3  140.19    6.40 
   4   2   3  138.29    6.80 
   4   2   3  145.19    7.00 
  -5  -2  -3  120.09    7.70 
   5  -2   3  112.19    6.30 
   5  -2   3  116.99    7.70 
  -5  -2  -3  113.19    7.10 
   5  -2   3  114.09    7.90 
  -5  -2  -3  102.49    6.90 
   5  -2   3  115.69    8.20 
  -5   2  -3  102.79    7.90 
   5   2   3  125.19    5.50 
  -5   2  -3  120.09    7.20 
   5   2   3  117.19    6.50 
   5   2   3  124.49    7.90 
   5   2   3  129.39    7.20 
   5   2   3  118.79    6.60 
  -5   2  -3  124.69    8.10 
   6  -2   3  215.68   10.00 
  -6  -2  -3  205.98   10.10 
   6  -2   3  191.88   10.50 
   6  -2   3  205.78    9.20 
   6  -2   3  224.18   11.40 
  -6  -2  -3  207.18   10.00 
  -6   2  -3  192.08   10.70 
   6   2   3  202.88    8.70 
  -6   2  -3  190.68   10.50 
   6   2   3  212.78   10.00 
   6   2   3  198.28   10.40 
   7  -2   3    1.40    4.10 
   7  -2   3    0.90    3.90 
   7  -2   3    3.60    5.00 
  -7  -2  -3    4.90    4.10 
  -7  -2  -3    0.10    4.10 
   7   2   3    7.10    4.30 
   7   2   3    1.30    4.30 
   7   2   3    1.10    3.50 
  -7   2  -3    8.90    4.90 
  -7   2  -3    0.40    4.40 
  -8  -2  -3   77.59    8.30 
  -8  -2  -3   86.99    8.30 
   8  -2   3   53.09    7.30 
   8  -2   3   80.49    8.40 
   8  -2   3   76.69    7.50 
   8   2   3   75.99    6.70 
  -8   2  -3   72.79    8.00 
   8   2   3   73.29    8.30 
  -8   2  -3   78.19    7.90 
 -10  -3   3    2.10    5.00 
 -10  -3   3    3.50    5.30 
  10  -3  -3    0.50    5.50 
 -10  -3   3    2.10    4.90 
 -10   3   3    6.50    5.80 
 -10   3   3    3.90    5.90 
  10   3  -3   -1.50    5.40 
  -9  -3   3   15.20    5.40 
   9  -3  -3   28.40    6.30 
  -9  -3   3    3.40    4.80 
  -9  -3   3   20.90    5.70 
   9   3  -3   10.60    4.50 
   9   3  -3   13.50    5.90 
  -9   3   3   22.80    5.50 
  -9   3   3   18.00    5.70 
   8  -3  -3   72.49    7.90 
  -8  -3   3   74.19    7.40 
   8  -3  -3   88.59    8.30 
  -8  -3   3   84.59    7.80 
  -8  -3   3   86.89    7.80 
   8   3  -3   89.99    7.10 
   8   3  -3   84.09    8.50 
  -8   3   3   85.19    8.10 
  -8   3   3   84.99    8.60 
   7  -3  -3   17.60    5.10 
  -7  -3   3   15.70    4.30 
   7  -3  -3   22.50    5.30 
  -7  -3   3   24.60    4.90 
  -7  -3   3   15.60    4.50 
  -7   3   3   20.70    4.90 
  -7   3   3   18.80    4.10 
   7   3  -3   21.80    3.90 
  -7   3   3   19.20    5.30 
  -7   3   3   15.60    3.30 
   7   3  -3   15.80    5.20 
   6  -3  -3  254.87   10.80 
  -6  -3   3  285.77   10.90 
   6  -3  -3  250.97   10.50 
   6  -3  -3  247.88   10.40 
  -6  -3   3  249.38   10.20 
  -6  -3   3  257.47   10.40 
  -6   3   3  223.98   10.40 
  -6   3   3  255.17    9.40 
   6   3  -3  222.18   10.30 
  -6   3   3  219.78   10.80 
  -6   3   3  244.18   10.80 
   6   3  -3  251.97    9.70 
   6   3  -3  218.28    9.50 
  -5  -3   3  237.08    9.60 
   5  -3  -3  226.28    9.50 
   5  -3  -3  253.37   10.10 
  -5  -3   3  235.48    9.40 
  -5  -3   3  233.98    9.30 
   5   3  -3  240.88   10.20 
   5   3  -3  241.68    8.70 
  -5   3   3  241.18    9.80 
   5   3  -3  245.78    9.00 
  -5   3   3  239.48    9.00 
  -5   3   3  237.38    9.90 
  -5   3   3  235.98    9.70 
  -4  -3   3  459.45   14.20 
   4  -3  -3  474.85   14.80 
   4  -3  -3  446.76   14.60 
   4  -3  -3  445.76   14.40 
  -4  -3   3  477.05   14.40 
   4  -3  -3  491.25   14.60 
  -4  -3   3  462.95   14.20 
  -4   3   3  497.35   14.70 
   4   3  -3  482.95   14.80 
   4   3  -3  484.95   13.80 
  -4   3   3  479.45   14.50 
  -4   3   3  475.95   14.60 
  -4   3   3  478.85   14.90 
   4   3  -3  469.25   13.50 
  -3  -3   3  253.77    8.50 
  -3  -3   3  251.27    8.90 
  -3  -3   3  238.88    8.70 
   3  -3  -3  237.88    9.20 
   3  -3  -3  253.57    9.00 
   3  -3  -3  245.18    8.70 
  -3  -3   3  246.88    8.90 
  -3  -3   3  253.67    8.90 
   3  -3  -3  265.57    9.10 
  -3   3   3  253.27    8.50 
  -3   3   3  257.47    8.90 
  -3   3   3  249.38    8.60 
   3   3  -3  248.98    9.10 
   3   3  -3  243.38    8.20 
  -3   3   3  267.87    9.20 
  -3   3   3  240.58    9.30 
   2  -3  -3  607.34   17.00 
   2  -3  -3  620.94   17.00 
  -2  -3   3  645.24   17.40 
   2  -3  -3  621.34   16.90 
  -2  -3   3  603.94   16.80 
  -2  -3   3  653.23   17.30 
  -2  -3   3  622.94   17.10 
   2  -3  -3  622.64   17.10 
  -2  -3   3  614.74   17.00 
   2  -3  -3  627.74   18.00 
  -2   3   3  614.04   16.80 
   2   3  -3  637.34   16.60 
  -2   3   3  643.94   17.10 
   2   3  -3  602.64   16.90 
  -2   3   3  644.34   18.10 
  -2   3   3  650.13   16.60 
  -2   3   3  642.14   16.70 
   2   3  -3  647.94   17.60 
  -2   3   3  625.64   15.40 
   2   3  -3  630.24   16.80 
   2   3  -3  616.44   16.80 
   1  -3  -3  190.48    6.90 
   1  -3  -3  196.38    6.70 
  -1  -3   3  195.68    7.20 
   1  -3  -3  190.98    6.80 
  -1  -3   3  205.58    7.40 
   1  -3  -3  191.68    5.60 
  -1  -3   3  194.58    7.10 
  -1  -3   3  193.48    7.40 
  -1  -3   3  193.38    7.00 
   1  -3  -3  196.58    6.60 
  -1   3   3  200.18    6.30 
   1   3  -3  202.38    6.90 
  -1   3   3  197.38    6.20 
   1   3  -3  204.78    7.10 
   1   3  -3  201.38    6.70 
   1   3  -3  196.18    7.00 
  -1   3   3  198.08    6.70 
  -1   3   3  188.08    6.50 
  -1   3   3  192.58    8.10 
   1   3  -3  203.68    7.60 
   0  -3  -3   60.99    5.00 
   0  -3  -3   67.29    3.80 
   0  -3   3   65.69    4.10 
   0  -3   3   67.29    4.30 
   0  -3  -3   69.19    3.70 
   0  -3  -3   63.39    3.80 
   0  -3   3   63.69    4.50 
   0  -3  -3   66.59    4.60 
   0  -3   3   69.79    4.50 
   0  -3  -3   69.59    3.80 
   0  -3  -3   73.99    3.50 
   0   3  -3   70.69    1.90 
   0   3  -3   71.79    4.40 
   0   3   3   66.79    4.60 
   0   3  -3   69.29    4.50 
   0   3   3   70.19    3.70 
   0   3  -3   64.89    4.30 
   0   3   3   69.59    3.00 
   0   3   3   64.89    3.10 
   0   3  -3   52.99    3.70 
   0   3   3   73.09    3.40 
   1  -3   3  188.28    7.60 
  -1  -3  -3  183.28    6.30 
   1  -3   3  206.68    8.30 
   1  -3   3  182.48    7.80 
  -1  -3  -3  176.68    6.40 
  -1  -3  -3  197.88    6.60 
   1  -3   3  172.08    7.50 
   1  -3   3  187.28    7.20 
  -1  -3  -3  178.08    7.50 
  -1  -3  -3  194.78    6.30 
  -1   3  -3  193.28    7.50 
   1   3   3  187.98    6.00 
   1   3   3  188.38    7.40 
   1   3   3  187.88    6.40 
   1   3   3  188.98    5.40 
  -1   3  -3  181.08    7.20 
  -1   3  -3  194.88    7.50 
  -1   3  -3  194.68    8.20 
   1   3   3  193.68    5.40 
   1   3   3  188.88    6.40 
   2  -3   3  525.85   15.90 
   2  -3   3  528.85   15.90 
  -2  -3  -3  516.95   14.60 
  -2  -3  -3  522.05   14.50 
   2  -3   3  532.45   15.90 
  -2  -3  -3  523.45   14.70 
   2  -3   3  535.05   15.90 
   2  -3   3  521.45   15.90 
   2  -3   3  525.65   13.20 
  -2  -3  -3  515.45   14.40 
   2   3   3  524.85   14.10 
   2   3   3  538.15   15.70 
   2   3   3  526.35   15.90 
   2   3   3  540.75   14.60 
  -2   3  -3  525.55   15.70 
  -2   3  -3  528.65   15.70 
   2   3   3  527.65   13.50 
   2   3   3  555.64   15.30 
   2   3   3  538.65   13.50 
  -3  -3  -3  564.54   16.10 
  -3  -3  -3  586.14   16.20 
   3  -3   3  575.14   17.70 
   3  -3   3  588.74   17.30 
  -3  -3  -3  552.74   16.20 
  -3  -3  -3  571.04   16.20 
   3  -3   3  555.24   17.30 
   3  -3   3  562.54   17.50 
   3  -3   3  578.84   15.10 
   3   3   3  598.14   17.60 
   3   3   3  579.24   14.90 
   3   3   3  586.24   15.70 
   3   3   3  584.04   15.00 
   3   3   3  573.04   16.50 
  -3   3  -3  557.64   17.50 
  -3   3  -3  558.94   17.20 
  -3   3  -3  577.04   17.40 
   3   3   3  556.74   16.00 
  -4  -3  -3  259.07    9.90 
  -4  -3  -3  276.57   10.10 
   4  -3   3  284.37   10.80 
   4  -3   3  288.37   11.10 
   4  -3   3  277.67    9.00 
   4  -3   3  251.97   10.70 
   4  -3   3  248.68   10.60 
  -4  -3  -3  243.88    9.70 
   4   3   3  262.07    8.40 
   4   3   3  267.77    9.30 
  -4   3  -3  255.37   10.70 
   4   3   3  261.27    9.70 
   4   3   3  256.17    9.00 
   4   3   3  263.87    8.50 
  -4   3  -3  262.07   11.10 
   4   3   3  260.87   10.90 
   5  -3   3  244.38   11.20 
  -5  -3  -3  265.47   10.60 
  -5  -3  -3  250.47   10.50 
  -5  -3  -3  246.18   10.20 
   5  -3   3  262.17    9.50 
   5  -3   3  273.77   11.20 
   5  -3   3  269.67   11.40 
   5   3   3  233.48   10.50 
   5   3   3  250.57   11.40 
  -5   3  -3  258.57   11.70 
  -5   3  -3  254.57   10.80 
   5   3   3  255.37   10.00 
   5   3   3  252.37    8.90 
   5   3   3  253.17    8.80 
   6  -3   3   66.49    5.90 
   6  -3   3   56.09    6.70 
   6  -3   3   68.79    6.70 
  -6  -3  -3   62.19    6.20 
   6  -3   3   55.69    7.20 
  -6  -3  -3   61.49    6.40 
  -6   3  -3   66.39    7.00 
   6   3   3   55.89    4.70 
   6   3   3   48.60    5.60 
   6   3   3   50.49    6.60 
  -6   3  -3   63.69    6.60 
   7  -3   3   37.20    6.20 
   7  -3   3   28.30    6.50 
   7  -3   3   26.50    4.90 
  -7  -3  -3   34.30    5.60 
  -7  -3  -3   33.70    5.50 
  -7   3  -3   39.50    6.70 
  -7   3  -3   25.70    6.00 
   7   3   3   27.10    4.00 
   7   3   3   28.00    5.30 
   8  -3   3   20.50    5.70 
   8  -3   3   15.50    5.60 
   8  -3   3   19.80    5.70 
  -8  -3  -3   35.50    6.40 
  -8  -3  -3   37.40    6.30 
   8   3   3   38.90    6.90 
  -8   3  -3   31.80    6.60 
  -9  -4   3  120.09    9.90 
  -9  -4   3  131.99    9.60 
  -9  -4   3  120.09    9.30 
   9  -4  -3  142.09   10.80 
   9   4  -3  136.09    9.80 
  -9   4   3  113.09    9.90 
  -9   4   3  105.89   10.40 
  -8  -4   3  108.49    8.90 
   8  -4  -3  114.09    9.60 
  -8  -4   3  101.09    8.60 
  -8  -4   3  107.39    8.70 
   8  -4  -3  104.99    8.30 
  -8   4   3  111.59    8.40 
   8   4  -3  101.79    9.40 
   8   4  -3  108.29    6.80 
  -8   4   3  103.19    8.80 
   7  -4  -3   -2.20    4.20 
  -7  -4   3   -5.50    3.70 
  -7  -4   3   -0.10    3.40 
   7  -4  -3    2.80    4.30 
  -7  -4   3    2.00    3.70 
  -7   4   3   -1.60    4.20 
  -7   4   3    3.10    4.60 
  -7   4   3   -3.80    3.60 
   7   4  -3   -1.50    2.90 
  -7   4   3    2.00    3.00 
   7   4  -3    2.80    4.20 
   6  -4  -3    6.80    4.20 
  -6  -4   3    7.60    3.60 
   6  -4  -3   10.30    4.40 
  -6  -4   3   10.60    4.10 
   6  -4  -3    4.40    4.20 
  -6  -4   3    9.90    3.50 
   6   4  -3   15.00    4.20 
  -6   4   3   11.90    4.10 
  -6   4   3    8.50    3.20 
  -6   4   3   17.00    4.80 
  -6   4   3    9.10    4.00 
   6   4  -3    8.60    2.70 
   6   4  -3   10.40    3.10 
   6   4  -3   14.60    3.90 
  -5  -4   3  372.96   12.90 
   5  -4  -3  400.06   14.00 
  -5  -4   3  390.06   13.10 
   5  -4  -3  397.26   13.80 
  -5  -4   3  397.26   13.10 
  -5   4   3  385.26   13.20 
   5   4  -3  399.96   12.00 
  -5   4   3  405.46   14.00 
  -5   4   3  403.06   13.60 
   5   4  -3  400.96   13.80 
  -5   4   3  380.16   13.20 
  -4  -4   3   21.00    3.60 
   4  -4  -3   23.00    3.80 
  -4  -4   3   27.60    3.70 
   4  -4  -3   27.50    4.00 
  -4  -4   3   22.90    3.30 
   4  -4  -3   25.20    3.80 
  -4   4   3   18.70    3.40 
  -4   4   3   26.20    3.70 
   4   4  -3   25.30    3.90 
  -4   4   3   26.90    3.90 
   4   4  -3   27.90    2.80 
   4   4  -3   27.10    3.00 
  -4   4   3   24.80    4.00 
  -3  -4   3   33.60    3.70 
  -3  -4   3   37.40    3.90 
   3  -4  -3   41.30    4.10 
   3  -4  -3   39.70    3.90 
  -3  -4   3   42.60    3.90 
   3  -4  -3   40.10    3.90 
  -3  -4   3   39.40    3.80 
   3   4  -3   40.00    3.20 
   3   4  -3   45.50    4.20 
   3   4  -3   43.00    4.00 
  -3   4   3   39.50    3.40 
  -3   4   3   37.40    4.50 
  -3   4   3   40.90    3.60 
  -3   4   3   44.80    3.80 
  -3   4   3   37.30    3.90 
   3   4  -3   40.80    3.30 
  -3   4   3   32.90    2.80 
  -2  -4   3  476.05   13.90 
   2  -4  -3  465.35   13.70 
   2  -4  -3  496.45   13.70 
   2  -4  -3  467.55   13.70 
   2  -4  -3  462.15   13.70 
  -2  -4   3  513.45   13.90 
  -2  -4   3  468.85   13.60 
  -2  -4   3  501.35   14.10 
   2   4  -3  494.85   13.30 
  -2   4   3  483.65   15.00 
  -2   4   3  460.05   13.00 
   2   4  -3  484.05   13.40 
  -2   4   3  470.95   13.80 
  -2   4   3  495.95   12.70 
  -2   4   3  491.85   13.20 
   2   4  -3  489.25   13.20 
   2   4  -3  498.55   14.90 
  -2   4   3  483.45   13.50 
  -1  -4   3   73.09    4.50 
  -1  -4   3   68.59    4.60 
   1  -4  -3   76.19    3.60 
  -1  -4   3   71.09    4.50 
   1  -4  -3   67.09    4.00 
  -1  -4   3   77.59    4.40 
   1  -4  -3   74.89    4.10 
  -1  -4   3   67.19    4.90 
   1  -4  -3   81.99    4.30 
   1  -4  -3   70.09    3.90 
  -1   4   3   75.89    3.10 
  -1   4   3   76.39    3.10 
   1   4  -3   80.39    4.80 
  -1   4   3   79.39    5.90 
  -1   4   3   72.39    3.50 
   1   4  -3   70.79    4.00 
  -1   4   3   76.39    4.00 
   1   4  -3   78.59    4.00 
   1   4  -3   78.59    3.40 
  -1   4   3   76.99    3.70 
   0  -4   3   89.89    5.30 
   0  -4   3   91.69    5.00 
   0  -4  -3   92.29    4.00 
   0  -4  -3   84.79    3.90 
   0  -4  -3   82.49    3.90 
   0  -4   3   79.79    4.70 
   0  -4  -3   81.59    4.10 
   0  -4  -3   85.29    4.00 
   0  -4   3   83.09    4.90 
   0   4   3   73.59    5.70 
   0   4  -3   80.59    4.60 
   0   4  -3   76.39    5.60 
   0   4   3   78.09    3.20 
   0   4   3   76.59    3.80 
   0   4  -3   82.69    5.20 
   1  -4   3  387.66   12.30 
  -1  -4  -3  373.66   10.50 
  -1  -4  -3  360.76   11.20 
  -1  -4  -3  365.96   10.30 
   1  -4   3  360.06   11.90 
   1  -4   3  400.96   12.20 
   1  -4   3  381.86   12.00 
  -1  -4  -3  377.86   10.40 
  -1  -4  -3  372.56   10.50 
  -1   4  -3  379.06   11.70 
  -1   4  -3  370.86   12.60 
   1   4   3  363.16   12.40 
   1   4   3  369.96   10.20 
  -1   4  -3  357.76   11.40 
   2  -4   3  106.59    5.70 
  -2  -4  -3  107.69    4.70 
  -2  -4  -3  100.39    4.80 
   2  -4   3  107.69    6.30 
  -2  -4  -3  106.59    4.50 
   2  -4   3  110.99    6.40 
   2  -4   3  111.49    6.30 
   2  -4   3  103.79    2.90 
   2  -4   3  106.49    5.90 
  -2  -4  -3  108.69    4.70 
   2   4   3  109.79    6.70 
   2   4   3  103.29    4.50 
   2   4   3  110.59    5.10 
   2   4   3  103.59    6.00 
   2   4   3  102.89    3.90 
  -2   4  -3  107.99    6.10 
   3  -4   3  179.28    8.70 
   3  -4   3  181.58    5.80 
   3  -4   3  170.78    8.40 
  -3  -4  -3  179.78    7.10 
  -3  -4  -3  186.18    7.10 
  -3  -4  -3  184.08    7.00 
  -3  -4  -3  168.08    6.80 
   3  -4   3  188.48    8.70 
   3  -4   3  177.28    8.80 
  -3   4  -3  181.48    8.10 
   3   4   3  192.88    9.00 
   3   4   3  185.58    6.20 
   3   4   3  184.88    8.00 
  -3   4  -3  178.58    8.20 
   3   4   3  175.88    6.70 
   4  -4   3  221.78   10.50 
   4  -4   3  243.58    8.00 
   4  -4   3  224.78   10.80 
   4  -4   3  234.18   10.50 
  -4  -4  -3  222.98    8.80 
  -4  -4  -3  237.08    9.10 
   4  -4   3  229.98   10.30 
  -4  -4  -3  233.08    9.00 
  -4   4  -3  218.28   10.10 
   4   4   3  224.28    6.20 
  -4   4  -3  255.77   10.70 
   4   4   3  229.38    9.00 
   4   4   3  241.48    8.70 
   4   4   3  251.77   10.90 
   4   4   3  231.38    7.90 
   4   4   3  231.28    6.20 
   5  -4   3    3.50    4.30 
   5  -4   3    2.50    2.50 
  -5  -4  -3    3.10    3.00 
  -5  -4  -3    6.70    3.30 
  -5  -4  -3    8.30    3.30 
   5  -4   3   -0.80    2.90 
   5  -4   3    5.90    4.50 
   5   4   3    9.90    4.70 
   5   4   3    1.90    2.50 
  -5   4  -3    4.40    4.10 
   5   4   3    3.60    2.70 
   5   4   3    4.00    1.80 
  -5   4  -3    3.60    4.10 
  -6  -4  -3   66.99    6.20 
  -6  -4  -3   65.39    6.00 
   6  -4   3   61.19    7.20 
   6  -4   3   62.59    7.00 
   6  -4   3   63.69    7.10 
   6  -4   3   51.79    5.00 
  -6   4  -3   47.60    6.50 
  -6   4  -3   64.99    7.30 
   6   4   3   63.99    7.40 
   7  -4   3   66.39    7.70 
  -7  -4  -3   57.69    6.40 
   7  -4   3   60.99    7.60 
   7  -4   3   54.79    6.50 
  -7  -4  -3   64.79    6.90 
   7   4   3   54.99    7.50 
  -7   4  -3   59.39    7.50 
  -8  -4  -3    5.50    5.00 
  -8  -4  -3    6.30    4.60 
   8  -4   3    7.40    6.00 
   8  -4   3    3.50    5.20 
  -8   4  -3   10.60    5.80 
   8   4   3   13.20    6.00 
  -9  -5   3   42.60    6.80 
  -9  -5   3   47.80    6.60 
  -9  -5   3   35.90    6.40 
   9  -5  -3   50.19    7.80 
   9   5  -3   34.70    7.20 
  -9   5   3   42.00    7.50 
  -9   5   3   44.80    6.90 
   8  -5  -3   42.80    7.20 
  -8  -5   3   39.20    5.80 
   8  -5  -3   38.30    6.10 
  -8  -5   3   40.20    5.70 
  -8  -5   3   48.30    6.10 
   8   5  -3   30.60    6.40 
  -8   5   3   33.50    5.70 
  -8   5   3   36.40    6.20 
  -7  -5   3   19.60    4.50 
   7  -5  -3   17.40    5.30 
  -7  -5   3   19.00    4.30 
   7  -5  -3   14.40    4.20 
  -7  -5   3   16.90    4.10 
   7   5  -3   16.80    3.10 
   7   5  -3   15.70    5.10 
  -7   5   3   12.90    5.10 
  -7   5   3   19.60    4.90 
   6  -5  -3  285.67   12.30 
  -6  -5   3  272.77   10.70 
  -6  -5   3  262.27   10.80 
  -6  -5   3  252.87   10.80 
   6  -5  -3  238.58   11.60 
  -6   5   3  266.37   11.20 
  -6   5   3  264.07   12.70 
   6   5  -3  255.87   11.20 
  -6   5   3  253.77   11.70 
  -6   5   3  251.17   11.40 
   6   5  -3  267.57    8.70 
   5  -5  -3  207.68    9.80 
   5  -5  -3  209.58    9.90 
  -5  -5   3  213.08    8.90 
   5  -5  -3  200.38    9.50 
  -5  -5   3  206.28    8.60 
  -5  -5   3  218.38    8.70 
   5   5  -3  203.78    9.50 
   5   5  -3  196.08    7.10 
  -5   5   3  202.18    9.20 
  -5   5   3  218.98    9.80 
   5   5  -3  199.98    6.90 
  -5   5   3  198.48    9.00 
  -5   5   3  207.58    9.80 
  -4  -5   3  237.38    8.80 
  -4  -5   3  232.68    8.80 
   4  -5  -3  240.78    9.60 
  -4  -5   3  251.27    9.00 
   4  -5  -3  244.68    9.80 
   4  -5  -3  222.38    9.40 
  -4   5   3  239.58    8.90 
   4   5  -3  244.58    7.40 
  -4   5   3  235.58    9.20 
   4   5  -3  232.38    9.50 
   4   5  -3  238.08    7.50 
  -4   5   3  240.48    8.60 
  -4   5   3  249.08    9.30 
  -4   5   3  241.98   10.20 
   3  -5  -3  218.98    8.40 
  -3  -5   3  223.18    8.00 
  -3  -5   3  223.58    8.20 
   3  -5  -3  231.78    8.60 
   3  -5  -3  212.18    8.30 
  -3  -5   3  227.68    8.10 
  -3   5   3  211.58    9.10 
   3   5  -3  208.78    9.30 
  -3   5   3  217.68    7.70 
   3   5  -3  212.78    6.80 
   3   5  -3  204.48    6.70 
  -3   5   3  218.18    8.60 
  -3   5   3  213.18    7.50 
   3   5  -3  215.18    8.40 
  -3   5   3  224.88    8.20 
  -2  -5   3  461.65   13.60 
  -2  -5   3  474.85   13.80 
  -2  -5   3  447.06   13.60 
   2  -5  -3  474.05   13.60 
   2  -5  -3  457.95   13.50 
   2  -5  -3  496.65   13.80 
  -2  -5   3  487.45   13.70 
   2  -5  -3  471.95   13.60 
   2   5  -3  460.55   13.30 
  -2   5   3  487.05   12.50 
   2   5  -3  475.95   12.70 
  -2   5   3  467.75   13.00 
  -2   5   3  471.95   13.50 
   2   5  -3  470.05   15.10 
  -2   5   3  466.95   15.20 
  -2   5   3  475.25   12.50 
  -2   5   3  472.95   13.20 
  -1  -5   3  128.69    6.00 
   1  -5  -3  131.79    5.30 
   1  -5  -3  126.79    5.20 
   1  -5  -3  139.59    5.30 
  -1  -5   3  129.29    5.60 
  -1  -5   3  133.49    5.90 
   1  -5  -3  140.89    5.40 
   1  -5  -3  137.69    5.40 
  -1  -5   3  136.09    6.10 
   1   5  -3  128.29    5.20 
   1   5  -3  132.39    5.20 
   1   5  -3  119.29    7.00 
   1   5  -3  128.99    4.80 
  -1   5   3  114.79    7.20 
  -1   5   3  130.29    5.20 
  -1   5   3  127.79    5.40 
   0  -5  -3   77.79    3.60 
   0  -5   3   68.39    4.80 
   0  -5   3   67.69    4.60 
   0  -5  -3   66.19    3.60 
   0  -5   3   70.99    4.90 
   0  -5  -3   66.99    3.50 
   0  -5  -3   69.89    3.40 
   0  -5   3   60.79    4.50 
   0  -5  -3   66.79    4.20 
   0   5   3   69.19    3.20 
   0   5   3   59.39    4.90 
   0   5  -3   63.09    5.40 
   0   5  -3   67.49    4.10 
   0   5   3   65.49    2.30 
   1  -5   3   91.59    5.50 
   1  -5   3  100.89    5.50 
  -1  -5  -3   90.49    5.40 
   1  -5   3   89.99    5.70 
  -1  -5  -3  101.39    4.00 
  -1  -5  -3   95.49    4.00 
  -1  -5  -3   99.89    4.10 
   1  -5   3  103.19    5.80 
  -1  -5  -3   96.59    4.00 
   1   5   3   95.79    6.40 
  -1   5  -3  103.49    5.10 
  -1   5  -3   94.39    5.60 
  -1   5  -3   89.49    6.50 
   1   5   3  101.99    3.60 
  -2  -5  -3  287.07    8.60 
  -2  -5  -3  304.67    8.80 
   2  -5   3  289.57   10.70 
   2  -5   3  281.17   10.90 
   2  -5   3  302.17   10.80 
  -2  -5  -3  287.27    8.60 
  -2  -5  -3  283.47    8.80 
   2  -5   3  292.77   10.90 
   2  -5   3  295.77   10.90 
   2   5   3  293.07    8.30 
  -2   5  -3  260.07   11.30 
  -2   5  -3  289.47   10.30 
   2   5   3  301.87   11.00 
   2   5   3  291.77    8.30 
   2   5   3  296.07   11.50 
   3  -5   3  283.77   11.00 
  -3  -5  -3  263.57    8.60 
  -3  -5  -3  273.87    8.90 
   3  -5   3  280.37   11.10 
   3  -5   3  272.77   11.20 
  -3  -5  -3  266.47    8.90 
   3  -5   3  286.57   11.10 
   3  -5   3  263.07    7.40 
  -3  -5  -3  262.17    8.90 
   3   5   3  282.87   11.50 
   3   5   3  254.97   10.10 
  -3   5  -3  264.07   10.50 
   3   5   3  256.87    8.20 
  -4  -5  -3  315.37   10.70 
   4  -5   3  328.07   12.70 
  -4  -5  -3  326.27   10.70 
   4  -5   3  310.07    9.40 
  -4  -5  -3  311.37   10.70 
   4  -5   3  312.57   13.10 
   4  -5   3  320.27   12.90 
   4  -5   3  299.17   12.10 
  -4   5  -3  322.47   12.30 
   4   5   3  309.87   10.10 
   4   5   3  328.17   11.60 
   4   5   3  313.77   13.20 
  -4   5  -3  312.17   12.30 
   5  -5   3  162.38    9.00 
   5  -5   3  166.08    9.10 
   5  -5   3  152.98    9.10 
  -5  -5  -3  163.98    8.00 
  -5  -5  -3  160.48    7.90 
   5  -5   3  167.28    6.90 
  -5  -5  -3  155.48    7.60 
  -5   5  -3  157.08    9.40 
   5   5   3  177.58    7.90 
   5   5   3  155.98   10.00 
  -5   5  -3  158.88    9.30 
   6  -5   3   35.80    6.70 
   6  -5   3   31.50    5.50 
  -6  -5  -3   26.70    4.40 
   6  -5   3   22.70    5.60 
  -6  -5  -3   35.40    5.00 
   6   5   3   33.90    6.30 
  -6   5  -3   36.90    6.00 
  -7  -5  -3   31.60    5.10 
   7  -5   3   36.60    7.20 
   7  -5   3   46.90    7.00 
  -7  -5  -3   30.80    5.60 
  -7   5  -3   27.50    6.20 
   7   5   3   37.60    7.00 
   8  -5   3    6.30    4.80 
  -8  -5  -3    0.30    4.60 
   8  -5   3   11.00    5.80 
   8   5   3    9.30    6.10 
  -8   5  -3   12.00    5.90 
   9  -6  -3   61.89    8.50 
  -9  -6   3   56.39    7.20 
  -9  -6   3   68.89    7.30 
  -9  -6   3   55.29    7.30 
  -9   6   3   58.89    7.70 
  -9   6   3   50.29    7.40 
   9   6  -3   63.29    8.90 
  -8  -6   3   31.90    5.40 
  -8  -6   3   32.40    5.50 
  -8  -6   3   25.50    5.00 
   8  -6  -3   27.60    6.50 
   8  -6  -3   36.00    6.90 
  -8   6   3   37.30    6.00 
   8   6  -3   44.20    7.10 
  -8   6   3   26.30    5.60 
  -7  -6   3    8.30    3.70 
   7  -6  -3    4.70    4.70 
  -7  -6   3    8.80    3.60 
   7  -6  -3   13.00    4.20 
  -7  -6   3    5.70    4.10 
  -7   6   3    8.10    4.10 
   7   6  -3    8.80    4.80 
  -7   6   3    6.90    3.60 
  -6  -6   3   53.79    5.20 
  -6  -6   3   57.39    5.50 
  -6  -6   3   51.99    5.40 
   6  -6  -3   51.59    6.50 
   6  -6  -3   56.69    6.60 
  -6   6   3   58.59    6.10 
  -6   6   3   42.50    5.20 
   6   6  -3   65.09    6.40 
  -6   6   3   41.00    5.90 
  -5  -6   3  286.37   10.90 
   5  -6  -3  282.77   12.20 
  -5  -6   3  290.07   10.90 
   5  -6  -3  277.87   11.90 
  -5  -6   3  294.87   10.80 
  -5   6   3  312.17   11.20 
  -5   6   3  318.07   12.60 
   5   6  -3  311.17   12.20 
  -5   6   3  316.97   12.20 
  -5   6   3  311.37   11.00 
   5   6  -3  310.37   10.80 
   4  -6  -3   48.30    4.90 
  -4  -6   3   36.20    3.90 
   4  -6  -3   40.30    4.70 
  -4  -6   3   42.50    4.30 
  -4  -6   3   40.50    4.10 
   4  -6  -3   33.40    4.60 
  -4   6   3   36.20    3.80 
   4   6  -3   38.00    4.60 
  -4   6   3   39.60    4.20 
  -4   6   3   51.19    5.20 
  -4   6   3   38.00    4.10 
  -4   6   3   36.20    4.80 
  -4   6   3   47.50    4.30 
  -3  -6   3    8.90    2.60 
  -3  -6   3    9.10    2.80 
   3  -6  -3    7.00    3.20 
   3  -6  -3    9.90    2.80 
  -3  -6   3    6.60    2.60 
   3  -6  -3    6.40    2.60 
  -3   6   3    1.60    2.20 
  -3   6   3    9.00    3.90 
   3   6  -3   12.80    4.30 
  -3   6   3   11.00    3.00 
   3   6  -3    8.90    2.80 
  -3   6   3    6.50    2.10 
  -3   6   3    4.70    2.20 
  -3   6   3    8.90    2.60 
  -2  -6   3  235.78    8.50 
  -2  -6   3  228.18    8.30 
  -2  -6   3  237.28    8.40 
   2  -6  -3  226.88    8.20 
   2  -6  -3  228.68    8.40 
   2  -6  -3  237.88    8.20 
  -2   6   3  222.68    9.90 
   2   6  -3  237.68    6.50 
  -2   6   3  243.88    8.30 
  -2   6   3  238.78    6.20 
   2   6  -3  233.48    6.50 
  -2   6   3  229.78    6.20 
  -2   6   3  226.48    8.00 
   2   6  -3  241.58    8.20 
   2   6  -3  221.18    9.60 
   1  -6  -3  134.59    5.70 
   1  -6  -3  119.89    5.20 
  -1  -6   3  128.39    6.30 
  -1  -6   3  130.59    5.90 
  -1  -6   3  121.59    5.90 
   1  -6  -3  134.49    5.40 
   1  -6  -3  135.29    5.50 
   1  -6  -3  137.19    5.50 
   1   6  -3  131.69    5.00 
   1   6  -3  138.59    7.10 
  -1   6   3  132.69    5.10 
  -1   6   3  132.39    6.00 
  -1   6   3  127.49    4.50 
   1   6  -3  135.89    4.90 
   1   6  -3  132.39    5.00 
  -1   6   3  134.59    7.30 
   0  -6  -3   55.49    3.30 
   0  -6  -3   52.69    3.20 
   0  -6   3   56.09    4.70 
   0  -6  -3   52.29    3.10 
   0  -6  -3   56.49    4.40 
   0  -6   3   54.49    4.40 
   0  -6   3   50.49    4.40 
   0  -6  -3   48.50    2.90 
   0  -6   3   49.30    4.40 
   0   6   3   51.39    2.50 
   0   6  -3   51.69    3.40 
   0   6  -3   49.80    4.90 
   0   6   3   57.49    5.90 
   0   6  -3   48.40    3.70 
   1  -6   3   15.90    3.40 
  -1  -6  -3   22.10    2.20 
   1  -6   3   25.70    3.70 
   1  -6   3   22.20    3.70 
  -1  -6  -3   23.10    2.00 
  -1  -6  -3   27.90    2.20 
   1  -6   3   18.80    3.40 
  -1  -6  -3   19.50    2.10 
  -1   6  -3   23.80    3.20 
   1   6   3   28.90    4.60 
   1   6   3   23.10    1.20 
  -1   6  -3   24.50    4.70 
  -1   6  -3   24.30    3.40 
   2  -6   3  112.49    6.90 
   2  -6   3   98.59    6.60 
   2  -6   3  111.79    6.60 
   2  -6   3  105.39    6.80 
   2  -6   3   99.39    6.50 
  -2  -6  -3  107.09    4.50 
  -2  -6  -3  109.69    4.60 
  -2  -6  -3  109.19    4.40 
  -2   6  -3  122.09    6.30 
   2   6   3  106.59    3.20 
  -2   6  -3  115.69    7.90 
   2   6   3  115.99    3.30 
   2   6   3  107.89    7.10 
   3  -6   3  254.37   11.00 
   3  -6   3  225.58   10.30 
   3  -6   3  245.48   10.70 
  -3  -6  -3  244.18    7.90 
   3  -6   3  238.18    6.40 
   3  -6   3  243.18   10.60 
  -3  -6  -3  237.78    8.00 
  -3  -6  -3  249.97    8.10 
   3   6   3  243.48   11.30 
   3   6   3  248.28   10.30 
  -3   6  -3  250.17   10.00 
  -3   6  -3  257.97   11.80 
   3   6   3  229.38    6.90 
  -4  -6  -3   10.80    2.90 
  -4  -6  -3   19.70    3.30 
   4  -6   3    8.10    4.20 
  -4  -6  -3    7.00    2.80 
   4  -6   3   17.00    2.20 
   4  -6   3   16.20    4.90 
  -4   6  -3   17.10    4.40 
   4   6   3   11.00    4.80 
   4   6   3   15.30    3.70 
  -5  -6  -3    7.20    3.20 
   5  -6   3    5.40    4.60 
  -5  -6  -3    8.80    3.10 
   5  -6   3    5.20    3.70 
  -5   6  -3    9.50    4.40 
   5   6   3    5.20    3.20 
   5   6   3    3.70    4.70 
  -6  -6  -3    7.00    3.40 
   6  -6   3    2.30    4.80 
   6  -6   3    3.90    4.80 
   6  -6   3   -5.40    4.70 
   6   6   3   13.20    5.60 
  -6   6  -3    5.30    4.60 
   7  -6   3   52.79    8.30 
  -7  -6  -3   56.69    6.30 
   7  -6   3   47.30    7.30 
  -7   6  -3   35.80    6.70 
   7   6   3   60.89    8.20 
  -8  -7   3    3.30    4.00 
   8  -7  -3    1.20    5.10 
  -8  -7   3    3.80    3.50 
   8  -7  -3   14.80    6.00 
   8   7  -3    2.90    4.70 
  -8   7   3   -1.90    4.60 
  -8   7   3    1.50    4.70 
  -7  -7   3   10.00    3.70 
   7  -7  -3   21.10    5.50 
  -7  -7   3    9.60    3.80 
   7  -7  -3   14.60    4.50 
  -7  -7   3   13.90    4.50 
  -7   7   3   19.80    4.70 
  -7   7   3    7.80    5.00 
  -7   7   3    7.20    4.50 
   7   7  -3   14.90    5.20 
  -6  -7   3    3.90    3.10 
  -6  -7   3    4.30    3.40 
   6  -7  -3    5.60    4.50 
  -6  -7   3    7.50    3.70 
   6  -7  -3    6.60    4.50 
   6   7  -3    2.20    3.80 
  -6   7   3   -0.60    3.60 
  -6   7   3    4.20    3.40 
  -6   7   3    4.80    4.20 
  -6   7   3    1.80    3.40 
   5  -7  -3  246.78   11.30 
  -5  -7   3  249.18    9.80 
  -5  -7   3  258.47   10.00 
   5  -7  -3  267.07   11.40 
  -5  -7   3  246.18    9.70 
  -5   7   3  255.27   11.00 
  -5   7   3  248.48   10.30 
  -5   7   3  254.37   10.00 
  -5   7   3  258.57   11.90 
   5   7  -3  246.38   11.00 
  -4  -7   3  143.69    6.90 
   4  -7  -3  139.39    8.00 
  -4  -7   3  153.78    7.20 
   4  -7  -3  139.49    7.90 
   4  -7  -3  146.69    7.70 
  -4  -7   3  140.19    6.80 
  -4   7   3  149.69    7.10 
   4   7  -3  149.49    7.80 
  -4   7   3  144.39    9.10 
  -4   7   3  137.29    6.40 
  -4   7   3  156.48    8.00 
   3  -7  -3  109.79    6.60 
  -3  -7   3   87.09    5.40 
  -3  -7   3  107.59    5.80 
   3  -7  -3  106.59    6.00 
   3  -7  -3  105.69    5.90 
  -3  -7   3   95.49    5.50 
  -3   7   3  107.79    6.00 
  -3   7   3   97.29    4.10 
   3   7  -3   99.99    7.00 
  -3   7   3   96.19    4.30 
   3   7  -3   99.29    6.20 
  -3   7   3   98.99    6.00 
  -3   7   3   93.99    7.80 
  -2  -7   3  427.46   13.10 
   2  -7  -3  428.66   13.00 
  -2  -7   3  429.56   13.10 
  -2  -7   3  435.56   13.20 
   2  -7  -3  429.76   13.10 
   2  -7  -3  411.86   12.80 
  -2   7   3  419.86   13.30 
   2   7  -3  418.86   12.90 
  -2   7   3  425.96   12.60 
   2   7  -3  460.65   15.80 
  -2   7   3  443.76   16.00 
  -1  -7   3  246.78    8.70 
   1  -7  -3  248.78    8.10 
   1  -7  -3  233.28    8.00 
  -1  -7   3  232.18    8.70 
   1  -7  -3  240.48    7.80 
   1  -7  -3  229.98    7.70 
  -1  -7   3  246.18    9.00 
   1   7  -3  237.98    6.30 
  -1   7   3  254.97    9.30 
   1   7  -3  222.88   10.70 
   1   7  -3  231.58    6.30 
  -1   7   3  244.88   11.30 
  -1   7   3  234.58    7.30 
   0  -7   3   41.70    4.20 
   0  -7   3   38.80    4.00 
   0  -7  -3   37.00    2.90 
   0  -7  -3   40.70    2.70 
   0  -7  -3   38.00    3.10 
   0  -7   3   34.30    4.00 
   0  -7  -3   41.70    3.00 
   0  -7   3   42.70    4.20 
   0   7   3   38.80    5.50 
   0   7   3   37.40    1.30 
   0   7  -3   46.40    3.30 
   0   7  -3   39.50    5.50 
   0   7  -3   43.40    3.30 
   1  -7   3   19.80    3.60 
  -1  -7  -3   16.10    1.40 
   1  -7   3   19.60    3.50 
  -1  -7  -3   16.90    2.00 
  -1  -7  -3   21.50    2.00 
   1  -7   3   19.60    3.60 
   1  -7   3   23.60    4.00 
   1  -7   3   15.40    3.80 
  -1  -7  -3   18.50    2.00 
  -1   7  -3   17.80    4.70 
  -1   7  -3   12.00    2.50 
  -1   7  -3   18.70    3.10 
   1   7   3   13.20    4.40 
   2  -7   3  140.29    7.70 
   2  -7   3  128.29    7.40 
   2  -7   3  135.79    7.80 
   2  -7   3  140.09    7.60 
   2  -7   3  138.59    7.70 
  -2  -7  -3  134.19    4.90 
  -2  -7  -3  135.79    4.90 
  -2  -7  -3  137.29    4.90 
   2   7   3  138.39    8.50 
  -2   7  -3  138.19    8.10 
  -2   7  -3  117.49    6.80 
   3  -7   3   46.30    5.70 
  -3  -7  -3   56.69    3.80 
   3  -7   3   54.19    6.10 
   3  -7   3   47.40    5.80 
  -3  -7  -3   54.09    3.60 
  -3   7  -3   49.99    6.00 
   3   7   3   44.20    6.20 
   3   7   3   54.09    5.90 
  -3   7  -3   56.59    5.20 
   4  -7   3   62.49    6.80 
   4  -7   3   56.39    6.90 
  -4  -7  -3   53.29    4.20 
  -4   7  -3   50.29    7.10 
  -4   7  -3   63.79    6.50 
   4   7   3   48.30    6.80 
   4   7   3   53.89    6.10 
  -5  -7  -3   47.80    4.60 
   5  -7   3   52.39    7.10 
   5  -7   3   58.99    7.30 
   5   7   3   55.49    5.80 
   5   7   3   53.09    7.20 
  -5   7  -3   42.00    6.20 
   6  -7   3   42.20    6.90 
   6  -7   3   32.90    6.80 
   6  -7   3   31.00    5.70 
  -6  -7  -3   34.10    4.50 
  -6   7  -3   44.40    6.40 
   6   7   3   35.80    7.00 
   7  -7   3   34.30    7.40 
  -7  -7  -3   31.30    5.00 
   7  -7   3   30.10    5.90 
  -7   7  -3   36.90    7.10 
   7   7   3   34.60    7.50 
   8  -8  -3   41.40    7.60 
   8  -8  -3   40.10    7.40 
  -8  -8   3   42.60    5.50 
  -8  -8   3   48.60    6.00 
   8  -8  -3   58.19    8.20 
   8   8  -3   39.90    7.10 
  -8   8   3   44.50    6.60 
  -7  -8   3   35.60    5.20 
   7  -8  -3   26.60    6.20 
  -7  -8   3   37.60    5.00 
   7  -8  -3   41.50    6.80 
  -7   8   3   41.00    5.70 
   7   8  -3   34.90    6.50 
  -7   8   3   23.60    5.70 
  -6  -8   3   26.90    4.20 
   6  -8  -3   30.80    5.80 
   6  -8  -3   35.20    6.00 
  -6  -8   3   27.00    4.30 
   6   8  -3   25.80    5.40 
  -6   8   3   40.30    5.00 
  -6   8   3   35.40    5.50 
  -5  -8   3   68.69    5.50 
   5  -8  -3   68.89    6.70 
  -5  -8   3   68.39    5.60 
   5  -8  -3   66.19    6.90 
  -5  -8   3   55.49    5.10 
  -5   8   3   66.89    5.30 
  -5   8   3   76.59    6.40 
   5   8  -3   74.59    6.80 
  -5   8   3   68.59    7.60 
  -4  -8   3    0.60    2.70 
  -4  -8   3    3.00    2.80 
   4  -8  -3    0.20    3.30 
  -4  -8   3    9.00    3.00 
   4  -8  -3    5.00    3.60 
  -4   8   3    1.70    2.10 
  -4   8   3    2.60    3.30 
   4   8  -3   -4.90    4.30 
  -4   8   3    7.80    4.70 
   4   8  -3    2.60    3.20 
  -4   8   3    5.40    3.00 
  -3  -8   3   14.80    3.20 
   3  -8  -3   15.30    3.70 
   3  -8  -3   15.70    3.40 
   3  -8  -3   11.40    3.70 
  -3  -8   3   11.40    2.90 
  -3  -8   3   14.60    2.90 
  -3   8   3    7.80    3.40 
   3   8  -3   11.70    4.80 
  -3   8   3   15.00    5.10 
  -3   8   3    6.00    3.00 
   3   8  -3   13.40    3.30 
  -2  -8   3  170.78    7.50 
   2  -8  -3  184.98    7.50 
  -2  -8   3  184.28    7.60 
  -2  -8   3  176.38    7.50 
   2  -8  -3  168.48    7.50 
   2   8  -3  179.68    7.50 
  -2   8   3  181.98    7.30 
   2   8  -3  178.08   10.20 
  -2   8   3  171.38   10.40 
  -2   8   3  178.18    8.20 
  -1  -8   3  522.65   15.50 
  -1  -8   3  517.15   15.50 
  -1  -8   3  503.85   15.30 
  -1  -8   3  520.55   15.40 
   1  -8  -3  518.85   14.50 
   1  -8  -3  515.55   14.30 
   1  -8  -3  504.45   13.90 
  -1   8   3  475.95   13.90 
  -1   8   3  526.45   18.60 
  -1   8   3  521.95   16.00 
   1   8  -3  497.35   17.40 
   0  -8   3  134.99    7.10 
   0  -8  -3  115.69    4.10 
   0  -8   3  126.99    6.90 
   0  -8  -3  117.99    4.80 
   0  -8  -3  123.29    5.10 
   0  -8   3  123.49    6.80 
   0  -8  -3  134.19    6.60 
   0  -8   3  121.69    6.90 
   0   8  -3  125.29    8.80 
   0   8   3  120.39    8.90 
   0   8  -3  130.49    4.20 
   0   8  -3  126.59    4.20 
  -1  -8  -3  147.29    4.90 
   1  -8   3  146.39    7.70 
   1  -8   3  141.49    7.90 
   1  -8   3  157.98    7.90 
   1  -8   3  148.99    7.70 
  -1  -8  -3  147.99    5.10 
  -1   8  -3  146.49    9.50 
  -1   8  -3  160.58    6.20 
   1   8   3  153.38    9.50 
  -2  -8  -3  163.58    5.20 
   2  -8   3  167.18    8.70 
   2  -8   3  151.58    8.50 
   2  -8   3  162.68    8.60 
   2   8   3  173.48    9.80 
  -2   8  -3  166.38    9.40 
  -2   8  -3  173.18    7.40 
   3  -8   3  236.98   11.00 
   3  -8   3  242.38   11.20 
  -3  -8  -3  239.78    7.40 
   3  -8   3  234.88   11.10 
   3   8   3  255.17   11.70 
  -3   8  -3  261.97   12.70 
  -3   8  -3  225.68    9.90 
   4  -8   3   24.60    5.20 
   4  -8   3   23.90    5.40 
   4  -8   3   22.70    4.60 
  -4  -8  -3   21.00    2.80 
   4   8   3   27.80    5.30 
   4   8   3    9.80    5.20 
  -4   8  -3   20.00    6.10 
  -4   8  -3   13.20    4.30 
   5  -8   3  146.09   10.10 
   5  -8   3  140.69   10.30 
   5  -8   3  132.49    9.90 
  -5   8  -3  153.98    9.10 
  -5   8  -3  155.78   10.30 
   5   8   3  145.79   10.70 
   6  -8   3   -4.50    4.80 
   6  -8   3   11.30    5.60 
  -6  -8  -3    5.60    3.10 
   6  -8   3    2.00    5.10 
   6   8   3    7.10    5.60 
  -6   8  -3    5.00    4.50 
  -6   8  -3   -0.80    6.10 
   7  -9  -3   14.60    5.70 
   7  -9  -3   10.20    5.40 
  -7  -9   3    8.20    3.60 
   7  -9  -3   11.40    5.40 
  -7  -9   3    6.90    3.60 
   7   9  -3   21.10    5.90 
  -6  -9   3   42.70    4.90 
   6  -9  -3   41.70    6.50 
  -6  -9   3   50.59    4.80 
   6  -9  -3   45.10    6.60 
   6   9  -3   42.30    6.30 
  -6   9   3   46.40    5.90 
   5  -9  -3   93.29    7.90 
  -5  -9   3  105.49    5.90 
  -5  -9   3   82.79    6.10 
   5  -9  -3  102.89    8.00 
  -5   9   3  101.59    7.50 
   5   9  -3  108.19    7.90 
  -4  -9   3  117.19    6.40 
   4  -9  -3  126.89    8.20 
   4  -9  -3  117.09    7.90 
  -4  -9   3  110.49    5.90 
  -4   9   3  111.39    7.50 
  -4   9   3  113.29    9.40 
   4   9  -3  111.09    7.80 
   4   9  -3  110.29    8.50 
  -3  -9   3   45.00    4.50 
   3  -9  -3   43.00    5.00 
  -3  -9   3   42.60    4.00 
  -3  -9   3   42.90    4.20 
   3  -9  -3   43.10    4.80 
   3   9  -3   44.40    6.80 
  -3   9   3   32.70    4.60 
   3   9  -3   47.00    4.80 
  -3   9   3   42.30    6.90 
  -2  -9   3   25.20    3.70 
   2  -9  -3   23.20    3.70 
   2  -9  -3   33.10    4.10 
   2  -9  -3   28.10    3.70 
  -2  -9   3   26.00    3.50 
  -2  -9   3   27.00    3.70 
   2   9  -3   26.80    5.90 
  -2   9   3   18.90    5.50 
   2   9  -3   18.20    3.60 
  -2   9   3   30.50    4.50 
   1  -9  -3  103.49    5.20 
   1  -9  -3  116.39    5.70 
  -1  -9   3  103.89    6.20 
  -1  -9   3  112.29    6.60 
   1  -9  -3  105.39    5.40 
  -1  -9   3  111.49    6.40 
  -1  -9   3  104.69    6.30 
   1   9  -3  109.19    8.90 
  -1   9   3  117.99    9.40 
  -1   9   3  112.29    7.00 
   0  -9   3  121.79    7.10 
   0  -9   3  114.39    6.90 
   0  -9  -3  120.59    4.80 
   0  -9   3  137.59    7.10 
   0   9  -3  135.99    9.40 
   0   9   3  104.49    9.20 
   1  -9   3  150.68    7.80 
  -1  -9  -3  138.79    4.30 
   1  -9   3  135.29    7.60 
   1  -9   3  138.89    8.10 
   1   9   3  128.59    9.50 
  -1   9  -3  133.49    8.70 
   2  -9   3   56.39    6.00 
  -2  -9  -3   56.89    1.90 
   2  -9   3   57.19    5.90 
   2  -9   3   64.69    6.30 
  -2   9  -3   67.19    7.60 
  -2   9  -3   60.29    4.50 
   2   9   3   58.29    7.10 
   3  -9   3   13.30    4.70 
   3  -9   3   14.50    4.60 
   3  -9   3    7.90    4.30 
  -3   9  -3    8.10    5.50 
  -3   9  -3   13.70    3.80 
   3   9   3   14.20    4.80 
   4  -9   3    4.70    5.00 
   4  -9   3    4.60    4.60 
   4  -9   3    5.70    4.40 
  -4   9  -3    2.50    5.40 
   4   9   3    9.50    4.40 
  -4   9  -3    7.80    3.90 
   5  -9   3   22.80    6.00 
   5  -9   3    9.00    5.20 
   5  -9   3   14.50    5.70 
   5   9   3   22.90    5.70 
  -5   9  -3   21.50    4.60 
  -5   9  -3   11.70    6.10 
   6  -9   3  154.18   11.20 
   6  -9   3  161.28   11.40 
   6  -9   3  145.39   13.30 
  -6   9  -3  129.59   12.20 
  -6   9  -3  131.09    9.80 
   6   9   3  122.19   11.30 
   6 -10  -3   20.20    5.60 
   6 -10  -3   29.90    6.20 
   6 -10  -3   23.20    6.10 
  -6 -10   3   32.40    4.30 
   6  10  -3   35.20    6.30 
   5 -10  -3   90.09    8.20 
  -5 -10   3   88.79    5.30 
  -5 -10   3   83.19    6.00 
   5 -10  -3   77.29    7.50 
   5 -10  -3   88.59    7.90 
  -5  10   3   83.99    7.60 
   5  10  -3   86.69    7.80 
   4 -10  -3  135.49    8.30 
   4 -10  -3  127.79    8.60 
  -4 -10   3  124.69    6.00 
   4 -10  -3  128.99    8.50 
  -4 -10   3  131.49    6.70 
  -4  10   3  134.19    8.40 
   4  10  -3  130.19    8.10 
   3 -10  -3    6.10    3.30 
  -3 -10   3    2.70    2.40 
  -3 -10   3    7.40    2.90 
   3 -10  -3   -0.40    3.20 
  -3  10   3    3.60    3.90 
   3  10  -3   -2.10    5.00 
   3  10  -3   -1.20    3.40 
  -3  10   3    8.30    5.30 
   2 -10  -3  141.29    6.70 
  -2 -10   3  134.39    6.80 
   2 -10  -3  130.29    6.80 
  -2 -10   3  141.49    6.50 
   2  10  -3  136.39   10.40 
  -2  10   3  136.99   10.60 
  -2  10   3  138.49    8.50 
  -1 -10   3  210.98    9.00 
  -1 -10   3  187.08    9.10 
  -1 -10   3  216.58    8.60 
   1 -10  -3  213.98    6.80 
   1 -10  -3  207.68    7.70 
   1 -10  -3  215.68    7.90 
   1  10  -3  192.08   10.90 
  -1  10   3  222.48   10.20 
  -1  10   3  214.98   12.60 
   0 -10   3  117.69    7.20 
   0 -10  -3  112.69    4.60 
   0 -10  -3  115.09    4.60 
   0 -10   3  112.69    6.90 
   0 -10   3  114.19    7.00 
   0  10   3   97.99    8.30 
   0  10  -3  111.19    9.60 
   1 -10   3   85.19    6.80 
   1 -10   3   67.19    6.20 
   1 -10   3   79.89    6.80 
   1  10   3   80.49    8.70 
  -1  10  -3   76.39    8.50 
   2 -10   3   96.69    7.40 
   2 -10   3   69.99    6.60 
   2 -10   3   90.89    7.60 
   2  10   3   89.19    9.00 
  -2  10  -3   77.49    8.50 
   3 -10   3   56.39    6.50 
   3 -10   3   58.59    6.70 
   3 -10   3   54.49    6.50 
  -3  10  -3   53.29    7.80 
   4 -10   3    7.20    5.10 
   4 -10   3   10.90    5.10 
   4 -10   3    5.80    4.70 
  -4  10  -3   14.80    6.40 
   5 -10   3   63.39    7.90 
   5 -10   3   61.89    7.70 
   5 -10   3   59.99    7.80 
  -5  10  -3   70.29    9.30 
  -5 -11   3    0.70    2.80 
   5 -11  -3    9.60    4.70 
   5 -11  -3    4.00    4.80 
   5  11  -3   15.70    5.00 
   4 -11  -3   62.49    6.50 
  -4 -11   3   75.89    5.50 
   4 -11  -3   73.29    6.70 
  -4  11   3   91.49   11.40 
   3 -11  -3   16.60    3.70 
  -3 -11   3   21.10    3.40 
   3 -11  -3   11.50    3.70 
   3  11  -3   14.30    6.20 
  -3  11   3   22.80    4.90 
   2 -11  -3    6.30    2.60 
  -2 -11   3    5.50    2.60 
   2 -11  -3    4.30    2.90 
  -2 -11   3    0.00    2.70 
   2  11  -3   -4.60    5.00 
  -2  11   3    8.90    4.50 
  -1 -11   3    4.80    2.90 
  -1 -11   3    1.20    2.90 
   1 -11  -3    1.70    2.20 
   1 -11  -3    2.20    2.30 
  -1  11   3   -4.30    3.40 
   1  11  -3   -8.30    4.70 
   0 -11   3   19.40    4.10 
   0 -11  -3   21.60    2.00 
   0 -11  -3   21.90    2.10 
   0 -11   3   24.70    4.10 
   0  11  -3   25.70    6.40 
   1 -11   3   48.80    5.60 
   1 -11   3   50.59    5.60 
  -1  11  -3   52.59    7.90 
   2 -11   3   24.60    5.10 
   2 -11   3   19.40    5.00 
   2 -11   3   22.80    5.30 
  -2  11  -3   25.90    6.40 
   3 -11   3    6.20    4.20 
   3 -11   3    7.50    4.50 
   3 -11   3   10.30    5.10 
  -3  11  -3    5.90    4.50 
   4 -11   3   11.20    5.00 
   4 -11   3   16.60    5.50 
   4 -11   3   -0.10    4.70 
  -4  11  -3   20.30    6.70 
  -3 -12   3   46.80    4.30 
   3 -12  -3   48.60    5.50 
   3  12  -3   45.40    8.10 
  -2 -12   3   53.99    4.80 
   2 -12  -3   49.00    4.70 
  -2  12   3   43.60    6.30 
   2  12  -3   40.70    7.90 
  -1 -12   3   43.50    4.80 
   1 -12  -3   42.80    3.60 
   1  12  -3   37.00    7.50 
  -1  12   3   22.60    5.90 
   0 -12  -3   82.79    3.00 
   0 -12  -3   88.39    3.00 
   0 -12   3   90.49    6.30 
   0 -12   3   90.39    6.80 
   0  12  -3   81.39    9.40 
   1 -12   3   61.39    6.20 
   1 -12   3   65.99    6.30 
  -1  12  -3   62.99    8.60 
   2 -12   3   19.60    5.00 
   2 -12   3   23.00    5.10 
  -2  12  -3   13.90    6.50 
 -10   0   4   -0.80    5.50 
  10   0  -4   11.60    5.30 
 -10   0   4   -0.30    5.30 
  10   0  -4    3.70    5.10 
  -9   0   4   92.19    8.60 
   9   0  -4   69.49    7.70 
  -9   0   4   81.69    8.50 
  -9   0   4   90.69    8.90 
  -8   0   4  100.49    7.60 
  -8   0   4   97.29    9.00 
   8   0  -4   97.79    8.20 
  -8   0   4   84.29    8.20 
  -7   0   4   97.89    5.10 
  -7   0   4   81.59    7.70 
  -7   0   4   84.09    6.60 
   7   0  -4   93.79    7.70 
  -7   0   4   89.89    7.60 
  -6   0   4   73.09    5.10 
   6   0  -4   65.29    6.20 
  -6   0   4   82.29    5.90 
  -6   0   4   71.39    6.50 
  -6   0   4   83.39    6.10 
   5   0  -4   86.29    6.20 
  -5   0   4   83.09    4.80 
  -5   0   4   83.79    6.20 
  -5   0   4   77.19    6.10 
  -5   0   4   98.69    6.80 
  -5   0   4   82.89    5.40 
  -4   0   4   27.30    2.60 
   4   0  -4   20.80    3.80 
  -4   0   4   23.30    3.40 
   4   0  -4   25.60    3.40 
  -4   0   4   26.30    3.90 
  -4   0   4   32.00    4.20 
  -3   0   4   93.49    5.70 
  -3   0   4   95.89    6.00 
  -3   0   4   94.49    3.90 
  -3   0   4   91.19    5.70 
   3   0  -4  103.39    5.90 
   3   0  -4   98.09    5.80 
   3   0  -4   97.49    5.10 
   2   0  -4    9.00    2.80 
   2   0  -4   10.70    3.00 
   2   0  -4   10.90    3.10 
  -2   0   4   10.60    3.00 
  -2   0   4   10.60    1.60 
   2   0  -4   12.70    2.70 
  -2   0   4    7.20    2.60 
   2   0  -4    7.20    1.50 
  -2   0   4   10.70    2.40 
  -2   0   4    9.50    3.10 
  -1   0   4    8.60    2.10 
   1   0  -4    6.90    2.30 
   1   0  -4    7.50    2.90 
  -1   0   4    8.60    2.70 
   1   0  -4    8.20    2.70 
  -1   0   4   14.20    3.30 
  -1   0   4    8.90    2.90 
   1   0  -4    8.00    1.70 
   0   0  -4 1763.42   44.20 
   0   0  -4 1770.52   44.40 
   0   0   4 1779.92   44.60 
   0   0   4 1813.62   44.20 
   0   0  -4 1842.32   44.60 
   0   0   4 1803.02   44.40 
   0   0   4 1801.12   44.20 
   0   0  -4 1844.92   44.50 
   1   0   4 1421.46   36.80 
  -1   0  -4 1464.95   36.80 
   1   0   4 1500.95   36.60 
   1   0   4 1444.66   36.60 
   1   0   4 1494.15   36.40 
   1   0   4 1438.06   36.60 
  -1   0  -4 1462.25   36.70 
  -1   0  -4 1407.36   36.50 
  -2   0  -4   39.40    4.30 
   2   0   4   37.20    3.90 
   2   0   4   43.50    4.00 
   2   0   4   45.10    4.20 
  -2   0  -4   45.20    4.40 
  -2   0  -4   39.90    4.20 
   2   0   4   37.80    3.50 
  -2   0  -4   35.60    3.30 
  -3   0  -4  241.88    9.20 
  -3   0  -4  220.88    9.40 
   3   0   4  222.98    8.60 
  -3   0  -4  224.78    9.50 
   3   0   4  238.88    9.40 
   3   0   4  242.78    9.20 
   3   0   4  264.37   10.00 
   4   0   4   19.00    3.70 
  -4   0  -4   28.50    4.00 
   4   0   4   25.60    4.60 
  -4   0  -4   26.40    4.50 
  -4   0  -4   28.40    4.50 
   4   0   4   26.30    3.80 
   4   0   4   25.20    4.30 
   5   0   4   45.80    5.20 
  -5   0  -4   54.79    5.70 
   5   0   4   48.10    5.50 
  -5   0  -4   63.59    6.50 
   5   0   4   43.40    5.30 
   5   0   4   48.40    5.70 
   6   0   4  206.98   10.00 
   6   0   4  187.58    9.70 
   6   0   4  199.48   10.10 
  -6   0  -4  185.48   10.60 
  -6   0  -4  196.98   10.80 
   7   0   4  124.79    8.60 
   7   0   4  132.69    9.40 
   7   0   4  129.39    9.70 
  -7   0  -4  132.19    9.90 
  -7   0  -4  142.49   10.10 
  -8   0  -4    9.60    4.60 
   8   0   4   11.40    4.60 
  -8   0  -4   -3.70    5.00 
   8   0   4    6.10    4.60 
 -10  -1   4   11.00    4.80 
 -10  -1   4   10.60    5.70 
  10  -1  -4    6.30    5.40 
 -10  -1   4   10.40    5.80 
  10  -1  -4    4.40    5.40 
  10   1  -4    4.90    5.10 
 -10   1   4   10.40    6.10 
  10   1  -4   10.90    6.50 
 -10   1   4   11.70    5.90 
  -9  -1   4   50.09    7.20 
  -9  -1   4   54.29    7.50 
   9  -1  -4   52.49    7.30 
  -9  -1   4   49.90    7.10 
   9   1  -4   45.50    6.50 
  -9   1   4   48.20    7.10 
  -9   1   4   49.00    6.70 
  -9   1   4   59.59    7.60 
   9   1  -4   55.59    8.20 
  -8  -1   4   22.90    5.50 
  -8  -1   4   14.90    4.80 
   8  -1  -4   11.60    5.10 
  -8  -1   4   13.70    4.90 
   8   1  -4   20.10    4.90 
  -8   1   4   15.60    4.30 
  -8   1   4   22.40    5.80 
  -8   1   4   15.80    5.20 
  -7  -1   4    6.40    4.20 
  -7  -1   4    6.40    4.30 
  -7  -1   4   10.50    2.50 
  -7  -1   4   13.50    4.50 
   7  -1  -4    4.80    4.10 
  -7   1   4    8.80    2.70 
  -7   1   4   11.30    3.70 
   7   1  -4   10.40    4.20 
  -7   1   4    8.30    4.20 
  -7   1   4   10.60    3.90 
  -6  -1   4  170.88    8.90 
  -6  -1   4  169.38    9.10 
   6  -1  -4  176.18    9.10 
  -6  -1   4  167.38    8.90 
  -6   1   4  171.78    9.10 
   6   1  -4  177.68    8.80 
  -6   1   4  170.98    7.50 
  -6   1   4  184.08    9.60 
  -6   1   4  165.08    8.90 
  -5  -1   4  239.38    9.90 
  -5  -1   4  225.08   10.00 
   5  -1  -4  246.28   10.20 
   5  -1  -4  242.88    9.90 
  -5  -1   4  267.07   10.30 
  -5   1   4  246.18    9.20 
  -5   1   4  231.78   10.00 
   5   1  -4  247.98    9.80 
  -5   1   4  264.17   10.50 
  -5   1   4  235.08    9.90 
  -4  -1   4  572.04   17.10 
   4  -1  -4  567.04   17.10 
   4  -1  -4  556.74   17.00 
  -4  -1   4  568.44   15.80 
  -4  -1   4  555.84   17.00 
  -4  -1   4  566.54   17.00 
   4   1  -4  569.94   16.90 
  -4   1   4  575.54   17.00 
   4   1  -4  597.24   17.00 
  -4   1   4  585.94   16.90 
  -4   1   4  567.34   17.10 
  -4   1   4  580.64   17.20 
   3  -1  -4  318.57   10.80 
  -3  -1   4  314.57    9.40 
  -3  -1   4  311.67   10.70 
   3  -1  -4  288.07   10.30 
  -3  -1   4  317.07   10.80 
  -3  -1   4  296.77   10.50 
   3  -1  -4  311.17   10.50 
   3   1  -4  320.47   10.70 
   3   1  -4  312.57   10.70 
  -3   1   4  342.57   10.90 
  -3   1   4  332.67    8.40 
   3   1  -4  336.17   11.70 
  -3   1   4  319.97   11.00 
  -3   1   4  339.17   10.80 
  -3   1   4  322.77   10.80 
  -2  -1   4   16.50    2.50 
   2  -1  -4   17.90    2.70 
   2  -1  -4   18.30    3.30 
  -2  -1   4   15.00    3.50 
  -2  -1   4   13.60    2.10 
   2  -1  -4   17.00    3.20 
  -2  -1   4   18.10    3.20 
  -2  -1   4    7.80    3.00 
   2  -1  -4   13.40    2.40 
   2   1  -4   17.60    3.10 
   2   1  -4   20.50    3.50 
   2   1  -4   18.50    2.40 
  -2   1   4   18.00    3.10 
  -2   1   4   20.90    3.00 
   2   1  -4   23.10    3.20 
  -2   1   4   20.10    3.40 
   2   1  -4   22.80    3.50 
  -2   1   4   19.30    3.10 
   1  -1  -4  226.78    8.10 
  -1  -1   4  234.38    8.80 
  -1  -1   4  231.98    8.50 
   1  -1  -4  231.48    6.20 
  -1  -1   4  219.38    8.40 
   1  -1  -4  233.88    8.40 
   1  -1  -4  236.18    8.30 
   1  -1  -4  240.78    8.20 
  -1  -1   4  238.28    8.20 
   1   1  -4  236.28    8.50 
  -1   1   4  222.78    7.80 
   1   1  -4  239.78    8.30 
  -1   1   4  230.28    8.50 
  -1   1   4  217.38    8.00 
  -1   1   4  234.68    8.20 
   1   1  -4  250.17    8.60 
   1   1  -4  244.58    8.30 
   1   1  -4  232.48    7.40 
   0  -1   4 1168.88   30.20 
   0  -1  -4 1144.59   29.60 
   0  -1  -4 1210.58   29.90 
   0  -1  -4 1158.48   29.80 
   0  -1   4 1180.98   30.10 
   0  -1  -4 1169.28   29.70 
   0  -1  -4 1166.18   29.90 
   0  -1   4 1209.98   30.30 
   0  -1   4 1146.49   29.80 
   0   1  -4 1161.08   30.20 
   0   1   4 1196.68   29.70 
   0   1   4 1191.48   29.60 
   0   1  -4 1141.79   30.00 
   0   1  -4 1168.48   29.90 
   0   1   4 1188.18   30.00 
   0   1  -4 1186.08   30.10 
   1  -1   4   99.09    5.70 
   1  -1   4   99.39    5.20 
  -1  -1  -4  107.59    5.60 
  -1  -1  -4   92.69    5.70 
   1  -1   4  106.59    5.80 
  -1  -1  -4   97.39    5.10 
  -1  -1  -4   97.49    5.40 
  -1  -1  -4   99.99    5.40 
   1  -1   4   92.49    5.30 
   1   1   4  100.39    4.90 
  -1   1  -4   93.89    5.20 
  -1   1  -4  100.59    5.70 
   1   1   4  110.59    5.60 
  -1   1  -4   96.29    5.80 
   1   1   4   97.89    5.20 
   1   1   4  105.39    5.30 
  -1   1  -4   95.59    4.20 
   1   1   4  105.29    5.20 
  -2  -1  -4   43.80    4.20 
   2  -1   4   38.60    4.30 
  -2  -1  -4   42.60    4.10 
  -2  -1  -4   42.00    4.20 
  -2  -1  -4   38.30    3.80 
   2  -1   4   42.70    4.40 
   2  -1   4   44.10    3.40 
   2  -1   4   44.80    4.80 
   2  -1   4   40.30    4.20 
  -2   1  -4   42.90    4.40 
   2   1   4   42.20    3.60 
  -2   1  -4   40.70    4.50 
   2   1   4   39.00    3.80 
   2   1   4   39.70    3.70 
   2   1   4   44.60    4.30 
   2   1   4   33.20    3.80 
  -3  -1  -4   56.29    5.10 
   3  -1   4   48.50    5.20 
   3  -1   4   46.70    5.00 
  -3  -1  -4   55.49    5.00 
   3  -1   4   59.79    5.20 
  -3  -1  -4   49.30    4.80 
  -3  -1  -4   68.09    5.40 
   3  -1   4   56.99    4.30 
   3   1   4   66.79    5.10 
   3   1   4   54.49    5.20 
  -3   1  -4   64.09    5.50 
  -3   1  -4   56.69    4.60 
   3   1   4   57.59    4.70 
  -3   1  -4   56.19    3.80 
  -3   1  -4   51.39    5.20 
   3   1   4   57.59    4.70 
  -4  -1  -4  152.48    8.10 
  -4  -1  -4  153.38    8.10 
   4  -1   4  160.88    8.30 
   4  -1   4  153.88    7.00 
   4  -1   4  146.49    8.10 
   4  -1   4  158.98    8.70 
  -4  -1  -4  159.68    8.00 
  -4   1  -4  159.58    8.60 
  -4   1  -4  164.88    8.50 
   4   1   4  138.79    7.50 
   4   1   4  138.49    7.30 
   4   1   4  153.98    7.40 
  -4   1  -4  161.48    8.70 
   4   1   4  157.68    7.80 
  -5  -1  -4    1.00    3.60 
  -5  -1  -4    6.80    3.80 
   5  -1   4    4.00    3.40 
   5  -1   4    1.80    3.20 
   5  -1   4    5.80    3.70 
   5  -1   4    0.50    3.70 
   5   1   4    4.90    3.70 
   5   1   4    7.80    4.00 
  -5   1  -4    2.40    4.10 
  -5   1  -4    3.90    4.10 
   5   1   4    0.10    2.80 
   5   1   4   -1.80    3.00 
  -6  -1  -4   75.09    7.30 
   6  -1   4   71.49    6.30 
   6  -1   4   77.29    7.40 
  -6  -1  -4   76.09    7.30 
   6  -1   4   74.69    7.90 
  -6   1  -4   79.09    7.80 
   6   1   4   79.49    7.40 
   6   1   4   69.79    6.30 
  -6   1  -4   80.89    7.90 
   6   1   4   81.29    7.20 
   7  -1   4  107.09    8.40 
  -7  -1  -4  113.89    9.40 
  -7  -1  -4  113.99    9.10 
   7  -1   4  100.59    9.30 
   7  -1   4  100.29    8.60 
  -7   1  -4   98.59    9.20 
  -7   1  -4  123.99    9.80 
   7   1   4  116.79    9.10 
   7   1   4   97.99    8.50 
   7   1   4  112.49    7.70 
  -8  -1  -4   62.59    8.00 
   8  -1   4   61.89    7.90 
  -8  -1  -4   67.39    8.20 
   8  -1   4   58.79    7.10 
   8  -1   4   68.49    8.60 
   8   1   4   67.19    7.90 
  -8   1  -4   63.79    8.40 
   8   1   4   60.59    6.90 
  -8   1  -4   57.29    8.30 
 -10  -2   4   -1.00    5.00 
  10  -2  -4   -0.60    5.20 
 -10  -2   4    4.50    5.30 
 -10  -2   4    1.10    5.30 
  10   2  -4   -2.40    5.60 
 -10   2   4   -4.20    5.40 
 -10   2   4   -5.40    4.80 
  10   2  -4    7.10    4.60 
   9  -2  -4   28.50    6.30 
  -9  -2   4   20.80    5.80 
  -9  -2   4   27.50    6.10 
  -9  -2   4   25.30    6.00 
  -9   2   4   26.30    6.00 
   9   2  -4   29.00    6.80 
   9   2  -4   23.90    5.20 
  -9   2   4   32.10    6.80 
  -8  -2   4  108.19    8.50 
   8  -2  -4  113.69    9.00 
   8  -2  -4  108.79   10.80 
  -8  -2   4  105.59    8.60 
  -8  -2   4   95.29    8.60 
   8   2  -4   93.59    8.90 
  -8   2   4  111.99    8.00 
   8   2  -4   94.39    7.80 
  -8   2   4  103.49    8.80 
  -8   2   4  104.19    8.00 
  -7  -2   4  198.68   10.40 
  -7  -2   4  217.38    7.80 
  -7  -2   4  178.58    9.30 
   7  -2  -4  209.68   10.80 
  -7  -2   4  201.88    9.60 
  -7   2   4  197.58    9.70 
  -7   2   4  208.88   10.70 
  -7   2   4  196.58   10.80 
  -7   2   4  204.18    8.30 
   7   2  -4  195.38    9.60 
  -6  -2   4  362.86   13.10 
   6  -2  -4  355.36   13.00 
   6  -2  -4  338.87   13.30 
  -6  -2   4  337.67   13.10 
  -6  -2   4  347.77   13.00 
  -6   2   4  356.66   11.90 
  -6   2   4  329.87   13.00 
  -6   2   4  317.67   13.30 
   6   2  -4  340.87   12.50 
  -6   2   4  364.66   13.00 
  -5  -2   4  139.79    7.70 
  -5  -2   4  136.09    7.40 
  -5  -2   4  146.89    7.50 
   5  -2  -4  133.19    7.70 
   5  -2  -4  138.19    7.60 
   5   2  -4  124.79    6.90 
  -5   2   4  139.09    7.00 
  -5   2   4  145.89    7.10 
  -5   2   4  127.29    6.60 
  -5   2   4  136.19    7.20 
  -4  -2   4  118.59    5.70 
   4  -2  -4  119.79    6.20 
  -4  -2   4  113.69    6.10 
  -4  -2   4  111.59    6.40 
  -4  -2   4  113.59    6.50 
   4  -2  -4  121.39    6.10 
  -4   2   4  116.29    6.80 
  -4   2   4  126.09    6.20 
  -4   2   4  122.09    6.70 
   4   2  -4  121.99    6.30 
  -4   2   4  125.29    6.60 
  -3  -2   4  127.99    6.40 
  -3  -2   4  118.39    6.30 
   3  -2  -4  124.59    6.30 
  -3  -2   4  126.99    6.50 
  -3  -2   4  124.39    5.60 
   3  -2  -4  123.49    6.40 
   3  -2  -4  126.09    6.50 
  -3   2   4  126.69    6.20 
  -3   2   4  122.69    6.50 
  -3   2   4  123.19    3.60 
  -3   2   4  114.49    5.70 
   3   2  -4  118.99    5.60 
   3   2  -4  121.69    5.90 
   3   2  -4  129.19    6.30 
   3   2  -4  121.09    5.60 
  -3   2   4  131.89    6.80 
  -3   2   4  127.29    5.70 
  -2  -2   4    5.40    3.00 
   2  -2  -4    4.40    2.10 
   2  -2  -4    5.40    2.60 
   2  -2  -4    9.50    2.80 
  -2  -2   4    9.00    2.40 
   2  -2  -4    3.40    2.70 
  -2  -2   4    7.00    2.80 
  -2  -2   4    2.80    1.70 
  -2   2   4    5.10    2.50 
   2   2  -4    8.60    2.10 
   2   2  -4    9.00    2.80 
   2   2  -4    2.20    2.50 
  -2   2   4    2.80    2.70 
  -2   2   4    2.00    3.20 
  -2   2   4   10.30    2.40 
   2   2  -4    6.70    2.30 
  -2   2   4    2.80    2.30 
   1  -2  -4  213.08    7.70 
  -1  -2   4  198.38    7.60 
   1  -2  -4  201.48    7.60 
  -1  -2   4  171.08    7.30 
   1  -2  -4  204.08    7.50 
   1  -2  -4  198.58    5.30 
   1  -2  -4  220.48    7.70 
  -1  -2   4  201.58    8.20 
  -1  -2   4  190.98    7.50 
   1   2  -4  219.38    8.20 
  -1   2   4  206.28    7.40 
   1   2  -4  214.18    7.40 
   1   2  -4  208.18    7.90 
  -1   2   4  215.98    7.50 
  -1   2   4  206.88    7.60 
   1   2  -4  217.68    7.90 
  -1   2   4  207.68    8.30 
   1   2  -4  224.48    7.80 
   0  -2  -4  627.84   17.70 
   0  -2  -4  653.23   18.20 
   0  -2  -4  641.64   17.90 
   0  -2   4  669.73   18.60 
   0  -2  -4  654.73   17.90 
   0  -2   4  678.63   18.50 
   0  -2   4  634.64   18.40 
   0  -2  -4  641.74   17.90 
   0   2   4  653.53   17.40 
   0   2   4  681.43   19.00 
   0   2  -4  656.03   18.30 
   0   2  -4  670.73   18.50 
   0   2  -4  670.73   18.60 
   0   2   4  653.13   17.90 
   0   2   4  675.73   17.70 
   0   2  -4  649.74   18.10 
   0   2   4  678.53   17.40 
   0   2  -4  661.83   18.10 
  -1  -2  -4  781.12   21.20 
  -1  -2  -4  818.72   21.50 
  -1  -2  -4  779.42   21.30 
  -1  -2  -4  802.12   21.20 
   1  -2   4  793.42   21.90 
   1  -2   4  794.32   22.00 
   1  -2   4  811.42   22.20 
   1  -2   4  787.02   22.10 
   1   2   4  805.72   21.40 
  -1   2  -4  824.02   22.00 
   1   2   4  773.82   20.60 
   1   2   4  810.92   20.90 
   1   2   4  805.32   21.10 
  -1   2  -4  800.52   19.70 
   1   2   4  852.71   22.60 
  -1   2  -4  793.72   21.90 
  -2  -2  -4  137.89    6.40 
   2  -2   4  142.39    7.20 
  -2  -2  -4  134.89    6.30 
   2  -2   4  137.49    6.60 
   2  -2   4  140.39    7.10 
  -2  -2  -4  133.89    6.30 
   2  -2   4  141.79    7.50 
   2   2   4  139.59    7.00 
   2   2   4  137.09    6.20 
  -2   2  -4  137.69    5.00 
  -2   2  -4  133.79    7.00 
   2   2   4  123.09    5.60 
  -2   2  -4  130.89    6.50 
   2   2   4  143.19    6.40 
   2   2   4  132.59    6.90 
  -3  -2  -4  239.88    9.20 
   3  -2   4  229.98   10.10 
   3  -2   4  244.18   10.00 
   3  -2   4  236.88    7.90 
  -3  -2  -4  222.18    9.00 
   3  -2   4  225.58    9.40 
   3  -2   4  232.28    9.70 
  -3  -2  -4  225.28    9.10 
  -3  -2  -4  234.08    9.10 
   3   2   4  226.88    8.40 
  -3   2  -4  230.78    9.80 
  -3   2  -4  236.48    9.80 
   3   2   4  241.78    8.30 
   3   2   4  230.38    9.60 
   3   2   4  233.48    9.10 
   3   2   4  238.38    8.70 
   3   2   4  232.68    9.30 
  -3   2  -4  204.98    9.20 
   4  -2   4    9.20    4.20 
   4  -2   4    3.50    2.50 
  -4  -2  -4    4.90    3.30 
  -4  -2  -4    2.90    3.20 
  -4  -2  -4    9.70    3.30 
   4  -2   4    4.80    3.00 
   4  -2   4    6.10    3.70 
  -4  -2  -4    5.00    3.50 
   4   2   4    6.10    2.90 
   4   2   4    9.70    3.10 
   4   2   4    3.30    3.00 
  -4   2  -4   12.80    3.90 
  -4   2  -4    8.40    3.30 
   4   2   4    4.00    2.90 
   4   2   4    1.70    3.00 
  -4   2  -4    8.90    4.10 
   4   2   4    9.20    3.80 
  -5  -2  -4   74.99    6.80 
  -5  -2  -4   68.39    6.30 
   5  -2   4   65.59    5.30 
   5  -2   4   65.69    6.70 
   5  -2   4   74.89    7.00 
   5  -2   4   63.59    7.20 
   5   2   4   69.99    6.30 
   5   2   4   84.29    7.10 
   5   2   4   70.29    5.60 
  -5   2  -4   75.19    7.30 
   5   2   4   65.89    5.20 
  -5   2  -4   66.59    6.80 
  -6  -2  -4   95.89    8.30 
   6  -2   4   94.79    6.80 
  -6  -2  -4   96.89    7.80 
   6  -2   4   82.29    7.80 
   6  -2   4   87.69    8.00 
  -6   2  -4   82.39    8.20 
   6   2   4   87.49    7.60 
   6   2   4   94.69    6.80 
   6   2   4   99.89    8.00 
  -6   2  -4   94.49    8.50 
   7  -2   4   55.09    7.20 
  -7  -2  -4   57.19    7.10 
   7  -2   4   63.79    8.10 
   7  -2   4   72.39    6.70 
  -7  -2  -4   63.99    7.30 
   7   2   4   62.39    6.00 
  -7   2  -4   73.39    8.30 
   7   2   4   71.49    7.80 
  -7   2  -4   60.49    7.20 
   8  -2   4   18.50    6.20 
  -8  -2  -4   24.00    6.10 
   8  -2   4   20.30    5.70 
  -8  -2  -4   24.10    6.00 
  -8   2  -4   22.90    6.50 
   8   2   4   13.80    5.60 
 -10  -3   4   31.10    6.60 
  10  -3  -4   34.30    7.30 
 -10  -3   4   29.40    6.50 
 -10  -3   4   26.20    6.50 
  10   3  -4   24.10    7.10 
 -10   3   4   18.50    6.60 
 -10   3   4   26.80    6.90 
  10   3  -4   37.80    6.20 
  -9  -3   4   13.70    5.10 
  -9  -3   4    6.80    4.90 
  -9  -3   4   -4.10    4.60 
   9  -3  -4   11.70    4.70 
   9   3  -4    2.50    4.20 
  -9   3   4    5.90    5.70 
   9   3  -4    4.40    5.50 
  -9   3   4   20.20    5.70 
   8  -3  -4   19.60    4.80 
  -8  -3   4   22.20    5.40 
  -8  -3   4   25.70    5.30 
  -8  -3   4   38.70    6.10 
   8  -3  -4   25.60    5.90 
  -8   3   4   22.20    5.50 
   8   3  -4   20.80    4.60 
   8   3  -4   29.30    6.30 
  -8   3   4   26.90    6.10 
  -7  -3   4  106.49    7.70 
  -7  -3   4  101.59    7.90 
   7  -3  -4   92.19    8.20 
   7  -3  -4   94.59    8.40 
  -7  -3   4   93.19    7.50 
  -7   3   4   98.19    8.00 
  -7   3   4  111.69    6.60 
  -7   3   4   92.39    7.80 
   7   3  -4   92.09    8.40 
   7   3  -4  113.69    7.00 
  -7   3   4  100.59    8.50 
   6  -3  -4  174.18    8.70 
  -6  -3   4  157.78    8.70 
  -6  -3   4  154.28    8.40 
   6  -3  -4  140.59    8.60 
  -6  -3   4  145.99    8.40 
  -6   3   4  151.38    9.20 
  -6   3   4  170.88    8.20 
  -6   3   4  165.78    8.80 
  -6   3   4  145.89    8.60 
   6   3  -4  175.68    8.40 
   6   3  -4  164.48    9.40 
   5  -3  -4  176.58    8.50 
  -5  -3   4  164.58    8.10 
  -5  -3   4  177.88    8.40 
   5  -3  -4  170.28    8.80 
  -5  -3   4  177.98    8.30 
  -5   3   4  181.98    8.40 
  -5   3   4  160.38    8.20 
  -5   3   4  160.28    8.20 
  -5   3   4  166.88    8.70 
   5   3  -4  166.78    7.60 
  -4  -3   4  189.78    8.10 
   4  -3  -4  195.88    8.40 
  -4  -3   4  183.78    8.00 
  -4  -3   4  191.08    8.30 
   4  -3  -4  180.08    8.40 
   4   3  -4  197.78    7.50 
  -4   3   4  184.58    8.00 
  -4   3   4  183.38    8.00 
   4   3  -4  184.58    7.70 
  -4   3   4  186.48    8.10 
  -4   3   4  184.28    8.20 
   3  -3  -4  405.86   12.80 
   3  -3  -4  392.96   12.80 
  -3  -3   4  385.16   12.50 
  -3  -3   4  413.66   12.80 
   3  -3  -4  379.76   12.40 
  -3  -3   4  383.76   12.60 
  -3  -3   4  399.86   12.40 
  -3   3   4  410.96   12.20 
  -3   3   4  400.06   12.50 
  -3   3   4  399.56    9.90 
  -3   3   4  395.86   13.40 
   3   3  -4  393.96   12.60 
   3   3  -4  398.66   12.30 
  -3   3   4  395.36   12.80 
  -3   3   4  414.16   12.40 
   3   3  -4  408.46   12.20 
  -2  -3   4   87.29    5.00 
   2  -3  -4   88.99    5.30 
  -2  -3   4   89.19    5.60 
  -2  -3   4   90.39    5.40 
  -2  -3   4   89.89    5.40 
   2  -3  -4   83.59    4.70 
   2  -3  -4   77.29    4.90 
  -2   3   4   90.19    6.20 
   2   3  -4   91.29    4.80 
   2   3  -4  102.89    5.40 
  -2   3   4   92.79    4.90 
  -2   3   4   99.79    5.30 
   2   3  -4   97.19    5.40 
  -2   3   4   92.79    4.80 
   1  -3  -4   28.80    1.80 
  -1  -3   4   25.60    3.60 
   1  -3  -4   24.60    3.00 
   1  -3  -4   31.90    3.40 
   1  -3  -4   33.40    3.40 
  -1  -3   4   28.10    3.80 
  -1  -3   4   26.90    3.50 
   1  -3  -4   33.00    3.40 
  -1   3   4   34.70    2.90 
  -1   3   4   34.00    3.40 
  -1   3   4   31.80    3.90 
   1   3  -4   27.80    3.10 
   1   3  -4   33.30    3.80 
   1   3  -4   27.30    3.50 
  -1   3   4   27.90    2.80 
   1   3  -4   31.50    3.30 
  -1   3   4   28.00    2.80 
   0  -3   4   96.49    5.40 
   0  -3  -4  108.59    5.30 
   0  -3  -4  101.79    5.10 
   0  -3  -4   99.69    4.20 
   0  -3  -4   99.29    5.20 
   0  -3   4  105.19    5.90 
   0  -3  -4   94.69    4.80 
   0  -3   4   96.29    5.80 
   0   3  -4  100.29    5.70 
   0   3  -4   95.99    5.80 
   0   3   4  109.19    4.60 
   0   3  -4  100.79    5.10 
   0   3   4  104.49    4.90 
   0   3   4   97.79    5.80 
   0   3   4   97.69    4.20 
   0   3  -4   95.79    5.30 
   0   3   4  112.59    4.60 
   0   3  -4  100.49    3.20 
  -1  -3  -4    1.40    2.00 
   1  -3   4    0.40    2.30 
   1  -3   4    4.80    2.90 
  -1  -3  -4    1.30    2.10 
  -1  -3  -4    1.50    2.20 
   1  -3   4    2.00    2.80 
  -1  -3  -4    1.70    2.30 
   1  -3   4   -1.00    1.90 
   1   3   4   -0.40    2.10 
  -1   3  -4    0.50    2.00 
   1   3   4    0.40    1.60 
   1   3   4    0.30    1.70 
  -1   3  -4    0.10    1.90 
   1   3   4   -2.30    1.80 
   1   3   4   -1.60    2.80 
   2  -3   4   15.60    3.70 
  -2  -3  -4   22.40    3.10 
  -2  -3  -4   16.10    2.90 
  -2  -3  -4   18.10    3.10 
   2  -3   4   14.80    3.60 
   2  -3   4   21.60    3.60 
   2  -3   4   25.20    4.00 
   2   3   4   13.80    3.40 
   2   3   4   18.70    2.30 
   2   3   4   16.90    2.60 
   2   3   4   15.20    2.40 
   2   3   4   15.80    3.80 
   2   3   4   11.90    2.60 
  -2   3  -4   18.10    3.60 
  -2   3  -4   20.00    3.80 
   3  -3   4  674.83   19.90 
   3  -3   4  649.64   19.70 
  -3  -3  -4  630.84   18.40 
   3  -3   4  636.94   16.80 
  -3  -3  -4  641.64   18.40 
   3  -3   4  627.24   19.50 
  -3  -3  -4  652.43   18.50 
   3  -3   4  646.74   20.00 
   3   3   4  641.64   19.60 
   3   3   4  646.14   17.20 
   3   3   4  637.54   17.10 
  -3   3  -4  649.14   19.60 
   3   3   4  631.74   18.40 
   3   3   4  652.23   19.00 
   3   3   4  637.64   17.90 
  -4  -3  -4  648.94   19.00 
   4  -3   4  640.24   17.40 
   4  -3   4  651.73   20.40 
  -4  -3  -4  628.24   18.90 
  -4  -3  -4  596.04   18.80 
   4  -3   4  603.74   19.90 
  -4  -3  -4  625.64   18.90 
   4  -3   4  643.34   20.30 
   4   3   4  626.54   18.80 
  -4   3  -4  655.73   20.40 
  -4   3  -4  658.73   20.20 
   4   3   4  635.54   20.10 
   4   3   4  649.64   17.50 
   4   3   4  633.44   18.60 
   4   3   4  636.44   18.30 
  -5  -3  -4   19.20    4.20 
   5  -3   4   29.40    4.80 
  -5  -3  -4   30.70    4.70 
   5  -3   4   25.10    5.60 
   5  -3   4   26.80    5.30 
   5  -3   4   24.90    3.70 
   5   3   4   20.20    3.50 
   5   3   4   24.20    3.70 
  -5   3  -4   28.80    5.40 
   5   3   4   24.40    4.60 
  -5   3  -4   25.10    5.40 
   5   3   4   22.50    5.10 
   6  -3   4   71.49    5.80 
   6  -3   4   68.39    7.40 
  -6  -3  -4   68.59    6.80 
  -6  -3  -4   74.89    7.30 
   6  -3   4   65.39    7.20 
  -6   3  -4   73.49    7.90 
  -6   3  -4   71.29    7.10 
   6   3   4   83.69    8.00 
   7  -3   4   33.00    6.30 
  -7  -3  -4   28.20    6.10 
  -7  -3  -4   40.60    6.40 
   7  -3   4   41.30    7.20 
  -7   3  -4   31.40    6.70 
   7   3   4   31.50    6.10 
  -8  -3  -4   76.19    8.30 
   8  -3   4   61.59    7.80 
  -8  -3  -4   76.99    8.40 
   8  -3   4   65.49    9.00 
  -8   3  -4   83.19    9.10 
   8   3   4   76.89    8.60 
  -9  -4   4   12.20    5.30 
  -9  -4   4   20.10    5.50 
  -9  -4   4    8.00    5.00 
   9  -4  -4   12.30    5.70 
   9   4  -4    8.40    5.90 
  -9   4   4   15.20    5.60 
   9   4  -4    9.50    4.30 
  -9   4   4   19.70    6.30 
  -8  -4   4  101.59    8.60 
  -8  -4   4  109.69    8.40 
   8  -4  -4   98.39    9.10 
  -8  -4   4   97.49    8.30 
   8  -4  -4  112.89    8.50 
  -8   4   4  104.29    8.80 
   8   4  -4  112.99    8.40 
   8   4  -4  111.99    7.30 
  -8   4   4  113.19    9.90 
  -7  -4   4  232.88   11.00 
   7  -4  -4  218.98   11.90 
  -7  -4   4  227.68   10.80 
  -7  -4   4  230.98   10.80 
   7  -4  -4  237.48   11.90 
  -7   4   4  249.68   12.00 
  -7   4   4  235.08   11.10 
   7   4  -4  244.38    9.90 
  -7   4   4  236.28   10.20 
   7   4  -4  201.28   11.50 
   6  -4  -4  292.77   12.30 
  -6  -4   4  256.37   11.00 
  -6  -4   4  268.77   11.10 
  -6  -4   4  267.47   11.30 
   6   4  -4  257.47   11.60 
  -6   4   4  264.37   11.90 
  -6   4   4  250.17   11.10 
   6   4  -4  269.17   10.20 
  -6   4   4  266.87   10.80 
  -6   4   4  276.17   11.10 
   5  -4  -4  145.79    7.40 
   5  -4  -4  141.39    8.20 
  -5  -4   4  142.29    7.40 
  -5  -4   4  141.59    7.60 
  -5  -4   4  144.49    7.50 
  -5   4   4  136.09    7.50 
  -5   4   4  124.79    7.50 
   5   4  -4  124.49    6.70 
  -5   4   4  128.29    6.90 
   5   4  -4  135.19    6.40 
   5   4  -4  137.99    7.90 
  -5   4   4  132.89    8.00 
  -4  -4   4  107.29    6.40 
   4  -4  -4  110.19    6.00 
   4  -4  -4  110.69    6.70 
  -4  -4   4  118.19    6.40 
   4  -4  -4  120.59    6.80 
  -4  -4   4  116.89    6.40 
   4   4  -4  110.59    6.40 
  -4   4   4  120.39    6.90 
  -4   4   4  103.99    4.60 
  -4   4   4  106.69    6.10 
   4   4  -4  108.29    5.60 
  -4   4   4   99.79    6.10 
   4   4  -4  112.79    5.30 
  -4   4   4  116.79    7.00 
  -3  -4   4   44.60    4.30 
  -3  -4   4   37.60    4.10 
   3  -4  -4   41.60    4.20 
   3  -4  -4   42.20    4.20 
   3  -4  -4   38.80    4.30 
  -3  -4   4   48.00    4.50 
  -3   4   4   42.90    2.40 
  -3   4   4   45.70    3.90 
  -3   4   4   40.10    3.90 
  -3   4   4   43.80    4.10 
   3   4  -4   42.10    3.90 
   3   4  -4   46.30    4.40 
   3   4  -4   44.20    3.50 
  -3   4   4   49.20    5.30 
  -3   4   4   44.10    4.40 
   3   4  -4   42.80    3.90 
  -2  -4   4   49.40    4.40 
   2  -4  -4   56.89    4.20 
   2  -4  -4   43.40    4.00 
   2  -4  -4   51.29    4.20 
  -2  -4   4   48.30    4.40 
  -2  -4   4   40.90    4.30 
  -2   4   4   45.10    4.00 
  -2   4   4   57.09    4.10 
  -2   4   4   52.69    3.80 
  -2   4   4   49.10    5.30 
   2   4  -4   48.30    3.90 
  -2   4   4   42.90    3.20 
   2   4  -4   46.80    4.50 
   2   4  -4   46.70    4.10 
   2   4  -4   53.99    3.60 
  -1  -4   4  130.29    6.60 
   1  -4  -4  132.89    4.50 
  -1  -4   4  126.49    6.40 
  -1  -4   4  121.99    6.40 
   1  -4  -4  139.69    5.80 
   1  -4  -4  134.39    5.60 
   1  -4  -4  131.29    5.70 
   1  -4  -4  124.09    5.90 
  -1   4   4  129.49    6.90 
   1   4  -4  124.29    6.80 
  -1   4   4  129.49    4.90 
   1   4  -4  127.99    4.40 
  -1   4   4  136.49    5.40 
  -1   4   4  134.79    4.80 
   1   4  -4  134.69    5.80 
  -1   4   4  135.09    5.80 
   1   4  -4  142.69    6.20 
   0  -4  -4  146.19    5.70 
   0  -4   4  133.19    6.70 
   0  -4  -4  122.09    5.70 
   0  -4   4  132.69    6.90 
   0  -4  -4  130.49    5.70 
   0  -4   4  122.69    6.50 
   0  -4  -4  126.39    5.60 
   0  -4  -4  129.49    5.30 
   0   4  -4  139.49    7.10 
   0   4   4  144.39    7.70 
   0   4   4  136.39    5.40 
   0   4   4  135.09    4.30 
   0   4  -4  142.49    6.50 
   0   4   4  144.19    5.20 
   0   4   4  137.09    4.40 
  -1  -4  -4  159.08    6.20 
   1  -4   4  156.28    7.50 
   1  -4   4  156.78    7.50 
  -1  -4  -4  153.78    6.30 
  -1  -4  -4  170.98    6.60 
   1  -4   4  151.28    7.70 
  -1  -4  -4  148.09    6.10 
  -1  -4  -4  156.48    6.30 
   1  -4   4  164.88    7.60 
   1   4   4  160.68    4.40 
   1   4   4  157.38    6.10 
   1   4   4  157.48    4.40 
  -1   4  -4  163.98    7.40 
  -1   4  -4  156.58    7.90 
   1   4   4  158.08    8.00 
  -2  -4  -4  209.38    7.90 
  -2  -4  -4  213.18    7.90 
   2  -4   4  208.18    9.20 
   2  -4   4  217.78    9.50 
   2  -4   4  203.28    8.70 
  -2  -4  -4  205.08    7.70 
   2  -4   4  234.08    9.40 
   2   4   4  215.58    7.70 
  -2   4  -4  210.88    9.10 
   2   4   4  208.48    9.10 
   2   4   4  215.48    5.60 
   2   4   4  212.68    5.60 
  -3  -4  -4  126.99    6.30 
  -3  -4  -4  118.79    6.10 
   3  -4   4  124.39    4.30 
  -3  -4  -4  123.69    6.40 
   3  -4   4  124.89    7.00 
   3  -4   4  122.69    8.10 
   3  -4   4  122.89    7.70 
   3  -4   4  128.29    7.90 
   3   4   4  120.79    4.00 
  -3   4  -4  107.79    6.70 
   3   4   4  113.89    6.80 
   3   4   4  130.39    8.10 
   3   4   4  134.49    5.50 
   3   4   4  117.59    6.00 
   3   4   4  124.69    4.10 
  -4  -4  -4   61.59    5.40 
   4  -4   4   47.30    3.70 
  -4  -4  -4   51.19    5.20 
  -4  -4  -4   48.40    4.90 
   4  -4   4   43.30    5.80 
   4  -4   4   52.99    6.20 
   4  -4   4   47.80    6.20 
   4   4   4   48.50    5.00 
   4   4   4   46.10    6.10 
   4   4   4   49.90    4.60 
  -4   4  -4   52.09    6.00 
   4   4   4   57.49    5.00 
   4   4   4   53.09    3.10 
  -4   4  -4   39.40    5.70 
   5  -4   4   81.59    5.20 
  -5  -4  -4   89.79    6.50 
  -5  -4  -4   94.39    6.60 
   5  -4   4   89.69    8.00 
   5  -4   4   75.29    7.50 
   5  -4   4   82.49    7.50 
  -5   4  -4   91.39    8.00 
   5   4   4   72.99    7.60 
  -5   4  -4   87.79    7.90 
   5   4   4   78.59    6.00 
   5   4   4   81.39    4.20 
   6  -4   4   20.70    5.40 
  -6  -4  -4   20.40    4.60 
   6  -4   4   12.10    5.50 
  -6  -4  -4   12.80    4.00 
  -6   4  -4    8.90    4.00 
   6   4   4    8.00    5.10 
   7  -4   4   27.00    6.30 
   7  -4   4   23.10    5.60 
  -7  -4  -4   21.40    5.50 
  -7  -4  -4   30.40    5.60 
   7   4   4   23.30    6.30 
  -7   4  -4   22.60    6.30 
  -8  -4  -4   20.10    5.90 
   8   4   4   18.10    6.50 
  -9  -5   4   -0.70    4.10 
   9  -5  -4   -7.80    5.20 
  -9  -5   4   -1.20    4.80 
  -9  -5   4   -1.50    4.40 
   9   5  -4   -2.90    5.20 
  -9   5   4    5.50    5.40 
  -9   5   4   -4.30    4.60 
   8  -5  -4    3.50    5.00 
   8  -5  -4    2.70    5.20 
  -8  -5   4   13.00    4.50 
  -8  -5   4   10.20    4.50 
  -8  -5   4    3.30    4.30 
  -8   5   4    4.90    4.70 
  -8   5   4    5.60    5.10 
   8   5  -4    5.00    5.30 
  -7  -5   4  118.89    8.20 
  -7  -5   4  126.89    8.30 
  -7  -5   4  136.59    8.80 
   7  -5  -4  125.09    9.50 
   7  -5  -4  127.29    9.60 
  -7   5   4  125.69    8.60 
  -7   5   4  133.49    8.00 
  -7   5   4  121.39    9.20 
   7   5  -4  137.79    9.30 
   7   5  -4  136.99    6.90 
   6  -5  -4   38.60    6.00 
  -6  -5   4   30.20    5.00 
  -6  -5   4   33.50    5.00 
  -6  -5   4   47.50    5.40 
   6   5  -4   30.90    3.70 
   6   5  -4   32.90    5.30 
  -6   5   4   35.80    5.00 
  -6   5   4   38.90    5.50 
  -6   5   4   43.20    5.80 
  -5  -5   4  138.69    7.80 
   5  -5  -4  134.89    8.30 
  -5  -5   4  141.59    8.00 
  -5  -5   4  133.29    7.40 
   5  -5  -4  135.79    8.00 
   5   5  -4  157.08    8.20 
   5   5  -4  148.49    6.10 
  -5   5   4  136.79    8.20 
   5   5  -4  146.19    6.70 
  -5   5   4  143.99    7.60 
  -5   5   4  138.29    8.20 
  -5   5   4  141.19    6.40 
  -5   5   4  151.38    7.90 
   4  -5  -4   78.09    5.80 
  -4  -5   4   82.39    6.00 
  -4  -5   4   81.99    5.70 
  -4  -5   4   79.39    5.60 
   4  -5  -4   72.99    5.80 
   4  -5  -4   84.99    6.30 
  -4   5   4   81.89    5.60 
  -4   5   4   85.79    6.10 
   4   5  -4   83.29    5.10 
  -4   5   4   74.09    5.30 
   4   5  -4   82.99    5.70 
  -4   5   4   80.39    4.30 
  -4   5   4   70.29    6.50 
   4   5  -4   84.99    6.80 
  -3  -5   4   49.80    4.50 
  -3  -5   4   45.00    4.50 
   3  -5  -4   52.39    4.70 
  -3  -5   4   45.40    4.40 
   3  -5  -4   41.20    4.30 
   3  -5  -4   39.00    4.30 
  -3   5   4   44.80    3.10 
   3   5  -4   47.00    4.20 
  -3   5   4   53.89    5.40 
  -3   5   4   47.10    4.50 
   3   5  -4   46.90    5.10 
   3   5  -4   46.90    3.90 
  -3   5   4   42.70    3.70 
  -3   5   4   43.90    4.00 
  -3   5   4   33.10    3.20 
   2  -5  -4   58.49    4.50 
  -2  -5   4   48.20    4.50 
   2  -5  -4   40.50    4.00 
  -2  -5   4   52.69    4.70 
  -2  -5   4   46.50    4.50 
   2  -5  -4   44.00    3.90 
  -2   5   4   41.20    3.80 
   2   5  -4   44.30    3.80 
  -2   5   4   50.99    3.80 
   2   5  -4   49.00    3.60 
  -2   5   4   44.40    3.00 
  -2   5   4   44.40    3.30 
  -2   5   4   52.39    5.80 
  -2   5   4   48.40    3.20 
   2   5  -4   49.20    5.10 
   1  -5  -4  159.48    6.40 
  -1  -5   4  159.38    7.30 
  -1  -5   4  164.98    7.40 
   1  -5  -4  156.68    6.50 
   1  -5  -4  148.49    6.30 
   1  -5  -4  148.89    5.60 
  -1  -5   4  158.48    7.20 
   1  -5  -4  160.58    6.30 
  -1   5   4  151.38    4.40 
  -1   5   4  150.58    6.10 
   1   5  -4  158.28    5.00 
   1   5  -4  159.88    8.00 
  -1   5   4  161.18    4.50 
   1   5  -4  155.18    6.70 
  -1   5   4  144.89    7.70 
   0  -5  -4   84.79    4.30 
   0  -5  -4   86.39    4.60 
   0  -5  -4   76.99    4.30 
   0  -5   4   75.99    5.70 
   0  -5   4   79.69    5.50 
   0  -5  -4   80.09    4.40 
   0  -5   4   85.29    5.50 
   0  -5  -4   84.79    4.40 
   0  -5   4   81.59    5.00 
   0   5   4   83.39    3.60 
   0   5  -4   80.49    4.80 
   0   5   4   78.39    4.00 
   0   5   4   71.19    6.40 
   0   5  -4   80.29    5.50 
   0   5  -4   85.29    5.70 
   1  -5   4   83.59    6.00 
  -1  -5  -4   82.59    5.10 
   1  -5   4   77.39    5.90 
  -1  -5  -4   91.59    4.70 
  -1  -5  -4   90.69    4.50 
  -1  -5  -4   91.39    4.80 
   1  -5   4   92.69    6.20 
   1  -5   4   80.89    5.50 
  -1  -5  -4   91.89    4.50 
   1   5   4   88.39    4.20 
  -1   5  -4   90.89    6.80 
   1   5   4   89.99    6.70 
  -1   5  -4   99.79    6.00 
   2  -5   4  190.38    9.00 
   2  -5   4  172.48    8.90 
   2  -5   4  201.78    9.20 
   2  -5   4  191.18    9.40 
  -2  -5  -4  203.78    7.40 
  -2  -5  -4  200.88    7.50 
  -2  -5  -4  198.88    7.20 
  -2   5  -4  194.68    8.80 
   2   5   4  193.88    9.10 
  -2   5  -4  192.68    9.90 
   2   5   4  197.28    6.90 
   3  -5   4  464.15   16.50 
   3  -5   4  484.25   16.60 
   3  -5   4  455.65   16.30 
  -3  -5  -4  458.65   14.20 
   3  -5   4  491.05   16.70 
  -3  -5  -4  512.25   14.60 
  -3  -5  -4  503.95   14.70 
  -3   5  -4  508.05   16.40 
   3   5   4  518.75   16.90 
   3   5   4  480.45   16.00 
   3   5   4  471.05   13.90 
  -4  -5  -4  122.29    6.90 
   4  -5   4  124.99    8.90 
   4  -5   4  116.99    8.40 
   4  -5   4  132.39    8.70 
  -4  -5  -4  121.69    6.70 
  -4   5  -4  115.29    8.10 
   4   5   4  124.69    7.20 
   4   5   4  119.99    8.70 
  -5  -5  -4  131.59    7.20 
   5  -5   4  122.29    9.40 
   5  -5   4  113.19    8.90 
  -5  -5  -4  109.99    7.30 
   5  -5   4  105.99    7.70 
   5   5   4  111.29    9.20 
  -5   5  -4  106.79    8.50 
   5   5   4  112.89    7.20 
  -6  -5  -4   32.40    4.90 
   6  -5   4   36.70    5.80 
   6  -5   4   33.80    6.80 
  -6  -5  -4   40.20    5.60 
   6   5   4   31.30    6.20 
  -6   5  -4   35.00    6.40 
   7  -5   4    4.40    5.30 
   7  -5   4   -4.90    5.10 
  -7  -5  -4   12.20    5.00 
  -7  -5  -4    2.40    4.30 
  -7   5  -4    1.60    5.10 
   7   5   4   -4.50    4.90 
   9  -6  -4   27.00    6.10 
  -9  -6   4   34.10    6.10 
  -9  -6   4   32.50    5.90 
  -9  -6   4   27.50    6.30 
   9   6  -4   49.30    7.90 
  -9   6   4   44.90    7.00 
  -9   6   4   18.10    6.30 
  -8  -6   4   26.40    5.60 
   8  -6  -4   25.40    6.70 
  -8  -6   4   20.00    5.10 
  -8  -6   4   32.50    5.90 
   8  -6  -4   16.20    6.00 
  -8   6   4   14.10    5.70 
  -8   6   4   19.80    5.20 
   8   6  -4   28.30    6.30 
  -7  -6   4  114.89    7.70 
  -7  -6   4  103.89    8.30 
  -7  -6   4  103.49    8.10 
   7  -6  -4   98.89    9.00 
   7  -6  -4  103.19    9.20 
   7   6  -4  115.89    8.90 
  -7   6   4  113.89    8.50 
  -7   6   4  110.59    9.30 
  -7   6   4  102.89    8.30 
   6  -6  -4   46.90    6.40 
   6  -6  -4   44.60    6.20 
  -6  -6   4   47.50    5.50 
  -6  -6   4   43.50    5.10 
  -6  -6   4   46.40    5.60 
   6   6  -4   53.39    6.20 
   6   6  -4   51.69    3.80 
  -6   6   4   37.20    5.40 
  -6   6   4   48.80    6.20 
  -6   6   4   46.50    5.00 
  -6   6   4   33.50    5.80 
  -5  -6   4    8.10    3.80 
   5  -6  -4    4.30    3.90 
  -5  -6   4    4.30    3.60 
  -5  -6   4    0.80    2.90 
  -5   6   4    4.50    4.00 
   5   6  -4    1.00    2.00 
   5   6  -4    6.20    3.70 
  -5   6   4    7.70    3.60 
  -5   6   4    3.50    3.60 
  -5   6   4    4.60    2.80 
   4  -6  -4  186.18    8.90 
  -4  -6   4  170.78    8.20 
  -4  -6   4  161.68    8.10 
  -4  -6   4  179.18    8.10 
   4  -6  -4  180.38    8.40 
   4  -6  -4  181.88    8.70 
   4   6  -4  175.98    6.30 
  -4   6   4  167.78    8.30 
   4   6  -4  154.48    9.30 
  -4   6   4  168.78    6.70 
  -4   6   4  171.08    7.20 
   4   6  -4  172.78    6.10 
  -4   6   4  191.28    7.80 
  -4   6   4  172.38    7.70 
  -4   6   4  165.38    9.40 
   4   6  -4  166.78    7.90 
   3  -6  -4    2.20    2.90 
   3  -6  -4   -2.80    2.80 
  -3  -6   4   -0.60    2.80 
  -3  -6   4   -1.80    2.50 
  -3  -6   4    1.20    3.00 
   3  -6  -4    5.20    3.10 
  -3   6   4   -1.70    2.60 
  -3   6   4   -5.20    2.30 
  -3   6   4    1.20    2.00 
  -3   6   4    0.70    1.80 
   3   6  -4    4.10    3.90 
  -3   6   4    5.50    2.20 
   3   6  -4    0.10    2.10 
  -3   6   4    4.60    2.40 
   3   6  -4    3.70    2.70 
  -2  -6   4  213.98    8.60 
  -2  -6   4  213.38    8.80 
   2  -6  -4  211.18    8.10 
   2  -6  -4  209.98    8.30 
  -2  -6   4  205.48    8.70 
   2  -6  -4  210.08    8.20 
  -2   6   4  215.88    8.00 
  -2   6   4  213.48    6.00 
   2   6  -4  206.18    9.30 
   2   6  -4  213.88    7.20 
  -2   6   4  219.58   10.60 
   2   6  -4  211.38    7.50 
  -2   6   4  213.48    7.30 
  -2   6   4  207.58    6.00 
   2   6  -4  207.78    7.40 
  -1  -6   4  156.68    7.30 
  -1  -6   4  162.88    7.50 
   1  -6  -4  154.68    6.20 
   1  -6  -4  156.48    6.30 
   1  -6  -4  145.79    6.00 
  -1  -6   4  162.48    7.40 
   1  -6  -4  149.69    6.30 
  -1   6   4  146.39    6.00 
  -1   6   4  142.59    8.80 
   1   6  -4  146.49    5.00 
   1   6  -4  153.58    6.40 
  -1   6   4  151.98    5.70 
   1   6  -4  151.48    7.80 
   0  -6   4  142.99    7.30 
   0  -6   4  129.79    6.90 
   0  -6  -4  135.49    5.70 
   0  -6  -4  129.49    5.30 
   0  -6   4  125.59    7.00 
   0  -6   4  126.49    6.90 
   0  -6  -4  133.99    6.00 
   0  -6  -4  125.09    5.50 
   0  -6  -4  128.79    5.60 
   0   6   4  138.89    8.40 
   0   6   4  132.79    5.10 
   0   6  -4  118.39    7.80 
   0   6  -4  128.49    6.10 
   0   6  -4  138.59    6.50 
   1  -6   4    7.50    3.40 
  -1  -6  -4    6.40    2.00 
   1  -6   4   12.90    3.30 
   1  -6   4   10.20    3.50 
  -1  -6  -4    6.30    2.20 
   1  -6   4    9.30    3.70 
  -1  -6  -4    7.30    2.20 
  -1  -6  -4    9.30    2.10 
  -1   6  -4   16.40    3.80 
  -1   6  -4    5.20    2.90 
   1   6   4   11.90    4.10 
   1   6   4    7.00    1.70 
  -2  -6  -4  133.59    5.80 
   2  -6   4  129.99    7.40 
   2  -6   4  130.89    7.70 
  -2  -6  -4  124.89    5.70 
   2  -6   4  116.29    7.60 
  -2  -6  -4  130.79    5.40 
   2  -6   4  126.39    7.90 
   2   6   4  123.69    4.80 
  -2   6  -4  126.19    7.30 
  -2   6  -4  135.29    8.70 
   2   6   4  128.39    8.10 
   3  -6   4   83.69    6.50 
  -3  -6  -4   92.49    5.50 
   3  -6   4  105.29    7.90 
  -3  -6  -4   94.29    5.40 
   3  -6   4   84.49    7.20 
  -3   6  -4  100.69    8.60 
   3   6   4  106.69    7.20 
   3   6   4  105.59    8.50 
  -3   6  -4  101.79    7.20 
   4  -6   4   58.89    6.30 
  -4  -6  -4   49.10    4.60 
  -4  -6  -4   55.19    4.90 
   4  -6   4   45.20    6.50 
   4  -6   4   43.50    5.50 
   4   6   4   53.39    6.00 
  -4   6  -4   43.00    5.80 
   4   6   4   60.19    7.30 
   5  -6   4   61.89    6.80 
   5  -6   4   65.19    7.90 
   5  -6   4   57.49    7.20 
  -5  -6  -4   50.69    5.40 
   5   6   4   54.89    6.70 
   5   6   4   52.79    5.60 
  -5   6  -4   51.59    6.70 
   6  -6   4    6.90    5.20 
   6  -6   4    5.10    5.60 
   6  -6   4    2.50    5.10 
  -6  -6  -4    4.30    3.50 
  -6   6  -4    4.10    4.80 
   6   6   4    9.70    5.60 
   7  -6   4   69.59    8.90 
   7  -6   4   53.79    7.90 
  -7  -6  -4   55.89    6.60 
   7   6   4   65.79    8.60 
  -7   6  -4   50.79    7.50 
   8  -7  -4    6.50    5.50 
  -8  -7   4    4.00    4.20 
   8  -7  -4    4.40    5.10 
  -8  -7   4    9.70    4.60 
  -8  -7   4    4.00    4.80 
  -8   7   4    5.50    9.10 
  -8   7   4    9.10    5.10 
   8   7  -4   13.80    5.30 
  -7  -7   4   50.39    6.30 
   7  -7  -4   40.80    6.80 
   7  -7  -4   54.19    7.10 
  -7  -7   4   46.20    5.60 
  -7  -7   4   44.90    5.70 
  -7   7   4   52.09    6.90 
   7   7  -4   52.29    7.10 
  -7   7   4   50.59    6.00 
  -7   7   4   60.79    7.30 
   6  -7  -4   16.50    5.00 
  -6  -7   4   23.60    4.50 
  -6  -7   4   19.40    4.30 
  -6  -7   4   24.00    4.70 
   6  -7  -4   25.60    5.30 
  -6   7   4   19.60    4.10 
  -6   7   4   28.50    5.40 
   6   7  -4   24.70    5.20 
  -6   7   4   26.30    5.40 
  -6   7   4   24.30    4.70 
   5  -7  -4   36.90    5.40 
  -5  -7   4   36.70    4.50 
  -5  -7   4   35.00    4.80 
  -5  -7   4   37.70    4.80 
  -5   7   4   42.30    6.20 
   5   7  -4   35.80    5.10 
  -5   7   4   43.60    5.60 
  -5   7   4   36.10    4.30 
  -5   7   4   37.40    4.50 
  -4  -7   4  143.59    7.20 
  -4  -7   4  152.48    7.90 
  -4  -7   4  140.39    7.20 
   4  -7  -4  151.78    8.20 
   4   7  -4  140.99    8.50 
   4   7  -4  138.79    7.40 
  -4   7   4  147.99    6.60 
  -4   7   4  146.19    6.80 
  -4   7   4  145.29    7.60 
  -4   7   4  141.09    9.40 
   3  -7  -4  316.37   11.50 
   3  -7  -4  374.26   12.20 
  -3  -7   4  342.17   11.70 
  -3  -7   4  336.67   11.60 
  -3  -7   4  367.56   12.10 
   3   7  -4  334.47    9.20 
  -3   7   4  335.37   10.80 
  -3   7   4  327.57    9.40 
   3   7  -4  314.47   13.00 
  -3   7   4  324.57   14.10 
   3   7  -4  342.57   11.40 
   3   7  -4  329.47    8.80 
  -3   7   4  330.77   10.90 
  -3   7   4  338.17   11.60 
  -2  -7   4  159.68    7.80 
  -2  -7   4  162.08    7.40 
   2  -7  -4  162.08    6.90 
   2  -7  -4  168.58    7.50 
  -2  -7   4  159.18    7.80 
   2  -7  -4  157.98    6.90 
   2   7  -4  153.08    6.40 
   2   7  -4  140.09    8.90 
   2   7  -4  151.58    5.50 
  -2   7   4  151.08    9.60 
   2   7  -4  150.18    5.40 
  -2   7   4  151.88    6.60 
  -2   7   4  157.68    6.60 
   1  -7  -4  209.28    7.70 
   1  -7  -4  198.98    7.90 
  -1  -7   4  199.88    8.60 
  -1  -7   4  221.08    9.20 
   1  -7  -4  206.78    7.70 
   1  -7  -4  196.48    7.40 
  -1  -7   4  208.18    8.70 
  -1   7   4  195.58    6.90 
   1   7  -4  211.68    7.50 
  -1   7   4  192.18   10.60 
   1   7  -4  210.18    7.10 
   1   7  -4  185.18   10.10 
   0  -7   4  140.29    7.50 
   0  -7  -4  153.38    5.80 
   0  -7  -4  154.98    6.10 
   0  -7  -4  161.38    6.10 
   0  -7   4  150.98    7.60 
   0  -7   4  139.39    7.70 
   0  -7  -4  152.78    6.10 
   0  -7   4  162.68    7.80 
   0   7  -4  156.88    6.40 
   0   7  -4  148.79    8.40 
   0   7  -4  150.38    6.70 
   0   7   4  145.59    5.00 
   0   7   4  154.38    9.40 
   1  -7   4  156.08    8.60 
  -1  -7  -4  169.98    5.90 
  -1  -7  -4  175.58    6.30 
  -1  -7  -4  179.78    6.40 
   1  -7   4  176.98    8.70 
   1  -7   4  166.98    8.40 
   1  -7   4  183.58    8.80 
  -1  -7  -4  166.38    6.40 
  -1   7  -4  171.88    9.80 
   1   7   4  158.38    5.00 
   1   7   4  165.18    9.70 
  -1   7  -4  169.58    7.50 
  -2  -7  -4  199.18    7.20 
   2  -7   4  190.98    9.70 
   2  -7   4  218.88   10.10 
  -2  -7  -4  199.08    7.30 
   2  -7   4  198.08    9.50 
  -2   7  -4  203.68   11.00 
   2   7   4  206.28   10.50 
  -2   7  -4  192.98    9.20 
   3  -7   4  119.19    8.60 
   3  -7   4  130.69    8.60 
   3  -7   4  116.99    8.30 
  -3  -7  -4  135.29    5.90 
  -3   7  -4  119.59    8.30 
  -3   7  -4  116.29    8.00 
   3   7   4  117.09    8.20 
   4  -7   4    8.70    4.50 
   4  -7   4    4.20    4.80 
  -4  -7  -4    3.60    2.60 
   4  -7   4    3.00    4.30 
   4   7   4    8.00    3.80 
  -4   7  -4    9.80    4.70 
  -4   7  -4    7.30    4.40 
   4   7   4    5.50    5.20 
   5  -7   4   23.80    6.00 
   5  -7   4   41.50    6.60 
   5  -7   4   20.20    5.90 
   5   7   4   30.00    6.70 
  -5   7  -4   21.20    5.80 
   5   7   4   24.10    4.80 
  -5   7  -4   33.00    5.80 
   6  -7   4   69.59    8.30 
   6  -7   4   59.99    8.40 
   6  -7   4   60.69    8.00 
   6   7   4   59.79    8.70 
  -6   7  -4   70.99    7.90 
  -8  -8   4   44.90    6.00 
  -8  -8   4   49.30    6.20 
   8  -8  -4   36.70    7.40 
   8  -8  -4   54.59    8.10 
  -8   8   4   47.30    6.20 
   8   8  -4   46.30    7.50 
   7  -8  -4   32.70    6.60 
  -7  -8   4   38.20    5.30 
   7  -8  -4   39.70    6.60 
  -7  -8   4   28.50    5.10 
   7   8  -4   31.40    6.10 
  -7   8   4   32.70    5.40 
  -6  -8   4   16.90    4.00 
   6  -8  -4    9.20    4.60 
  -6  -8   4    9.10    4.00 
   6  -8  -4   -1.10    4.10 
  -6  -8   4   13.20    4.00 
  -6   8   4   12.70    4.90 
   6   8  -4   10.00    4.80 
  -6   8   4    9.10    3.60 
  -5  -8   4    5.10    3.40 
  -5  -8   4    1.70    3.30 
  -5  -8   4    1.60    3.00 
   5  -8  -4    0.50    3.80 
   5  -8  -4    2.90    3.80 
  -5   8   4    3.70    4.60 
   5   8  -4    0.80    3.40 
  -5   8   4    4.80    3.00 
  -5   8   4    5.10    3.00 
   4  -8  -4   23.60    4.90 
  -4  -8   4   27.00    4.40 
  -4  -8   4   22.20    3.70 
  -4  -8   4   27.00    4.00 
  -4   8   4   21.00    3.60 
  -4   8   4   18.00    5.60 
   4   8  -4   36.40    4.70 
   4   8  -4   24.30    5.70 
  -4   8   4   22.10    3.10 
  -3  -8   4   42.20    4.60 
   3  -8  -4   30.80    4.60 
  -3  -8   4   42.40    4.70 
  -3  -8   4   48.80    4.90 
  -3   8   4   32.60    4.00 
   3   8  -4   34.20    4.20 
   3   8  -4   34.70    6.20 
  -3   8   4   36.50    6.50 
   2  -8  -4   30.60    4.10 
  -2  -8   4   24.60    4.10 
  -2  -8   4   29.30    4.10 
   2  -8  -4   21.80    3.50 
  -2  -8   4   39.50    4.70 
  -2   8   4   25.90    5.80 
   2   8  -4   32.30    3.40 
   2   8  -4   33.60    6.00 
  -2   8   4   31.50    3.90 
   1  -8  -4  261.67    8.80 
  -1  -8   4  246.08    9.80 
  -1  -8   4  241.28   10.10 
   1  -8  -4  253.57    8.80 
  -1  -8   4  229.18   10.00 
  -1  -8   4  239.88   10.10 
  -1   8   4  246.08   11.70 
   1   8  -4  240.98   11.90 
   1   8  -4  238.68    7.40 
   0  -8   4  235.98    9.90 
   0  -8  -4  224.18    7.90 
   0  -8   4  215.98    9.60 
   0  -8   4  241.48    9.90 
   0  -8  -4  239.28    7.80 
   0   8  -4  221.28    8.10 
   0   8  -4  220.28   11.40 
   0   8   4  213.38   11.60 
   1  -8   4   46.90    5.60 
  -1  -8  -4   49.50    3.40 
   1  -8   4   42.90    5.40 
   1  -8   4   47.90    5.40 
  -1   8  -4   38.60    6.10 
  -1   8  -4   45.90    4.40 
   1   8   4   39.60    6.20 
  -2  -8  -4   15.80    2.40 
   2  -8   4   14.20    4.60 
   2  -8   4   10.80    4.20 
   2  -8   4   18.80    4.70 
  -2   8  -4   12.90    5.20 
  -2   8  -4   13.40    3.80 
   2   8   4   18.10    5.10 
  -3  -8  -4   29.20    3.10 
   3  -8   4   22.70    5.40 
   3  -8   4   32.80    5.50 
   3  -8   4   24.50    4.90 
  -3   8  -4   26.10    5.50 
   3   8   4   28.80    5.50 
  -3   8  -4   25.20    4.50 
  -4  -8  -4   44.10    4.60 
   4  -8   4   35.20    6.10 
   4  -8   4   31.20    6.00 
   4  -8   4   29.60    5.90 
  -4   8  -4   35.60    5.40 
   4   8   4   34.90    5.90 
  -4   8  -4   31.70    7.00 
   5  -8   4   14.10    5.40 
   5  -8   4   11.50    5.40 
   5  -8   4   -3.10    4.90 
   5   8   4   14.60    6.10 
  -5   8  -4    7.10    4.30 
  -5   8  -4    3.60    5.90 
   6  -8   4   17.60    6.70 
   6  -8   4   21.40    6.20 
   6  -8   4   18.00    6.10 
  -6   8  -4   -4.90    6.40 
  -6   8  -4   25.60    6.30 
   6   8   4   29.10    7.30 
  -7  -9   4   16.50    4.30 
   7  -9  -4   13.90    5.60 
  -7  -9   4   11.70    4.00 
   7  -9  -4   15.80    5.70 
   7   9  -4   17.30    5.70 
  -6  -9   4    5.10    3.40 
  -6  -9   4    4.10    3.50 
   6  -9  -4    1.00    4.60 
   6  -9  -4    2.10    4.40 
  -6   9   4    6.30    5.30 
   6   9  -4    0.60    4.40 
  -5  -9   4   29.80    4.60 
   5  -9  -4   34.40    5.50 
   5  -9  -4   37.40    6.00 
  -5  -9   4   27.10    4.50 
   5   9  -4   45.20    5.90 
  -5   9   4   35.00    6.30 
   4  -9  -4  145.39    8.50 
  -4  -9   4  148.69    7.70 
   4  -9  -4  154.78    9.00 
  -4  -9   4  147.99    7.40 
  -4  -9   4  166.68   10.20 
   4   9  -4  143.39    8.20 
  -4   9   4  135.69    7.60 
   4   9  -4  137.89    9.40 
  -4   9   4  139.69   10.50 
  -3  -9   4  216.78    9.30 
   3  -9  -4  217.58    9.80 
  -3  -9   4  232.38    9.20 
  -3  -9   4  231.78    9.80 
   3   9  -4  217.48    9.30 
   3   9  -4  205.68   11.20 
  -3   9   4  224.68   12.60 
  -3   9   4  222.98    9.40 
  -2  -9   4   37.80    4.80 
  -2  -9   4   36.70    4.60 
   2  -9  -4   35.50    4.00 
  -2  -9   4   28.50    4.20 
   2  -9  -4   33.90    4.30 
  -2   9   4   32.00    6.40 
  -2   9   4   37.80    4.70 
   2   9  -4   29.20    5.30 
  -1  -9   4   60.09    5.60 
  -1  -9   4   62.89    5.60 
  -1  -9   4   65.19    5.90 
   1  -9  -4   64.49    4.60 
  -1   9   4   60.09    7.10 
   1   9  -4   63.59    7.00 
   0  -9   4   85.49    7.00 
   0  -9   4   60.49    5.70 
   0  -9  -4   72.29    4.20 
   0  -9   4   75.19    6.50 
   0   9  -4   74.99    8.10 
   0   9   4   84.09    8.00 
   1  -9   4    4.70    3.70 
  -1  -9  -4    6.40    1.80 
   1  -9   4    7.30    3.60 
   1  -9   4   -0.10    4.00 
  -1   9  -4    5.20    2.80 
  -1   9  -4   10.50    4.20 
   1   9   4   15.90    5.20 
   2  -9   4   32.00    5.50 
   2  -9   4   41.10    5.60 
   2  -9   4   33.10    5.40 
  -2  -9  -4   32.00    2.60 
   2   9   4   29.30    6.10 
  -2   9  -4   33.20    6.50 
  -2   9  -4   26.20    4.10 
   3  -9   4   55.49    6.90 
   3  -9   4   49.80    6.80 
  -3  -9  -4   47.70    3.50 
   3  -9   4   55.69    7.00 
   3   9   4   47.40    7.10 
  -3   9  -4   47.80    5.30 
  -3   9  -4   53.29    7.10 
  -4  -9  -4   23.80    4.20 
   4  -9   4   12.80    5.30 
   4  -9   4   15.80    5.70 
   4  -9   4    9.50    5.00 
  -4   9  -4   17.70    4.70 
  -4   9  -4   14.40    6.40 
   4   9   4   15.00    5.40 
   5  -9   4   27.40    6.50 
   5  -9   4   23.00    6.40 
   5  -9   4   31.80    6.50 
  -5   9  -4   23.60    5.60 
  -5   9  -4   20.00    7.10 
   6 -10  -4   31.80    6.20 
   6 -10  -4   23.90    5.90 
  -6 -10   4   33.80    4.50 
  -6 -10   4   25.00    4.40 
   6  10  -4   32.80    6.30 
  -5 -10   4   24.80    4.00 
   5 -10  -4   20.70    5.10 
   5 -10  -4   20.90    4.90 
  -5 -10   4   16.30    4.00 
   5  10  -4   20.00    5.00 
  -5  10   4   15.60    6.20 
   4 -10  -4   24.40    4.90 
   4 -10  -4   30.00    6.20 
  -4 -10   4   25.20    3.90 
  -4 -10   4   23.10    4.00 
  -4  10   4   29.70    6.80 
   4  10  -4   31.90    7.10 
  -3 -10   4   52.79    4.90 
  -3 -10   4   52.79    5.20 
   3 -10  -4   41.60    5.10 
  -3  10   4   45.00    7.60 
   3  10  -4   62.09    8.00 
  -3  10   4   58.19    9.30 
  -2 -10   4   10.80    3.50 
   2 -10  -4    9.60    3.30 
  -2 -10   4   12.30    3.60 
  -2  10   4    7.10    5.50 
   2  10  -4    9.20    4.50 
  -2  10   4   11.60    3.90 
  -1 -10   4  149.09    8.00 
   1 -10  -4  149.49    6.50 
  -1 -10   4  149.88    8.40 
  -1 -10   4  165.18    8.40 
   1  10  -4  158.48   11.00 
  -1  10   4  137.09   10.00 
   0 -10   4  123.29    8.00 
   0 -10  -4  141.09    5.40 
   0 -10   4  112.69    7.40 
   0 -10   4  125.49    7.80 
   0  10  -4  135.39   10.40 
   0  10   4  139.09    9.80 
   1 -10   4   65.79    6.50 
  -1 -10  -4   62.79    3.10 
   1 -10   4   68.59    6.60 
   1 -10   4   77.39    7.20 
   1  10   4   78.99    8.90 
  -1  10  -4   71.99    8.50 
   2 -10   4   51.19    6.30 
   2 -10   4   58.89    7.00 
   2 -10   4   54.59    6.70 
  -2 -10  -4   42.30    2.00 
   2  10   4   56.69    7.50 
  -2  10  -4   46.50    7.70 
   3 -10   4   26.90    5.60 
   3 -10   4   27.00    5.90 
   3 -10   4   32.50    6.10 
   3  10   4   33.90    6.30 
  -3  10  -4   25.70    6.90 
   4 -10   4   19.20    5.70 
   4 -10   4   18.70    6.40 
   4 -10   4    8.80    5.30 
  -4  10  -4   12.70    6.30 
   5 -11  -4  131.09    9.40 
   5 -11  -4  138.79    9.30 
  -5 -11   4  138.09   10.60 
  -4 -11   4   83.09    6.40 
   4 -11  -4   69.99    6.90 
   4 -11  -4   78.09    6.90 
  -4  11   4   77.79    9.00 
   4  11  -4   68.69    8.30 
  -3 -11   4   13.50    3.40 
   3 -11  -4    8.00    3.70 
  -3 -11   4    5.90    3.40 
   3 -11  -4    7.00    3.50 
  -3  11   4   21.50    6.40 
   3  11  -4   12.90    6.30 
   2 -11  -4   18.50    3.70 
  -2 -11   4   20.50    3.90 
  -2 -11   4   18.90    4.00 
  -2  11   4   32.80    6.40 
   2  11  -4   11.40    6.20 
   1 -11  -4    4.00    2.50 
  -1 -11   4    6.20    3.50 
  -1 -11   4    2.90    3.40 
  -1  11   4    5.50    5.70 
   1  11  -4   11.70    5.70 
   0 -11   4    4.90    3.70 
   0 -11   4   11.90    4.00 
   0 -11  -4   11.10    2.00 
   0 -11  -4    9.20    2.10 
   0  11   4    4.10    5.60 
   0  11  -4   15.80    6.20 
   1 -11   4    7.60    4.00 
   1 -11   4    8.50    4.60 
   1 -11   4   10.70    4.20 
  -1  11  -4    6.10    5.50 
   1  11   4    7.80    5.50 
   2 -11   4   38.20    6.40 
   2 -11   4   46.60    6.60 
   2 -11   4   44.70    6.30 
   2  11   4   54.49    8.10 
  -2  11  -4   40.70    7.80 
   3 -11   4   28.50    6.10 
   3 -11   4   24.40    5.70 
   3 -11   4   28.80    5.80 
  -3  11  -4   19.70    7.00 
  -2 -12   4   10.40    3.80 
   2 -12  -4   17.70    3.50 
   2  12  -4   21.80    7.10 
  -1 -12   4   42.90    5.20 
   1 -12  -4   46.30    3.90 
  -1 -12   4   47.10    5.30 
   1  12  -4   46.20    8.10 
   0 -12   4   26.50    4.80 
   0 -12   4   26.40    5.00 
   0 -12  -4   21.70    1.80 
   0 -12  -4   23.90    1.90 
   0  12  -4   30.10    7.20 
   1 -12   4   32.00    5.50 
   1 -12   4   17.80    5.60 
  -1  12  -4   20.10    7.60 
 -10   0   5   -0.50    5.50 
  10   0  -5    9.40    5.60 
 -10   0   5   -1.80    4.90 
  -9   0   5    9.10    5.50 
  -9   0   5   -1.50    5.00 
  -9   0   5    9.90    5.30 
   9   0  -5   10.10    5.20 
   8   0  -5   17.40    5.30 
  -8   0   5   19.30    5.20 
  -8   0   5   19.00    5.70 
  -8   0   5   21.50    5.50 
  -7   0   5  127.39    9.20 
  -7   0   5  127.39    8.80 
  -7   0   5  139.69    9.00 
  -7   0   5  132.19    6.90 
   7   0  -5  136.69    8.90 
  -6   0   5  816.22   24.10 
   6   0  -5  827.32   24.20 
  -6   0   5  811.32   24.60 
  -6   0   5  820.02   24.20 
  -6   0   5  779.02   22.80 
  -5   0   5   93.69    4.80 
  -5   0   5   96.09    6.20 
  -5   0   5   88.59    6.80 
  -5   0   5   89.79    7.10 
   5   0  -5  100.49    6.30 
  -4   0   5  131.99    6.70 
  -4   0   5  123.99    6.80 
   4   0  -5  112.49    6.80 
   4   0  -5  141.39    7.50 
  -4   0   5  132.39    4.90 
  -4   0   5  122.89    7.10 
  -3   0   5  304.17   11.00 
  -3   0   5  316.77   11.10 
   3   0  -5  334.57   11.40 
  -3   0   5  308.37   11.00 
  -3   0   5  304.07    8.70 
   3   0  -5  311.77   11.10 
   2   0  -5    4.70    1.50 
   2   0  -5    9.80    3.00 
  -2   0   5    9.40    3.30 
  -2   0   5    7.20    2.90 
  -2   0   5    9.00    3.20 
   2   0  -5    7.70    3.20 
  -1   0   5   76.49    4.90 
   1   0  -5   75.99    4.90 
  -1   0   5   80.39    5.30 
   1   0  -5   76.59    5.40 
   1   0  -5   69.79    5.20 
   1   0  -5   75.39    3.70 
  -1   0   5   76.49    5.30 
   0   0  -5  294.97   10.30 
   0   0  -5  278.27   10.10 
   0   0   5  305.27   10.70 
   0   0  -5  307.87   10.20 
   0   0   5  277.07   10.20 
   0   0   5  303.27   10.40 
   0   0  -5  293.67    9.40 
  -1   0  -5   33.30    4.80 
   1   0   5   34.40    4.10 
  -1   0  -5   34.80    4.30 
  -1   0  -5   31.30    3.20 
   1   0   5   25.00    3.30 
  -1   0  -5   36.20    3.80 
   1   0   5   33.50    4.40 
   2   0   5    1.30    3.10 
  -2   0  -5   -2.10    3.00 
   2   0   5    2.40    2.80 
  -2   0  -5    1.60    2.30 
   2   0   5    5.00    3.00 
  -2   0  -5    3.80    3.10 
  -3   0  -5   39.40    4.80 
   3   0   5   27.40    4.40 
   3   0   5   35.60    5.00 
   3   0   5   30.60    4.30 
   3   0   5   34.80    4.20 
  -3   0  -5   30.40    4.20 
   4   0   5   40.80    5.00 
  -4   0  -5   41.60    5.10 
   4   0   5   46.40    5.30 
   4   0   5   52.19    6.00 
   4   0   5   45.20    5.30 
   5   0   5   37.50    5.00 
  -5   0  -5   41.10    6.10 
   5   0   5   46.10    6.20 
   5   0   5   45.20    5.80 
  -5   0  -5   38.30    5.80 
   6   0   5   17.00    5.40 
   6   0   5   19.50    4.70 
  -6   0  -5   13.00    5.30 
  -6   0  -5   11.40    4.90 
   6   0   5   21.90    5.00 
   7   0   5  185.28   10.30 
  -7   0  -5  194.68   11.90 
   7   0   5  172.38   10.20 
  -7   0  -5  192.38   11.80 
   7   0   5  181.18   11.50 
 -10  -1   5    0.80    5.30 
  10  -1  -5    2.50    5.30 
 -10  -1   5    9.60    4.70 
 -10  -1   5   12.00    5.90 
 -10   1   5    3.70    5.60 
  10   1  -5   -3.80    4.40 
  10   1  -5   12.00    5.20 
 -10   1   5   -1.40    5.00 
  -9  -1   5   -2.10    4.70 
  -9  -1   5   17.80    5.60 
   9  -1  -5    1.60    5.00 
  -9  -1   5   15.30    5.80 
  -9   1   5   16.20    5.90 
   9   1  -5    5.40    5.00 
  -9   1   5   16.20    6.10 
  -8  -1   5    1.60    4.50 
   8  -1  -5   -0.20    4.50 
  -8  -1   5    9.40    4.50 
  -8  -1   5   -2.60    4.40 
  -8   1   5   -2.10    4.40 
  -8   1   5   -1.40    3.30 
  -8   1   5   -5.90    4.00 
   8   1  -5    4.10    4.30 
  -7  -1   5    0.60    3.90 
  -7  -1   5    6.30    4.50 
   7  -1  -5    3.30    4.40 
  -7  -1   5   -3.10    2.90 
  -7  -1   5    7.50    4.10 
  -7   1   5    7.00    4.40 
   7   1  -5   -0.40    3.90 
  -7   1   5   -0.50    3.20 
  -7   1   5   -2.10    2.70 
  -7   1   5    2.90    4.40 
  -6  -1   5   11.60    4.70 
  -6  -1   5   13.50    3.60 
  -6  -1   5    6.80    4.00 
   6  -1  -5   18.70    4.10 
  -6   1   5   15.90    4.50 
  -6   1   5   15.30    2.90 
  -6   1   5   14.70    4.50 
  -6   1   5   19.40    3.70 
  -6   1   5   10.00    4.50 
   6   1  -5   14.20    4.20 
   5  -1  -5  239.88   10.00 
  -5  -1   5  227.08   10.50 
   5  -1  -5  236.88   10.30 
  -5  -1   5  248.18   10.40 
  -5  -1   5  262.67   10.70 
  -5  -1   5  243.78    8.80 
  -5   1   5  260.27   11.00 
   5   1  -5  252.37   10.40 
  -5   1   5  235.98   10.30 
  -5   1   5  253.27   10.00 
  -5   1   5  250.47   10.50 
  -4  -1   5  110.19    6.20 
  -4  -1   5  103.29    5.00 
  -4  -1   5  114.39    6.80 
  -4  -1   5  121.09    6.60 
   4  -1  -5  127.79    7.30 
   4  -1  -5  121.99    6.80 
  -4   1   5  109.79    6.70 
  -4   1   5  128.59    7.10 
  -4   1   5  128.79    7.00 
   4   1  -5  105.39    6.80 
  -4   1   5  136.49    7.50 
  -4   1   5  119.89    4.30 
   3  -1  -5  494.95   15.10 
  -3  -1   5  478.05   14.80 
  -3  -1   5  463.25   15.10 
  -3  -1   5  463.05   13.10 
  -3  -1   5  464.35   14.60 
   3  -1  -5  483.45   14.90 
  -3   1   5  503.55   15.00 
   3   1  -5  461.45   14.60 
   3   1  -5  488.65   13.30 
  -3   1   5  455.55   14.60 
  -3   1   5  495.05   14.70 
   3   1  -5  470.85   14.80 
  -2  -1   5  641.74   19.10 
   2  -1  -5  645.14   18.50 
  -2  -1   5  638.14   18.80 
   2  -1  -5  657.73   18.80 
  -2  -1   5  632.44   18.50 
   2  -1  -5  625.34   18.50 
   2   1  -5  656.43   17.20 
   2   1  -5  650.93   18.80 
   2   1  -5  663.63   18.80 
  -2   1   5  669.13   18.90 
  -2   1   5  691.73   18.60 
  -2   1   5  673.23   18.70 
  -1  -1   5  258.07   10.00 
   1  -1  -5  252.27    9.60 
  -1  -1   5  261.37    9.40 
   1  -1  -5  266.27    7.40 
   1  -1  -5  276.27    9.70 
   1  -1  -5  255.37    9.60 
  -1  -1   5  267.37    9.80 
  -1   1   5  258.77    9.40 
   1   1  -5  272.47    8.60 
   1   1  -5  258.87    9.80 
  -1   1   5  257.97    9.40 
  -1   1   5  264.67    9.10 
  -1   1   5  281.87    9.90 
   1   1  -5  259.67    9.70 
   0  -1  -5   20.30    3.70 
   0  -1   5   25.60    3.70 
   0  -1  -5   24.00    3.80 
   0  -1  -5   21.90    3.40 
   0  -1   5   25.60    3.80 
   0  -1   5   25.90    3.90 
   0  -1  -5   21.20    3.20 
   0   1   5   23.80    3.70 
   0   1   5   25.40    3.20 
   0   1  -5   21.90    3.90 
   0   1   5   25.00    3.40 
   0   1   5   23.60    3.40 
   0   1  -5   27.10    3.40 
  -1  -1  -5  306.27   10.90 
  -1  -1  -5  313.17   11.00 
   1  -1   5  313.67   11.10 
  -1  -1  -5  312.27   10.90 
   1  -1   5  298.77   11.30 
   1  -1   5  318.97   11.30 
   1  -1   5  310.87   11.20 
   1   1   5  302.57   10.50 
  -1   1  -5  304.27   11.10 
   1   1   5  311.67   10.60 
   1   1   5  325.07   11.30 
   1   1   5  313.97   11.00 
  -1   1  -5  300.77   11.20 
   2  -1   5   23.30    3.50 
  -2  -1  -5   19.50    3.90 
  -2  -1  -5   20.70    3.90 
   2  -1   5   24.10    4.10 
  -2  -1  -5   17.80    3.50 
   2  -1   5   22.00    4.30 
   2   1   5   18.10    3.80 
   2   1   5   16.50    3.60 
  -2   1  -5   25.10    2.90 
  -2   1  -5   26.70    4.00 
   2   1   5   20.20    3.50 
  -2   1  -5   19.10    4.10 
  -3  -1  -5  121.79    7.10 
   3  -1   5   98.99    6.60 
   3  -1   5  115.79    7.20 
  -3  -1  -5  105.19    6.90 
   3  -1   5  116.49    6.10 
   3  -1   5  108.39    7.10 
   3   1   5  110.19    6.80 
   3   1   5  118.49    7.10 
  -3   1  -5  107.99    7.20 
   3   1   5  101.29    6.40 
   3   1   5   98.09    6.20 
  -3   1  -5   98.59    6.00 
  -3   1  -5  101.29    7.30 
   4  -1   5  422.16   15.10 
   4  -1   5  419.46   15.50 
  -4  -1  -5  407.66   14.80 
   4  -1   5  437.96   15.10 
   4  -1   5  399.56   13.40 
   4   1   5  402.56   14.80 
   4   1   5  413.26   14.00 
   4   1   5  418.66   14.40 
  -4   1  -5  425.06   15.30 
   5  -1   5   68.89    6.00 
   5  -1   5   57.29    7.10 
  -5  -1  -5   66.49    6.70 
   5  -1   5   64.89    6.70 
  -5  -1  -5   62.39    6.70 
  -5   1  -5   69.29    7.20 
   5   1   5   64.89    6.70 
   5   1   5   65.99    6.00 
   5   1   5   59.09    5.80 
  -5   1  -5   65.19    6.70 
   5   1   5   66.49    6.80 
   6  -1   5    5.40    4.30 
  -6  -1  -5    8.90    4.70 
   6  -1   5    4.20    5.00 
   6  -1   5    6.90    3.70 
  -6  -1  -5   12.20    4.90 
   6   1   5    0.10    4.40 
   6   1   5   -2.60    3.80 
   6   1   5   10.60    3.90 
  -6   1  -5    5.80    4.80 
  -6   1  -5   -0.70    3.30 
  -7  -1  -5   -1.50    4.80 
  -7  -1  -5    2.40    4.60 
   7  -1   5   11.70    4.60 
   7  -1   5   10.40    5.60 
   7  -1   5   -0.30    4.80 
   7   1   5    5.20    3.80 
  -7   1  -5   10.80    5.60 
   7   1   5    3.40    4.80 
  -7   1  -5    4.90    5.40 
  10  -2  -5   17.40    6.60 
 -10  -2   5   17.60    6.50 
 -10  -2   5   21.50    6.30 
 -10  -2   5   23.50    6.30 
 -10   2   5   21.00    6.40 
 -10   2   5   16.60    6.70 
  10   2  -5   17.60    5.50 
  10   2  -5   23.80    7.40 
   9  -2  -5    8.50    5.60 
  -9  -2   5    6.00    5.20 
  -9  -2   5   20.20    5.70 
  -9  -2   5   17.30    5.50 
  -9   2   5    7.40    5.40 
  -9   2   5    4.30    4.10 
   9   2  -5   17.20    5.50 
   9   2  -5    2.00    5.60 
  -8  -2   5  122.69    8.40 
  -8  -2   5  112.79    9.00 
   8  -2  -5  126.29    9.60 
  -8  -2   5  120.89    8.40 
  -8   2   5  121.59   10.20 
  -8   2   5  106.59    8.00 
   8   2  -5  139.39    8.80 
  -7  -2   5  101.89    8.30 
  -7  -2   5  108.09    8.20 
  -7  -2   5   96.89    7.90 
   7  -2  -5  108.49    8.70 
  -7   2   5  106.49    8.30 
  -7   2   5   97.79    6.70 
   7   2  -5   91.89    7.70 
  -7   2   5  108.09    7.40 
  -7   2   5  115.69    8.90 
  -6  -2   5  243.28   10.70 
   6  -2  -5  267.77   11.60 
  -6  -2   5  244.98   11.10 
  -6  -2   5  232.68   10.40 
  -6   2   5  237.58   10.00 
   6   2  -5  260.27   10.80 
  -6   2   5  240.18   11.50 
  -6   2   5  270.77   11.40 
  -6   2   5  224.88   10.80 
  -5  -2   5   64.49    6.00 
  -5  -2   5   62.09    5.90 
   5  -2  -5   68.99    6.30 
  -5  -2   5   69.59    5.50 
   5  -2  -5   73.89    6.20 
   5   2  -5   68.89    5.90 
  -5   2   5   63.39    5.70 
  -5   2   5   73.69    6.70 
  -5   2   5   55.09    5.60 
  -5   2   5   75.29    6.30 
  -4  -2   5   80.09    6.00 
  -4  -2   5   67.69    5.90 
   4  -2  -5   65.19    5.80 
  -4  -2   5   70.29    4.70 
   4  -2  -5   73.09    5.90 
  -4  -2   5   81.59    6.00 
  -4   2   5   68.79    6.10 
  -4   2   5   75.79    6.10 
  -4   2   5   68.99    5.70 
  -4   2   5   67.49    2.70 
  -4   2   5   70.89    5.70 
   4   2  -5   79.39    5.80 
  -3  -2   5   95.99    6.40 
   3  -2  -5  103.19    7.30 
  -3  -2   5  111.89    6.50 
  -3  -2   5   96.19    5.10 
   3  -2  -5  106.89    6.50 
  -3  -2   5  105.39    6.40 
   3  -2  -5  106.59    6.10 
  -3   2   5   92.09    5.60 
  -3   2   5  113.09    7.10 
  -3   2   5   96.79    5.90 
   3   2  -5  109.39    6.40 
   3   2  -5  103.69    5.20 
  -3   2   5  107.69    5.60 
  -2  -2   5  107.99    5.70 
   2  -2  -5  106.99    6.00 
   2  -2  -5  105.29    6.10 
   2  -2  -5  117.59    6.30 
  -2  -2   5  117.59    6.40 
  -2  -2   5  110.59    5.10 
  -2  -2   5  111.79    6.60 
   2   2  -5  113.59    6.20 
  -2   2   5  113.49    5.50 
  -2   2   5   98.19    7.00 
  -2   2   5  108.29    6.10 
  -2   2   5  112.39    5.80 
   2   2  -5   99.19    6.20 
   2   2  -5  101.19    5.40 
  -2   2   5   99.29    5.70 
   1  -2  -5  116.79    6.10 
   1  -2  -5  114.09    6.10 
  -1  -2   5  114.69    5.90 
  -1  -2   5  108.49    5.80 
  -1  -2   5  106.39    6.00 
   1  -2  -5  111.69    5.80 
  -1   2   5  109.39    5.50 
   1   2  -5  116.39    6.50 
  -1   2   5  114.89    6.50 
  -1   2   5  119.59    6.00 
  -1   2   5  109.09    5.70 
   1   2  -5  119.29    6.30 
   1   2  -5  115.09    5.60 
  -1   2   5  115.79    5.40 
   0  -2   5  115.59    6.80 
   0  -2  -5  120.09    6.00 
   0  -2  -5  114.49    5.80 
   0  -2   5  113.69    6.50 
   0  -2  -5  111.89    6.00 
   0  -2   5  117.19    6.50 
   0   2   5   97.09    5.00 
   0   2   5  105.29    5.40 
   0   2   5  110.79    5.50 
   0   2  -5  107.69    4.40 
   0   2   5   96.69    7.00 
   0   2  -5   99.89    5.60 
   0   2  -5  102.79    6.00 
   0   2  -5  101.49    6.30 
   0   2   5  107.39    5.90 
  -1  -2  -5  271.37    9.90 
  -1  -2  -5  277.67   10.20 
   1  -2   5  273.27   10.60 
   1  -2   5  277.57   10.30 
   1  -2   5  286.67   10.60 
  -1  -2  -5  282.37   10.00 
   1  -2   5  284.17   11.00 
  -1   2  -5  270.17   10.50 
   1   2   5  273.97   11.10 
   1   2   5  292.27    9.70 
  -1   2  -5  283.17    8.20 
   1   2   5  272.37    9.40 
  -1   2  -5  273.37   10.20 
   1   2   5  260.97    9.90 
   1   2   5  265.87    9.20 
  -2  -2  -5  204.18    8.60 
  -2  -2  -5  219.28    8.80 
  -2  -2  -5  208.38    8.60 
   2  -2   5  211.38    9.30 
   2  -2   5  209.78    8.90 
   2  -2   5  199.38    9.20 
   2  -2   5  203.98    9.60 
  -2   2  -5  206.68    8.90 
   2   2   5  216.78    8.30 
   2   2   5  195.28    9.30 
   2   2   5  201.28    7.70 
   2   2   5  207.98    8.20 
   2   2   5  208.28    8.60 
  -2   2  -5  195.28    9.10 
  -2   2  -5  212.08    6.80 
   3  -2   5   25.80    5.00 
  -3  -2  -5   28.60    4.30 
  -3  -2  -5   32.20    4.50 
   3  -2   5   28.40    4.20 
   3  -2   5   28.20    4.30 
  -3  -2  -5   21.90    4.10 
  -3   2  -5   26.60    4.90 
   3   2   5   22.10    3.50 
  -3   2  -5   34.00    4.90 
   3   2   5   30.00    4.70 
   3   2   5   32.40    4.40 
   3   2   5   33.00    4.00 
   3   2   5   18.00    4.20 
   4  -2   5  115.59    6.20 
   4  -2   5  109.49    7.50 
  -4  -2  -5  114.39    7.60 
   4  -2   5  121.19    8.20 
   4  -2   5  112.49    8.00 
   4   2   5  117.39    7.40 
   4   2   5  116.79    7.40 
   4   2   5  128.39    7.90 
   4   2   5  112.39    6.80 
  -4   2  -5  114.19    8.30 
   5  -2   5   36.20    4.50 
   5  -2   5   46.20    6.60 
  -5  -2  -5   55.49    6.30 
  -5  -2  -5   44.70    5.90 
   5  -2   5   46.30    6.20 
  -5   2  -5   42.70    6.50 
   5   2   5   42.40    5.10 
  -5   2  -5   62.69    7.10 
   5   2   5   52.19    5.30 
   5   2   5   31.80    5.40 
   5   2   5   38.20    5.60 
   6  -2   5   16.30    4.10 
   6  -2   5   11.50    5.60 
  -6  -2  -5   12.80    5.00 
  -6  -2  -5    9.90    4.50 
   6  -2   5   13.20    4.80 
   6   2   5    6.10    3.70 
   6   2   5    8.50    4.70 
  -6   2  -5   10.10    5.40 
  -6   2  -5   14.40    5.60 
  -7  -2  -5   56.79    7.40 
   7  -2   5   47.00    7.20 
   7  -2   5   53.99    7.30 
  -7  -2  -5   34.10    6.40 
  -7   2  -5   46.30   10.20 
   7   2   5   35.40    5.20 
  -7   2  -5   30.00    6.80 
   7   2   5   48.10    7.40 
  -9  -3   5   87.19    8.80 
   9  -3  -5   85.09    9.20 
  -9  -3   5   73.69    8.30 
  -9  -3   5   94.89    9.10 
  -9   3   5   78.69    9.20 
   9   3  -5   81.29    7.70 
   9   3  -5   89.99    9.50 
  -9   3   5   99.99    9.20 
  -8  -3   5   56.29    7.20 
   8  -3  -5   59.89    7.60 
  -8  -3   5   64.59    7.20 
   8  -3  -5   59.39    7.50 
  -8  -3   5   62.99    7.30 
  -8   3   5   52.59    6.80 
   8   3  -5   52.69    6.20 
  -8   3   5   60.59    7.30 
   8   3  -5   60.29    8.00 
  -7  -3   5   24.00    4.50 
  -7  -3   5   34.40    5.80 
  -7  -3   5   27.60    5.50 
   7  -3  -5   33.60    6.00 
  -7   3   5   29.60    4.50 
   7   3  -5   38.80    6.50 
  -7   3   5   26.10    6.10 
  -7   3   5   32.00    5.50 
  -7   3   5   37.40    6.30 
   7   3  -5   21.70    4.90 
  -6  -3   5   43.20    5.60 
  -6  -3   5   51.19    6.00 
  -6  -3   5   46.10    5.80 
   6  -3  -5   43.80    6.20 
  -6   3   5   48.10    5.40 
   6   3  -5   47.90    5.50 
  -6   3   5   50.09    5.40 
  -6   3   5   46.30    6.30 
  -6   3   5   51.79    5.50 
  -5  -3   5   64.69    5.80 
  -5  -3   5   62.79    5.90 
   5  -3  -5   63.49    6.30 
  -5  -3   5   63.29    5.90 
   5  -3  -5   61.79    6.10 
   5   3  -5   62.39    5.50 
  -5   3   5   65.49    5.80 
  -5   3   5   69.79    6.10 
  -5   3   5   59.39    6.20 
  -5   3   5   64.39    5.90 
  -4  -3   5   89.79    5.70 
   4  -3  -5   83.49    6.20 
   4  -3  -5   83.49    5.70 
  -4  -3   5   72.79    5.90 
  -4  -3   5   78.79    6.10 
  -4   3   5   71.39    6.20 
  -4   3   5   82.59    2.70 
  -4   3   5   90.69    6.00 
  -4   3   5   87.79    5.90 
  -4   3   5   91.79    6.50 
  -4   3   5   86.59    2.70 
   4   3  -5   83.49    5.90 
   3  -3  -5  177.08    8.00 
  -3  -3   5  193.48    7.90 
  -3  -3   5  184.58    7.90 
   3  -3  -5  182.08    8.30 
  -3  -3   5  173.88    8.30 
   3  -3  -5  190.18    7.80 
   3   3  -5  169.58    7.80 
  -3   3   5  189.68    8.00 
  -3   3   5  166.18    8.80 
  -3   3   5  169.08    7.60 
  -3   3   5  187.88    8.20 
   3   3  -5  175.78    7.80 
  -2  -3   5  228.88    9.40 
   2  -3  -5  240.18    9.20 
   2  -3  -5  220.68    8.80 
   2  -3  -5  222.18    9.00 
  -2  -3   5  225.88    9.30 
  -2  -3   5  232.58    9.60 
  -2   3   5  240.18   10.40 
  -2   3   5  232.28    8.70 
   2   3  -5  247.78    9.00 
  -2   3   5  256.77    8.90 
  -2   3   5  251.37    8.70 
   2   3  -5  236.78    9.10 
  -2   3   5  245.68    8.60 
   1  -3  -5  160.48    7.00 
  -1  -3   5  157.08    7.80 
   1  -3  -5  156.78    7.00 
  -1  -3   5  159.58    7.60 
   1  -3  -5  152.98    4.50 
   1  -3  -5  152.28    6.80 
  -1  -3   5  161.88    7.60 
  -1   3   5  175.38    7.00 
  -1   3   5  166.18    6.60 
  -1   3   5  165.78    7.00 
  -1   3   5  138.89    5.90 
   1   3  -5  166.28    7.50 
   1   3  -5  169.78    7.30 
  -1   3   5  165.58    8.60 
   0  -3  -5    6.00    2.70 
   0  -3  -5    9.30    2.70 
   0  -3  -5    6.30    2.50 
   0  -3   5    8.40    3.20 
   0  -3   5    3.60    3.40 
   0  -3   5    5.70    3.10 
   0   3  -5    8.00    3.00 
   0   3   5    7.60    3.80 
   0   3   5    6.30    2.40 
   0   3  -5    5.80    3.10 
   0   3  -5    9.50    1.50 
   0   3   5    1.00    1.40 
   0   3   5    5.90    2.50 
   0   3   5    6.90    2.30 
  -1  -3  -5   22.90    3.40 
  -1  -3  -5   20.20    3.50 
   1  -3   5   26.70    4.10 
   1  -3   5   24.60    4.40 
  -1  -3  -5   25.20    3.40 
   1  -3   5   25.60    3.70 
   1  -3   5   25.20    3.60 
  -1   3  -5   23.40    1.80 
   1   3   5   28.60    3.10 
   1   3   5   17.70    3.60 
   1   3   5   22.20    3.10 
   1   3   5   22.20    3.40 
  -1   3  -5   19.80    4.00 
   1   3   5   19.70    2.50 
  -2  -3  -5  386.46   12.50 
   2  -3   5  390.26   13.70 
   2  -3   5  351.76   13.30 
   2  -3   5  356.16   13.30 
   2  -3   5  384.16   13.50 
  -2  -3  -5  363.76   12.30 
  -2  -3  -5  356.06   12.30 
   2   3   5  367.26   11.30 
   2   3   5  373.46   12.30 
   2   3   5  396.06   13.60 
   2   3   5  377.16   11.80 
  -2   3  -5  371.56   13.40 
   3  -3   5  230.48   10.50 
   3  -3   5  228.08   10.00 
  -3  -3  -5  233.68    9.60 
  -3  -3  -5  223.48    9.50 
   3  -3   5  236.18   10.30 
  -3  -3  -5  234.88    9.60 
  -3   3  -5  233.18   10.80 
   3   3   5  229.88    8.10 
   3   3   5  232.38   10.60 
   3   3   5  234.58    8.40 
   3   3   5  231.68   10.00 
   3   3   5  219.68    8.70 
   3   3   5  245.08    9.60 
   4  -3   5  155.08    9.60 
   4  -3   5  136.29    6.20 
   4  -3   5  148.09    9.10 
  -4  -3  -5  133.59    7.90 
   4  -3   5  137.49    8.90 
   4   3   5  139.69    6.70 
   4   3   5  141.79    7.70 
   4   3   5  154.68    9.10 
   4   3   5  145.49    7.80 
  -4   3  -5  150.88    9.30 
   5  -3   5   62.19    5.00 
   5  -3   5   68.59    7.20 
  -5  -3  -5   55.09    6.10 
   5  -3   5   65.99    7.00 
   5   3   5   61.79    5.70 
   5   3   5   57.19    6.70 
   5   3   5   65.89    5.20 
  -5   3  -5   46.80    6.60 
  -6  -3  -5   92.19    8.10 
   6  -3   5   93.09    9.20 
   6  -3   5   88.69    8.50 
  -6  -3  -5   92.09    8.00 
  -6   3  -5   80.19    8.00 
   6   3   5   97.59    8.70 
   7  -3   5   10.10    5.00 
  -7  -3  -5   12.60    4.90 
  -7  -3  -5    8.30    5.50 
   7  -3   5    6.90    5.10 
   7   3   5   14.50    5.60 
  -7   3  -5   13.20    6.00 
  -9  -4   5   -0.40    4.80 
  -9  -4   5    3.20    4.70 
   9  -4  -5   -7.30    5.20 
  -9  -4   5    6.10    5.00 
  -9   4   5   -1.70    4.80 
   9   4  -5   -2.70    3.80 
   9   4  -5    6.20    5.60 
  -9   4   5    0.00    3.90 
  -8  -4   5  204.28   11.00 
   8  -4  -5  214.68   12.40 
  -8  -4   5  193.98   10.90 
   8  -4  -5  202.08   12.30 
  -8  -4   5  215.78   11.40 
   8   4  -5  206.08   12.10 
  -8   4   5  194.78   11.00 
   8   4  -5  188.28    9.80 
  -8   4   5  201.68   11.30 
  -7  -4   5  122.79    8.40 
  -7  -4   5  126.29    8.70 
  -7  -4   5  123.29    8.60 
   7  -4  -5  118.59    9.20 
  -7   4   5  136.39    8.40 
   7   4  -5  122.99    7.50 
   7   4  -5  124.19    8.30 
  -7   4   5  120.79    8.60 
  -7   4   5  128.29    9.40 
  -6  -4   5   58.79    6.30 
  -6  -4   5   52.19    5.90 
  -6  -4   5   54.09    5.90 
   6  -4  -5   58.09    6.60 
  -6   4   5   44.30    6.10 
   6   4  -5   42.30    5.90 
  -6   4   5   52.19    5.90 
  -6   4   5   47.60    5.60 
   6   4  -5   40.20    4.90 
  -5  -4   5    7.90    3.70 
  -5  -4   5    7.20    3.60 
   5  -4  -5    9.40    3.70 
   5  -4  -5   10.80    4.30 
  -5  -4   5    9.30    3.70 
   5   4  -5   12.90    3.50 
  -5   4   5   11.10    3.90 
   5   4  -5    8.00    3.90 
  -5   4   5    6.70    3.50 
  -5   4   5   13.90    4.30 
  -5   4   5   13.30    4.30 
  -4  -4   5   37.80    4.60 
  -4  -4   5   33.60    4.60 
  -4  -4   5   32.20    4.70 
   4  -4  -5   31.30    4.70 
   4  -4  -5   34.70    4.50 
   4   4  -5   29.90    4.30 
  -4   4   5   28.80    4.10 
  -4   4   5   35.30    4.90 
  -4   4   5   32.40    4.40 
  -4   4   5   32.70    1.80 
  -4   4   5   38.70    4.80 
   4   4  -5   30.50    4.50 
   3  -4  -5   63.79    4.70 
   3  -4  -5   51.19    5.00 
  -3  -4   5   67.79    5.60 
  -3  -4   5   68.59    5.60 
  -3  -4   5   65.39    5.70 
   3  -4  -5   65.99    5.40 
   3   4  -5   59.49    5.00 
  -3   4   5   60.59    4.60 
  -3   4   5   67.09    4.80 
   3   4  -5   69.79    5.60 
  -3   4   5   58.29    6.10 
  -3   4   5   62.39    4.80 
  -3   4   5   56.89    5.20 
  -2  -4   5   24.30    4.20 
   2  -4  -5   18.10    3.20 
   2  -4  -5   22.90    3.60 
  -2  -4   5   18.50    3.70 
   2  -4  -5   18.90    3.70 
  -2  -4   5   23.10    3.90 
  -2   4   5   10.20    3.00 
  -2   4   5   24.60    3.10 
  -2   4   5   22.50    4.00 
  -2   4   5   20.50    2.80 
   2   4  -5   23.30    3.90 
   2   4  -5   15.70    3.50 
  -2   4   5   20.30    3.00 
  -1  -4   5   74.79    6.00 
   1  -4  -5   71.69    4.80 
   1  -4  -5   77.59    5.00 
  -1  -4   5   86.29    5.90 
  -1  -4   5   77.99    5.80 
   1  -4  -5   77.49    3.10 
   1  -4  -5   74.99    5.00 
   1   4  -5   80.39    5.50 
   1   4  -5   85.19    6.00 
  -1   4   5   84.89    4.10 
  -1   4   5   75.39    4.40 
  -1   4   5   88.59    6.20 
  -1   4   5   83.99    5.00 
  -1   4   5   77.79    4.50 
   0  -4   5   99.79    5.90 
   0  -4  -5   99.79    4.50 
   0  -4  -5  108.19    5.80 
   0  -4   5  101.39    6.10 
   0  -4  -5   96.59    5.40 
   0  -4  -5  103.19    5.40 
   0  -4   5  102.79    6.50 
   0   4   5   96.39    7.20 
   0   4   5   96.09    4.50 
   0   4   5   95.49    5.10 
   0   4  -5   99.29    6.50 
   0   4   5  103.19    5.00 
   0   4  -5   85.39    6.10 
   0   4   5   94.89    4.20 
  -1  -4  -5  705.83   19.60 
   1  -4   5  678.53   20.50 
  -1  -4  -5  693.43   19.50 
   1  -4   5  724.53   21.30 
   1  -4   5  727.03   20.90 
  -1  -4  -5  686.43   19.40 
   1  -4   5  660.23   20.70 
   1   4   5  698.93   18.80 
   1   4   5  698.93   19.30 
  -1   4  -5  699.73   20.60 
   1   4   5  694.43   17.80 
   1   4   5  708.33   17.80 
   1   4   5  730.03   21.60 
  -1   4  -5  695.03   21.00 
   2  -4   5  190.88    8.90 
  -2  -4  -5  184.18    8.20 
   2  -4   5  204.48    9.40 
   2  -4   5  201.08    9.60 
   2  -4   5  202.58    9.20 
  -2  -4  -5  195.38    8.30 
  -2  -4  -5  206.58    8.60 
   2   4   5  190.18    9.50 
  -2   4  -5  184.58    9.30 
   2   4   5  200.08    6.50 
   2   4   5  201.48    6.40 
   2   4   5  187.08    7.70 
   3  -4   5    6.60    3.50 
   3  -4   5    5.00    4.10 
   3  -4   5    4.10    4.10 
  -3  -4  -5   10.30    3.60 
  -3  -4  -5    5.20    2.90 
   3  -4   5   10.20    4.20 
  -3   4  -5    3.80    3.90 
   3   4   5    5.50    2.70 
   3   4   5    2.20    3.90 
   3   4   5    3.30    2.00 
   3   4   5    7.50    3.70 
   4  -4   5   48.90    6.30 
  -4  -4  -5   51.09    5.40 
   4  -4   5   43.00    6.60 
   4  -4   5   36.70    5.80 
   4   4   5   46.80    6.30 
   4   4   5   48.40    3.80 
   4   4   5   56.99    5.90 
  -4   4  -5   46.70    6.40 
  -5  -4  -5   19.50    4.50 
   5  -4   5   19.30    4.90 
   5  -4   5   19.40    5.30 
   5  -4   5   23.20    5.60 
  -5   4  -5   25.60    5.70 
   5   4   5   25.00    4.30 
   5   4   5   24.50    5.70 
  -6  -4  -5   30.10    5.50 
   6  -4   5   24.30    5.80 
   6  -4   5   23.20    6.50 
  -6  -4  -5   19.10    4.80 
  -6   4  -5   18.20    5.80 
   6   4   5   19.90    5.70 
   7  -4   5    4.00    5.30 
  -7  -4  -5    7.90    4.50 
  -7  -4  -5    3.40    5.10 
   7  -4   5   -0.80    4.10 
   7   4   5    1.80    5.10 
  -7   4  -5    7.80    5.60 
  -9  -5   5  102.39    9.10 
   9  -5  -5   92.19    9.10 
  -9  -5   5   85.39    8.90 
  -9  -5   5  105.39    9.40 
  -9   5   5   92.69    9.10 
   9   5  -5   76.29    9.20 
  -9   5   5   99.69   10.30 
   8  -5  -5   59.29    7.90 
   8  -5  -5   55.09    7.80 
  -8  -5   5   62.89    7.10 
  -8  -5   5   61.09    7.20 
  -8  -5   5   61.79    7.20 
   8   5  -5   58.09    7.70 
  -8   5   5   60.99    7.40 
   8   5  -5   56.19    7.50 
  -8   5   5   64.89    7.40 
  -7  -5   5   67.29    7.00 
   7  -5  -5   81.79    8.10 
  -7  -5   5   74.19    7.10 
  -7  -5   5   63.49    6.90 
  -7   5   5   76.99    7.50 
  -7   5   5   75.69    7.10 
   7   5  -5   65.39    5.60 
  -7   5   5   69.39    7.00 
   7   5  -5   67.69    7.40 
  -6  -5   5   14.10    4.10 
  -6  -5   5   16.50    4.50 
  -6  -5   5   14.60    4.40 
   6  -5  -5   12.90    4.90 
   6   5  -5   16.60    3.70 
   6   5  -5   15.50    4.60 
  -6   5   5   13.10    4.30 
  -6   5   5    6.40    3.50 
  -6   5   5   11.60    4.20 
   5  -5  -5   54.79    6.20 
  -5  -5   5   62.69    6.10 
  -5  -5   5   52.59    5.70 
  -5  -5   5   57.99    5.70 
  -5   5   5   63.79    6.60 
   5   5  -5   50.99    4.80 
  -5   5   5   56.19    3.60 
  -5   5   5   57.29    6.20 
  -5   5   5   69.39    5.80 
   5   5  -5   61.29    6.20 
  -4  -5   5  365.06   13.30 
   4  -5  -5  389.46   13.50 
   4  -5  -5  383.56   13.60 
  -4  -5   5  376.16   13.30 
  -4  -5   5  394.86   13.60 
  -4   5   5  387.26   14.70 
  -4   5   5  372.56   10.00 
  -4   5   5  375.26   13.40 
  -4   5   5  371.86   12.80 
   4   5  -5  370.06   12.70 
   4   5  -5  380.16   12.40 
   4   5  -5  362.36   13.70 
  -4   5   5  391.66   12.80 
   3  -5  -5  346.57   11.90 
  -3  -5   5  324.07   11.90 
   3  -5  -5  322.67   11.60 
   3  -5  -5  343.67   11.70 
  -3  -5   5  308.47   11.60 
  -3  -5   5  339.27   11.90 
  -3   5   5  339.57   10.60 
   3   5  -5  307.87   10.60 
   3   5  -5  318.27   11.10 
  -3   5   5  327.87   11.20 
  -3   5   5  334.17   13.40 
   3   5  -5  323.97   12.30 
  -3   5   5  299.87   10.50 
  -3   5   5  306.07   11.40 
   2  -5  -5   70.89    5.30 
   2  -5  -5   60.59    5.00 
  -2  -5   5   64.59    5.50 
   2  -5  -5   57.79    4.90 
  -2  -5   5   60.19    5.40 
  -2  -5   5   70.09    6.00 
  -2   5   5   66.19    3.70 
  -2   5   5   67.19    4.30 
  -2   5   5   65.59    6.70 
  -2   5   5   61.19    5.00 
   2   5  -5   63.59    5.00 
   2   5  -5   68.69    3.90 
  -2   5   5   71.29    4.70 
   2   5  -5   61.09    5.90 
  -1  -5   5   23.30    4.10 
   1  -5  -5   15.00    3.20 
   1  -5  -5    9.70    3.00 
   1  -5  -5   19.40    2.20 
  -1  -5   5    9.20    3.50 
  -1  -5   5   13.80    3.50 
   1  -5  -5   20.30    3.20 
  -1   5   5   16.20    1.90 
  -1   5   5   16.40    2.10 
  -1   5   5   16.10    4.40 
  -1   5   5   23.40    3.00 
   1   5  -5   17.60    3.50 
   1   5  -5   18.20    1.60 
   1   5  -5   16.50    4.10 
  -1   5   5   15.00    2.40 
   0  -5  -5   30.80    3.50 
   0  -5  -5   35.30    3.20 
   0  -5  -5   33.60    3.70 
   0  -5   5   29.70    4.60 
   0  -5  -5   28.10    3.50 
   0  -5   5   30.20    4.30 
   0  -5   5   33.90    4.90 
   0  -5   5   31.20    4.40 
   0   5   5   35.60    3.50 
   0   5   5   30.90    2.90 
   0   5  -5   29.60    4.90 
   0   5   5   28.30    5.20 
   0   5  -5   49.80    5.10 
   1  -5   5    4.80    3.70 
  -1  -5  -5    8.50    2.70 
  -1  -5  -5    8.30    2.70 
   1  -5   5    4.20    3.60 
   1  -5   5   11.40    4.30 
   1  -5   5    4.30    3.50 
  -1  -5  -5   10.90    3.10 
   1   5   5   11.00    2.10 
  -1   5  -5    5.60    4.00 
  -1   5  -5   10.60    3.70 
   1   5   5    7.80    2.50 
   1   5   5    7.50    4.00 
   2  -5   5  957.80   27.60 
  -2  -5  -5  983.10   28.70 
   2  -5   5  980.10   27.90 
  -2  -5  -5  937.21   25.60 
   2  -5   5  895.91   27.40 
   2  -5   5  962.50   28.00 
  -2  -5  -5  922.81   25.50 
  -2   5  -5  978.40   27.20 
   2   5   5  980.50   25.20 
   2   5   5  970.80   27.90 
  -2   5  -5  941.01   28.00 
   3  -5   5   80.09    6.90 
   3  -5   5   80.09    7.40 
   3  -5   5   69.79    6.90 
  -3  -5  -5   85.99    6.10 
  -3  -5  -5   87.09    6.00 
  -3   5  -5   74.29    6.90 
   3   5   5   81.39    6.90 
   4  -5   5   71.69    7.50 
   4  -5   5   77.99    7.50 
   4  -5   5   91.19    8.20 
  -4  -5  -5   80.79    6.60 
   4   5   5   76.19    6.90 
  -4   5  -5   71.09    7.30 
   4   5   5   70.69    7.70 
  -5  -5  -5   80.49    7.10 
   5  -5   5   90.89    9.10 
   5  -5   5   80.49    8.20 
   5  -5   5   87.09    8.20 
   5   5   5   89.09    6.80 
   5   5   5   94.79    8.90 
  -5   5  -5   92.69    8.60 
   6  -5   5   44.40    7.20 
   6  -5   5   45.50    7.60 
  -6  -5  -5   33.20    5.50 
  -6   5  -5   37.50    6.80 
   6   5   5   53.89    7.80 
   7  -5   5   49.60    8.30 
   7  -5   5   50.49    8.80 
  -7   5  -5   42.20    8.20 
   7   5   5   51.29    8.00 
  -9  -6   5   16.10    5.50 
  -9  -6   5   11.00    5.20 
  -9  -6   5   13.60    5.60 
   9   6  -5   14.50    6.20 
  -9   6   5   17.90    6.60 
   8  -6  -5   94.79    9.50 
  -8  -6   5  108.49    8.90 
  -8  -6   5  105.29    8.40 
  -8  -6   5  107.69    9.10 
   8  -6  -5  102.39    9.30 
  -8   6   5  102.49    9.70 
   8   6  -5  116.09   10.00 
  -8   6   5  122.29    9.20 
  -8   6   5  108.19   12.80 
   7  -6  -5  123.79   10.00 
  -7  -6   5  118.79    8.60 
  -7  -6   5  141.09    8.90 
  -7  -6   5  149.39    9.00 
   7  -6  -5  154.98   10.40 
  -7   6   5  145.09    9.90 
  -7   6   5  134.89    9.20 
   7   6  -5  139.49    9.60 
  -7   6   5  140.59    9.60 
  -6  -6   5    0.10    3.30 
  -6  -6   5   -2.20    3.50 
  -6  -6   5    1.80    3.60 
   6  -6  -5    4.10    4.50 
  -6   6   5    0.80    3.90 
   6   6  -5    0.60    2.70 
   6   6  -5    1.30    3.90 
  -6   6   5    3.00    4.20 
  -6   6   5    0.80    3.30 
  -5  -6   5   24.10    4.50 
   5  -6  -5   24.40    5.00 
  -5  -6   5   22.00    4.40 
  -5  -6   5   16.70    4.30 
   5   6  -5   16.20    4.10 
  -5   6   5   18.60    5.00 
  -5   6   5   19.80    2.70 
  -5   6   5   22.10    4.70 
  -5   6   5   19.60    3.80 
   5   6  -5   16.20    3.30 
  -4  -6   5    4.70    3.20 
   4  -6  -5   13.90    4.20 
  -4  -6   5    4.50    3.50 
  -4  -6   5   10.20    3.80 
  -4   6   5   12.40    4.70 
  -4   6   5    6.10    3.40 
  -4   6   5   11.30    3.20 
  -4   6   5   12.40    2.10 
   4   6  -5   18.10    3.90 
   4   6  -5    5.30    2.80 
   4   6  -5   15.20    4.60 
  -3  -6   5  125.49    7.20 
   3  -6  -5  125.49    6.90 
   3  -6  -5  103.99    7.40 
  -3  -6   5  114.59    7.40 
  -3  -6   5  124.49    7.30 
   3  -6  -5  139.89    7.10 
   3   6  -5  134.39    6.60 
  -3   6   5  124.59    6.30 
  -3   6   5  133.09    7.30 
   3   6  -5  129.99    8.20 
  -3   6   5  122.99    8.90 
   3   6  -5  132.99    6.20 
  -3   6   5  130.19    5.90 
   3   6  -5  122.29    6.10 
   2  -6  -5   51.69    4.90 
  -2  -6   5   49.50    5.20 
   2  -6  -5   43.10    4.50 
  -2  -6   5   45.30    5.10 
   2  -6  -5   41.20    4.40 
  -2  -6   5   44.80    5.00 
  -2   6   5   43.80    2.80 
  -2   6   5   43.70    4.30 
  -2   6   5   46.00    5.90 
  -2   6   5   45.60    3.80 
  -2   6   5   47.90    3.00 
   2   6  -5   39.50    4.30 
   2   6  -5   50.59    5.90 
   2   6  -5   44.60    3.50 
   1  -6  -5  244.38    9.20 
  -1  -6   5  244.38   10.10 
   1  -6  -5  235.78    8.80 
   1  -6  -5  234.98    9.00 
  -1  -6   5  246.28   10.30 
  -1  -6   5  227.08    9.90 
   1  -6  -5  242.18    7.90 
  -1   6   5  238.28    8.70 
  -1   6   5  219.58    9.40 
   1   6  -5  255.17   10.60 
   1   6  -5  239.28    6.40 
   1   6  -5  258.67    9.30 
  -1   6   5  244.08   11.70 
   0  -6  -5  379.86   11.70 
   0  -6   5  389.16   13.60 
   0  -6  -5  373.86   11.80 
   0  -6  -5  374.06   12.10 
   0  -6  -5  375.86   12.00 
   0  -6   5  385.46   13.50 
   0  -6   5  393.26   13.70 
   0  -6   5  396.66   13.80 
   0   6  -5  360.26   13.70 
   0   6   5  388.16   11.50 
   0   6   5  376.86   14.50 
   0   6  -5  373.46   12.90 
  -1  -6  -5  355.06   11.30 
   1  -6   5  345.77   13.10 
   1  -6   5  330.47   13.30 
  -1  -6  -5  351.76   11.40 
   1  -6   5  331.97   13.00 
  -1   6  -5  352.46   12.50 
   1   6   5  347.17   14.10 
   1   6   5  343.47   10.50 
  -1   6  -5  330.47   13.70 
   2  -6   5   24.10    5.00 
  -2  -6  -5   27.60    3.70 
   2  -6   5   28.10    5.40 
  -2  -6  -5   30.40    3.80 
   2  -6   5   27.80    5.10 
  -2   6  -5   24.20    5.60 
   2   6   5   33.80    5.50 
  -2   6  -5   37.60    5.20 
  -3  -6  -5   24.90    3.80 
   3  -6   5   21.50    5.50 
   3  -6   5   33.10    4.90 
   3  -6   5   25.60    5.30 
  -3  -6  -5   30.20    4.20 
  -3   6  -5   20.70    4.90 
  -3   6  -5   35.80    5.30 
   3   6   5   29.30    5.40 
   4  -6   5   36.70    6.20 
  -4  -6  -5   30.70    4.60 
   4  -6   5   30.00    6.30 
   4  -6   5   36.00    6.20 
  -4   6  -5   38.50    5.90 
   4   6   5   35.10    5.80 
   4   6   5   34.50    5.20 
   5  -6   5   13.00    5.30 
   5  -6   5    2.80    3.90 
   5  -6   5    1.70    4.70 
   5   6   5   15.60    5.90 
  -5   6  -5    3.80    4.80 
   6  -6   5   29.70    7.10 
   6  -6   5   30.90    5.90 
   6   6   5   25.80    6.60 
  -6   6  -5   18.30    6.00 
  -8  -7   5   12.30    4.60 
  -8  -7   5   12.30    4.90 
   8  -7  -5   13.50    5.00 
  -8  -7   5    6.60    4.60 
   8  -7  -5    7.90    5.70 
  -8   7   5   12.30    4.60 
   8   7  -5   18.60    5.80 
   7  -7  -5   19.30    5.90 
  -7  -7   5   26.20    5.40 
  -7  -7   5   18.30    4.50 
   7  -7  -5    8.30    5.10 
  -7  -7   5    9.20    4.70 
   7   7  -5   23.10    5.30 
  -7   7   5   15.10    5.10 
  -7   7   5   14.00    4.30 
  -6  -7   5    3.00    3.50 
  -6  -7   5    4.60    3.80 
   6  -7  -5    4.80    4.40 
  -6  -7   5    7.10    4.20 
  -6   7   5   10.20    4.60 
  -6   7   5    7.60    3.80 
   6   7  -5    3.10    3.90 
  -6   7   5    9.20    5.40 
  -5  -7   5   59.49    6.00 
   5  -7  -5   60.59    6.70 
  -5  -7   5   59.39    6.10 
  -5  -7   5   62.59    5.90 
  -5   7   5   57.99    5.10 
  -5   7   5   60.09    7.30 
  -5   7   5   67.19    6.50 
   5   7  -5   57.19    5.80 
  -4  -7   5  290.47   11.50 
   4  -7  -5  287.97   12.20 
  -4  -7   5  266.37   11.40 
  -4  -7   5  288.27   11.30 
  -4   7   5  301.67    9.80 
   4   7  -5  289.17   13.10 
  -4   7   5  293.17    9.90 
  -4   7   5  296.37   11.70 
   4   7  -5  293.57   11.00 
  -4   7   5  280.87   13.30 
   4   7  -5  280.87    9.10 
  -3  -7   5  258.67   10.90 
  -3  -7   5  252.37   10.60 
   3  -7  -5  267.57   10.60 
  -3  -7   5  269.47   11.20 
   3   7  -5  284.97   12.70 
  -3   7   5  273.97    8.60 
   3   7  -5  282.17    9.10 
   3   7  -5  263.67    9.50 
  -3   7   5  252.87   12.10 
  -3   7   5  255.07    8.00 
  -3   7   5  280.07   10.40 
  -2  -7   5  269.07   11.00 
   2  -7  -5  272.67   10.60 
   2  -7  -5  304.07   10.40 
  -2  -7   5  286.17   11.10 
  -2  -7   5  276.27   11.40 
  -2   7   5  285.77   10.10 
   2   7  -5  281.07   12.60 
   2   7  -5  285.27    9.80 
   2   7  -5  296.97    9.00 
  -2   7   5  258.37   12.30 
  -1  -7   5   28.80    5.00 
  -1  -7   5   22.30    4.20 
   1  -7  -5   36.20    4.00 
   1  -7  -5   24.70    3.60 
  -1  -7   5   29.80    4.70 
   1   7  -5   30.00    3.90 
   1   7  -5   30.50    5.60 
  -1   7   5   35.40    6.10 
   0  -7   5   32.60    5.10 
   0  -7  -5   40.80    4.10 
   0  -7   5   37.70    5.00 
   0  -7   5   44.70    5.60 
   0  -7  -5   36.90    3.70 
   0   7  -5   39.70    4.60 
   0   7  -5   45.20    6.30 
   0   7   5   46.60    6.50 
   1  -7   5    5.10    3.80 
  -1  -7  -5   10.40    2.90 
   1  -7   5   10.60    4.20 
   1  -7   5    8.00    4.30 
  -1  -7  -5    8.10    2.60 
   1   7   5   11.00    4.70 
  -1   7  -5   17.90    5.20 
  -1   7  -5   10.60    3.90 
   2  -7   5   47.10    6.20 
   2  -7   5   43.40    5.90 
  -2  -7  -5   47.20    4.40 
  -2  -7  -5   46.30    4.10 
   2  -7   5   53.09    6.60 
   2   7   5   44.30    6.20 
  -2   7  -5   59.19    7.40 
  -2   7  -5   38.00    5.50 
   3  -7   5    4.60    4.40 
   3  -7   5    3.90    4.70 
   3  -7   5    5.00    4.50 
   3   7   5    4.80    4.00 
  -3   7  -5   -5.90    4.50 
  -3   7  -5    1.10    4.30 
   4  -7   5   49.99    7.00 
   4  -7   5   58.19    7.30 
   4  -7   5   32.50    6.70 
   4   7   5   49.60    6.10 
  -4   7  -5   44.20    6.20 
  -4   7  -5   48.10    7.80 
   5  -7   5   31.90    6.40 
   5  -7   5   51.99    7.00 
   5  -7   5   46.60    7.40 
   5   7   5   54.39    7.90 
  -5   7  -5   45.10    7.10 
  -5   7  -5   43.40    8.40 
   6  -7   5   39.80    6.90 
   6  -7   5   22.60    6.60 
  -6   7  -5   28.10    6.50 
   6   7   5   37.30    7.80 
  -7  -8   5   48.30    6.20 
   7  -8  -5   42.30    7.30 
  -7  -8   5   51.29    6.50 
   7  -8  -5   49.60    7.50 
  -7   8   5   45.10    5.70 
   7   8  -5   62.89    7.40 
  -7   8   5   67.99    8.00 
  -6  -8   5   55.99    6.00 
   6  -8  -5   63.89    7.40 
  -6  -8   5   60.19    6.50 
   6  -8  -5   53.69    7.10 
  -6  -8   5   61.59    6.50 
  -6   8   5   51.09    5.30 
   6   8  -5   53.49    6.40 
  -6   8   5   61.29    7.80 
  -5  -8   5   49.80    5.70 
  -5  -8   5   48.20    5.40 
  -5  -8   5   52.69    5.90 
   5  -8  -5   56.79    6.60 
   5   8  -5   49.10    5.70 
  -5   8   5   51.29    7.10 
   4  -8  -5    6.30    4.10 
  -4  -8   5   18.80    4.00 
  -4  -8   5   14.60    4.00 
  -4  -8   5    9.10    3.80 
   4   8  -5   22.40    4.00 
  -4   8   5   17.50    4.80 
   4   8  -5   12.30    5.30 
  -3  -8   5   16.80    4.40 
   3  -8  -5   21.00    4.40 
  -3  -8   5   20.30    4.10 
  -3  -8   5   13.90    3.70 
   3   8  -5   16.40    4.60 
   3   8  -5   15.00    3.10 
  -3   8   5   26.40    6.00 
  -2  -8   5    2.20    3.40 
   2  -8  -5    3.30    3.20 
  -2  -8   5    3.00    3.60 
  -2  -8   5    5.30    3.20 
   2  -8  -5    5.90    4.70 
  -2   8   5    1.90    4.80 
   2   8  -5   -2.80    4.30 
   2   8  -5   -0.30    2.10 
  -1  -8   5  235.68   10.30 
  -1  -8   5  234.78   10.30 
   1  -8  -5  242.68    9.00 
   1  -8  -5  218.88    9.10 
  -1  -8   5  230.48   10.40 
  -1   8   5  214.98   11.50 
   1   8  -5  252.67    8.80 
   1   8  -5  237.68   12.00 
   0  -8  -5  182.58    7.40 
   0  -8   5  178.48    9.30 
   0  -8   5  173.98    9.30 
   0  -8   5  176.68    9.30 
   0  -8  -5  178.08    8.60 
   0   8   5  196.08   11.30 
   0   8  -5  174.78    8.10 
   0   8  -5  198.68   11.10 
   1  -8   5  149.49    8.70 
  -1  -8  -5  139.09    6.30 
   1  -8   5  137.09    8.80 
   1  -8   5  142.79    8.60 
  -1   8  -5  136.99    8.90 
   1   8   5  138.79    9.90 
  -1   8  -5  139.19    7.60 
  -2  -8  -5   14.60    2.90 
   2  -8   5   21.00    5.30 
   2  -8   5   17.50    4.90 
   2  -8   5   24.50    5.20 
   2   8   5   19.00    5.50 
  -2   8  -5   21.40    4.50 
  -2   8  -5   13.20    5.70 
   3  -8   5    5.90    4.70 
   3  -8   5    5.30    4.60 
   3  -8   5   10.00    5.00 
   3   8   5    8.30    4.40 
  -3   8  -5   11.10    4.10 
  -3   8  -5   -0.40    4.90 
   4  -8   5   15.40    5.50 
   4  -8   5    3.50    5.10 
   4  -8   5    5.80    5.00 
   4   8   5    8.50    4.90 
  -4   8  -5    5.70    4.40 
  -4   8  -5    9.70    6.00 
   5  -8   5   35.80    6.90 
   5  -8   5   36.40    7.40 
   5  -8   5   30.00    5.80 
  -5   8  -5   34.60    7.90 
  -5   8  -5   34.80    6.60 
   7  -9  -5    7.70    5.50 
   7  -9  -5   -2.80    5.00 
  -7  -9   5    5.70    4.50 
  -7  -9   5    2.70    3.90 
  -7   9   5   -3.20    4.70 
   7   9  -5    6.20    4.80 
  -6  -9   5   29.20    5.20 
   6  -9  -5   12.10    5.20 
   6  -9  -5   24.00    6.10 
  -6  -9   5   17.00    4.50 
  -6   9   5   23.90    6.30 
   6   9  -5   17.60    4.80 
  -5  -9   5   54.09    5.90 
  -5  -9   5   42.70    5.30 
   5  -9  -5   35.90    6.20 
   5  -9  -5   36.20    5.90 
  -5   9   5   45.00    7.30 
   5   9  -5   48.20    5.50 
   4  -9  -5   32.70    5.60 
  -4  -9   5   33.80    4.80 
  -4  -9   5   22.80    4.30 
  -4  -9   5   36.20    5.40 
   4   9  -5   21.80    6.10 
  -4   9   5   32.00    6.10 
  -3  -9   5   82.49    6.90 
   3  -9  -5   65.19    6.30 
  -3  -9   5   73.59    6.50 
  -3  -9   5   69.99    6.20 
   3   9  -5   65.39    8.20 
  -3   9   5   55.79    8.00 
  -2  -9   5   91.99    7.40 
  -2  -9   5   98.29    7.20 
  -2  -9   5   92.49    7.20 
   2   9  -5  100.59    9.30 
  -2   9   5   95.89    9.60 
   1  -9  -5  106.69    9.20 
  -1  -9   5   85.69    7.50 
  -1  -9   5  111.99    7.40 
  -1  -9   5  110.29    7.30 
  -1   9   5   86.79    9.20 
   1   9  -5   99.09    8.10 
   0  -9   5   26.00    5.10 
   0  -9   5   37.10    5.70 
   0  -9  -5   35.60    3.60 
   0  -9   5   42.90    6.00 
   0   9  -5   39.70    6.70 
   0   9   5   35.30    6.50 
   1  -9   5   34.20    5.40 
  -1  -9  -5   36.50    3.50 
   1  -9   5   31.00    5.40 
   1  -9   5   36.70    5.70 
   1   9   5   32.60    6.30 
  -1   9  -5   31.30    4.30 
  -1   9  -5   43.80    6.90 
   2  -9   5   50.19    6.60 
   2  -9   5   56.49    6.80 
   2  -9   5   51.99    6.50 
  -2  -9  -5   52.59    4.00 
  -2   9  -5   47.80    6.90 
   2   9   5   47.00    7.10 
  -2   9  -5   53.69    5.70 
   3  -9   5   16.90    5.30 
   3  -9   5   22.90    5.60 
   3  -9   5   17.20    5.60 
   3   9   5   20.70    5.60 
  -3   9  -5   21.00    4.90 
  -3   9  -5   20.20    5.50 
   4  -9   5   16.20    6.00 
   4  -9   5    6.30    5.20 
   4  -9   5   17.10    6.00 
   4   9   5   21.10    5.50 
  -4   9  -5    8.40    5.00 
  -4   9  -5    9.60    6.20 
   6 -10  -5   49.80    7.00 
  -6 -10   5   73.29    6.60 
   6 -10  -5   64.29    8.20 
  -6  10   5   64.69    8.90 
  -5 -10   5   32.80    4.90 
  -5 -10   5   31.60    4.80 
   5 -10  -5   32.10    6.00 
   5 -10  -5   25.10    5.50 
  -5  10   5   35.60    7.40 
   4 -10  -5    9.50    4.30 
  -4 -10   5    8.50    3.80 
  -4 -10   5    8.50    3.80 
   4  10  -5    7.50    4.70 
  -4  10   5    7.40    6.00 
  -3 -10   5   12.00    4.10 
  -3 -10   5   22.70    4.40 
  -3  10   5   26.10    6.60 
   3  10  -5   17.10    6.20 
  -2 -10   5   35.00    5.20 
  -2 -10   5   40.70    5.20 
  -2 -10   5   34.40    5.00 
  -2  10   5   39.00    7.50 
   2  10  -5   32.80    6.10 
  -1 -10   5   96.09    7.50 
  -1 -10   5   96.49    7.80 
  -1 -10   5   91.59    7.00 
   1  10  -5   89.29    9.20 
  -1  10   5   88.69    9.60 
   0 -10   5  124.39    8.40 
   0 -10   5  137.19    8.70 
   0 -10  -5  147.49    7.40 
   0 -10   5  127.49    9.00 
   0  10   5  148.39   11.20 
   0  10  -5  137.89   10.80 
   1 -10   5   98.59    8.00 
   1 -10   5   88.19    7.80 
  -1 -10  -5   94.79    4.70 
   1 -10   5   82.29    7.80 
   1  10   5   97.79    9.90 
  -1  10  -5   81.79    9.20 
   2 -10   5   36.30    6.20 
   2 -10   5   41.90    6.50 
   2 -10   5   34.10    5.90 
  -2 -10  -5   39.00    3.10 
   2  10   5   41.60    7.20 
  -2  10  -5   30.20    7.20 
   3 -10   5    2.40    4.80 
   3 -10   5   14.80    5.60 
   3 -10   5   11.40    5.00 
   3  10   5   11.10    5.30 
  -3  10  -5   15.00    6.40 
  -4 -11   5    8.60    3.70 
   4 -11  -5   -0.10    3.80 
  -4 -11   5    3.50    3.60 
   4  11  -5    6.50    6.10 
  -4  11   5    2.80    5.70 
  -3 -11   5    4.60    3.60 
   3 -11  -5    4.40    3.70 
  -3 -11   5    5.50    3.60 
  -3  11   5    7.20    5.80 
   3  11  -5    9.60    6.10 
  -2 -11   5   27.00    4.90 
   2 -11  -5   24.80    4.10 
  -2 -11   5   20.70    4.40 
  -2  11   5   21.80    6.90 
   2  11  -5   26.00    6.90 
  -1 -11   5   26.10    4.70 
  -1 -11   5   46.30    5.60 
   1  11  -5   22.10    6.70 
  -1  11   5   29.40    6.30 
   0 -11   5   54.49    6.40 
   0 -11   5   44.30    6.10 
   0  11  -5   68.09    9.10 
   0  11   5   54.99    8.70 
  -1 -11  -5    3.20    1.60 
   1 -11   5   10.20    4.60 
   1 -11   5   -3.10    4.40 
   1 -11   5   -1.40    3.90 
   1  11   5    3.50    5.70 
  -1  11  -5    2.60    4.30 
   2 -11   5   20.50    5.50 
   2 -11   5   27.70    6.30 
   2 -11   5   23.30    5.40 
  -2 -11  -5   19.30    1.50 
   2  11   5   27.10    7.10 
  -2  11  -5   19.50    6.50 
  10   0  -6    0.60    5.10 
 -10   0   6    2.50    5.80 
   9   0  -6   33.50    6.50 
  -9   0   6   30.40    5.90 
  -9   0   6   30.70    6.90 
  -8   0   6   -1.60    4.70 
  -8   0   6   -6.70    4.10 
  -8   0   6   -2.30    3.30 
   8   0  -6    3.00    4.60 
  -7   0   6  185.78    9.30 
  -7   0   6  195.18   10.70 
   7   0  -6  191.98    9.90 
  -7   0   6  174.48    9.70 
  -7   0   6  209.28   11.20 
  -6   0   6  175.38   10.00 
  -6   0   6  191.78    9.90 
   6   0  -6  217.48   10.70 
  -6   0   6  218.68   10.00 
  -6   0   6  204.98   10.90 
  -5   0   6  365.56   13.40 
  -5   0   6  335.57   13.20 
  -5   0   6  368.56   13.70 
   5   0  -6  373.26   13.70 
   4   0  -6  252.67   10.80 
  -4   0   6  265.77    7.90 
  -4   0   6  259.07   11.00 
  -4   0   6  269.87   10.90 
   4   0  -6  245.18   10.50 
  -4   0   6  251.67   10.70 
   3   0  -6   12.90    3.90 
   3   0  -6   19.70    3.80 
  -3   0   6   17.90    3.30 
  -3   0   6   13.00    3.30 
  -3   0   6   16.70    3.80 
  -2   0   6  437.66   14.50 
  -2   0   6  446.46   14.50 
   2   0  -6  412.96   14.30 
  -2   0   6  458.25   14.50 
   2   0  -6  461.05   12.00 
   2   0  -6  449.16   14.40 
  -1   0   6    4.50    3.10 
  -1   0   6    6.80    3.50 
   1   0  -6    1.00    2.90 
  -1   0   6   -4.90    2.50 
   1   0  -6    3.60    2.60 
   1   0  -6   -0.20    1.90 
   0   0  -6  159.48    8.10 
   0   0   6  154.68    7.70 
   0   0   6  158.18    7.80 
   0   0   6  143.89    7.40 
   0   0  -6  167.88    8.00 
  -1   0  -6  360.26   12.80 
   1   0   6  336.17   12.40 
  -1   0  -6  356.06   12.90 
   1   0   6  357.06   13.00 
   1   0   6  365.56   12.70 
   2   0   6  371.36   13.80 
   2   0   6  437.36   14.10 
   2   0   6  392.06   13.70 
  -2   0  -6  389.76   13.80 
  -2   0  -6  400.26   14.30 
   3   0   6   28.60    5.10 
   3   0   6   22.80    4.50 
  -3   0  -6   32.50    5.30 
   3   0   6   28.30    5.10 
  -4   0  -6  131.69    9.00 
   4   0   6  121.49    8.00 
   4   0   6  126.89    8.80 
   4   0   6  129.09    7.50 
   5   0   6    9.20    4.30 
  -5   0  -6   14.90    5.20 
   5   0   6   10.90    4.30 
   5   0   6   14.00    5.10 
  -6   0  -6   14.50    5.60 
   6   0   6   11.80    4.90 
   6   0   6    4.30    4.00 
   6   0   6   13.50    5.60 
   7   0   6  161.58   10.10 
  -7   0  -6  148.39   11.50 
 -10   1   6   18.20    6.80 
  -9  -1   6    9.20    5.50 
  -9  -1   6   -1.70    4.90 
   9  -1  -6    3.20    5.40 
  -9  -1   6    2.60    5.30 
  -9   1   6    3.20    5.20 
   9   1  -6    1.70    5.00 
  -9   1   6    2.60    5.60 
  -8  -1   6   45.40    6.70 
   8  -1  -6   41.70    6.80 
  -8  -1   6   41.40    6.90 
  -8  -1   6   40.50    6.40 
   8   1  -6   39.00    6.20 
  -8   1   6   51.79    6.70 
  -8   1   6   33.40    6.30 
  -8   1   6   32.30    6.30 
  -7  -1   6   15.00    5.10 
  -7  -1   6   27.40    5.30 
  -7  -1   6   13.80    4.30 
  -7  -1   6   15.90    4.40 
   7  -1  -6   18.10    5.40 
  -7   1   6   21.10    5.20 
   7   1  -6   17.80    5.00 
  -7   1   6   15.70    5.20 
  -7   1   6   20.20    4.40 
  -7   1   6   19.50    5.00 
  -6  -1   6  225.98   11.10 
  -6  -1   6  253.87   10.90 
  -6  -1   6  229.38   10.80 
   6  -1  -6  220.38   11.20 
  -6   1   6  225.18   11.10 
  -6   1   6  241.48   10.50 
  -6   1   6  236.88   11.20 
   6   1  -6  220.58   10.20 
  -6   1   6  236.48   10.90 
  -5  -1   6  118.69    8.00 
  -5  -1   6  118.39    5.60 
  -5  -1   6  122.19    8.20 
  -5  -1   6  113.19    7.80 
   5  -1  -6  110.09    7.90 
   5  -1  -6  118.89    7.70 
  -5   1   6  110.19    7.70 
  -5   1   6  109.59    7.70 
   5   1  -6  130.89    8.10 
  -5   1   6  120.39    4.70 
  -5   1   6  118.79    7.90 
  -5   1   6  110.89    7.20 
  -4  -1   6   29.70    4.20 
  -4  -1   6   30.20    4.70 
   4  -1  -6   34.20    4.70 
   4  -1  -6   34.00    5.00 
  -4  -1   6   29.60    5.10 
  -4  -1   6   32.00    3.10 
  -4   1   6   33.00    4.60 
  -4   1   6   34.30    2.00 
  -4   1   6   32.40    5.00 
  -4   1   6   29.50    5.10 
  -4   1   6   33.50    4.70 
   4   1  -6   31.80    4.90 
   3  -1  -6  208.18    9.00 
  -3  -1   6  214.78    9.10 
   3  -1  -6  222.08    9.40 
  -3  -1   6  213.18    9.20 
  -3  -1   6  214.88    9.50 
   3   1  -6  212.78    9.50 
  -3   1   6  212.18    9.20 
   3   1  -6  217.38    9.40 
   3   1  -6  226.08    7.40 
  -3   1   6  209.18    9.20 
  -3   1   6  232.08    9.90 
   2  -1  -6  212.48    5.50 
  -2  -1   6  202.98    8.60 
   2  -1  -6  197.28    8.70 
  -2  -1   6  183.88    8.60 
  -2  -1   6  202.88    8.60 
   2  -1  -6  197.78    8.50 
   2   1  -6  191.18    8.80 
  -2   1   6  211.28    8.90 
  -2   1   6  210.88    8.80 
  -2   1   6  200.08    9.00 
   2   1  -6  214.88    7.30 
   2   1  -6  215.58    9.30 
   1  -1  -6   69.89    5.60 
  -1  -1   6   78.79    6.00 
   1  -1  -6   68.79    5.10 
  -1  -1   6   69.89    6.10 
   1  -1  -6   71.09    3.60 
  -1  -1   6   68.79    5.70 
   1   1  -6   72.29    4.60 
  -1   1   6   65.39    5.40 
   1   1  -6   66.79    5.80 
   1   1  -6   72.49    5.70 
  -1   1   6   63.29    4.70 
  -1   1   6   77.49    5.20 
   0  -1   6   53.89    5.10 
   0  -1  -6   39.40    4.80 
   0  -1  -6   51.59    5.00 
   0  -1   6   47.60    4.90 
   0  -1   6   53.99    5.30 
   0   1   6   45.50    4.60 
   0   1   6   41.90    4.90 
   0   1  -6   58.59    5.00 
   0   1  -6   48.60    4.20 
   0   1   6   51.29    4.80 
   0   1  -6   49.30    3.80 
   0   1  -6   41.50    5.00 
  -1  -1  -6  152.38    7.80 
  -1  -1  -6  159.98    7.50 
   1  -1   6  164.38    8.30 
   1  -1   6  145.39    8.30 
   1  -1   6  156.78    8.20 
  -1   1  -6  159.28    8.40 
  -1   1  -6  152.68    8.10 
   1   1   6  143.89    7.40 
   1   1   6  144.39    7.40 
  -1   1  -6  160.28    6.40 
   1   1   6  147.69    8.00 
   2  -1   6  185.88    9.60 
  -2  -1  -6  180.78    8.90 
  -2  -1  -6  171.48    8.90 
   2  -1   6  183.88    9.10 
   2  -1   6  184.08    9.10 
   2   1   6  164.98    8.80 
  -2   1  -6  172.78    7.10 
  -2   1  -6  180.58    9.20 
   2   1   6  177.38    8.50 
   2   1   6  184.08    8.50 
  -2   1  -6  191.18    9.40 
   3  -1   6   30.20    5.00 
   3  -1   6   35.50    5.10 
   3  -1   6   28.50    4.70 
  -3  -1  -6   28.80    5.10 
   3   1   6   35.30    5.00 
   3   1   6   30.40    4.50 
  -3   1  -6   27.90    5.40 
   4  -1   6   37.60    6.10 
  -4  -1  -6   22.80    5.00 
   4  -1   6   30.50    5.10 
   4   1   6   30.30    5.00 
   4   1   6   26.50    5.10 
  -4   1  -6   24.10    5.50 
   4   1   6   32.80    4.70 
   5  -1   6  254.57   12.40 
   5  -1   6  278.47   11.30 
   5  -1   6  280.87   12.50 
  -5  -1  -6  283.17   12.90 
   5   1   6  261.17   11.90 
   5   1   6  276.47   12.00 
   5   1   6  262.37   11.70 
  -5   1  -6  275.37   13.20 
   5   1   6  268.17   12.60 
   6  -1   6  111.19    8.80 
  -6  -1  -6  132.29    9.90 
   6  -1   6  107.69    8.80 
   6   1   6  105.99    8.40 
  -6   1  -6  110.69    9.90 
   6   1   6  117.29    8.70 
  -7  -1  -6   55.89    7.90 
   7  -1   6   41.70    6.60 
   7  -1   6   34.60    7.40 
   7   1   6   43.00    6.30 
  -7   1  -6   29.00    7.10 
   7   1   6   38.00    6.70 
  -9  -2   6   32.50    6.40 
   9  -2  -6   22.40    6.30 
  -9  -2   6   17.30    5.80 
  -9  -2   6   24.10    6.40 
   9   2  -6   21.00    6.10 
   9   2  -6   18.90    6.00 
  -9   2   6   24.40    6.30 
  -9   2   6   23.80    5.60 
   8  -2  -6   49.40    7.40 
  -8  -2   6   43.40    5.90 
  -8  -2   6   51.69    7.20 
  -8  -2   6   44.00    7.00 
  -8   2   6   52.49    7.50 
  -8   2   6   40.70    6.80 
   8   2  -6   46.40    6.40 
   7  -2  -6  120.79    9.40 
  -7  -2   6  122.69    8.80 
  -7  -2   6  119.09    8.10 
  -7  -2   6  117.19    8.80 
  -7   2   6  128.19    8.10 
  -7   2   6  114.69    8.00 
  -7   2   6  105.49    9.30 
  -7   2   6  110.79    7.70 
   7   2  -6  132.49    8.60 
  -6  -2   6  188.58   10.10 
  -6  -2   6  180.38   10.20 
  -6  -2   6  205.88   10.40 
   6  -2  -6  196.38   10.70 
  -6   2   6  204.88    9.70 
  -6   2   6  198.48    9.70 
  -6   2   6  171.98    9.80 
  -6   2   6  211.48   10.20 
   6   2  -6  195.48    9.80 
   5  -2  -6  211.78   10.30 
  -5  -2   6  190.58    9.80 
  -5  -2   6  204.58    9.60 
  -5  -2   6  212.28   10.00 
   5  -2  -6  194.48    9.80 
  -5   2   6  200.98    5.90 
  -5   2   6  198.98    9.90 
  -5   2   6  185.98    9.60 
  -5   2   6  212.48   10.40 
   5   2  -6  195.58    9.70 
  -5   2   6  211.68    9.90 
  -4  -2   6   21.10    4.40 
  -4  -2   6   40.80    4.20 
  -4  -2   6   29.20    4.70 
  -4  -2   6   30.90    5.10 
   4  -2  -6   26.50    4.80 
   4  -2  -6   30.50    4.20 
  -4   2   6   28.20    3.90 
  -4   2   6   29.90    4.40 
   4   2  -6   30.60    4.70 
  -4   2   6   30.10    5.30 
  -4   2   6   26.80    4.40 
   3  -2  -6   23.90    4.30 
  -3  -2   6   17.00    3.40 
  -3  -2   6    8.70    3.10 
  -3  -2   6   19.40    4.20 
  -3  -2   6   14.00    2.80 
   3  -2  -6   14.20    3.70 
  -3   2   6   13.40    4.20 
  -3   2   6   12.00    3.70 
  -3   2   6   14.00    3.50 
  -3   2   6   13.30    3.50 
   3   2  -6   13.80    3.90 
   3   2  -6   13.80    3.00 
  -2  -2   6  106.59    7.10 
  -2  -2   6  111.49    6.80 
   2  -2  -6   99.39    6.60 
  -2  -2   6   99.39    6.70 
   2  -2  -6   80.59    5.90 
   2   2  -6   97.19    5.50 
  -2   2   6   98.69    6.40 
  -2   2   6  102.49    7.70 
  -2   2   6   90.89    5.90 
  -2   2   6  102.99    6.00 
   2   2  -6   93.39    5.90 
   1  -2  -6  422.86   13.80 
   1  -2  -6  434.36   14.00 
   1  -2  -6  435.66   14.00 
  -1  -2   6  447.76   14.50 
  -1  -2   6  412.96   14.20 
  -1  -2   6  411.36   14.50 
  -1   2   6  400.96   13.20 
   1   2  -6  423.06   13.10 
   1   2  -6  411.06   14.10 
  -1   2   6  394.16   13.40 
  -1   2   6  424.26   15.30 
  -1   2   6  419.76   13.90 
   1   2  -6  415.26   14.10 
   0  -2   6  468.35   16.00 
   0  -2   6  489.15   15.80 
   0  -2  -6  480.05   15.20 
   0  -2  -6  461.45   15.00 
   0  -2   6  483.35   15.70 
   0  -2  -6  471.85   15.20 
   0   2   6  484.95   14.60 
   0   2  -6  467.15   15.50 
   0   2   6  477.25   15.30 
   0   2   6  474.05   14.90 
   0   2  -6  471.15   15.60 
   0   2  -6  488.75   15.00 
   0   2   6  455.65   16.10 
   1  -2   6  231.68   10.10 
  -1  -2  -6  210.48    9.40 
   1  -2   6  208.48   10.20 
  -1  -2  -6  238.08    9.60 
  -1  -2  -6  225.78    9.50 
   1  -2   6  231.68    9.70 
  -1   2  -6  221.98   10.00 
   1   2   6  223.98   10.80 
   1   2   6  243.38    9.20 
   1   2   6  210.28    8.90 
   1   2   6  220.68    9.50 
  -1   2  -6  216.78   10.00 
   2  -2   6  206.98   10.30 
  -2  -2  -6  195.38    9.20 
   2  -2   6  184.08    9.00 
  -2  -2  -6  181.68    8.90 
   2  -2   6  183.48    8.90 
  -2   2  -6  205.48    9.80 
  -2   2  -6  206.18   10.00 
   2   2   6  188.68    9.10 
  -2   2  -6  200.28    7.00 
   2   2   6  205.18    8.40 
   2   2   6  191.68    8.50 
   2   2   6  201.88   10.20 
   3  -2   6    1.30    4.20 
   3  -2   6    5.90    4.20 
   3  -2   6    4.80    3.90 
  -3  -2  -6    4.70    3.80 
   3   2   6    3.20    3.30 
   3   2   6   -3.00    3.30 
  -3   2  -6   -1.10    4.20 
   3   2   6    6.30    4.50 
  -4  -2  -6   21.40    5.00 
   4  -2   6   30.70    5.30 
   4  -2   6   19.70    5.10 
   4   2   6   25.90    5.00 
   4   2   6   24.90    4.40 
  -4   2  -6   25.70    5.70 
   4   2   6   32.80    5.20 
   4   2   6   28.00    5.10 
   5  -2   6    9.50    4.80 
  -5  -2  -6   -2.40    4.00 
   5  -2   6   -7.10    4.40 
   5   2   6   -2.50    3.30 
   5   2   6    1.40    3.70 
   5   2   6   -0.30    4.10 
  -5   2  -6   -2.50    4.50 
   6  -2   6   12.90    6.00 
   6  -2   6    5.50    4.90 
  -6  -2  -6   19.90    5.80 
  -6   2  -6    3.60    5.20 
   6   2   6   22.80    5.40 
   6   2   6   14.60    4.40 
   7  -2   6   59.19    7.90 
   7  -2   6   62.39    8.00 
  -7  -2  -6   89.09    9.00 
  -7   2  -6   54.89    8.40 
   7   2   6   65.79    8.00 
   9  -3  -6   31.30    7.00 
  -9  -3   6   31.70    6.60 
  -9  -3   6   47.20    7.40 
  -9  -3   6   46.90    7.20 
  -9   3   6   38.50    7.00 
   9   3  -6   34.40    6.10 
  -9   3   6   45.40    8.00 
   9   3  -6   36.10    7.40 
  -8  -3   6    5.00    4.40 
   8  -3  -6   -0.40    4.90 
  -8  -3   6   -1.20    4.50 
  -8  -3   6    5.50    4.50 
   8   3  -6   -8.40    4.90 
  -8   3   6   -0.20    3.90 
   8   3  -6    3.50    4.10 
  -8   3   6   -2.40    4.30 
  -8   3   6   -2.50    3.50 
  -7  -3   6   -4.50    4.20 
  -7  -3   6   -0.60    4.20 
   7  -3  -6    0.00    3.40 
  -7  -3   6    0.20    3.10 
  -7   3   6    5.00    4.00 
  -7   3   6    6.70    4.30 
   7   3  -6    5.00    4.00 
  -7   3   6    1.90    4.80 
  -6  -3   6    8.90    4.30 
  -6  -3   6    5.20    3.60 
   6  -3  -6    7.20    4.70 
  -6  -3   6    7.90    4.30 
  -6   3   6    4.40    3.90 
  -6   3   6    5.20    3.80 
  -6   3   6    8.10    4.70 
   6   3  -6    5.80    4.00 
  -6   3   6    2.00    3.80 
  -5  -3   6   25.50    4.80 
   5  -3  -6   21.90    4.20 
  -5  -3   6   32.10    5.10 
  -5  -3   6   27.70    4.40 
  -5   3   6   41.60    5.20 
  -5   3   6   37.30    5.40 
  -5   3   6   35.80    5.00 
  -5   3   6   37.20    5.10 
   5   3  -6   34.60    5.00 
  -5   3   6   30.20    1.20 
   4  -3  -6   59.39    5.40 
   4  -3  -6   49.00    5.70 
  -4  -3   6   59.89    6.20 
  -4  -3   6   56.39    5.40 
  -4  -3   6   58.69    5.90 
  -4   3   6   68.29    5.90 
   4   3  -6   62.79    5.80 
  -4   3   6   45.80    5.90 
   4   3  -6   52.49    5.00 
  -4   3   6   48.40    5.30 
  -4   3   6   55.49    5.40 
  -3  -3   6  415.66   14.50 
   3  -3  -6  423.96   14.40 
  -3  -3   6  425.56   14.70 
   3  -3  -6  429.06   14.60 
  -3  -3   6  435.36   14.70 
   3   3  -6  447.06   14.50 
   3   3  -6  423.16   13.80 
  -3   3   6  408.96   14.00 
  -3   3   6  449.16   14.70 
  -3   3   6  435.66   15.70 
  -3   3   6  431.16   14.00 
  -2  -3   6  126.89    7.10 
   2  -3  -6  124.69    7.20 
  -2  -3   6  128.29    7.60 
  -2  -3   6  130.39    7.60 
   2  -3  -6  129.59    7.10 
   2  -3  -6  117.09    6.80 
  -2   3   6  132.09    8.60 
  -2   3   6  132.89    6.70 
   2   3  -6  138.39    7.50 
   2   3  -6  132.29    6.70 
  -2   3   6  145.59    7.30 
  -2   3   6  125.29    6.50 
  -1  -3   6  217.48    9.10 
  -1  -3   6  196.38    9.40 
  -1  -3   6  223.48   10.00 
   1  -3  -6  222.78    9.00 
   1  -3  -6  201.38    8.80 
   1  -3  -6  211.08    9.00 
   1  -3  -6  205.08    5.80 
  -1   3   6  205.78    7.90 
   1   3  -6  214.78    9.00 
  -1   3   6  209.78    8.60 
   1   3  -6  229.58    9.60 
  -1   3   6  214.58    8.20 
  -1   3   6  219.68    8.90 
  -1   3   6  216.48   10.00 
   0  -3  -6   67.29    5.50 
   0  -3   6   60.29    5.50 
   0  -3  -6   58.89    5.20 
   0  -3  -6   58.69    5.20 
   0  -3   6   63.89    5.70 
   0  -3   6   64.99    6.30 
   0   3  -6   54.19    5.60 
   0   3  -6   63.89    3.30 
   0   3   6   60.59    5.20 
   0   3   6   57.39    6.50 
   0   3   6   68.69    5.20 
   0   3  -6   71.09    5.70 
   0   3   6   64.69    4.60 
   0   3   6   65.69    5.00 
   1  -3   6  216.18   10.10 
  -1  -3  -6  227.38    9.20 
   1  -3   6  216.38   10.00 
  -1  -3  -6  224.08    9.50 
   1  -3   6  207.48    9.40 
  -1  -3  -6  216.18    9.20 
   1  -3   6  209.38   10.30 
  -1   3  -6  196.68    9.50 
  -1   3  -6  213.38   10.00 
   1   3   6  208.08    8.30 
   1   3   6  201.48    7.90 
   1   3   6  231.18   10.90 
   1   3   6  214.28    8.70 
  -1   3  -6  214.98    6.50 
   1   3   6  216.08    9.30 
  -2  -3  -6   17.50    3.70 
  -2  -3  -6   20.30    4.00 
  -2  -3  -6   16.50    4.00 
   2  -3   6   18.10    4.60 
   2  -3   6   15.80    4.80 
   2  -3   6   21.90    4.70 
   2   3   6   22.90    3.20 
  -2   3  -6   18.70    4.80 
   2   3   6   24.10    4.20 
   2   3   6   25.10    4.70 
   2   3   6   19.30    4.80 
   2   3   6   21.20    3.60 
  -3  -3  -6   57.99    6.00 
   3  -3   6   54.39    6.10 
   3  -3   6   59.49    6.60 
   3  -3   6   54.69    6.90 
  -3   3  -6   66.89    6.90 
   3   3   6   60.79    4.90 
   3   3   6   54.69    6.30 
   3   3   6   54.99    5.80 
   4  -3   6   86.29    7.90 
  -4  -3  -6   79.69    7.10 
   4  -3   6   89.49    7.90 
   4  -3   6   73.79    8.10 
   4   3   6   86.69    8.10 
  -4   3  -6   78.99    7.30 
   4   3   6   88.59    7.60 
   4   3   6   77.79    6.00 
   5  -3   6   84.19    8.20 
  -5  -3  -6   79.69    7.60 
   5  -3   6   86.39    8.50 
   5   3   6   77.79    6.90 
  -5   3  -6   76.99    7.70 
   5   3   6   94.19    8.40 
   5   3   6   75.29    5.90 
   6  -3   6   83.39    8.50 
   6  -3   6   98.29   10.00 
  -6  -3  -6   83.79    8.30 
   6   3   6   90.29    9.00 
  -6   3  -6   82.59    9.10 
   9  -4  -6   91.89    9.90 
  -9  -4   6   89.39    9.30 
  -9  -4   6   83.59    9.00 
  -9  -4   6   92.99    9.10 
  -9   4   6   99.59   10.10 
  -9   4   6   96.99    9.20 
   9   4  -6   81.69    7.70 
   9   4  -6   71.99    9.10 
  -8  -4   6   33.40    6.30 
  -8  -4   6   39.00    6.70 
  -8  -4   6   38.90    6.20 
   8  -4  -6   32.40    6.70 
  -8   4   6   34.50    6.40 
   8   4  -6   22.30    5.30 
  -8   4   6   35.90    6.20 
   8   4  -6   33.30    6.70 
  -8   4   6   44.40    5.80 
  -7  -4   6   34.00    5.60 
  -7  -4   6   32.00    6.00 
   7  -4  -6   34.30    6.50 
  -7  -4   6   40.00    6.20 
  -7   4   6   39.10    5.50 
   7   4  -6   35.10    6.00 
   7   4  -6   39.90    5.30 
  -7   4   6   35.50    5.80 
  -7   4   6   30.90    6.30 
  -6  -4   6  133.29    8.80 
   6  -4  -6  143.79    9.60 
  -6  -4   6  152.28    9.20 
  -6  -4   6  132.69    8.70 
  -6   4   6  141.19    9.50 
   6   4  -6  124.89    7.80 
  -6   4   6  135.49    8.50 
   6   4  -6  143.99    9.00 
  -6   4   6  151.68    9.60 
  -5  -4   6  200.08    9.80 
  -5  -4   6  189.08    9.70 
   5  -4  -6  177.58    9.20 
  -5  -4   6  190.28    9.60 
  -5   4   6  191.48   10.20 
   5   4  -6  174.58    8.80 
  -5   4   6  169.98    9.60 
  -5   4   6  177.88    9.00 
  -4  -4   6   27.10    4.90 
  -4  -4   6   24.30    4.50 
  -4  -4   6   23.70    4.70 
   4  -4  -6   25.30    4.70 
   4  -4  -6   24.00    4.60 
   4   4  -6   24.00    4.20 
  -4   4   6   22.00    4.00 
  -4   4   6   31.30    5.40 
  -4   4   6   31.40    4.90 
   4   4  -6   28.60    4.50 
  -4   4   6   25.50    4.10 
  -3  -4   6  113.29    7.40 
  -3  -4   6  104.49    6.70 
   3  -4  -6  128.49    7.10 
  -3  -4   6  120.29    7.50 
   3  -4  -6  109.29    7.30 
   3   4  -6  125.09    7.40 
  -3   4   6  100.39    8.10 
  -3   4   6  108.39    6.70 
  -3   4   6  121.49    7.20 
   3   4  -6  124.39    7.20 
  -3   4   6  111.89    6.90 
  -2  -4   6   25.80    4.80 
   2  -4  -6   27.90    4.10 
   2  -4  -6   29.60    4.30 
  -2  -4   6   26.10    4.40 
  -2  -4   6   27.70    4.60 
   2  -4  -6   30.50    4.70 
  -2   4   6   25.90    5.40 
  -2   4   6   26.90    4.10 
  -2   4   6   29.60    3.80 
  -2   4   6   28.10    3.50 
  -2   4   6   31.80    4.10 
   2   4  -6   25.80    4.30 
   2   4  -6   30.30    4.40 
   1  -4  -6  143.89    7.10 
  -1  -4   6  131.89    7.30 
  -1  -4   6  148.29    8.20 
   1  -4  -6  156.08    7.70 
  -1  -4   6  143.99    7.70 
   1  -4  -6  144.39    7.20 
   1  -4  -6  143.69    4.40 
  -1   4   6  145.39    6.60 
   1   4  -6  139.09    7.70 
  -1   4   6  144.29    6.60 
   1   4  -6  135.99    7.60 
  -1   4   6  139.09    8.20 
  -1   4   6  124.49    5.90 
  -1   4   6  139.79    7.00 
   0  -4   6  682.23   21.30 
   0  -4  -6  677.73   18.00 
   0  -4   6  640.84   20.40 
   0  -4  -6  692.93   19.80 
   0  -4   6  677.33   21.00 
   0  -4  -6  679.23   19.80 
   0  -4   6  665.43   20.90 
   0  -4  -6  668.33   19.70 
   0   4   6  695.03   19.70 
   0   4  -6  666.63   16.30 
   0   4   6  673.03   21.90 
   0   4   6  697.73   18.50 
   0   4  -6  717.03   20.80 
   0   4   6  715.03   19.30 
   0   4  -6  700.43   20.70 
   1  -4   6  139.89    8.40 
  -1  -4  -6  137.69    7.20 
   1  -4   6  131.99    8.30 
   1  -4   6  123.19    8.10 
   1  -4   6  135.59    8.70 
  -1  -4  -6  127.99    6.80 
  -1  -4  -6  140.19    7.40 
   1   4   6  129.59    8.00 
  -1   4  -6  129.49    8.30 
  -1   4  -6  121.79    8.10 
   1   4   6  128.59    5.80 
   1   4   6  140.39    6.90 
   1   4   6  125.89    6.20 
   1   4   6  132.99    5.50 
   2  -4   6   29.40    4.50 
  -2  -4  -6   34.50    4.50 
  -2  -4  -6   31.30    4.30 
   2  -4   6   26.30    5.00 
   2  -4   6   39.80    6.00 
  -2   4  -6   30.90    5.40 
   2   4   6   23.00    4.90 
   2   4   6   28.90    3.20 
   2   4   6   26.20    4.00 
   3  -4   6  163.18   10.30 
  -3  -4  -6  174.28    9.10 
   3  -4   6  138.79    9.40 
   3  -4   6  149.19    8.70 
   3   4   6  171.38    6.60 
  -3   4  -6  158.88    9.70 
   3   4   6  158.08    9.30 
  -4  -4  -6  142.79    8.60 
   4  -4   6  146.69    9.80 
   4  -4   6  158.38   10.70 
   4  -4   6  161.38   10.30 
   4   4   6  151.08    9.20 
  -4   4  -6  174.28   10.40 
  -5  -4  -6   42.90    6.00 
   5  -4   6   26.40    6.00 
   5  -4   6   33.20    6.10 
  -5   4  -6   45.60    7.00 
   5   4   6   42.20    8.40 
   5   4   6   29.70    6.10 
   6  -4   6   11.80    5.70 
  -6  -4  -6   -1.40    4.40 
   6  -4   6    7.50    4.70 
  -6   4  -6   25.40    6.40 
   6   4   6   -0.70    5.00 
  -9  -5   6   89.59    9.20 
  -9  -5   6  131.89   10.10 
   9  -5  -6   85.59    9.80 
  -9  -5   6  115.99   10.00 
  -9   5   6  109.79    9.70 
   9   5  -6  105.09   10.20 
  -9   5   6  105.99   10.00 
  -8  -5   6   16.40    5.30 
   8  -5  -6   23.30    6.50 
  -8  -5   6   17.60    5.40 
  -8  -5   6   14.50    5.40 
   8   5  -6   15.70    4.50 
  -8   5   6   27.80    5.70 
  -8   5   6   28.40    5.70 
   8   5  -6   21.50    6.10 
  -8   5   6   23.10    4.90 
  -7  -5   6   21.50    5.10 
   7  -5  -6    8.60    5.50 
  -7  -5   6   26.60    5.40 
  -7  -5   6   20.80    5.40 
   7   5  -6   12.40    4.30 
  -7   5   6   22.10    4.90 
  -7   5   6   16.90    4.60 
   7   5  -6   17.00    5.30 
  -7   5   6   12.90    4.70 
  -6  -5   6   44.00    6.00 
   6  -5  -6   39.40    6.30 
  -6  -5   6   35.50    5.50 
  -6  -5   6   22.10    5.00 
  -6   5   6   36.30    5.40 
   6   5  -6   27.30    5.30 
  -6   5   6   37.50    6.00 
  -6   5   6   31.00    5.60 
   6   5  -6   37.10    5.10 
  -5  -5   6    6.90    3.90 
  -5  -5   6    8.80    4.10 
   5  -5  -6   10.00    4.40 
  -5  -5   6    9.60    3.90 
  -5   5   6    7.20    3.50 
  -5   5   6    7.40    4.00 
  -5   5   6    4.80    4.30 
   5   5  -6    5.30    3.60 
   5   5  -6    0.80    3.50 
  -4  -5   6   15.80    4.10 
  -4  -5   6    4.50    3.90 
   4  -5  -6    1.90    3.90 
  -4  -5   6   11.50    4.20 
   4   5  -6    7.70    3.50 
  -4   5   6   14.70    4.90 
  -4   5   6    9.40    3.90 
  -4   5   6    6.60    3.60 
   4   5  -6   13.50    3.90 
   4   5  -6   11.90    4.20 
  -3  -5   6  284.87   11.40 
   3  -5  -6  254.97   10.70 
  -3  -5   6  244.68   10.80 
  -3  -5   6  247.28   10.80 
   3  -5  -6  262.27   10.50 
   3  -5  -6  247.18   10.20 
  -3   5   6  265.67    9.60 
   3   5  -6  248.48   10.80 
   3   5  -6  240.28   10.30 
  -3   5   6  258.47   12.20 
  -3   5   6  218.58   11.40 
   3   5  -6  260.97    9.20 
  -3   5   6  229.08    9.70 
  -3   5   6  255.87   10.30 
   2  -5  -6  359.06   12.50 
   2  -5  -6  364.36   12.80 
  -2  -5   6  346.97   13.20 
  -2  -5   6  363.26   13.50 
   2  -5  -6  346.57   12.70 
  -2  -5   6  386.26   13.20 
  -2   5   6  356.86   11.80 
   2   5  -6  344.97   13.20 
   2   5  -6  342.97   10.50 
  -2   5   6  354.76   12.50 
  -2   5   6  345.17   14.50 
   2   5  -6  363.86   12.90 
  -2   5   6  346.47   11.10 
   1  -5  -6  233.48    6.90 
   1  -5  -6  235.18    9.30 
  -1  -5   6  239.58   10.40 
   1  -5  -6  238.08    9.80 
  -1  -5   6  251.17   11.00 
   1  -5  -6  217.68    9.40 
  -1  -5   6  224.08    9.80 
  -1   5   6  226.88    9.00 
   1   5  -6  233.68    6.50 
  -1   5   6  232.38    7.80 
   1   5  -6  229.88   10.50 
   1   5  -6  252.57   10.20 
  -1   5   6  234.58    7.60 
  -1   5   6  228.58   11.70 
   0  -5  -6   -2.90    2.70 
   0  -5   6    0.90    2.70 
   0  -5  -6    1.60    2.80 
   0  -5   6   -1.50    2.80 
   0  -5   6   -4.10    3.50 
   0  -5  -6    0.10    2.00 
   0  -5   6    1.20    4.20 
   0   5   6    0.00    2.70 
   0   5   6    0.30    2.00 
   0   5  -6    0.70    3.40 
   0   5   6   -7.40    3.90 
   0   5   6   -3.20    1.50 
   0   5   6    1.90    1.60 
   0   5  -6    3.90    3.90 
   1  -5   6  292.97   12.80 
  -1  -5  -6  295.17   11.20 
   1  -5   6  302.87   12.60 
   1  -5   6  311.17   12.70 
  -1  -5  -6  299.87   10.90 
  -1   5  -6  296.17   12.10 
   1   5   6  291.57    7.70 
  -1   5  -6  282.97   12.50 
   1   5   6  291.47   10.30 
   1   5   6  305.37   13.20 
  -2  -5  -6   81.29    6.50 
   2  -5   6   74.29    6.80 
   2  -5   6   83.99    8.00 
   2  -5   6   76.69    7.40 
   2   5   6   87.99    7.80 
  -2   5  -6   84.99    7.90 
  -2   5  -6   88.29    7.50 
   3  -5   6   79.49    7.90 
   3  -5   6   92.99    8.60 
   3  -5   6   80.69    7.40 
  -3  -5  -6   86.89    7.10 
  -3   5  -6   87.09    7.80 
   3   5   6   87.69    7.90 
  -3   5  -6   88.19    8.10 
   4  -5   6   96.49    8.80 
  -4  -5  -6   83.29    7.00 
   4  -5   6   77.69    8.00 
   4  -5   6   80.09    8.70 
  -4   5  -6   65.79    7.60 
   4   5   6   67.99    7.20 
  -5  -5  -6   67.59    7.10 
   5  -5   6   61.29    8.30 
   5  -5   6   45.10    7.10 
  -5   5  -6   50.19    7.50 
   6  -5   6   35.30    6.90 
   6  -5   6   23.80    7.10 
  -6   5  -6   43.50    7.40 
   6   5   6   24.70    5.90 
   8  -6  -6   45.00    7.50 
   8  -6  -6   48.20    7.70 
  -8  -6   6   48.40    6.80 
  -8  -6   6   44.90    6.90 
  -8  -6   6   37.60    7.10 
  -8   6   6   39.00    6.50 
  -8   6   6   50.89    7.70 
  -8   6   6   35.70    6.60 
   8   6  -6   40.90    6.90 
  -7  -6   6   40.20    6.30 
  -7  -6   6   41.20    6.10 
  -7  -6   6   42.80    6.40 
   7  -6  -6   36.80    6.80 
  -7   6   6   49.99    6.70 
  -7   6   6   39.50    6.10 
   7   6  -6   44.70    6.80 
  -7   6   6   47.20    7.10 
  -6  -6   6   56.39    6.90 
  -6  -6   6   68.19    7.10 
   6  -6  -6   74.99    7.80 
  -6  -6   6   73.89    7.30 
   6   6  -6   71.99    6.90 
  -6   6   6   66.39    7.40 
   6   6  -6   69.69    5.80 
  -6   6   6   62.49    7.20 
  -6   6   6   68.39    6.30 
  -5  -6   6   26.70    4.80 
  -5  -6   6   26.50    5.00 
   5  -6  -6   25.80    5.40 
  -5  -6   6   17.50    4.70 
  -5   6   6   27.30    4.60 
  -5   6   6   22.10    5.70 
   5   6  -6   16.50    4.30 
   5   6  -6   29.70    4.40 
  -5   6   6   24.80    5.00 
  -4  -6   6    1.50    3.60 
  -4  -6   6    0.50    3.30 
  -4  -6   6    6.90    4.00 
   4  -6  -6   -5.30    3.30 
   4   6  -6   -1.40    2.80 
   4   6  -6    2.40    3.30 
  -4   6   6    3.70    3.50 
  -4   6   6    2.30    4.40 
   4   6  -6    0.70    3.90 
  -4   6   6   -2.30    2.90 
  -3  -6   6   83.69    6.70 
  -3  -6   6   72.79    6.70 
   3  -6  -6   79.89    6.60 
  -3  -6   6   75.49    6.70 
  -3   6   6   75.79    6.00 
   3   6  -6   84.89    6.30 
   3   6  -6   76.59    5.20 
  -3   6   6   87.69    8.40 
   3   6  -6   93.09    7.50 
  -3   6   6   77.99    5.20 
  -2  -6   6   18.50    4.40 
  -2  -6   6   14.30    4.10 
   2  -6  -6   21.60    4.00 
  -2  -6   6   15.00    4.20 
   2  -6  -6   22.80    3.90 
   2   6  -6   20.10    2.50 
   2   6  -6   16.30    4.90 
  -2   6   6   16.30    2.50 
  -2   6   6   18.90    5.60 
  -2   6   6   17.30    3.80 
   2   6  -6   12.60    3.90 
   1  -6  -6   27.90    4.00 
   1  -6  -6   26.90    4.00 
  -1  -6   6   25.70    4.80 
  -1  -6   6   20.10    4.80 
  -1  -6   6   22.30    4.60 
   1   6  -6   23.10    4.60 
  -1   6   6   30.80    5.30 
  -1   6   6   31.70    4.00 
   1   6  -6   32.20    5.30 
   0  -6  -6  418.16   13.50 
   0  -6   6  365.16   14.80 
   0  -6  -6  406.66   13.30 
   0  -6   6  392.56   14.70 
   0  -6   6  410.76   15.10 
   0   6  -6  411.16   14.40 
   0   6   6  399.26   16.10 
   0   6  -6  405.16   15.30 
  -1  -6  -6   62.59    5.20 
  -1  -6  -6   65.19    5.40 
   1  -6   6   63.49    7.00 
   1  -6   6   47.20    6.10 
   1  -6   6   49.30    6.20 
   1   6   6   60.39    7.00 
  -1   6  -6   57.79    6.00 
  -1   6  -6   45.30    5.90 
   2  -6   6   33.70    5.70 
  -2  -6  -6   39.50    4.80 
   2  -6   6   25.80    5.40 
   2  -6   6   32.60    5.30 
  -2   6  -6   40.10    5.70 
   2   6   6   41.70    6.20 
  -2   6  -6   32.00    6.00 
  -3  -6  -6  118.59    7.20 
   3  -6   6  131.39    9.50 
   3  -6   6  125.09    9.20 
   3  -6   6  118.79    9.50 
   3   6   6  123.79    8.80 
  -3   6  -6  136.49    9.10 
  -3   6  -6  122.89    8.90 
   4  -6   6   27.90    5.60 
   4  -6   6   29.60    5.40 
   4  -6   6   39.30    6.60 
   4   6   6   38.30    6.00 
  -4   6  -6   15.00    6.40 
  -4   6  -6   25.20    5.90 
   5  -6   6   18.30    6.30 
   5  -6   6   25.60    6.80 
  -5   6  -6   30.50    6.50 
  -8  -7   6    6.00    4.70 
   8  -7  -6   -4.40    5.10 
  -8  -7   6    2.10    4.80 
  -8  -7   6   11.70    5.20 
   8  -7  -6    1.40    5.50 
  -8   7   6   10.10    5.00 
   8   7  -6    7.00    5.00 
  -8   7   6    3.20    4.70 
   7  -7  -6   23.90    6.10 
  -7  -7   6   26.00    5.60 
  -7  -7   6   20.50    5.10 
  -7  -7   6   24.90    5.40 
  -7   7   6   26.60    5.80 
   7   7  -6   23.60    5.80 
  -7   7   6   21.60    5.20 
   6  -7  -6   34.00    6.40 
  -6  -7   6   34.70    5.60 
  -6  -7   6   37.00    5.80 
  -6  -7   6   34.80    5.50 
  -6   7   6   43.00    6.90 
  -6   7   6   32.80    5.10 
   6   7  -6   37.40    5.80 
  -5  -7   6   34.70    5.30 
   5  -7  -6   31.20    5.80 
  -5  -7   6   36.00    5.70 
  -5  -7   6   40.20    5.50 
   5   7  -6   35.70    5.00 
  -5   7   6   31.30    4.50 
  -5   7   6   33.40    6.30 
  -4  -7   6   82.19    7.10 
   4  -7  -6   75.39    6.90 
  -4  -7   6   76.49    7.10 
  -4  -7   6   84.09    7.20 
  -4   7   6   63.69    5.00 
  -4   7   6   80.09    8.30 
   4   7  -6   80.19    6.00 
   4   7  -6   77.79    5.70 
   4   7  -6   58.69    7.10 
  -3  -7   6  171.38    9.20 
   3  -7  -6  179.28    9.50 
  -3  -7   6  184.88    9.40 
  -3  -7   6  180.68    9.20 
   3   7  -6  175.28    7.30 
   3   7  -6  178.28    8.10 
   3   7  -6  157.68   10.00 
  -3   7   6  190.68   11.40 
  -2  -7   6  239.38   11.20 
  -2  -7   6  222.58   10.60 
  -2  -7   6  243.08   11.10 
   2  -7  -6  229.68   10.10 
  -2   7   6  229.38   12.50 
   2   7  -6  241.68    9.70 
   2   7  -6  235.38   11.70 
  -1  -7   6  214.68   10.30 
   1  -7  -6  221.48    9.30 
  -1  -7   6  211.08   10.50 
  -1  -7   6  202.68   10.10 
  -1   7   6  209.78   12.00 
   1   7  -6  223.38   10.70 
   1   7  -6  221.38    9.60 
   0  -7   6   78.69    7.20 
   0  -7   6   74.69    7.20 
   0  -7  -6   82.39    5.90 
   0  -7   6   74.19    7.30 
   0  -7  -6   74.49    6.50 
   0   7  -6   82.89    7.50 
   0   7   6   82.49    8.40 
   0   7  -6   94.59    7.10 
   1  -7   6   34.30    5.70 
   1  -7   6   39.50    5.90 
   1  -7   6   31.50    5.70 
  -1  -7  -6   35.00    4.30 
  -1   7  -6   37.40    6.40 
  -1   7  -6   37.00    5.20 
   1   7   6   32.10    6.00 
   2  -7   6   35.40    6.00 
   2  -7   6   35.70    6.00 
   2  -7   6   30.70    6.10 
  -2   7  -6   36.50    5.80 
   2   7   6   46.30    6.90 
  -2   7  -6   45.00    5.90 
   3  -7   6   56.79    7.70 
   3  -7   6   62.29    6.90 
   3  -7   6   65.29    7.40 
   3   7   6   60.29    7.10 
  -3   7  -6   62.49    7.40 
  -3   7  -6   64.69    7.00 
   4  -7   6   55.69    8.20 
   4  -7   6   53.29    7.60 
   4  -7   6   63.29    7.90 
   4   7   6   59.39    7.20 
  -4   7  -6   63.19    8.80 
  -4   7  -6   74.09    7.90 
   5  -7   6   33.40    7.60 
   5  -7   6   26.50    5.70 
  -5   7  -6   27.20    7.70 
  -5   7  -6   27.30    6.30 
  -7  -8   6   66.09    7.30 
  -7  -8   6   79.69    8.30 
   7  -8  -6   70.29    8.50 
   7  -8  -6   66.89    8.30 
  -7  -8   6   74.69    7.60 
   7   8  -6   88.79    8.30 
  -7   8   6   68.69    8.80 
  -6  -8   6   22.40    5.60 
  -6  -8   6   35.90    5.80 
   6  -8  -6   16.50    5.60 
  -6  -8   6   36.40    5.70 
  -6   8   6   31.30    6.70 
   6   8  -6   40.90    5.90 
   5  -8  -6   10.00    4.70 
  -5  -8   6    4.50    3.70 
  -5  -8   6    8.60    4.40 
  -5  -8   6    6.00    4.20 
   5   8  -6   16.20    4.20 
  -5   8   6    4.60    4.10 
   4  -8  -6   22.20    4.90 
  -4  -8   6   24.40    5.10 
  -4  -8   6   26.10    4.80 
  -4  -8   6   22.70    4.80 
  -4   8   6   28.10    6.20 
   4   8  -6   29.20    6.10 
  -3  -8   6   12.30    4.20 
   3  -8  -6   24.20    5.00 
  -3  -8   6   24.50    4.70 
  -3  -8   6   13.10    4.00 
  -3   8   6    8.50    5.20 
   3   8  -6   14.40    5.30 
   2  -8  -6   20.90    4.30 
  -2  -8   6   27.40    5.00 
  -2  -8   6   22.70    4.70 
  -2  -8   6   15.70    4.40 
   2   8  -6   19.50    3.70 
  -2   8   6   19.10    5.00 
   2   8  -6   20.60    5.60 
  -1  -8   6   26.00    5.10 
  -1  -8   6   18.10    4.50 
  -1  -8   6   23.50    4.90 
   1  -8  -6   18.10    4.00 
  -1   8   6   27.20    6.40 
   1   8  -6    8.40    5.00 
   1   8  -6   17.90    3.90 
   0  -8   6   16.40    4.70 
   0  -8   6   13.60    4.90 
   0  -8   6   15.40    4.80 
   0   8  -6   16.50    4.00 
   0   8   6   16.80    5.70 
   0   8  -6   21.00    5.60 
   1  -8   6   60.59    7.10 
   1  -8   6   67.99    7.30 
   1  -8   6   75.89    7.70 
  -1   8  -6   85.89    8.30 
  -1   8  -6   67.59    6.40 
   1   8   6   77.39    8.00 
   2  -8   6   73.49    8.10 
   2  -8   6   88.89    8.20 
   2  -8   6   64.79    7.60 
  -2   8  -6   76.49    6.90 
  -2   8  -6   82.19    9.10 
   2   8   6   87.69    8.60 
   3  -8   6   27.00    6.30 
   3  -8   6   22.80    5.80 
   3  -8   6   19.90    5.70 
   3   8   6    9.80    4.90 
  -3   8  -6    7.40    4.40 
  -3   8  -6    5.80    5.70 
   4  -8   6   12.10    5.50 
   4  -8   6   15.70    6.20 
   4  -8   6    6.40    5.40 
  -4   8  -6   17.90    6.60 
   4   8   6    6.50    4.50 
  -4   8  -6   11.50    5.50 
  -6  -9   6   44.30    6.40 
   6  -9  -6   39.70    6.60 
  -6  -9   6   59.79    6.50 
   6  -9  -6   50.59    7.20 
  -6   9   6   61.09    8.40 
  -5  -9   6   38.90    6.30 
   5  -9  -6   45.60    7.00 
  -5  -9   6   41.10    5.80 
  -5  -9   6   32.20    5.20 
  -5   9   6   36.00    7.10 
  -4  -9   6   54.49    6.60 
   4  -9  -6   53.19    6.40 
  -4  -9   6   57.19    6.50 
  -4  -9   6   58.89    6.50 
   4   9  -6   61.59    8.20 
  -4   9   6   57.99    8.10 
  -3  -9   6   57.29    6.70 
   3  -9  -6   56.69    9.70 
  -3  -9   6   68.29    6.50 
  -3  -9   6   45.10    5.70 
   3   9  -6   63.59    8.10 
  -3   9   6   70.09    8.10 
  -2  -9   6   23.50    4.90 
  -2  -9   6   25.60    5.00 
  -2  -9   6   38.40    5.60 
   2   9  -6   27.80    5.50 
  -2   9   6   32.70    6.70 
  -1  -9   6   78.69    7.40 
  -1  -9   6   73.89    7.20 
  -1  -9   6   66.99    7.00 
   1   9  -6   66.19    8.00 
  -1   9   6   69.09    8.70 
   0  -9   6   64.19    7.10 
   0  -9   6   60.99    6.80 
   0  -9   6   65.49    7.10 
   0   9   6   56.29    8.00 
   0   9  -6   43.60    7.10 
   0   9  -6   56.69    7.50 
   1  -9   6   36.00    6.00 
   1  -9   6   42.30    6.50 
   1  -9   6   41.20    6.40 
  -1   9  -6   39.70    7.30 
   1   9   6   32.20    6.80 
  -1   9  -6   31.90    5.00 
   2  -9   6    4.00    4.90 
   2  -9   6   12.20    5.10 
   2  -9   6    8.50    5.00 
   2   9   6    8.40    5.10 
  -2   9  -6    1.80    4.10 
  -2   9  -6   -0.50    5.10 
   3  -9   6   21.00    5.90 
   3  -9   6   10.80    5.40 
   3  -9   6   21.30    6.20 
  -3   9  -6   14.70    4.80 
  -3   9  -6   20.00    6.80 
   3   9   6   17.10    6.00 
  -5 -10   6   15.60    4.70 
  -5 -10   6   17.20    4.50 
   5 -10  -6    4.30    4.50 
  -5  10   6   11.60    6.30 
  -4 -10   6   26.50    5.10 
  -4 -10   6   30.20    5.20 
  -4  10   6   33.90    7.20 
   4  10  -6   39.10    7.10 
  -3 -10   6   33.10    5.30 
  -3 -10   6   36.80    5.60 
  -3  10   6   36.20    6.80 
   3  10  -6   28.90    7.10 
  -2 -10   6   17.80    4.90 
  -2 -10   6   17.00    4.90 
  -2 -10   6   16.60    4.70 
  -2  10   6   12.90    6.00 
   2  10  -6   23.50    6.50 
  -1 -10   6  107.79    8.80 
  -1 -10   6   86.29    7.90 
  -1 -10   6  118.69    8.50 
  -1  10   6  124.29    9.80 
   1  10  -6   92.29    9.20 
   0 -10   6  106.89    9.10 
   0 -10   6  103.89    8.80 
   0 -10   6  107.39    8.60 
   0  10   6   99.59    9.80 
   0  10  -6   93.59    9.90 
   1 -10   6  129.39    9.50 
   1 -10   6  119.59    9.30 
   1 -10   6  125.49    9.40 
   1  10   6  133.89   11.10 
  -1  10  -6  102.49   10.50 
   2 -10   6   36.30    7.20 
   2 -10   6   27.20    6.20 
   2 -10   6   22.30    5.90 
  -2  10  -6   25.30    7.00 
   2  10   6   30.10    6.90 
  -3 -11   6   10.60    4.30 
   3  11  -6   12.30    6.50 
  -2 -11   6   61.09    6.80 
  -2 -11   6   66.79    7.00 
  -2  11   6   59.69    9.20 
   2  11  -6   64.99    9.10 
  -1 -11   6    1.60    4.30 
  -1 -11   6   -1.90    4.20 
   1  11  -6   10.30    6.30 
  -1  11   6    5.60    5.90 
   0 -11   6   -1.70    4.10 
   0 -11   6    1.10    4.30 
   0 -11   6    9.40    4.40 
   0  11  -6    8.60    6.50 
   0  11   6   -2.30    4.00 
  -9   0   7   33.10    6.50 
  -9   0   7   38.20    7.30 
   9   0  -7   31.50    6.90 
   8   0  -7   83.59    8.40 
  -8   0   7   75.09    7.80 
  -8   0   7   58.59    7.40 
   7   0  -7   26.80    5.80 
  -7   0   7   26.90    5.10 
  -7   0   7   35.80    6.70 
  -7   0   7   32.90    5.30 
  -7   0   7   30.70    5.90 
  -6   0   7   66.99    7.40 
  -6   0   7   68.89    7.20 
  -6   0   7   84.99    7.80 
   6   0  -7   64.49    7.20 
  -6   0   7   67.89    7.00 
   5   0  -7  170.08    9.80 
  -5   0   7  157.48    8.50 
  -5   0   7  161.58    9.40 
  -5   0   7  157.38    9.60 
  -4   0   7  182.18    9.70 
  -4   0   7  161.88    9.00 
  -4   0   7  164.38    9.10 
   4   0  -7  150.78    8.40 
   3   0  -7    1.70    3.50 
  -3   0   7    5.30    3.70 
  -3   0   7    6.30    3.70 
   3   0  -7    7.20    4.10 
  -3   0   7   -0.50    4.00 
   2   0  -7   75.89    6.70 
  -2   0   7   90.09    6.80 
   2   0  -7   88.29    4.20 
  -2   0   7   83.39    7.00 
  -2   0   7   81.39    6.70 
   2   0  -7   83.29    6.60 
  -1   0   7   13.30    3.80 
  -1   0   7   21.70    4.40 
   1   0  -7   19.90    2.90 
   1   0  -7   17.70    4.50 
   1   0  -7   25.40    4.50 
  -1   0   7   26.00    4.20 
   0   0  -7    5.70    4.10 
   0   0  -7   -0.60    3.30 
   0   0   7    1.70    3.80 
   0   0   7    8.10    3.70 
   0   0   7    5.00    3.60 
   1   0   7   34.90    5.10 
  -1   0  -7   22.70    7.20 
  -1   0  -7   34.40    5.40 
   1   0   7   33.50    4.80 
   1   0   7   36.00    5.00 
   2   0   7    5.90    3.40 
  -2   0  -7    5.70    4.30 
   2   0   7   -0.60    3.60 
   3   0   7  162.38    9.10 
  -3   0  -7  147.89    9.60 
   3   0   7  167.28    9.90 
   4   0   7   20.80    5.60 
   4   0   7   21.40    4.80 
  -4   0  -7   21.40    5.80 
   5   0   7    7.40    5.00 
  -5   0  -7    5.20    5.10 
   5   0   7    2.20    4.10 
   6   0   7   56.99    7.40 
  -6   0  -7   56.79    8.20 
   9  -1  -7   21.60    6.70 
  -9  -1   7   19.80    6.20 
  -9  -1   7   23.20    6.40 
  -9   1   7   17.20    6.40 
   9   1  -7   18.80    6.20 
  -9   1   7   21.90    6.30 
  -8  -1   7   31.40    6.60 
   8  -1  -7   33.60    6.70 
  -8  -1   7   28.20    5.90 
  -8  -1   7   31.10    5.80 
  -8   1   7   29.20    7.40 
  -8   1   7   20.40    5.90 
  -8   1   7   26.80    6.50 
   8   1  -7   25.30    5.80 
  -7  -1   7    1.60    4.70 
   7  -1  -7    6.80    5.10 
  -7  -1   7    3.10    4.50 
  -7  -1   7   -2.90    4.30 
  -7  -1   7   11.80    5.30 
   7   1  -7    7.50    4.90 
  -7   1   7   -2.90    3.50 
  -7   1   7    4.00    3.80 
  -7   1   7    1.30    4.50 
  -7   1   7    3.50    6.90 
  -6  -1   7   -5.70    3.80 
  -6  -1   7    3.10    4.60 
  -6  -1   7   -6.20    3.70 
   6  -1  -7    7.70    4.70 
   6   1  -7    4.20    4.50 
  -6   1   7    9.40    4.90 
  -6   1   7   -7.40    3.60 
  -6   1   7   -1.60    4.00 
  -6   1   7    5.00    3.40 
  -5  -1   7   51.29    5.60 
  -5  -1   7   37.60    6.10 
  -5  -1   7   26.60    5.20 
   5  -1  -7   40.10    6.00 
  -5   1   7   41.60    6.10 
  -5   1   7   33.60    5.40 
   5   1  -7   41.00    5.90 
  -5   1   7   46.70    6.30 
  -5   1   7   39.80    5.70 
  -4  -1   7  190.78   10.20 
   4  -1  -7  204.88    9.70 
   4  -1  -7  210.58   10.00 
  -4  -1   7  202.88   10.10 
  -4  -1   7  202.28    9.40 
  -4   1   7  207.68    9.90 
  -4   1   7  211.08   10.40 
   4   1  -7  183.78    9.90 
  -4   1   7  202.38    9.90 
  -3  -1   7  182.98    9.00 
   3  -1  -7  206.28    9.40 
   3  -1  -7  178.18    9.50 
  -3  -1   7  193.18    9.60 
  -3  -1   7  184.58    9.50 
   3   1  -7  185.48    6.90 
  -3   1   7  180.28    9.10 
  -3   1   7  186.98    9.00 
   3   1  -7  178.18    9.60 
  -3   1   7  178.18    9.00 
  -2  -1   7  443.16   15.80 
  -2  -1   7  471.25   16.00 
   2  -1  -7  471.25   11.80 
  -2  -1   7  464.35   15.90 
   2  -1  -7  459.35   16.00 
   2  -1  -7  473.55   15.90 
   2   1  -7  492.85   17.70 
   2   1  -7  476.55   13.60 
   2   1  -7  472.15   16.10 
  -2   1   7  478.35   15.70 
  -2   1   7  443.66   15.50 
  -2   1   7  464.85   15.50 
  -1  -1   7  163.98    8.70 
   1  -1  -7  156.38    8.70 
  -1  -1   7  144.29    8.50 
   1  -1  -7  141.19    8.20 
  -1  -1   7  172.88    9.30 
   1  -1  -7  163.68    5.90 
   1   1  -7  153.48    8.10 
   1   1  -7  156.68    8.50 
  -1   1   7  171.58    8.40 
   1   1  -7  170.08    7.10 
  -1   1   7  159.38    8.70 
  -1   1   7  165.08    8.40 
   0  -1   7  111.99    7.70 
   0  -1   7  113.09    7.00 
   0  -1   7  134.89    7.60 
   0  -1  -7  129.09    8.00 
   0  -1  -7  122.19    7.60 
   0   1   7  123.19    7.30 
   0   1  -7  112.39    7.10 
   0   1   7  119.59    7.10 
   0   1  -7  124.79    6.50 
   0   1   7  114.49    7.20 
   0   1  -7  112.09    7.70 
  -1  -1  -7   56.49    6.10 
   1  -1   7   50.99    5.90 
   1  -1   7   61.49    6.70 
   1  -1   7   59.59    6.20 
   1   1   7   56.99    5.70 
   1   1   7   52.49    5.50 
   1   1   7   52.99    5.50 
  -1   1  -7   61.29    6.40 
  -1   1  -7   63.99    6.60 
  -2  -1  -7   44.80    6.00 
   2  -1   7   39.30    5.60 
   2  -1   7   45.80    5.80 
   2  -1   7   46.20    6.30 
   2   1   7   48.10    6.00 
  -2   1  -7   38.80    6.00 
   2   1   7   43.60    5.30 
   3  -1   7    5.00    4.00 
  -3  -1  -7    9.00    4.70 
   3  -1   7    7.40    4.90 
   3   1   7   12.90    4.70 
   3   1   7   14.70    4.10 
  -3   1  -7   16.50    5.20 
   4  -1   7   18.60    5.60 
  -4  -1  -7   23.50    4.80 
   4  -1   7   24.50    5.10 
   4   1   7   15.70    4.30 
  -4   1  -7   14.40    5.30 
   4   1   7   10.80    5.00 
   4   1   7   17.40    5.10 
   5  -1   7  137.39   10.50 
   5  -1   7  148.99   10.50 
  -5  -1  -7  134.09   10.10 
   5   1   7  149.69    9.50 
   5   1   7  155.48   14.30 
  -5   1  -7  157.48   11.00 
   6  -1   7   33.80    7.10 
  -6  -1  -7   34.30    7.10 
   6  -1   7   23.40    5.70 
  -6   1  -7   22.50    6.40 
   6   1   7   29.20    5.60 
  -9  -2   7   11.50    5.70 
  -9  -2   7   29.40    6.00 
   9  -2  -7   13.50    6.30 
  -9  -2   7   20.30    6.60 
  -9   2   7   17.90    6.50 
  -9   2   7   19.80    6.30 
   9   2  -7   23.20    5.90 
  -8  -2   7   44.10    6.40 
  -8  -2   7   38.20    6.90 
  -8  -2   7   53.79    7.30 
   8  -2  -7   47.40    7.40 
  -8   2   7   48.10    7.10 
  -8   2   7   62.09    8.20 
  -8   2   7   45.00    5.80 
   8   2  -7   49.30    6.80 
  -7  -2   7   25.00    5.90 
   7  -2  -7   21.40    6.10 
  -7  -2   7   24.30    6.00 
  -7  -2   7   27.10    5.00 
  -7   2   7   24.70    6.10 
  -7   2   7   22.60    5.20 
   7   2  -7   33.20    5.70 
  -7   2   7   35.70    6.10 
  -6  -2   7   45.10    5.90 
   6  -2  -7   46.50    6.50 
  -6  -2   7   47.50    6.70 
  -6  -2   7   39.10    6.10 
   6   2  -7   37.00    5.90 
  -6   2   7   38.20    6.50 
  -6   2   7   46.00    6.20 
  -6   2   7   54.59    6.50 
   5  -2  -7  266.47   12.20 
  -5  -2   7  268.07   12.00 
  -5  -2   7  274.07   12.00 
  -5  -2   7  257.87   11.50 
  -5   2   7  257.87   12.10 
  -5   2   7  266.37   12.10 
  -5   2   7  247.38   11.30 
   5   2  -7  244.38   11.50 
  -5   2   7  256.17   11.60 
  -4  -2   7   83.49    7.30 
   4  -2  -7   95.89    7.80 
  -4  -2   7   84.89    7.60 
  -4  -2   7   77.89    7.20 
  -4   2   7   81.49    7.90 
  -4   2   7   87.59    7.00 
   4   2  -7   80.19    7.10 
  -4   2   7   93.59    7.80 
  -4   2   7   81.99    6.00 
   3  -2  -7   73.19    6.80 
  -3  -2   7   69.99    6.70 
  -3  -2   7   86.39    7.20 
   3  -2  -7   75.49    6.50 
  -3  -2   7   79.69    7.20 
  -3   2   7   70.69    7.60 
  -3   2   7   63.79    6.00 
   3   2  -7   74.69    5.10 
   3   2  -7   66.89    6.60 
  -3   2   7   85.49    6.50 
  -3   2   7   68.09    6.60 
  -2  -2   7  287.97   11.40 
  -2  -2   7  291.57   12.30 
   2  -2  -7  290.97   11.80 
   2  -2  -7  291.37   11.50 
  -2  -2   7  306.87   12.10 
   2   2  -7  292.97   10.20 
  -2   2   7  292.27   13.10 
  -2   2   7  280.37   11.20 
  -2   2   7  287.27   11.70 
  -2   2   7  282.77   11.40 
   2   2  -7  274.77   11.80 
  -1  -2   7  130.59    8.20 
   1  -2  -7  111.39    7.30 
  -1  -2   7  142.39    8.30 
   1  -2  -7  124.99    4.60 
   1  -2  -7  119.99    7.70 
  -1  -2   7  128.89    7.70 
   1   2  -7  121.29    6.50 
  -1   2   7  132.99    7.20 
  -1   2   7  123.79    9.20 
  -1   2   7  150.18    7.60 
   1   2  -7  134.19    8.20 
  -1   2   7  135.19    7.30 
   0  -2   7   19.00    3.80 
   0  -2  -7   15.70    4.30 
   0  -2   7   22.30    5.00 
   0  -2  -7   16.80    3.50 
   0  -2   7   17.50    4.50 
   0   2   7   18.70    5.50 
   0   2  -7   14.30    3.70 
   0   2   7   18.60    3.70 
   0   2  -7   15.30    2.70 
   0   2   7   16.90    4.30 
   0   2  -7    9.90    4.40 
   0   2   7   11.40    3.80 
   1  -2   7  186.78    9.90 
  -1  -2  -7  192.08    9.60 
   1  -2   7  190.08    9.40 
   1  -2   7  189.28   10.30 
   1   2   7  189.58    8.70 
   1   2   7  179.38   10.60 
   1   2   7  188.38    9.50 
  -1   2  -7  215.18   10.50 
   2  -2   7  121.99    8.90 
  -2  -2  -7   98.19    7.70 
   2  -2   7  119.09    8.50 
   2  -2   7  125.09    8.40 
  -2   2  -7  104.69    8.40 
   2   2   7  118.49    9.00 
   2   2   7  114.89    7.80 
   2   2   7  119.79    7.50 
  -3  -2  -7   99.49    8.00 
   3  -2   7   77.89    7.60 
   3  -2   7   94.19    8.60 
   3   2   7   84.89    6.90 
   3   2   7   96.19    7.50 
  -3   2  -7  107.09    8.80 
   3   2   7   90.49    8.30 
  -4  -2  -7   39.90    6.20 
   4  -2   7   48.00    6.60 
   4  -2   7   49.80    7.20 
   4   2   7   57.59    7.80 
   4   2   7   48.90    5.60 
  -4   2  -7   53.49    7.30 
   4   2   7   47.50    6.50 
   5  -2   7   28.00    5.70 
   5  -2   7   29.40    6.00 
  -5  -2  -7   34.10    6.40 
  -5   2  -7   41.00    7.20 
   5   2   7   24.80    5.00 
   6  -2   7   15.20    5.50 
   6  -2   7   11.60    5.40 
  -6  -2  -7   18.30    6.00 
  -6   2  -7   18.50    5.40 
   9  -3  -7   48.10    8.20 
  -9  -3   7   56.29    8.20 
  -9  -3   7   47.40    7.00 
  -9  -3   7   47.30    7.40 
   9   3  -7   42.70    7.00 
   9   3  -7   36.50    7.70 
  -9   3   7   42.90    7.30 
  -9   3   7   36.90    6.80 
   8  -3  -7   94.59    9.40 
  -8  -3   7   95.49    9.10 
  -8  -3   7   94.19    9.20 
  -8  -3   7   95.39    9.40 
  -8   3   7   94.59    8.10 
  -8   3   7  103.79   10.00 
  -8   3   7  115.09    9.70 
   8   3  -7   92.69    8.60 
  -7  -3   7   21.80    5.40 
   7  -3  -7   16.40    4.80 
  -7  -3   7   21.60    5.70 
  -7  -3   7   25.30    5.70 
  -7   3   7   34.70    5.90 
  -7   3   7   27.00    5.60 
  -7   3   7   23.10    6.10 
   7   3  -7   20.70    5.20 
  -6  -3   7   30.40    5.70 
  -6  -3   7   35.00    6.40 
   6  -3  -7   43.00    6.50 
  -6  -3   7   40.20    6.00 
   6   3  -7   40.50    5.80 
  -6   3   7   42.00    6.10 
  -6   3   7   41.20    6.60 
  -6   3   7   38.60    5.70 
  -5  -3   7    4.30    4.10 
   5  -3  -7    1.80    4.20 
  -5  -3   7    4.20    3.30 
  -5  -3   7    5.40    3.40 
  -5   3   7    0.20    4.20 
  -5   3   7   -2.10    3.90 
  -5   3   7    3.40    3.80 
   5   3  -7    0.10    3.80 
   4  -3  -7   58.69    6.50 
  -4  -3   7   72.29    6.90 
  -4  -3   7   46.80    6.20 
  -4  -3   7   46.80    6.00 
   4   3  -7   47.80    5.10 
  -4   3   7   49.50    5.70 
   4   3  -7   63.39    6.30 
  -4   3   7   56.29    6.40 
  -4   3   7   56.49    5.80 
  -4   3   7   64.29    6.70 
  -3  -3   7  410.26   14.50 
  -3  -3   7  404.16   14.90 
   3  -3  -7  389.36   14.60 
  -3  -3   7  417.36   15.30 
   3   3  -7  408.66   13.40 
  -3   3   7  405.26   14.10 
  -3   3   7  372.96   15.50 
   3   3  -7  404.76   14.60 
  -3   3   7  392.66   14.40 
  -3   3   7  392.96   13.80 
   2  -3  -7  449.06   15.10 
  -2  -3   7  394.06   15.10 
  -2  -3   7  439.06   15.70 
  -2  -3   7  403.76   14.70 
   2  -3  -7  413.06   14.50 
  -2   3   7  450.95   14.10 
  -2   3   7  404.86   15.80 
  -2   3   7  418.06   14.20 
   2   3  -7  411.66   15.00 
  -2   3   7  432.06   14.80 
   2   3  -7  444.16   14.10 
  -1  -3   7  106.29    7.80 
  -1  -3   7  109.79    7.30 
   1  -3  -7  104.59    7.20 
   1  -3  -7  108.09    6.90 
  -1  -3   7  109.19    7.00 
   1  -3  -7  109.39    3.70 
   1   3  -7  123.39    7.90 
  -1   3   7  105.49    6.90 
  -1   3   7  111.69    7.20 
  -1   3   7  114.49    9.00 
   1   3  -7  110.99    6.70 
  -1   3   7  113.89    6.90 
   0  -3  -7   66.19    6.20 
   0  -3   7   77.09    6.90 
   0  -3   7   74.89    6.90 
   0  -3   7   62.49    6.10 
   0   3   7   77.49    6.20 
   0   3   7   71.39    7.20 
   0   3  -7   68.69    6.20 
   0   3  -7   68.09    6.00 
   0   3   7   66.99    5.50 
  -1  -3  -7   31.80    4.90 
   1  -3   7   25.00    5.50 
   1  -3   7   28.40    5.20 
   1  -3   7   26.90    5.30 
  -1   3  -7   28.50    5.50 
   1   3   7   30.70    4.20 
   1   3   7   35.60    5.00 
   1   3   7   31.10    6.10 
  -1   3  -7   21.70    4.90 
  -2  -3  -7   34.30    5.20 
   2  -3   7   31.30    5.70 
   2  -3   7   32.90    5.90 
   2  -3   7   36.30    5.50 
   2   3   7   43.90    4.70 
  -2   3  -7   46.50    6.30 
   2   3   7   36.60    5.50 
   2   3   7   26.90    5.90 
   3  -3   7   42.50    6.40 
  -3  -3  -7   36.60    5.70 
   3  -3   7   59.19    7.30 
   3   3   7   52.99    6.70 
  -3   3  -7   56.99    6.90 
   3   3   7   50.19    4.90 
   4  -3   7   95.69    9.40 
  -4  -3  -7  109.19    8.60 
   4  -3   7  103.49    9.00 
  -4   3  -7  119.49    9.60 
   4   3   7  105.89    8.20 
   4   3   7  103.99    7.00 
   5  -3   7  108.69   10.40 
  -5  -3  -7   98.69    8.90 
   5  -3   7   95.99    9.00 
  -5   3  -7  109.69   10.00 
   6  -3   7   48.30    8.30 
   6  -3   7   49.30    7.60 
  -9  -4   7   29.90    7.90 
  -9  -4   7   21.70    6.80 
  -9  -4   7   27.60    6.50 
  -9   4   7   24.60    6.50 
   9   4  -7   25.80    6.00 
  -9   4   7   24.70    7.10 
   9   4  -7   23.90    6.90 
  -8  -4   7   14.70    5.30 
  -8  -4   7    7.00    4.80 
   8  -4  -7   -0.30    5.50 
  -8  -4   7   12.20    5.50 
   8   4  -7    3.10    5.20 
   8   4  -7    4.60    4.90 
  -8   4   7    0.10    5.40 
  -8   4   7    5.60    4.10 
  -8   4   7    7.60    4.90 
  -7  -4   7   26.70    6.10 
  -7  -4   7   20.30    5.40 
   7  -4  -7   22.70    6.30 
  -7  -4   7   24.50    5.70 
   7   4  -7   26.70    5.20 
  -7   4   7   33.00    5.70 
   7   4  -7   21.30    5.90 
  -7   4   7   24.60    5.50 
  -7   4   7   19.70    5.70 
  -6  -4   7   21.30    5.40 
  -6  -4   7   25.70    5.60 
  -6  -4   7   18.80    5.10 
   6  -4  -7   13.90    5.30 
  -6   4   7   17.20    4.60 
  -6   4   7   25.00    5.10 
   6   4  -7   23.00    4.90 
  -6   4   7   27.60    5.40 
  -5  -4   7  150.18    9.20 
  -5  -4   7  153.78    9.30 
   5  -4  -7  157.38    9.70 
  -5  -4   7  154.58    9.50 
  -5   4   7  163.68    8.90 
  -5   4   7  141.79    8.50 
  -5   4   7  145.69    9.80 
   5   4  -7  149.99    8.70 
  -4  -4   7   36.00    5.60 
  -4  -4   7   28.40    5.20 
  -4  -4   7   32.20    5.50 
   4  -4  -7   32.30    5.50 
  -4   4   7   30.90    4.60 
   4   4  -7   34.20    5.00 
  -4   4   7   32.60    6.10 
  -4   4   7   42.40    5.80 
   4   4  -7   41.90    5.60 
   3  -4  -7   27.10    5.00 
  -3  -4   7   23.60    4.90 
  -3  -4   7   20.80    4.70 
  -3  -4   7   26.20    5.30 
  -3   4   7   15.10    5.30 
  -3   4   7   27.70    4.80 
  -3   4   7   28.50    4.20 
   3   4  -7   26.80    4.60 
   3   4  -7   24.30    4.80 
  -2  -4   7   82.19    6.30 
  -2  -4   7   88.39    6.50 
   2  -4  -7   87.79    6.90 
  -2  -4   7   83.89    7.60 
   2   4  -7   79.29    6.30 
  -2   4   7   80.99    6.10 
  -2   4   7   85.29    6.50 
   2   4  -7   86.99    7.10 
  -2   4   7   71.29    7.80 
  -1  -4   7  238.58   10.90 
   1  -4  -7  205.68    9.70 
  -1  -4   7  223.48   10.70 
  -1  -4   7  208.58   10.90 
  -1   4   7  210.08   11.60 
  -1   4   7  222.58   10.00 
  -1   4   7  217.08    8.70 
   1   4  -7  235.48   10.40 
   1   4  -7  214.18   10.30 
   0  -4  -7   -0.70    3.40 
   0  -4   7    0.60    3.80 
   0  -4   7   10.10    4.70 
   0  -4   7    2.40    3.80 
   0   4   7    2.40    3.20 
   0   4  -7    9.30    4.00 
   0   4   7    0.80    4.40 
   0   4  -7    2.20    3.90 
   0   4   7    3.60    2.80 
   1  -4   7  130.79    8.30 
   1  -4   7  116.99    8.70 
  -1  -4  -7  118.89    7.70 
   1  -4   7  145.59    9.20 
   1   4   7  117.69    9.00 
   1   4   7  137.09    6.50 
  -1   4  -7  124.79    8.50 
  -1   4  -7  124.49    8.70 
   1   4   7  120.09    7.20 
  -2  -4  -7  225.38   10.10 
   2  -4   7  194.48   10.80 
   2  -4   7  188.58   10.00 
   2  -4   7  187.58   11.10 
   2   4   7  184.48   10.80 
   2   4   7  193.48    7.70 
  -2   4  -7  185.98    9.80 
  -2   4  -7  205.78   11.10 
  -3  -4  -7   86.99    7.40 
   3  -4   7  101.79    7.70 
   3  -4   7   84.89    7.80 
   3  -4   7   98.29    7.90 
   3   4   7  104.29    8.40 
  -3   4  -7   91.79    8.60 
   4  -4   7   63.29    7.60 
  -4  -4  -7   65.79    7.10 
   4  -4   7   51.69    7.30 
   4   4   7   60.89    7.20 
  -4   4  -7   49.30    7.10 
   5  -4   7   25.00    6.80 
   5  -4   7   22.00    6.00 
  -5  -4  -7   26.70    5.80 
  -5   4  -7   15.60    6.00 
  -8  -5   7   48.20    7.20 
  -8  -5   7   39.80    6.60 
  -8  -5   7   46.70    7.10 
   8  -5  -7   41.10    6.80 
  -8   5   7   42.00    7.60 
   8   5  -7   42.80    7.30 
  -8   5   7   44.60    6.50 
  -8   5   7   40.30    7.00 
   8   5  -7   33.20    5.60 
  -7  -5   7   26.40    5.80 
  -7  -5   7   20.70    5.50 
   7  -5  -7   17.10    6.20 
  -7  -5   7   16.20    5.10 
   7   5  -7   19.80    5.20 
   7   5  -7   16.50    4.80 
  -7   5   7   31.50    6.40 
  -7   5   7   17.00    5.00 
  -7   5   7   21.40    5.50 
  -6  -5   7   21.00    5.40 
   6  -5  -7   21.60    5.80 
  -6  -5   7   15.80    4.90 
  -6  -5   7   19.40    5.30 
  -6   5   7   28.70    6.00 
   6   5  -7    8.60    4.70 
  -6   5   7   15.60    5.00 
  -6   5   7   13.70    4.80 
   6   5  -7   15.10    4.60 
  -5  -5   7   95.79    7.70 
  -5  -5   7   91.69    8.10 
   5  -5  -7   90.89    8.20 
  -5  -5   7   91.89    7.90 
  -5   5   7   89.09    8.80 
  -5   5   7   85.59    6.80 
   5   5  -7   72.39    6.70 
  -5   5   7   85.49    7.70 
   5   5  -7   89.89    7.30 
  -4  -5   7   88.39    7.80 
  -4  -5   7   73.19    6.80 
  -4  -5   7   81.49    7.40 
   4  -5  -7   79.09    7.40 
  -4   5   7   79.59    7.30 
   4   5  -7   93.19    6.60 
   4   5  -7   93.29    7.60 
  -4   5   7   95.59    8.80 
  -4   5   7   92.29    6.80 
   4   5  -7   81.09    6.80 
  -3  -5   7   89.09    7.60 
  -3  -5   7  105.49    7.90 
  -3  -5   7   91.89    6.80 
   3  -5  -7   92.99    7.40 
  -3   5   7   76.69    6.80 
  -3   5   7   83.39    8.40 
   3   5  -7   91.49    7.10 
  -3   5   7   83.49    6.10 
   3   5  -7   84.59    5.50 
   3   5  -7   71.39    7.00 
  -2  -5   7  261.17   12.10 
  -2  -5   7  262.27   11.40 
  -2  -5   7  263.47   11.90 
   2  -5  -7  273.87   11.30 
  -2   5   7  274.17   10.90 
   2   5  -7  274.77   11.40 
   2   5  -7  263.47   11.40 
  -2   5   7  250.07   13.00 
   2   5  -7  267.77    8.70 
  -2   5   7  268.37    9.80 
  -1  -5   7   79.59    7.40 
   1  -5  -7   88.19    6.70 
  -1  -5   7   81.19    6.50 
  -1  -5   7   85.19    6.80 
  -1   5   7   86.59    7.50 
   1   5  -7   88.49    7.20 
   1   5  -7   79.09    7.00 
  -1   5   7   70.89    5.10 
  -1   5   7   76.59    5.90 
   0  -5   7    4.20    3.60 
   0  -5   7    5.30    4.30 
   0  -5   7    5.00    4.30 
   0  -5  -7   17.90    4.40 
   0   5  -7    6.40    4.20 
   0   5   7    9.70    2.40 
   0   5  -7   16.50    4.80 
   0   5   7    8.00    4.10 
   0   5   7   11.90    4.20 
   1  -5   7   99.99    8.50 
   1  -5   7   94.79    7.50 
   1  -5   7   87.39    8.00 
  -1  -5  -7   92.39    7.40 
  -1   5  -7   94.89    8.30 
  -1   5  -7   99.29    8.10 
   1   5   7  102.69    8.80 
   2  -5   7   15.20    5.30 
   2  -5   7    2.20    4.50 
  -2  -5  -7    6.20    3.70 
   2  -5   7   13.70    4.90 
  -2   5  -7   13.40    4.90 
  -2   5  -7    7.10    5.00 
   2   5   7   12.10    5.00 
   3  -5   7   49.80    7.00 
   3  -5   7   55.09    6.60 
  -3  -5  -7   38.10    5.50 
   3  -5   7   47.80    6.70 
  -3   5  -7   52.49    7.10 
   3   5   7   39.90    6.20 
  -3   5  -7   35.80    7.10 
   4  -5   7   43.20    7.20 
  -4  -5  -7   43.70    6.40 
   4  -5   7   55.19    7.30 
  -4   5  -7   52.59    7.60 
   4   5   7   55.29    6.90 
   5  -5   7  104.39   10.00 
  -5  -5  -7  126.49   14.60 
   5  -5   7  101.69   10.60 
  -5   5  -7  113.79   10.30 
  -8  -6   7   23.80    6.30 
  -8  -6   7   22.60    5.80 
   8  -6  -7   10.80    6.00 
  -8  -6   7   34.20    6.60 
  -8   6   7   13.00    5.10 
   8   6  -7   18.60    5.80 
  -8   6   7    9.60    5.40 
  -7  -6   7   20.00    5.60 
  -7  -6   7   13.10    5.90 
   7  -6  -7   20.80    6.30 
  -7  -6   7   28.00    5.70 
   7   6  -7   14.60    5.20 
  -7   6   7   25.80    5.60 
  -7   6   7   21.20    5.50 
   6  -6  -7    6.60    4.90 
  -6  -6   7   10.80    4.80 
  -6  -6   7   13.10    5.00 
  -6  -6   7   13.70    5.10 
  -6   6   7   11.50    5.10 
   6   6  -7   10.70    4.50 
   6   6  -7    4.50    4.00 
  -6   6   7   17.20    4.70 
  -6   6   7    4.80    5.20 
   5  -6  -7   25.10    5.40 
  -5  -6   7   25.00    5.30 
  -5  -6   7   27.60    5.20 
  -5  -6   7   24.60    5.80 
  -5   6   7   18.70    4.40 
   5   6  -7   25.00    4.80 
  -5   6   7   24.00    5.40 
  -5   6   7   35.20    5.80 
   5   6  -7   22.90    4.40 
   4  -6  -7   42.70    6.00 
  -4  -6   7   31.80    5.40 
  -4  -6   7   38.20    5.90 
  -4  -6   7   36.40    5.70 
   4   6  -7   36.40    5.70 
  -4   6   7   34.10    4.40 
   4   6  -7   35.60    5.10 
  -4   6   7   33.70    5.80 
   4   6  -7   33.60    4.30 
  -4   6   7   40.50    5.70 
  -3  -6   7   10.60    4.20 
   3  -6  -7    7.80    4.20 
  -3  -6   7    7.20    4.10 
  -3  -6   7   13.80    3.80 
   3   6  -7   15.30    2.90 
   3   6  -7   11.90    4.40 
   3   6  -7   11.30    4.40 
  -3   6   7    5.50    3.00 
  -3   6   7   13.10    5.60 
   2  -6  -7   26.50    4.70 
  -2  -6   7   24.20    5.00 
  -2  -6   7   16.80    4.70 
  -2  -6   7   21.90    5.00 
   2   6  -7   16.30    4.70 
  -2   6   7   24.70    3.10 
   2   6  -7   16.40    4.70 
  -2   6   7   22.80    5.90 
   1  -6  -7  181.68    9.50 
  -1  -6   7  190.48   10.40 
  -1  -6   7  203.08   10.10 
  -1  -6   7  184.98   10.20 
  -1   6   7  182.98   11.50 
   1   6  -7  200.58   10.50 
   1   6  -7  201.98    9.80 
   0  -6   7  106.79    8.50 
   0  -6  -7   95.09    7.30 
   0  -6   7   93.69    8.10 
   0  -6   7   96.49    8.30 
   0   6  -7   96.89    7.60 
   0   6   7   96.89    9.20 
   0   6  -7   95.19    8.30 
   1  -6   7   44.10    6.50 
  -1  -6  -7   55.59    5.80 
   1  -6   7   49.80    6.80 
   1  -6   7   51.59    6.80 
  -1   6  -7   44.30    6.00 
  -1   6  -7   44.10    6.60 
   1   6   7   39.10    6.70 
   2  -6   7   79.39    8.20 
  -2  -6  -7   92.89    6.90 
   2  -6   7   88.99    8.10 
   2  -6   7   74.39    7.90 
   2   6   7   72.99    8.10 
  -2   6  -7   85.39    8.00 
  -2   6  -7   73.99    8.10 
   3  -6   7   66.89    8.40 
  -3  -6  -7   93.69    9.00 
   3  -6   7   72.39    8.20 
   3  -6   7   73.69    8.20 
  -3   6  -7   79.99    8.20 
  -3   6  -7   57.59    8.00 
   3   6   7   70.79    8.00 
   4  -6   7    6.30    5.90 
   4  -6   7   10.20    4.60 
  -4   6  -7    1.00    4.50 
   4   6   7   13.70    4.70 
  -4   6  -7    9.90    5.50 
  -7  -7   7    4.90    5.40 
  -7  -7   7    3.10    4.40 
   7  -7  -7   11.20    6.20 
  -7  -7   7    3.00    4.70 
  -7   7   7   11.10    5.40 
  -7   7   7   -0.30    4.00 
   7   7  -7    5.20    4.80 
  -6  -7   7   15.60    4.90 
  -6  -7   7   13.50    4.80 
   6  -7  -7   11.20    5.30 
  -6  -7   7   14.00    5.20 
  -6   7   7    8.80    4.20 
  -6   7   7   16.50    5.50 
   6   7  -7   15.90    4.70 
  -5  -7   7   79.69    8.10 
  -5  -7   7   77.29    7.80 
   5  -7  -7   79.99    8.00 
  -5  -7   7   71.49    7.50 
  -5   7   7   68.69    5.90 
   5   7  -7   79.49    8.10 
   5   7  -7   78.69    6.30 
  -5   7   7   80.59    8.70 
   5   7  -7   76.59    6.60 
  -4  -7   7   96.49    8.20 
   4  -7  -7  127.99    8.60 
  -4  -7   7   95.59    8.20 
  -4  -7   7   89.29    8.00 
   4   7  -7   91.39    7.10 
  -4   7   7  123.29   10.20 
   4   7  -7   84.79    8.30 
   3  -7  -7   13.80    4.40 
  -3  -7   7    6.80    4.00 
  -3  -7   7    6.30    4.40 
  -3  -7   7   11.90    5.00 
  -3   7   7    9.40    5.30 
   3   7  -7    4.80    4.60 
   3   7  -7    9.80    3.90 
  -2  -7   7   98.59    8.00 
  -2  -7   7   87.49    7.80 
  -2  -7   7   91.39    8.20 
   2  -7  -7   92.19    7.00 
   2   7  -7   78.49    6.80 
  -2   7   7   81.19    8.90 
   2   7  -7   91.99    8.30 
   1  -7  -7  288.07   11.20 
  -1  -7   7  248.48   12.10 
  -1  -7   7  275.77   12.70 
  -1  -7   7  277.77   12.60 
  -1   7   7  257.07   13.10 
   1   7  -7  260.77   11.50 
   1   7  -7  246.08   12.50 
   0  -7  -7   36.50    5.00 
   0  -7   7   41.20    6.60 
   0  -7   7   27.00    5.60 
   0  -7   7   38.70    5.90 
   0   7  -7   33.50    6.20 
   0   7   7   36.10    6.20 
   0   7  -7   32.70    5.60 
   1  -7   7   13.50    5.10 
   1  -7   7   14.00    5.10 
   1  -7   7   11.80    5.20 
  -1   7  -7   12.70    5.30 
  -1   7  -7   13.40    4.60 
   1   7   7    1.90    4.90 
   2  -7   7   64.49    7.70 
   2  -7   7   57.29    7.70 
   2  -7   7   66.29    7.70 
  -2   7  -7   59.49    6.80 
  -2   7  -7   53.19    7.60 
   2   7   7   51.79    7.40 
   3  -7   7   15.10    5.70 
   3  -7   7   19.20    5.40 
   3  -7   7   19.40    5.80 
  -3   7  -7   26.20    6.60 
   3   7   7   28.30    6.00 
  -3   7  -7    7.90    5.20 
   4  -7   7   13.70    6.00 
   4  -7   7   13.10    5.20 
   4   7   7   16.90    4.90 
  -4   7  -7    5.20    5.20 
  -4   7  -7   -8.40    5.50 
  -6  -8   7   57.49    7.50 
  -6  -8   7   50.09    6.50 
  -6  -8   7   59.69    7.00 
   6  -8  -7   42.50    7.10 
  -6   8   7   51.39    7.90 
  -5  -8   7   21.30    5.60 
  -5  -8   7   31.20    6.00 
   5  -8  -7   27.50    5.90 
  -5  -8   7   31.40    5.60 
   5   8  -7   14.90    5.90 
  -5   8   7   43.40    7.30 
  -4  -8   7   11.30    4.80 
  -4  -8   7   12.20    4.70 
  -4  -8   7   16.10    4.60 
   4  -8  -7    7.50    4.50 
   4   8  -7    9.10    5.20 
  -4   8   7   15.90    5.00 
  -3  -8   7   28.00    5.60 
  -3  -8   7   26.10    5.10 
   3  -8  -7   19.30    4.70 
  -3  -8   7   36.00    5.80 
   3   8  -7   31.60    6.30 
  -3   8   7   32.50    6.90 
   2  -8  -7   31.60    5.20 
  -2  -8   7   16.30    4.90 
  -2  -8   7   19.90    5.40 
  -2  -8   7   27.90    5.30 
  -2   8   7   19.00    5.30 
   2   8  -7   19.10    5.70 
   2   8  -7   25.80    4.60 
  -1  -8   7  101.19    8.60 
  -1  -8   7   79.89    7.80 
  -1  -8   7   87.59    8.20 
   1   8  -7   89.09    8.80 
   1   8  -7  100.59    7.40 
  -1   8   7   88.39    9.60 
   0  -8   7   85.89    8.40 
   0  -8   7   77.49    8.10 
   0  -8   7   75.99    7.80 
   0   8  -7   71.89    6.90 
   0   8  -7   65.29    8.10 
   0   8   7   74.19    9.00 
   1  -8   7   53.69    7.30 
   1  -8   7   58.39    7.40 
   1  -8   7   53.19    7.40 
   1   8   7   59.29    8.20 
  -1   8  -7   67.19    8.30 
  -1   8  -7   63.19    6.40 
   2  -8   7   83.79    8.80 
   2  -8   7   69.59    8.00 
   2  -8   7   51.59    7.60 
  -2   8  -7   89.59    8.20 
  -2   8  -7   62.19    8.30 
   2   8   7   66.59    8.30 
   3  -8   7   24.50    6.40 
   3  -8   7    7.30    5.20 
   3  -8   7   10.70    6.00 
   3   8   7    4.50    4.70 
  -3   8  -7    8.50    4.60 
  -3   8  -7   19.60    6.70 
  -5  -9   7    2.80    4.20 
  -5  -9   7    4.30    4.10 
   5  -9  -7    4.20    5.30 
  -5  -9   7    2.70    5.20 
  -5   9   7   10.20    6.00 
   5   9  -7   -1.40    5.70 
  -4  -9   7   34.40    5.70 
  -4  -9   7   35.50    6.00 
   4  -9  -7   35.90    6.70 
  -4  -9   7   39.20    6.00 
  -4   9   7   30.90    6.50 
   4   9  -7   37.00    7.00 
  -3  -9   7   49.70    6.40 
  -3  -9   7   37.50    6.60 
  -3  -9   7   51.29    6.50 
  -3   9   7   41.40    6.90 
   3   9  -7   45.60    7.50 
  -2  -9   7   16.40    5.20 
  -2  -9   7   18.40    5.10 
  -2  -9   7   13.70    5.30 
  -2   9   7   20.80    6.30 
   2   9  -7   32.20    6.90 
  -1  -9   7  118.79    8.90 
  -1  -9   7   94.89    8.90 
  -1  -9   7  104.79    9.10 
  -1   9   7  103.39   10.00 
   1   9  -7  104.69    9.90 
   0  -9   7   36.60    6.30 
   0  -9   7   36.50    6.30 
   0  -9   7   30.60    6.10 
   0   9   7   35.10    7.00 
   0   9  -7   34.20    6.90 
   1  -9   7    2.60    4.80 
   1  -9   7    0.90    4.90 
   1  -9   7    4.20    4.60 
  -1   9  -7    0.00    5.20 
  -1   9  -7    6.80    4.50 
   1   9   7    5.10    5.40 
   2  -9   7   13.90    5.60 
   2  -9   7    3.50    5.30 
   2  -9   7   22.30    6.10 
   2   9   7   14.40    5.80 
  -2   9  -7    2.40    4.60 
  -2   9  -7    7.40    6.00 
  -4 -10   7   31.20    5.90 
  -3 -10   7    3.70    4.60 
  -3 -10   7    8.20    5.30 
  -3 -10   7    7.20    4.30 
  -3  10   7    9.50    5.20 
   3  10  -7   11.80    6.10 
  -2 -10   7   46.20    6.80 
  -2 -10   7   61.49    7.30 
  -2 -10   7   35.40    6.50 
   2  10  -7   27.70    7.10 
  -2  10   7   44.00    8.10 
  -1 -10   7   32.90    6.00 
  -1 -10   7   30.30    6.20 
  -1 -10   7   32.40    6.40 
  -1  10   7   43.20    8.00 
   1  10  -7   48.70    8.00 
   0 -10   7   35.20    6.50 
   0 -10   7   21.20    5.70 
   0 -10   7   32.40    6.50 
   0  10  -7   28.60    7.00 
   0  10   7   47.50    8.40 
  -9   0   8   99.19   11.00 
   9   0  -8   86.89    9.50 
  -9   0   8  109.59   10.90 
  -8   0   8   10.70    5.70 
  -8   0   8   15.10    5.80 
  -8   0   8    8.70    5.90 
   8   0  -8    9.00    5.70 
   7   0  -8   25.50    6.20 
  -7   0   8   32.60    6.80 
  -7   0   8   42.00    6.70 
  -7   0   8   24.90    5.70 
  -6   0   8  183.58   10.90 
  -6   0   8  179.38   10.30 
  -6   0   8  190.98   11.10 
   6   0  -8  166.98    9.90 
  -6   0   8  211.28   10.60 
   5   0  -8  196.98   10.90 
  -5   0   8  171.48   10.30 
  -5   0   8  162.08    9.20 
  -5   0   8  189.18   10.90 
  -4   0   8  451.85   16.50 
   4   0  -8  446.46   16.80 
  -4   0   8  469.55   17.20 
  -4   0   8  450.25   16.60 
  -3   0   8    3.00    3.90 
   3   0  -8    8.20    4.70 
  -3   0   8   12.90    4.20 
  -3   0   8    5.70    3.50 
  -2   0   8   62.29    6.60 
   2   0  -8   66.19    4.00 
   2   0  -8   55.59    6.70 
  -2   0   8   66.39    6.20 
  -2   0   8   66.29    6.60 
   1   0  -8  114.19    8.50 
  -1   0   8  117.99    7.70 
  -1   0   8  125.29    8.20 
  -1   0   8  122.49    8.20 
   1   0  -8  130.19    6.10 
   0   0  -8  206.28    8.70 
   0   0   8  193.08   10.60 
   0   0   8  192.38   11.40 
   0   0   8  204.08   10.10 
   0   0  -8  202.78   10.70 
   1   0   8    5.00    4.00 
  -1   0  -8    0.60    4.50 
   1   0   8   15.30    4.90 
   2   0   8   -1.60    3.00 
  -2   0  -8    6.00    4.50 
   2   0   8    3.90    4.00 
   3   0   8   21.90    5.60 
  -3   0  -8   22.90    6.00 
   3   0   8   20.00    4.90 
   4   0   8    1.20    3.70 
   4   0   8    5.90    4.60 
  -4   0  -8   -5.20    4.50 
   5   0   8    1.40    4.20 
  -5   0  -8   -2.90    5.30 
   9  -1  -8    8.10    6.00 
  -9  -1   8    8.90    6.20 
  -9  -1   8    8.20    4.90 
  -9   1   8   12.00    6.60 
  -9   1   8    7.50    5.00 
   9   1  -8   17.00    6.00 
   8  -1  -8   10.30    5.70 
  -8  -1   8   -2.20    4.80 
  -8  -1   8    3.80    5.30 
  -8   1   8    7.10    5.30 
  -8   1   8    3.50    4.00 
   8   1  -8    3.50    5.20 
  -8   1   8    1.90    4.10 
  -7  -1   8    1.00    5.00 
  -7  -1   8   -4.00    4.50 
  -7  -1   8    9.00    4.10 
   7  -1  -8   -2.40    4.80 
  -7  -1   8   -7.30    4.10 
  -7   1   8    2.90    4.10 
  -7   1   8    2.70    4.60 
  -7   1   8    7.60    4.40 
   7   1  -8    1.80    4.90 
  -6  -1   8   10.50    4.90 
   6  -1  -8   14.60    5.40 
  -6  -1   8    8.70    5.10 
  -6  -1   8   11.40    5.10 
  -6   1   8   13.40    5.20 
  -6   1   8    9.70    5.20 
  -6   1   8    6.70    4.80 
   6   1  -8   10.80    5.20 
  -5  -1   8    4.30    4.50 
  -5  -1   8   -3.20    4.00 
   5  -1  -8    8.30    5.10 
  -5  -1   8   -3.10    4.30 
  -5   1   8    1.20    3.50 
  -5   1   8    3.30    4.30 
  -5   1   8   -1.60    4.50 
   5   1  -8    1.90    4.50 
  -5   1   8    3.40    4.50 
  -4  -1   8   28.60    6.00 
  -4  -1   8   52.29    6.40 
   4  -1  -8   48.30    6.60 
  -4  -1   8   45.90    6.10 
  -4   1   8   46.00    6.00 
  -4   1   8   46.60    5.80 
  -4   1   8   39.50    5.10 
   4   1  -8   38.20    6.10 
  -3  -1   8  332.17   13.10 
  -3  -1   8  327.57   13.50 
   3  -1  -8  323.37   13.70 
  -3  -1   8  331.67   14.00 
  -3   1   8  327.87   13.10 
   3   1  -8  317.77   10.20 
   3   1  -8  324.07   13.60 
  -3   1   8  341.27   13.20 
  -3   1   8  319.27   13.20 
   2  -1  -8   47.30    6.30 
  -2  -1   8   59.99    6.90 
  -2  -1   8   49.20    6.10 
  -2  -1   8   52.99    6.20 
  -2   1   8   52.59    6.00 
  -2   1   8   47.90    5.90 
  -2   1   8   53.39    5.80 
   2   1  -8   55.19    6.50 
   2   1  -8   48.30    4.10 
  -1  -1   8  145.89    9.00 
  -1  -1   8  129.19    8.60 
  -1  -1   8  142.89    9.30 
   1  -1  -8  142.19    5.80 
   1  -1  -8  149.79    9.10 
   1   1  -8  134.19    8.10 
  -1   1   8  146.89    8.30 
   1   1  -8  133.09    6.80 
  -1   1   8  148.89    8.60 
  -1   1   8  139.89    9.70 
   0  -1   8    5.10    3.20 
   0  -1  -8    0.90    4.20 
   0  -1   8    4.70    4.20 
   0  -1   8   10.50    3.90 
   0   1   8    9.30    4.00 
   0   1   8    2.40    4.20 
   0   1  -8    1.30    3.30 
   0   1  -8   -5.10    4.00 
  -1  -1  -8   39.70    6.20 
   1  -1   8   33.90    5.40 
   1  -1   8   27.70    5.40 
  -1   1  -8   43.30    6.30 
   1   1   8   27.90    5.30 
   1   1   8   30.10    5.30 
   2  -1   8   18.50    5.50 
   2  -1   8   10.20    4.60 
  -2  -1  -8    9.10    5.00 
   2   1   8   12.80    5.00 
  -2   1  -8   20.80    5.70 
   2   1   8    9.80    4.50 
   3  -1   8   11.30    4.30 
  -3  -1  -8    6.90    4.90 
   3  -1   8    8.50    4.70 
   3   1   8   -1.60    4.30 
   3   1   8    3.40    3.80 
  -3   1  -8    6.40    4.90 
   4  -1   8   59.99    7.30 
   4  -1   8   55.89    7.90 
  -4  -1  -8   65.49    7.90 
  -4   1  -8   54.39    7.80 
   4   1   8   65.59    7.10 
   4   1   8   63.09    8.00 
  -5  -1  -8   68.89    8.50 
   5  -1   8   55.79    7.40 
   5  -1   8   58.89    8.40 
   5   1   8   56.89    6.90 
  -5   1  -8   64.49    8.60 
  -9   2   8   64.59    9.30 
  -8  -2   8   47.00    6.80 
  -8  -2   8   48.50    7.50 
   8  -2  -8   57.59    8.20 
  -8  -2   8   45.80    7.40 
   8   2  -8   49.99    7.30 
  -8   2   8   50.89    8.20 
  -8   2   8   49.30    7.50 
  -8   2   8   54.79    7.00 
  -7  -2   8   19.80    5.60 
   7  -2  -8   -0.70    4.90 
  -7  -2   8   12.60    5.30 
  -7  -2   8   11.00    5.50 
  -7   2   8    6.30    4.50 
   7   2  -8    4.80    5.00 
  -7   2   8    9.00    5.50 
  -7   2   8   10.20    4.60 
   6  -2  -8   66.19    7.50 
  -6  -2   8   57.79    7.30 
  -6  -2   8   65.09    7.60 
  -6  -2   8   66.99    7.90 
  -6   2   8   57.59    7.20 
   6   2  -8   66.19    7.40 
  -6   2   8   70.59    7.50 
  -6   2   8   74.09    8.20 
  -5  -2   8  226.28   11.80 
  -5  -2   8  220.68   11.40 
  -5  -2   8  222.88   11.40 
   5  -2  -8  209.68   11.60 
  -5   2   8  210.88   11.80 
  -5   2   8  201.38   10.60 
   5   2  -8  209.38   11.20 
  -5   2   8  218.98   11.10 
   4  -2  -8  190.88   10.80 
  -4  -2   8  213.98   11.30 
  -4  -2   8  207.68   10.90 
  -4  -2   8  187.08    9.80 
  -4   2   8  204.98   11.00 
  -4   2   8  200.38   10.20 
   4   2  -8  208.58   10.90 
  -4   2   8  204.38   10.80 
  -3  -2   8  199.88   10.20 
  -3  -2   8  205.58   10.70 
   3  -2  -8  196.68   10.60 
  -3  -2   8  204.28   10.80 
  -3   2   8  217.88   10.10 
   3   2  -8  201.78   10.70 
  -3   2   8  206.48   12.00 
  -3   2   8  209.08   10.70 
   3   2  -8  206.28    8.30 
   2  -2  -8  212.58   10.60 
  -2  -2   8  187.68   10.30 
  -2  -2   8  211.58   10.60 
  -2  -2   8  190.78   10.00 
  -2   2   8  189.08    9.50 
   2   2  -8  197.48    8.40 
  -2   2   8  201.68   10.30 
  -2   2   8  201.08   11.90 
   2   2  -8  196.88   10.60 
  -1  -2   8  153.08    9.00 
   1  -2  -8  178.08    8.80 
  -1  -2   8  144.79    9.30 
  -1  -2   8  154.98    9.50 
  -1   2   8  147.69   10.60 
   1   2  -8  156.48    9.50 
   1   2  -8  165.08    7.90 
  -1   2   8  149.69    9.00 
  -1   2   8  153.88    8.40 
   0  -2   8  117.39    9.00 
   0  -2   8  132.39    8.70 
   0  -2  -8  120.89    8.60 
   0  -2   8  127.79    8.70 
   0   2   8  124.69    8.30 
   0   2   8  131.29    8.20 
   0   2  -8  128.29    9.00 
   0   2   8  127.09   10.00 
   0   2  -8  119.39    7.30 
   1  -2   8   35.80    5.70 
   1  -2   8   37.40    5.80 
  -1  -2  -8   44.20    6.20 
   1  -2   8   44.00    6.20 
   1   2   8   38.70    5.80 
  -1   2  -8   38.20    6.20 
   1   2   8   49.90    7.30 
  -1   2  -8   36.50    5.40 
   1   2   8   39.40    5.10 
  -2  -2  -8   83.69    7.80 
   2  -2   8   77.99    8.30 
   2  -2   8   72.39    7.50 
   2   2   8   76.69    6.50 
  -2   2  -8   71.29    7.80 
   2   2   8   76.19    8.30 
   2   2   8   85.99    7.80 
   3  -2   8   74.29    7.90 
  -3  -2  -8   60.99    7.30 
   3  -2   8   69.49    7.60 
   3   2   8   72.69    8.30 
   3   2   8   61.79    6.40 
  -3   2  -8   72.99    7.50 
   4  -2   8    9.00    4.60 
  -4  -2  -8    7.40    5.30 
   4  -2   8    6.40    5.00 
   4   2   8   15.10    5.90 
  -4   2  -8   14.10    5.90 
   4   2   8   13.30    4.50 
   5  -2   8    7.80    5.20 
  -5  -2  -8    2.20    5.00 
   5  -2   8    0.10    5.50 
  -5   2  -8   11.40    6.10 
  -8  -3   8   18.90    5.90 
  -8  -3   8   40.80    7.30 
  -8  -3   8   21.60    6.60 
   8  -3  -8   24.60    7.10 
  -8   3   8   28.70    6.50 
  -8   3   8   17.60    6.70 
   8   3  -8   24.30    6.30 
  -8   3   8   34.80    6.10 
  -7  -3   8   98.29    8.70 
  -7  -3   8   84.49    8.20 
   7  -3  -8   95.89    9.40 
  -7  -3   8   88.09    9.10 
  -7   3   8   86.09    9.20 
   7   3  -8   84.39    8.10 
  -7   3   8   96.39    8.70 
  -7   3   8   76.99    8.10 
  -6  -3   8   11.00    5.10 
  -6  -3   8    7.60    4.90 
   6  -3  -8   11.60    5.60 
  -6  -3   8   18.30    5.40 
  -6   3   8   15.40    5.40 
  -6   3   8   18.20    5.70 
  -6   3   8   13.30    4.80 
   6   3  -8    4.60    4.60 
  -5  -3   8  161.38    9.90 
   5  -3  -8  133.59    9.80 
  -5  -3   8  133.39    9.70 
  -5  -3   8  139.09    9.50 
  -5   3   8  146.69    9.80 
  -5   3   8  152.98   10.20 
   5   3  -8  150.88    9.50 
  -5   3   8  147.19    9.10 
  -4  -3   8   75.29    7.70 
  -4  -3   8   83.79    7.90 
   4  -3  -8   85.89    8.00 
  -4  -3   8   80.99    8.00 
   4   3  -8   88.49    6.20 
  -4   3   8   75.49    8.30 
   4   3  -8   84.49    7.70 
  -4   3   8   79.99    7.30 
  -4   3   8   69.79    7.30 
   3  -3  -8  190.88   10.60 
  -3  -3   8  202.48   10.10 
  -3  -3   8  191.48   10.80 
  -3  -3   8  192.58   10.50 
  -3   3   8  214.48   12.00 
   3   3  -8  178.28   10.20 
  -3   3   8  207.48    9.70 
   3   3  -8  205.78    9.00 
  -3   3   8  198.18    9.60 
  -2  -3   8   -2.10    4.20 
   2  -3  -8    3.40    4.20 
  -2  -3   8   -1.70    3.20 
  -2  -3   8    1.40    3.90 
   2   3  -8    1.70    4.20 
   2   3  -8   -0.50    3.30 
  -2   3   8    3.80    3.30 
  -2   3   8    3.40    5.00 
  -2   3   8   -1.90    3.50 
  -1  -3   8  232.08   11.90 
  -1  -3   8  247.88   11.70 
   1  -3  -8  247.08   11.20 
  -1  -3   8  226.58   11.50 
  -1   3   8  220.88   11.80 
   1   3  -8  229.58   10.20 
  -1   3   8  231.68   10.80 
  -1   3   8  234.18   10.20 
   1   3  -8  235.98   11.40 
   0  -3   8   74.59    7.20 
   0  -3   8   79.09    7.70 
   0  -3   8   84.99    7.60 
   0  -3  -8   83.09    7.30 
   0   3   8   74.29    6.10 
   0   3  -8   80.49    7.80 
   0   3   8   73.19    6.80 
   0   3  -8   86.79    6.80 
   0   3   8   68.19    7.60 
   1  -3   8   -2.10    4.30 
   1  -3   8    4.80    4.30 
  -1  -3  -8    2.90    4.10 
   1  -3   8    6.40    4.50 
  -1   3  -8   -0.40    3.30 
   1   3   8   -1.10    3.20 
   1   3   8    5.40    5.10 
   1   3   8   -3.30    3.40 
  -1   3  -8    6.00    4.10 
  -2  -3  -8   17.50    5.20 
   2  -3   8   11.80    4.50 
   2  -3   8   22.10    5.60 
   2   3   8   10.40    3.80 
   2   3   8   13.80    5.80 
  -2   3  -8    3.70    4.70 
  -2   3  -8   12.80    5.20 
   3  -3   8   18.00    5.40 
  -3  -3  -8   23.10    5.60 
   3  -3   8   14.30    5.70 
   3   3   8   15.40    5.60 
   3   3   8   18.20    4.30 
  -3   3  -8    7.60    4.40 
  -4  -3  -8   68.99    7.90 
   4  -3   8   62.09    8.60 
   4  -3   8   65.99    8.10 
   4   3   8   74.29    8.00 
  -4   3  -8   65.59    8.30 
   5  -3   8   41.30    8.00 
  -8  -4   8   26.30    6.60 
  -8  -4   8   41.10    6.60 
  -8  -4   8   38.00    7.00 
   8  -4  -8   28.60    7.10 
  -8   4   8   37.90    6.70 
   8   4  -8   32.10    5.90 
  -8   4   8   25.30    6.20 
   8   4  -8   34.30    7.40 
  -8   4   8   51.79    8.20 
  -7  -4   8   12.50    4.30 
   7  -4  -8    9.70    5.90 
  -7  -4   8    3.40    5.10 
  -7  -4   8   10.00    5.30 
  -7   4   8    8.50    5.60 
  -7   4   8    4.20    4.50 
  -7   4   8    6.60    5.00 
   7   4  -8    8.70    4.70 
  -6  -4   8   20.00    5.70 
  -6  -4   8   24.90    5.80 
  -6  -4   8   20.80    5.70 
   6  -4  -8   20.80    6.00 
  -6   4   8   30.80    6.10 
   6   4  -8   24.90    5.30 
  -6   4   8   21.20    5.90 
  -6   4   8   22.10    5.10 
  -5  -4   8  127.79    9.40 
  -5  -4   8  127.89    8.60 
   5  -4  -8  146.09   10.00 
  -5  -4   8  129.19    9.20 
  -5   4   8  123.49    8.90 
  -5   4   8  129.49    9.30 
   5   4  -8  138.99    9.00 
  -5   4   8  135.89    8.50 
  -4  -4   8   20.50    5.50 
  -4  -4   8   27.50    4.90 
   4  -4  -8   19.10    5.20 
  -4  -4   8   22.50    5.60 
   4   4  -8   24.00    4.40 
  -4   4   8   23.90    5.30 
  -4   4   8   21.60    5.70 
   4   4  -8   19.30    5.00 
  -4   4   8   26.90    4.80 
   3  -4  -8   54.19    6.50 
  -3  -4   8   43.00    6.20 
  -3  -4   8   38.80    5.40 
  -3  -4   8   58.79    7.20 
   3   4  -8   60.99    6.80 
  -3   4   8   48.60    5.30 
   3   4  -8   53.89    5.70 
  -3   4   8   39.10    6.80 
  -3   4   8   43.20    5.90 
   2  -4  -8   83.69    7.50 
  -2  -4   8  110.39    8.80 
  -2  -4   8   82.09    8.00 
  -2  -4   8   92.09    8.20 
  -2   4   8   96.99    6.80 
   2   4  -8   88.19    7.70 
  -2   4   8   93.89    7.30 
   2   4  -8   93.19    6.90 
  -2   4   8   95.79    9.20 
  -1  -4   8   72.89    7.40 
  -1  -4   8   80.79    7.90 
   1  -4  -8   82.69    7.30 
  -1  -4   8   74.89    7.90 
  -1   4   8   86.69    7.00 
   1   4  -8   70.39    6.50 
   1   4  -8   79.19    7.50 
  -1   4   8   80.79    6.20 
  -1   4   8   74.59    8.40 
   0  -4   8   27.50    5.90 
   0  -4   8   25.60    5.00 
   0  -4  -8   31.90    5.30 
   0  -4   8   43.00    6.30 
   0   4  -8   40.30    5.60 
   0   4   8   32.80    4.20 
   0   4   8   31.10    5.40 
   0   4   8   34.20    6.70 
   0   4  -8   32.20    5.90 
   1  -4   8  123.39    9.70 
  -1  -4  -8  107.19    8.10 
   1  -4   8  114.19    9.20 
   1  -4   8  118.59    8.20 
  -1   4  -8  115.19    9.10 
  -1   4  -8  111.79    9.10 
   1   4   8  126.19    9.90 
   2  -4   8  189.58   11.40 
   2  -4   8  204.88   12.00 
  -2  -4  -8  185.58   10.40 
  -2   4  -8  192.38   11.10 
   2   4   8  193.28   11.70 
  -2   4  -8  204.88   11.70 
  -3  -4  -8  233.08   11.70 
   3  -4   8  228.18   12.70 
   3  -4   8  219.68   13.10 
  -3   4  -8  217.48   12.80 
  -3   4  -8  228.38   12.80 
   3   4   8  242.48   12.80 
   4  -4   8   41.20    7.80 
   4  -4   8   45.20    7.40 
  -4  -4  -8   39.80    6.60 
   4   4   8   45.20    6.80 
  -4   4  -8   36.50    7.10 
   8  -5  -8   27.50    7.40 
  -8  -5   8   24.40    7.60 
  -8  -5   8   35.50    7.10 
  -8  -5   8   27.40    6.50 
  -8   5   8   44.40    7.00 
  -8   5   8   22.60    7.60 
  -8   5   8   32.90    6.40 
   8   5  -8   24.50    5.90 
   8   5  -8   23.70    6.40 
  -7  -5   8   29.50    6.40 
  -7  -5   8   27.00    6.10 
   7  -5  -8   24.60    6.60 
  -7  -5   8   27.70    6.30 
   7   5  -8   16.40    5.80 
   7   5  -8   35.20    5.70 
  -7   5   8   33.80    6.10 
  -7   5   8   25.80    5.60 
  -7   5   8   29.30    6.20 
   6  -5  -8    7.00    5.20 
  -6  -5   8    3.10    4.30 
  -6  -5   8    7.50    4.80 
  -6  -5   8   10.10    5.10 
  -6   5   8    3.90    4.60 
  -6   5   8    5.70    4.70 
  -6   5   8   10.80    5.20 
   6   5  -8    1.10    4.10 
   6   5  -8    3.60    4.30 
  -5  -5   8  188.08   10.90 
  -5  -5   8  187.88   11.10 
  -5  -5   8  177.48   10.90 
   5  -5  -8  195.48   11.30 
   5   5  -8  198.38   10.20 
  -5   5   8  197.78    9.70 
  -5   5   8  189.78   10.90 
  -5   5   8  214.48   12.30 
   5   5  -8  182.78    9.50 
   4  -5  -8   87.59    8.10 
  -4  -5   8   87.49    8.20 
  -4  -5   8   88.29    8.30 
  -4  -5   8   89.49    8.40 
  -4   5   8  102.59    7.40 
  -4   5   8   92.69    8.90 
   4   5  -8   87.99    7.50 
   4   5  -8   95.59    7.40 
  -4   5   8   91.09    8.10 
  -3  -5   8   70.69    7.10 
  -3  -5   8   74.49    7.20 
   3  -5  -8   69.49    7.10 
  -3  -5   8   69.49    7.40 
  -3   5   8   65.89    8.10 
   3   5  -8   71.39    6.80 
  -3   5   8   79.99    7.20 
   3   5  -8   69.09    6.90 
  -3   5   8   68.99    5.80 
  -2  -5   8  107.49    8.90 
   2  -5  -8  110.29    8.20 
  -2  -5   8  112.19    8.10 
  -2  -5   8  127.09    9.00 
  -2   5   8  122.49   10.10 
   2   5  -8  110.09    8.10 
  -2   5   8  103.79    6.50 
   2   5  -8  107.29    7.80 
  -1  -5   8   45.30    6.40 
  -1  -5   8   45.50    6.90 
  -1  -5   8   47.10    6.50 
   1  -5  -8   37.60    5.50 
   1   5  -8   44.40    5.90 
   1   5  -8   54.39    6.50 
  -1   5   8   47.30    7.50 
  -1   5   8   41.60    4.30 
   0  -5   8   50.79    7.10 
   0  -5   8   61.89    6.70 
   0  -5   8   56.69    7.10 
   0  -5  -8   57.89    6.30 
   0   5  -8   51.69    6.60 
   0   5  -8   58.09    6.70 
   0   5   8   51.19    7.60 
  -1  -5  -8    6.40    4.20 
   1  -5   8    8.50    5.00 
   1  -5   8   13.20    5.70 
   1  -5   8   13.70    5.20 
   1   5   8   11.10    5.40 
  -1   5  -8   13.70    5.00 
  -1   5  -8   19.90    5.40 
   2  -5   8   46.70    6.80 
   2  -5   8   36.30    6.80 
   2  -5   8   36.40    6.60 
  -2  -5  -8   57.19    6.80 
   2   5   8   38.70    6.70 
  -2   5  -8   53.29    7.10 
  -2   5  -8   40.50    6.70 
   3  -5   8   44.20    7.20 
   3  -5   8   37.70    7.40 
  -3  -5  -8   43.70    6.30 
  -3   5  -8   46.10    7.30 
   3   5   8   53.09    7.40 
  -3   5  -8   41.10    6.70 
   4  -5   8   70.19    8.80 
   4  -5   8   50.29    8.40 
  -4  -5  -8   54.99    7.20 
  -4   5  -8   44.40    7.80 
   4   5   8   67.39    7.80 
  -4   5  -8   45.60    8.50 
  -7  -6   8   26.70    6.60 
  -7  -6   8   30.10    6.40 
  -7  -6   8   29.30    6.30 
   7  -6  -8   27.20    6.90 
   7   6  -8   22.20    5.40 
  -7   6   8   20.50    5.70 
  -7   6   8   41.40    7.30 
   6  -6  -8   67.09    8.20 
  -6  -6   8   71.69    7.80 
  -6  -6   8   60.89    7.90 
  -6  -6   8   59.69    7.60 
   6   6  -8   56.09    6.60 
   6   6  -8   57.19    6.50 
  -6   6   8   70.19    7.10 
  -6   6   8   70.49    8.50 
   5  -6  -8   14.10    5.30 
  -5  -6   8   13.10    5.10 
  -5  -6   8   16.90    5.20 
  -5  -6   8   10.70    4.90 
  -5   6   8   14.00    4.30 
   5   6  -8    8.90    4.70 
  -5   6   8    4.90    5.30 
   4  -6  -8   34.90    6.10 
  -4  -6   8   29.80    5.80 
  -4  -6   8   24.90    5.70 
  -4  -6   8   25.90    5.80 
   4   6  -8   34.20    6.10 
  -4   6   8   21.50    6.40 
   4   6  -8   26.90    5.10 
  -4   6   8   29.10    4.60 
   3  -6  -8   59.39    7.10 
  -3  -6   8   56.29    6.60 
  -3  -6   8   56.39    7.10 
  -3  -6   8   61.59    7.30 
   3   6  -8   71.89    7.50 
  -3   6   8   59.69    8.20 
  -3   6   8   66.59    5.30 
   3   6  -8   67.49    6.70 
  -2  -6   8   10.50    5.00 
   2  -6  -8   29.50    5.70 
  -2  -6   8   28.00    5.20 
  -2  -6   8   25.10    5.50 
   2   6  -8   19.10    5.00 
  -2   6   8   28.00    6.60 
   2   6  -8   21.70    5.50 
  -1  -6   8   15.80    5.10 
  -1  -6   8   12.70    4.20 
  -1  -6   8   14.40    5.40 
   1  -6  -8   13.30    4.40 
   1   6  -8   17.20    5.00 
  -1   6   8   25.10    6.40 
   1   6  -8   12.40    4.60 
   0  -6   8    8.60    5.10 
   0  -6   8    5.30    4.70 
   0  -6   8   19.20    5.70 
   0  -6  -8    8.40    4.20 
   0   6  -8   13.10    5.00 
   0   6  -8   16.10    4.90 
   0   6   8   18.00    5.80 
  -1  -6  -8   44.90    6.20 
   1  -6   8   54.09    7.30 
   1  -6   8   48.20    7.40 
   1  -6   8   54.49    7.40 
  -1   6  -8   49.00    6.60 
  -1   6  -8   58.99    7.30 
   1   6   8   44.50    7.40 
  -2  -6  -8   97.89    7.80 
   2  -6   8  101.09    9.90 
   2  -6   8   88.29    9.00 
   2  -6   8   95.99    9.40 
  -2   6  -8   90.99    9.30 
   2   6   8   90.59    9.40 
  -2   6  -8   89.59    8.60 
   3  -6   8  174.48   11.80 
   3  -6   8  145.29   11.70 
   3   6   8  165.38   11.30 
  -3   6  -8  147.99   11.60 
  -3   6  -8  175.18   11.50 
  -6  -7   8   11.70    5.10 
  -6  -7   8   14.00    5.60 
   6  -7  -8    9.90    5.60 
  -6  -7   8    2.40    4.70 
  -6   7   8   19.40    6.20 
  -5  -7   8   55.39    7.20 
  -5  -7   8   62.59    7.70 
   5  -7  -8   50.99    7.20 
  -5  -7   8   54.99    7.10 
   5   7  -8   44.20    7.00 
  -5   7   8   59.19    8.40 
   5   7  -8   54.79    6.20 
  -4  -7   8   43.30    6.70 
  -4  -7   8   34.50    6.40 
   4  -7  -8   40.60    6.30 
  -4  -7   8   22.50    5.40 
   4   7  -8   25.80    6.10 
   4   7  -8   34.00    5.30 
  -4   7   8   46.60    7.00 
  -3  -7   8  130.59    9.40 
   3  -7  -8  124.19    9.70 
  -3  -7   8  129.99    9.60 
  -3  -7   8  137.69    9.80 
  -3   7   8  148.69   11.50 
   3   7  -8  131.39    8.80 
   3   7  -8  133.39    9.70 
   2  -7  -8  158.58    9.20 
  -2  -7   8  131.99    9.60 
  -2  -7   8  146.59   10.00 
  -2  -7   8  160.18   10.30 
   2   7  -8  137.19    8.70 
  -2   7   8  144.09   10.40 
   2   7  -8  140.59    9.90 
  -1  -7   8    2.20    5.00 
  -1  -7   8   11.00    4.80 
   1  -7  -8   12.80    4.40 
  -1  -7   8    9.60    5.10 
  -1   7   8   11.10    5.90 
   1   7  -8    0.60    4.40 
   1   7  -8   13.10    5.10 
   0  -7   8   41.50    6.60 
   0  -7  -8   43.00    7.10 
   0  -7   8   54.49    7.50 
   0  -7   8   44.40    6.90 
   0   7  -8   48.50    6.30 
   0   7  -8   47.70    7.10 
   0   7   8   47.20    7.30 
   1  -7   8   19.60    5.70 
   1  -7   8   11.00    5.30 
   1  -7   8    6.70    4.30 
  -1   7  -8    7.00    4.30 
  -1   7  -8    5.40    5.20 
   1   7   8   16.00    5.90 
   2  -7   8   31.30    6.70 
   2  -7   8   43.40    7.50 
   2  -7   8   30.10    6.40 
  -2   7  -8   21.90    6.60 
  -2   7  -8   33.60    6.70 
   2   7   8   44.20    7.50 
   3  -7   8   37.80    8.90 
  -3   7  -8   62.19    8.60 
   3   7   8   57.09    7.90 
  -5  -8   8   36.10    6.40 
   5  -8  -8   44.90    7.00 
  -5  -8   8   39.80    6.60 
  -5  -8   8   42.80    7.00 
  -5   8   8   35.90    7.40 
   5   8  -8   23.60    6.40 
  -4  -8   8   24.30    5.90 
  -4  -8   8   17.10    5.90 
   4  -8  -8   11.80    5.20 
  -4  -8   8   23.70    5.90 
   4   8  -8   16.20    5.70 
  -4   8   8   20.80    6.60 
  -3  -8   8  106.49    9.20 
   3  -8  -8  113.99    8.60 
  -3  -8   8   90.69    8.80 
  -3  -8   8  108.69    9.10 
   3   8  -8   82.19    8.70 
  -3   8   8  111.19   10.90 
  -2  -8   8   10.50    5.00 
  -2  -8   8   10.70    5.30 
  -2  -8   8   10.50    5.20 
  -2   8   8   15.10    6.30 
   2   8  -8    5.30    4.30 
   2   8  -8   14.80    5.60 
  -1  -8   8   59.09    7.60 
  -1  -8   8   50.39    7.40 
  -1  -8   8   52.49    7.10 
   1   8  -8   45.30    7.20 
  -1   8   8   64.29    8.80 
   1   8  -8   55.39    6.40 
   0  -8   8    0.00    4.50 
   0  -8   8   10.60    5.40 
   0  -8   8    7.40    5.30 
   0   8  -8   10.00    5.60 
   0   8   8    2.40    5.40 
   0   8  -8   -2.20    4.40 
   1  -8   8   19.60    6.00 
   1  -8   8   18.40    6.20 
   1  -8   8   15.70    5.80 
  -1   8  -8   14.80    5.10 
   1   8   8   17.20    6.00 
  -1   8  -8   10.50    5.60 
   2   8   8   19.30    6.20 
  -2   8  -8   19.20    6.40 
  -4  -9   8   46.10    7.10 
  -4  -9   8   27.20    6.00 
  -4  -9   8   35.10    6.30 
  -4   9   8   51.89   10.00 
   4   9  -8   41.90    7.50 
  -3  -9   8   54.29    7.30 
  -3  -9   8   56.89    7.40 
  -3  -9   8   54.39    7.50 
  -3   9   8   72.89    9.40 
   3   9  -8   62.19    8.20 
  -2  -9   8    0.80    4.80 
  -2  -9   8   -0.30    4.30 
  -2  -9   8    7.20    5.00 
   2   9  -8    5.30    5.70 
  -2   9   8    8.00    5.90 
  -1  -9   8   25.00    6.00 
  -1  -9   8   29.30    6.90 
  -1  -9   8   15.00    5.70 
  -1   9   8   21.00    6.80 
   1   9  -8   12.50    6.10 
   0  -9   8   95.39    9.10 
   0  -9   8   96.09   11.30 
   0  -9   8   84.39    9.10 
   0   9   8   95.49   10.30 
   0   9  -8   90.59    9.80 
  -8   0   9   30.80    6.50 
  -8   0   9   13.30    6.20 
   8   0  -9   25.90    6.80 
  -8   0   9   31.20    6.90 
   7   0  -9    4.70    5.50 
  -7   0   9  -10.00    5.10 
  -7   0   9    2.90    5.10 
  -7   0   9    1.80    4.10 
  -6   0   9   92.79    8.70 
  -6   0   9   79.19    9.20 
  -6   0   9   80.39    8.90 
   6   0  -9   81.29    8.60 
  -5   0   9  475.35   18.30 
   5   0  -9  460.45   17.50 
  -5   0   9  461.65   17.70 
   4   0  -9   77.99    8.20 
  -4   0   9   72.69    8.10 
  -4   0   9   60.29    7.10 
   3   0  -9   12.60    5.20 
  -3   0   9   11.00    4.40 
  -3   0   9   13.30    4.80 
  -2   0   9   34.90    6.30 
   2   0  -9   42.50    6.40 
  -2   0   9   36.70    5.90 
   1   0  -9    7.60    4.70 
  -1   0   9    5.80    4.90 
  -1   0   9   10.80    4.50 
   0   0   9   40.40    6.00 
   0   0  -9   35.50    6.30 
   0   0  -9   47.90    5.60 
   0   0   9   46.60    6.90 
   1   0   9   50.79    7.30 
   1   0   9   63.29    6.90 
  -1   0  -9   46.70    6.90 
   2   0   9   26.40    5.50 
  -2   0  -9   35.90    6.70 
   2   0   9   29.60    6.30 
  -3   0  -9    0.60    5.20 
   3   0   9   -8.50    3.80 
   3   0   9    6.10    5.30 
  -4   0  -9   19.70    6.50 
   4   0   9   16.70    5.80 
  -8  -1   9   12.00    5.10 
  -8  -1   9   10.60    5.20 
   8  -1  -9    7.50    4.80 
  -8   1   9   12.90    5.50 
  -8   1   9    9.90    6.20 
  -8   1   9   15.70    6.30 
   8   1  -9    8.90    5.90 
   7  -1  -9    5.20    5.50 
  -7  -1   9    7.30    5.10 
  -7  -1   9    3.60    5.40 
  -7  -1   9   -4.90    5.10 
   7   1  -9    2.00    5.30 
  -7   1   9   -9.60    4.60 
  -7   1   9    5.90    5.80 
  -7   1   9    4.20    5.00 
  -6  -1   9   16.80    4.70 
  -6  -1   9    7.70    5.60 
   6  -1  -9    6.20    5.40 
  -6   1   9   22.10    6.10 
   6   1  -9    5.60    5.40 
  -6   1   9    8.80    5.60 
  -6   1   9   16.90    5.60 
  -5  -1   9   89.89    8.50 
  -5  -1   9  110.49    9.20 
   5  -1  -9  104.99    8.20 
  -5   1   9   98.99    8.70 
   5   1  -9   94.39    8.80 
  -5   1   9  105.39   10.10 
  -5   1   9   94.49    8.60 
  -4  -1   9   84.79    8.10 
  -4  -1   9   95.49    8.70 
   4  -1  -9   85.39    8.40 
  -4  -1   9  102.39    9.10 
   4   1  -9   88.09    8.50 
  -4   1   9   94.59    9.60 
  -4   1   9   73.79    7.50 
  -4   1   9   89.99    8.70 
  -3  -1   9   20.20    5.70 
   3  -1  -9   16.90    5.50 
  -3  -1   9   15.80    5.10 
  -3  -1   9    6.00    4.70 
   3   1  -9   14.80    5.40 
  -3   1   9   14.60    4.80 
  -3   1   9   20.80    5.40 
  -2  -1   9  144.09    9.40 
   2  -1  -9  135.69    8.60 
  -2  -1   9  130.99    8.70 
  -2   1   9  125.39    9.30 
  -2   1   9  118.89    8.40 
   2   1  -9  133.79    9.60 
  -1  -1   9   23.10    5.30 
   1  -1  -9   20.70    5.30 
  -1  -1   9   29.10    6.10 
  -1   1   9   31.10    5.40 
   1   1  -9   33.70    6.00 
   1   1  -9   27.80    4.00 
  -1   1   9   28.10    5.00 
   0  -1   9   23.20    5.50 
   0  -1  -9   18.70    5.40 
   0  -1   9   15.20    5.50 
   0   1   9   29.00    5.00 
   0   1  -9   23.30    5.90 
   0   1   9   21.80    5.00 
   0   1  -9   20.80    4.20 
   1  -1   9   15.30    4.90 
  -1  -1  -9   18.50    4.70 
   1  -1   9    6.10    5.30 
   1   1   9   22.50    4.90 
  -1   1  -9    9.80    4.60 
   1   1   9   21.00    5.80 
  -1   1  -9   34.80    6.50 
   2  -1   9   15.50    5.70 
  -2  -1  -9   11.80    5.60 
   2  -1   9   -1.30    4.50 
   2   1   9    6.40    4.90 
  -2   1  -9   15.20    4.90 
   2   1   9   15.20    4.50 
  -3  -1  -9   31.80    6.80 
   3  -1   9   25.50    5.90 
   3  -1   9   38.40    6.50 
  -3   1  -9   33.60    7.00 
   3   1   9   19.80    6.80 
   3   1   9   26.70    5.70 
   4  -1   9   60.79    7.80 
   4  -1   9   70.89    8.40 
  -4  -1  -9   89.19    9.40 
  -4   1  -9   88.19    8.90 
   4   1   9   65.89    9.60 
   4   1   9   70.19    7.60 
  -8  -2   9   46.70    7.70 
   8  -2  -9   31.40    7.90 
  -8  -2   9   35.30    7.60 
  -8   2   9   32.10    6.80 
   8   2  -9   29.40    7.00 
  -8   2   9   33.10    7.50 
  -8   2   9   35.70    6.50 
  -7  -2   9   43.00    6.70 
  -7  -2   9   31.20    6.00 
   7  -2  -9   33.70    7.20 
  -7   2   9   32.00    6.60 
   7   2  -9   48.70    7.30 
  -7   2   9   34.60    6.40 
  -7   2   9   40.70    6.60 
  -6  -2   9   27.10    6.70 
  -6  -2   9   14.60    5.60 
   6  -2  -9   27.60    6.60 
  -6  -2   9   27.80    6.30 
   6   2  -9   33.50    6.40 
  -6   2   9   29.00    5.80 
  -6   2   9   20.40    5.80 
  -6   2   9   26.00    6.40 
  -5  -2   9  161.28   10.90 
  -5  -2   9  174.18   11.00 
  -5  -2   9  167.78   10.70 
   5  -2  -9  165.38   11.00 
  -5   2   9  171.38   10.40 
  -5   2   9  171.48   10.90 
  -5   2   9  163.78   11.40 
   5   2  -9  175.28   10.90 
   4  -2  -9    5.70    4.00 
  -4  -2   9    5.90    3.90 
  -4  -2   9    7.30    5.00 
  -4  -2   9    7.40    4.80 
  -4   2   9    2.30    4.90 
  -4   2   9    4.90    4.70 
  -4   2   9    3.90    4.10 
   4   2  -9    0.20    4.80 
  -3  -2   9   99.59    8.60 
   3  -2  -9   89.89    8.40 
  -3  -2   9   98.29    9.10 
  -3  -2   9   88.29    8.30 
  -3   2   9   83.89    9.40 
   3   2  -9   96.89    8.70 
  -3   2   9  103.39    7.90 
  -3   2   9   98.39    7.50 
   2  -2  -9    2.00    4.60 
  -2  -2   9   -3.00    3.70 
  -2  -2   9   -4.80    4.50 
  -2  -2   9   -6.20    4.00 
   2   2  -9    3.00    4.80 
  -2   2   9   -1.40    4.20 
  -2   2   9    0.10    4.20 
  -2   2   9    4.20    4.50 
   2   2  -9    2.20    3.00 
  -1  -2   9  136.19    9.50 
   1  -2  -9  127.09    9.30 
  -1  -2   9  120.89    9.70 
  -1   2   9  124.29    8.10 
  -1   2   9  131.09   11.00 
  -1   2   9  130.79    9.10 
   1   2  -9  122.49    9.40 
   1   2  -9  129.49    7.40 
   0  -2   9  129.59    9.50 
   0  -2   9  125.49    9.80 
   0  -2  -9  123.49    9.40 
   0   2   9  132.19    8.30 
   0   2   9  122.29    8.90 
   0   2  -9  123.89    9.60 
   0   2  -9  113.09    7.40 
   0   2   9  107.89   10.40 
   1  -2   9   97.79    9.50 
  -1  -2  -9  106.29    9.10 
   1  -2   9  102.69    9.10 
  -1   2  -9  119.99    9.60 
  -1   2  -9   95.39    8.10 
   1   2   9  106.29    7.60 
   1   2   9   84.69    9.50 
   1   2   9  107.89    9.10 
  -2  -2  -9   85.19    8.60 
   2  -2   9   99.79    9.80 
   2  -2   9   85.69    8.40 
   2   2   9   68.59    6.90 
  -2   2  -9   74.99    8.60 
   2   2   9   71.49    9.10 
  -2   2  -9   95.39    8.50 
   3  -2   9   -1.30    4.60 
   3  -2   9   17.60    5.20 
  -3  -2  -9    2.70    5.30 
   3   2   9    6.50    4.30 
  -3   2  -9    2.70    5.50 
   3   2   9    4.00    5.80 
   4  -2   9   82.59    9.60 
   4   2   9   70.19    9.20 
  -8   3   9    5.40    6.30 
  -8   3   9   20.20    6.10 
   7  -3  -9   18.80    6.40 
  -7  -3   9   16.50    6.00 
  -7  -3   9   21.20    6.20 
  -7  -3   9   20.50    6.00 
  -7   3   9    9.40    5.80 
   7   3  -9   13.20    5.70 
  -7   3   9    5.10    5.00 
  -7   3   9   11.20    5.30 
  -6  -3   9   -8.20    4.60 
  -6  -3   9   10.80    4.40 
  -6  -3   9   -3.70    4.50 
   6  -3  -9   -2.00    4.80 
   6   3  -9   -4.80    4.40 
  -6   3   9   -0.30    4.40 
  -6   3   9   -3.10    4.60 
  -6   3   9   -2.10    3.50 
  -5  -3   9   42.70    6.70 
  -5  -3   9   62.09    7.70 
  -5  -3   9   52.89    6.80 
   5  -3  -9   52.69    7.40 
  -5   3   9   60.29    7.00 
  -5   3   9   58.89    6.80 
  -5   3   9   51.39    7.80 
   5   3  -9   37.60    6.60 
  -4  -3   9   86.29    8.50 
  -4  -3   9   94.39    8.90 
  -4  -3   9  109.69    8.30 
   4  -3  -9   92.69    8.80 
  -4   3   9  102.29    9.00 
  -4   3   9  107.09   10.10 
  -4   3   9  101.99    8.00 
   4   3  -9  120.29    9.20 
   3  -3  -9  106.89    9.30 
  -3  -3   9  119.89   10.00 
  -3  -3   9  134.19    9.70 
  -3  -3   9  132.49    9.60 
  -3   3   9  137.39   11.00 
   3   3  -9  128.19    9.50 
  -3   3   9  141.49    8.50 
  -3   3   9  125.89    9.10 
   3   3  -9  129.49    7.50 
  -2  -3   9  117.39    8.50 
  -2  -3   9  105.89    9.20 
   2  -3  -9  116.19    8.00 
  -2  -3   9  123.19    9.30 
  -2   3   9  104.99   10.30 
  -2   3   9  112.09    7.70 
   2   3  -9  125.89    7.50 
  -2   3   9  105.39    8.30 
   2   3  -9  125.49    9.50 
  -1  -3   9   41.90    6.90 
   1  -3  -9   43.70    6.40 
  -1  -3   9   51.69    7.00 
  -1  -3   9   41.30    6.60 
  -1   3   9   48.50    5.80 
  -1   3   9   55.69    6.70 
   1   3  -9   54.29    5.60 
   1   3  -9   55.99    7.30 
  -1   3   9   45.00    7.80 
   0  -3   9   54.99    7.00 
   0  -3   9   64.19    7.50 
   0  -3  -9   51.19    6.80 
   0   3   9   58.39    8.50 
   0   3   9   58.09    6.80 
   0   3   9   67.69    6.40 
   0   3  -9   62.69    6.90 
   0   3  -9   64.99    6.50 
   1  -3   9   17.10    5.60 
   1  -3   9   18.70    6.00 
  -1  -3  -9    8.10    4.90 
  -1   3  -9   18.90    4.90 
   1   3   9   10.10    4.10 
   1   3   9   11.90    5.80 
  -1   3  -9   14.60    4.70 
   2  -3   9   33.50    7.10 
  -2  -3  -9   22.30    6.40 
   2  -3   9   22.30    6.10 
   2   3   9   19.30    4.70 
  -2   3  -9   21.00    5.50 
  -2   3  -9   14.30    5.90 
   2   3   9   25.80    6.70 
   3  -3   9   95.89    9.30 
  -3  -3  -9   98.19    9.70 
   3  -3   9   99.69   10.30 
  -3   3  -9  116.39   10.50 
   3   3   9  106.79   10.20 
  -7  -4   9  137.19   11.10 
  -7  -4   9  134.89   10.80 
   7  -4  -9  155.28   12.00 
  -7  -4   9  137.69   10.80 
  -7   4   9  145.19   10.20 
   7   4  -9  144.59   10.90 
  -7   4   9  146.99   11.20 
  -7   4   9  157.68   11.70 
   6  -4  -9    9.40    5.80 
  -6  -4   9   15.80    5.70 
  -6  -4   9   16.30    5.00 
  -6  -4   9   14.90    5.70 
   6   4  -9   12.40    5.50 
  -6   4   9   19.10    6.00 
  -6   4   9   13.70    5.90 
  -6   4   9   23.00    5.50 
  -5  -4   9    9.30    5.10 
  -5  -4   9    9.10    5.40 
   5  -4  -9    1.30    5.00 
  -5  -4   9   11.80    5.20 
  -5   4   9   10.70    4.40 
  -5   4   9   16.80    5.50 
  -5   4   9   16.80    6.00 
   5   4  -9    6.30    5.50 
  -4  -4   9   43.40    6.60 
  -4  -4   9   38.50    6.80 
  -4  -4   9   34.90    6.60 
   4  -4  -9   43.20    6.90 
   4   4  -9   28.30    4.90 
  -4   4   9   31.00    6.10 
   4   4  -9   26.80    5.90 
  -4   4   9   34.50    5.40 
  -4   4   9   34.90    7.20 
   3  -4  -9   42.60    6.70 
  -3  -4   9   51.39    7.30 
  -3  -4   9   42.50    6.80 
  -3  -4   9   50.69    7.20 
   3   4  -9   46.00    5.50 
  -3   4   9   44.30    6.30 
  -3   4   9   48.50    7.80 
   3   4  -9   48.40    6.80 
  -3   4   9   37.60    5.30 
   2  -4  -9   -4.10    4.70 
  -2  -4   9    1.40    4.50 
  -2  -4   9    0.10    4.60 
  -2  -4   9    3.90    5.10 
  -2   4   9    3.90    5.40 
  -2   4   9   -2.90    3.40 
   2   4  -9    5.20    4.80 
  -2   4   9    4.30    5.40 
   2   4  -9    2.30    3.80 
  -1  -4   9   68.29    7.70 
  -1  -4   9   46.60    7.40 
  -1  -4   9   61.29    7.60 
   1  -4  -9   46.30    6.50 
  -1   4   9   46.50    5.40 
   1   4  -9   48.30    6.00 
   1   4  -9   46.10    6.80 
  -1   4   9   45.60    7.70 
   0  -4  -9   51.59    7.10 
   0  -4   9   43.30    7.00 
   0  -4   9   39.50    7.30 
   0  -4   9   46.40    7.70 
   0   4  -9   46.50    6.10 
   0   4   9   54.99    8.10 
   0   4   9   41.90    5.00 
   0   4  -9   49.10    7.00 
   1  -4   9   85.89    9.00 
   1  -4   9   82.49    8.20 
  -1  -4  -9   86.29    8.20 
  -1   4  -9   88.39    8.80 
   1   4   9   81.09    9.30 
  -1   4  -9   74.39    7.70 
   2  -4   9  151.98   11.00 
   2  -4   9  183.78   12.20 
  -2  -4  -9  141.29   10.20 
  -2   4  -9  172.78   11.50 
  -2   4  -9  149.09   10.50 
   2   4   9  137.89   11.70 
   3  -4   9   26.10    6.70 
   3  -4   9   25.20    7.00 
  -3  -4  -9   43.50    6.90 
  -3   4  -9   23.50    6.50 
  -3   4  -9   45.20    7.70 
   3   4   9   37.60    7.20 
  -7  -5   9   25.70    6.70 
  -7  -5   9   27.50    7.90 
  -7  -5   9   29.40    6.50 
   7  -5  -9   14.50    6.70 
  -7   5   9   23.80    6.10 
  -7   5   9   31.30    6.70 
   7   5  -9   18.50    5.70 
   7   5  -9   24.90    6.20 
  -6  -5   9    7.20    5.20 
   6  -5  -9    2.60    5.50 
  -6  -5   9    5.00    5.00 
  -6  -5   9    1.20    4.80 
  -6   5   9    5.40    5.20 
  -6   5   9   -7.60    3.60 
   6   5  -9    1.70    5.00 
   5  -5  -9   34.70    6.90 
  -5  -5   9   33.00    6.70 
  -5  -5   9   30.40    6.30 
  -5  -5   9   38.40    6.20 
  -5   5   9   43.00    6.10 
  -5   5   9   35.90    7.20 
   5   5  -9   34.80    5.90 
  -4  -5   9  176.18   11.30 
   4  -5  -9  186.38   11.30 
  -4  -5   9  191.58   11.70 
  -4  -5   9  162.58   11.00 
   4   5  -9  187.08   11.30 
  -4   5   9  189.68   11.60 
   4   5  -9  191.78    9.90 
  -4   5   9  164.78    9.40 
  -3  -5   9  147.09   10.50 
  -3  -5   9  114.89    9.80 
   3  -5  -9  145.69    9.90 
  -3  -5   9  117.89    9.60 
  -3   5   9  113.39    7.70 
   3   5  -9  148.59    9.70 
   3   5  -9  106.89    8.60 
  -3   5   9  132.59    9.90 
   2  -5  -9   45.90    6.50 
  -2  -5   9   57.69    7.00 
  -2  -5   9   46.70    6.50 
  -2  -5   9   45.10    6.90 
  -2   5   9   48.20    8.00 
   2   5  -9   46.10    6.30 
  -2   5   9   42.70    5.00 
   2   5  -9   48.00    6.60 
  -1  -5   9   50.39    7.40 
   1  -5  -9   42.50    6.40 
  -1  -5   9   66.49    7.80 
  -1  -5   9   42.50    6.50 
  -1   5   9   73.19    8.50 
   1   5  -9   56.99    6.90 
   1   5  -9   58.49    7.30 
   0  -5   9   66.69    8.10 
   0  -5   9   76.19    8.30 
   0  -5  -9   67.79    7.40 
   0  -5   9   69.89    8.70 
   0   5  -9   69.19    7.80 
   0   5   9   72.09    9.00 
   0   5  -9   75.99    7.50 
   1  -5   9   71.69    8.20 
  -1  -5  -9   66.29    7.40 
   1  -5   9   66.29    8.20 
   1   5   9   72.59    9.00 
  -1   5  -9   72.09    8.20 
  -1   5  -9   70.89    8.00 
   2  -5   9   33.50    7.50 
  -2  -5  -9   49.30    7.40 
   2  -5   9   50.79    7.90 
  -2   5  -9   48.80    7.50 
  -2   5  -9   37.20    7.00 
   2   5   9   41.00    7.60 
  -6  -6   9   23.20    6.00 
  -6  -6   9   17.30    5.90 
  -6  -6   9   16.40    6.00 
   6  -6  -9   16.00    6.20 
  -6   6   9   30.20    6.80 
   6   6  -9   24.20    5.40 
  -6   6   9   21.60    4.80 
  -5  -6   9    6.30    5.50 
  -5  -6   9   -5.40    4.30 
   5  -6  -9    5.10    5.20 
  -5  -6   9   -3.40    4.70 
  -5   6   9   -0.50    3.90 
   5   6  -9    2.10    4.70 
  -5   6   9    3.40    4.50 
   4  -6  -9   42.80    6.90 
  -4  -6   9   54.49    7.40 
  -4  -6   9   39.10    6.70 
  -4  -6   9   46.20    7.30 
  -4   6   9   43.10    8.00 
   4   6  -9   44.70    6.60 
   4   6  -9   43.50    6.80 
  -3  -6   9    9.30    5.40 
   3  -6  -9   -1.10    4.50 
  -3  -6   9    9.30    5.30 
  -3  -6   9   -2.10    4.20 
   3   6  -9    3.70    4.50 
  -3   6   9   -3.20    5.30 
   3   6  -9    4.70    4.30 
  -2  -6   9    7.20    5.20 
  -2  -6   9    5.50    4.50 
   2  -6  -9    0.60    4.90 
  -2  -6   9    6.50    4.20 
  -2   6   9    7.60    5.60 
   2   6  -9    4.80    4.50 
   2   6  -9    2.20    5.20 
  -1  -6   9   35.00    6.50 
  -1  -6   9   38.70    7.00 
   1  -6  -9   37.90    6.50 
  -1  -6   9   34.80    6.90 
  -1   6   9   45.90    8.00 
   1   6  -9   49.50    6.60 
   1   6  -9   54.39    7.60 
   0  -6   9   27.50    6.20 
   0  -6  -9   39.90    6.50 
   0  -6   9   34.80    6.90 
   0  -6   9   35.90    7.00 
   0   6   9   44.10    7.80 
   0   6  -9   32.50    6.30 
   0   6  -9   34.80    6.60 
   1  -6   9   27.90    6.70 
   1  -6   9   29.40    6.10 
  -1  -6  -9   25.00    5.70 
   1   6   9   36.00    7.30 
  -1   6  -9   20.90    6.10 
  -1   6  -9   37.50    6.60 
   2  -6   9   74.49    9.10 
   2  -6   9   90.69   10.50 
  -2   6  -9  111.49   10.20 
  -2   6  -9   95.99    9.90 
   2   6   9  134.09   11.00 
   5  -7  -9   22.50    6.10 
  -5  -7   9   26.20    6.60 
  -5  -7   9   27.00    6.70 
  -5  -7   9   18.50    5.90 
  -5   7   9   33.70    7.40 
   5   7  -9   26.80    6.20 
  -4  -7   9  187.58   11.90 
  -4  -7   9  192.58   11.90 
   4  -7  -9  192.58   11.60 
  -4  -7   9  198.58   12.00 
   4   7  -9  191.68   10.30 
  -4   7   9  179.28   13.10 
   4   7  -9  183.98   11.90 
  -3  -7   9  124.29   10.60 
   3  -7  -9  131.59    9.80 
  -3  -7   9  149.19   10.80 
  -3  -7   9  122.89    9.90 
  -3   7   9  159.88   12.40 
   3   7  -9  121.39    9.40 
   3   7  -9  128.89    9.90 
  -2  -7   9    2.90    5.30 
   2  -7  -9   11.40    5.50 
  -2  -7   9   16.40    5.60 
  -2  -7   9   11.30    5.30 
  -2   7   9   15.20    6.40 
   2   7  -9   21.40    5.70 
   2   7  -9   14.70    5.30 
  -1  -7   9    8.70    5.60 
  -1  -7   9    3.30    5.20 
  -1  -7   9    8.60    4.40 
   1  -7  -9    8.70    5.40 
   1   7  -9    8.20    5.30 
  -1   7   9    1.60    4.70 
   1   7  -9    7.90    5.50 
   0  -7   9   90.79    9.80 
   0  -7   9   61.49    8.00 
   0  -7   9   74.29    8.80 
   0   7  -9   52.89    7.30 
   0   7  -9   86.29    9.00 
   0   7   9   78.09    9.60 
   1  -7   9   38.40    8.70 
   1  -7   9   50.59    8.00 
  -1   7  -9   39.00    6.80 
   1   7   9   47.50    8.10 
  -1   7  -9   44.80    7.30 
  -3  -8   9   14.10    5.70 
  -3  -8   9    4.20    4.80 
  -3  -8   9    1.50    5.20 
  -3   8   9    8.30    5.70 
   3   8  -9    8.80    5.40 
  -2  -8   9    2.30    5.20 
  -2  -8   9    9.60    5.30 
  -2  -8   9   -1.80    5.20 
   2   8  -9   17.20    5.80 
  -2   8   9   14.30    6.70 
   2   8  -9   10.50    5.30 
  -1  -8   9   29.20    6.40 
  -1  -8   9   19.90    6.10 
   1   8  -9   18.90    6.10 
   1   8  -9   10.70    5.20 
  -1   8   9   26.10    7.60 
  -7   0  10  146.89   11.80 
   7   0 -10  184.18   12.60 
  -7   0  10  187.18   12.50 
  -7   0  10  170.58   11.30 
  -6   0  10  138.09   12.20 
   6   0 -10  132.89   10.90 
  -6   0  10  142.29   11.20 
  -6   0  10  136.29   10.70 
  -5   0  10    7.20    5.60 
   5   0 -10    2.20    5.40 
  -5   0  10   10.60    5.30 
   4   0 -10   52.59    7.60 
  -4   0  10   60.19    8.00 
  -4   0  10   56.89    7.40 
  -3   0  10   52.19    7.10 
   3   0 -10   47.30    7.20 
  -3   0  10   44.20    7.10 
  -2   0  10    4.80    4.70 
  -2   0  10    2.70    4.90 
   2   0 -10    3.80    5.30 
  -1   0  10   -0.10    4.40 
   1   0 -10   -1.80    4.80 
  -1   0  10   -5.40    4.60 
   0   0  10  122.09    8.90 
   0   0  10  103.59    9.10 
   0   0 -10  106.09    9.70 
   1   0  10  179.88   10.80 
   1   0  10  174.68   10.80 
  -1   0 -10  195.28   12.20 
   2   0  10  125.19   10.90 
   2   0  10   94.99    8.80 
  -2   0 -10  115.29   10.50 
  -7  -1  10   56.29    9.50 
  -7  -1  10   79.39    9.50 
  -7  -1  10   64.19    8.70 
   7  -1 -10   43.90    8.00 
   7   1 -10   38.30    7.60 
  -7   1  10   60.29    8.20 
  -7   1  10   46.30    8.00 
  -7   1  10   66.99    9.10 
  -6  -1  10   22.20    6.30 
  -6  -1  10   29.70    7.00 
   6  -1 -10   28.50    6.70 
  -6   1  10   11.30    6.40 
  -6   1  10   22.00    6.70 
   6   1 -10   16.40    6.20 
  -6   1  10   21.00    6.20 
  -5  -1  10   11.40    4.50 
  -5  -1  10   17.40    6.20 
   5  -1 -10   20.80    6.30 
  -5   1  10   23.70    6.30 
  -5   1  10    8.20    6.60 
   5   1 -10   17.00    6.30 
  -5   1  10   22.30    5.90 
  -4  -1  10   -4.20    4.70 
  -4  -1  10   -0.60    4.70 
   4  -1 -10    1.20    5.20 
  -4   1  10    5.90    4.80 
  -4   1  10   -2.80    5.60 
  -4   1  10    4.80    4.10 
   4   1 -10    1.30    5.40 
   3  -1 -10   24.20    6.40 
  -3  -1  10   40.90    6.30 
  -3  -1  10   31.80    6.30 
  -3   1  10   26.80    6.40 
   3   1 -10   28.80    6.70 
  -3   1  10   22.50    5.10 
  -3   1  10   27.40    5.70 
   2  -1 -10   91.09    9.00 
  -2  -1  10   78.99    8.20 
  -2  -1  10   96.99    8.90 
  -2   1  10   84.89    8.40 
  -2   1  10   91.29    8.50 
   2   1 -10   88.79    9.00 
   1  -1 -10   64.49    8.00 
  -1  -1  10   48.40    7.50 
  -1  -1  10   55.09    7.40 
  -1   1  10   63.89    7.20 
  -1   1  10   62.69    7.90 
   1   1 -10   62.99    8.00 
   0  -1  10    7.20    5.50 
   0  -1  10   13.60    5.20 
   0  -1 -10    8.60    5.20 
   0   1  10   13.40    5.70 
   0   1 -10   -3.00    5.20 
   0   1  10    7.30    5.20 
   1  -1  10    5.20    5.00 
  -1  -1 -10    7.40    5.70 
   1  -1  10    8.90    5.90 
   1   1  10   -0.20    4.90 
   1   1  10   -1.70    4.10 
  -1   1 -10    4.60    5.50 
   2  -1  10   11.00    5.40 
  -2  -1 -10   11.20    5.90 
   2  -1  10   10.40    4.80 
   2   1  10   14.20    4.90 
   2   1  10   -3.30    6.10 
  -2   1 -10   12.70    6.10 
  -7  -2  10   61.59    9.60 
  -7  -2  10   77.39    9.40 
   7  -2 -10   72.99    9.50 
  -7   2  10   91.49    9.80 
  -7   2  10   55.09    8.70 
   7   2 -10   64.49    8.70 
  -7   2  10   73.79    8.90 
  -6  -2  10   64.29    8.80 
   6  -2 -10   72.79    9.00 
  -6  -2  10   59.99    8.20 
  -6   2  10   67.09    8.10 
   6   2 -10   67.69    8.40 
  -6   2  10   54.99    7.60 
  -6   2  10   64.69    8.80 
   5  -2 -10   10.90    6.10 
  -5  -2  10    9.50    5.70 
  -5  -2  10    8.70    5.30 
   5   2 -10   -3.60    4.80 
  -5   2  10    3.70    4.90 
  -5   2  10    3.30    5.60 
  -5   2  10   14.00    4.80 
  -4  -2  10   36.50    6.00 
  -4  -2  10   32.90    6.00 
   4  -2 -10   48.10    7.60 
  -4   2  10   29.50    5.80 
  -4   2  10   41.30    8.00 
   4   2 -10   39.60    6.90 
  -4   2  10   34.30    6.50 
  -3  -2  10    4.10    5.10 
  -3  -2  10   12.00    4.60 
   3  -2 -10    2.10    5.40 
  -3   2  10   10.00    4.10 
  -3   2  10    0.80    6.10 
   3   2 -10   11.20    5.40 
  -3   2  10    6.30    4.50 
  -2  -2  10   55.79    8.00 
   2  -2 -10   47.80    7.20 
  -2  -2  10   67.39    8.00 
  -2   2  10   54.19    6.80 
  -2   2  10   58.09    9.00 
   2   2 -10   56.49    7.80 
  -2   2  10   58.49    6.60 
  -1  -2  10   16.80    5.00 
   1  -2 -10   16.70    5.80 
  -1  -2  10   15.20    5.60 
  -1   2  10   17.10    4.70 
  -1   2  10   14.80    5.30 
  -1   2  10   14.90    7.10 
   1   2 -10   18.90    5.90 
   0  -2  10  114.29   10.50 
   0  -2 -10  113.69    9.90 
   0  -2  10  103.09    9.40 
   0   2 -10   99.39    9.60 
   0   2  10  111.09    8.80 
   0   2  10   95.69   10.90 
   1  -2  10  178.88   11.40 
   1  -2  10  180.88   12.30 
  -1  -2 -10  178.58   11.70 
   1   2  10  170.58    9.90 
  -1   2 -10  158.48   11.60 
   1   2  10  174.18   13.20 
  -2  -2 -10   75.39    8.80 
   2  -2  10   83.39    9.50 
   2  -2  10   62.49    8.10 
   2   2  10   61.19    7.00 
  -2   2 -10   79.39    9.10 
   2   2  10   54.39    9.10 
  -6  -3  10   14.60    5.10 
  -6  -3  10    7.90    5.40 
   6  -3 -10   -4.10    5.30 
   6   3 -10   22.50    6.30 
  -6   3  10    7.30    5.60 
  -6   3  10   14.00    6.00 
  -6   3  10   14.90    6.40 
   5  -3 -10   22.30    6.30 
  -5  -3  10   24.20    5.40 
  -5  -3  10   15.50    6.30 
  -5   3  10   21.70    5.50 
  -5   3  10   24.40    6.20 
  -5   3  10   24.90    7.20 
   5   3 -10   11.90    5.80 
  -4  -3  10   48.90    7.70 
   4  -3 -10   63.69    8.20 
  -4  -3  10   63.59    8.00 
  -4   3  10   59.99    7.10 
  -4   3  10   64.59    8.30 
  -4   3  10   49.40    7.40 
   4   3 -10   63.09    7.90 
   3  -3 -10  133.19   10.40 
  -3  -3  10  130.39    9.40 
  -3  -3  10  126.79   10.20 
  -3   3  10  100.29   10.80 
  -3   3  10  116.69    8.40 
  -3   3  10  116.49    9.90 
   3   3 -10  110.19    9.80 
  -2  -3  10   84.49    8.70 
   2  -3 -10   72.49    8.30 
  -2  -3  10   78.69    8.30 
   2   3 -10   69.99    8.20 
  -2   3  10   67.89    9.50 
  -2   3  10   78.19   10.00 
  -2   3  10   70.59    7.20 
  -1  -3  10  104.09   10.10 
  -1  -3  10   87.79    9.00 
   1  -3 -10   95.09    9.10 
  -1   3  10  113.19   10.80 
   1   3 -10   99.39    9.40 
  -1   3  10   96.39    8.00 
   0  -3  10   79.39    8.80 
   0  -3 -10   72.19    8.10 
   0  -3  10   83.69    8.80 
   0   3  10   86.49    7.30 
   0   3  10   88.89   10.30 
   0   3 -10   81.49    8.80 
  -1  -3 -10   13.50    5.60 
   1  -3  10   15.80    6.00 
   1  -3  10    4.90    4.60 
   1   3  10    7.10    4.30 
  -1   3 -10    5.20    5.40 
  -1   3 -10    6.40    5.40 
   1   3  10   -5.40    5.50 
   2  -3  10    4.30    5.80 
   2  -3  10    1.90    5.60 
  -2  -3 -10    1.10    5.20 
  -2   3 -10    3.30    4.90 
   2   3  10   10.00    6.00 
  -6  -4  10   47.30    7.90 
   6  -4 -10   29.70    7.40 
  -6  -4  10   42.20    7.70 
  -6   4  10   33.00    6.10 
   6   4 -10   38.90    7.30 
  -6   4  10   42.20    7.80 
   5  -4 -10   24.10    6.60 
  -5  -4  10   20.10   10.60 
  -5  -4  10   40.50    6.60 
  -5  -4  10   40.20    7.40 
  -5   4  10   24.90    5.90 
   5   4 -10   32.20    7.00 
  -5   4  10   34.30    7.60 
  -4  -4  10   -0.10    5.20 
   4  -4 -10   -2.30    5.10 
  -4  -4  10    4.70    9.00 
  -4  -4  10   13.10    6.00 
  -4   4  10    3.70    5.80 
  -4   4  10    6.30    4.80 
   4   4 -10    4.90    5.20 
  -3  -4  10    9.60    5.60 
  -3  -4  10    8.00    5.70 
   3  -4 -10    5.70    5.30 
  -3   4  10   10.10    4.10 
  -3   4  10    0.40    5.60 
   3   4 -10    9.50    5.40 
  -2  -4  10    6.30    5.60 
   2  -4 -10    6.90    5.40 
  -2  -4  10    7.30    5.30 
  -2   4  10    7.50    4.20 
   2   4 -10   11.90    5.20 
  -2   4  10   15.90    6.70 
  -1  -4  10   32.20    6.60 
  -1  -4  10   40.10    7.50 
   1  -4 -10   40.20    6.80 
   1   4 -10   40.60    7.20 
  -1   4  10   55.79    9.00 
  -1   4  10   26.80    5.00 
   0  -4  10   87.39    9.90 
   0  -4  10   76.79    8.80 
   0  -4 -10   82.99    8.60 
   0   4 -10  105.39    8.60 
   0   4  10   71.79    9.50 
   0   4 -10  103.09    9.80 
   1  -4  10   99.49    9.80 
   1  -4  10  100.19   10.70 
  -1  -4 -10  108.79    9.90 
   1   4  10  117.99   11.40 
  -1   4 -10   85.69    9.40 
  -1   4 -10  100.39    9.20 
   5  -5 -10    2.30    5.50 
  -5  -5  10    2.20    4.80 
  -5  -5  10    0.90    5.10 
  -5  -5  10    1.90    5.60 
  -5   5  10    8.80    5.60 
  -5   5  10   -0.30    3.90 
   5   5 -10   -0.90    5.00 
  -4  -5  10  115.09   10.40 
  -4  -5  10  138.99   10.90 
  -4  -5  10  142.99   11.30 
   4  -5 -10  134.99   10.80 
   4   5 -10  161.88   10.60 
  -4   5  10  115.09   11.50 
  -4   5  10  124.99    8.80 
   3  -5 -10   70.09    8.20 
  -3  -5  10   59.89    8.00 
  -3  -5  10   61.79    8.40 
  -3  -5  10   62.69    8.40 
  -3   5  10   69.99    9.60 
   3   5 -10   66.69    8.00 
   2  -5 -10   49.40    7.10 
  -2  -5  10   42.20    7.40 
  -2  -5  10   48.70    7.80 
  -2   5  10   52.09    8.30 
   2   5 -10   45.40    7.20 
  -1  -5  10   50.99    7.70 
   1  -5 -10   38.60    6.90 
  -1  -5  10   54.89    8.30 
   1   5 -10   53.39    6.70 
  -1   5  10   45.00    7.50 
   1   5 -10   41.10    7.10 
   0  -5  10   75.49    9.60 
   0  -5  10   77.69    8.50 
   0  -5 -10   76.49    8.60 
   0   5 -10   72.29    7.70 
   0   5 -10   76.09    8.50 
   0   5  10   93.89   10.40 
   4  -6 -10    4.20    5.40 
  -4  -6  10   17.80    6.10 
  -4  -6  10    6.80    5.50 
  -4   6  10    7.70    5.10 
   4   6 -10   -7.10    5.10 
  -3  -6  10   10.70    5.90 
   3  -6 -10    4.70    5.90 
  -3  -6  10    8.40    5.40 
  -3  -6  10    1.40    4.30 
   3   6 -10    4.30    5.70 
  -3   6  10    7.20    4.90 
  -2  -6  10   10.30    4.90 
  -2  -6  10   11.40    6.00 
   2  -6 -10   14.90    5.60 
  -2  -6  10   12.30    5.80 
   2   6 -10   12.60    5.00 
   2   6 -10   16.10    5.70 
  -2   6  10   20.40    7.10 
  -1  -6  10    4.60    5.60 
  -1  -6  10   10.10    6.20 
   1  -6 -10    0.90    4.90 
  -1   6  10   13.00    6.70 
   1   6 -10    2.80    4.40 
   1   6 -10    2.50    5.20 
  -5   0  11   23.50    8.30 
   5   0 -11   47.90    8.20 
  -5   0  11   54.19    8.40 
  -5   0  11   57.89    8.00 
   4   0 -11   72.39    9.20 
  -4   0  11   98.79    9.50 
  -4   0  11  102.79   10.30 
  -3   0  11   -2.80    3.60 
  -3   0  11    5.10    5.00 
   3   0 -11   -0.70    5.30 
   2   0 -11    1.50    5.80 
  -2   0  11    3.40    5.00 
  -2   0  11    8.60    5.80 
   1   0 -11    4.10    5.80 
  -1   0  11    7.70    4.60 
  -1   0  11    7.40    5.40 
   0   0  11   -5.30    4.90 
   0   0 -11    2.70    4.30 
   0   0  11    2.50    5.50 
  -5  -1  11   10.70    5.90 
  -5  -1  11    5.10    5.90 
   5  -1 -11    0.40    5.80 
   5   1 -11    0.50    5.50 
  -5   1  11    7.60    4.70 
  -5   1  11  -10.90    6.20 
  -5   1  11   12.40    5.80 
  -4  -1  11    1.90    5.10 
   4  -1 -11   -0.30    5.70 
  -4  -1  11    9.80    6.20 
  -4   1  11    7.50    5.10 
  -4   1  11    7.40    5.60 
   4   1 -11   -0.50    5.70 
  -4   1  11  -17.80    5.60 
   3  -1 -11    5.00    5.60 
  -3  -1  11    4.40    5.70 
  -3  -1  11   10.80    5.30 
  -3   1  11    3.50    5.60 
  -3   1  11   -3.00    4.40 
  -3   1  11  -11.80    6.00 
   3   1 -11   -0.90    5.10 
   2  -1 -11  108.09   10.30 
  -2  -1  11  110.79   10.00 
  -2  -1  11  113.39   10.30 
  -2   1  11  103.09   11.60 
  -2   1  11  105.49    9.30 
   2   1 -11  108.09   10.40 
  -2   1  11  116.89    9.10 
   1  -1 -11  183.58   12.40 
  -1  -1  11  158.58   12.20 
  -1  -1  11  197.18   12.00 
  -1   1  11  149.09   14.00 
  -1   1  11  188.08   12.40 
  -1   1  11  181.18   11.00 
   1   1 -11  162.78   12.10 
   0  -1  11    9.30    5.70 
   0  -1 -11   14.10    5.30 
   0  -1  11   24.00    6.90 
   0   1  11   10.60    5.90 
   0   1  11    0.60    7.30 
   0   1 -11   32.40    7.90 
  -5  -2  11   31.60    7.40 
   5  -2 -11   34.10    8.30 
   5   2 -11   22.30    7.70 
  -5   2  11   20.30    7.60 
  -5   2  11   41.40    7.70 
  -5   2  11   38.70    6.90 
  -4  -2  11   12.40    6.60 
   4  -2 -11   10.60    6.30 
  -4  -2  11    8.90    5.50 
  -4   2  11   16.70    5.50 
   4   2 -11   16.80    6.40 
  -4   2  11   20.60    5.30 
  -4   2  11   19.90    7.40 
  -3  -2  11   17.90    6.50 
  -3  -2  11   17.40    6.20 
   3  -2 -11   11.90    6.00 
  -3   2  11    4.80    7.00 
  -3   2  11    4.10    4.70 
  -3   2  11   15.20    6.20 
   3   2 -11    2.40    5.80 
  -2  -2  11   11.90    5.30 
  -2  -2  11   16.30    5.90 
   2  -2 -11    6.20    4.70 
  -2   2  11    4.70    4.60 
  -2   2  11    3.10    7.00 
   2   2 -11   14.50    6.10 
  -1  -2  11   21.70    6.80 
  -1  -2  11   29.60    6.80 
   1  -2 -11   19.90    5.70 
  -1   2  11   17.80    5.70 
  -1   2  11   19.00    7.90 
   1   2 -11   18.30    6.50 
   0  -2  11    9.60    6.20 
   0   2  11    5.90    7.10 
  -4  -3  11   21.10    7.00 
   4  -3 -11   31.10    7.30 
  -4  -3  11   12.50    6.50 
  -4   3  11   17.40    7.60 
  -4   3  11   12.30    5.70 
   4   3 -11   15.90    6.40 
  -3  -3  11   68.39    8.80 
  -3  -3  11   64.89    8.80 
   3  -3 -11   51.49    8.20 
  -3   3  11   49.90    6.90 
   3   3 -11   58.99    8.50 
  -3   3  11   54.69    9.50 
   2  -3 -11  103.69   10.20 
  -2  -3  11  117.29   11.10 
  -2  -3  11  108.79   10.50 
   2   3 -11  133.89   10.90 
  -2   3  11  106.79   11.20 
  -2   3  11  118.09    8.70 
   1  -3 -11   92.89    9.70 
  -1  -3  11   82.69    9.20 
  -1  -3  11   91.39   10.90 
  -1   3  11   98.19   11.60 
  -1   3  11   89.69    8.10 
   0   0   0    0.00    0.00 
  
_computing_structure_solution     'SHELXT 2014/5 (Sheldrick, 2014)' 
;
_shelx_hkl_checksum              12910
loop_
_space_group_symop_operation_xyz
'x, y, z'
'-x, y+1/2, -z'
loop_
_atom_site_label
_atom_site_type_symbol
_atom_site_fract_x
_atom_site_fract_y
_atom_site_fract_z
_atom_site_U_iso_or_equiv
_atom_site_adp_type
_atom_site_occupancy
_atom_site_site_symmetry_order
_atom_site_calc_flag
_atom_site_refinement_flags_posn
_atom_site_refinement_flags_adp
S1 S 0.43765(6) 0.50382(6) 1.01046(6) 0.01886(13) Uani 1 1 d . .
O1 O 0.5150(2) 0.62998(15) 1.06220(19) 0.0265(4) Uani 1 1 d . .
O2 O 0.3355(2) 0.43905(18) 1.0986(2) 0.0295(4) Uani 1 1 d . .
N1 N 0.5940(2) 0.40449(19) 1.0073(2) 0.0195(4) Uani 1 1 d . .
H1N H 0.559(3) 0.332(3) 0.980(3) 0.027(8) Uiso 1 1 d . .
C1 C 0.7470(3) 0.4467(2) 0.9567(3) 0.0204(5) Uani 1 1 d . .
H1A H 0.801236 0.521754 1.025424 0.025 Uiso 1 1 calc R U
C2 C 0.7084(2) 0.4947(3) 0.7883(2) 0.0194(4) Uani 1 1 d . .
C3 C 0.6244(3) 0.4140(2) 0.6642(3) 0.0248(5) Uani 1 1 d . .
H3A H 0.591411 0.326817 0.683892 0.030 Uiso 1 1 calc R U
C4 C 0.5890(3) 0.4610(3) 0.5120(3) 0.0307(6) Uani 1 1 d . .
H4A H 0.530638 0.406000 0.428032 0.037 Uiso 1 1 calc R U
C5 C 0.6380(4) 0.5869(3) 0.4818(3) 0.0349(7) Uani 1 1 d . .
H5A H 0.614379 0.618413 0.377491 0.042 Uiso 1 1 calc R U
C6 C 0.7214(4) 0.6666(3) 0.6040(3) 0.0350(6) Uani 1 1 d . .
H6A H 0.755476 0.753260 0.583685 0.042 Uiso 1 1 calc R U
C7 C 0.7560(3) 0.6209(2) 0.7569(3) 0.0273(5) Uani 1 1 d . .
H7A H 0.812712 0.676894 0.840449 0.033 Uiso 1 1 calc R U
C8 C 0.8737(3) 0.3321(3) 0.9886(3) 0.0308(6) Uani 1 1 d . .
H8A H 0.892854 0.303711 1.097459 0.046 Uiso 1 1 calc R U
H8B H 0.983120 0.360438 0.969996 0.046 Uiso 1 1 calc R U
H8C H 0.826607 0.258306 0.919031 0.046 Uiso 1 1 calc R U
C9 C 0.3076(3) 0.5226(2) 0.8178(2) 0.0181(4) Uani 1 1 d . .
C10 C 0.3223(3) 0.6330(2) 0.7292(3) 0.0199(5) Uani 1 1 d . .
H10A H 0.397045 0.703490 0.773721 0.024 Uiso 1 1 calc R U
C11 C 0.2264(3) 0.6389(2) 0.5749(3) 0.0225(5) Uani 1 1 d . .
H11A H 0.235959 0.714325 0.513963 0.027 Uiso 1 1 calc R U
C12 C 0.1168(3) 0.5369(2) 0.5078(3) 0.0233(5) Uani 1 1 d . .
C13 C 0.1020(3) 0.4278(3) 0.5994(3) 0.0260(5) Uani 1 1 d . .
H13A H 0.024843 0.358395 0.555813 0.031 Uiso 1 1 calc R U
C14 C 0.1984(3) 0.4191(2) 0.7534(3) 0.0229(5) Uani 1 1 d . .
H14A H 0.189904 0.343337 0.814221 0.027 Uiso 1 1 calc R U
C15 C 0.0198(4) 0.5418(3) 0.3378(3) 0.0348(7) Uani 1 1 d . .
H15A H -0.079394 0.482074 0.319401 0.052 Uiso 1 1 calc R U
H15B H 0.096023 0.514269 0.273493 0.052 Uiso 1 1 calc R U
H15C H -0.020275 0.632211 0.309996 0.052 Uiso 1 1 calc R U
loop_
_atom_site_aniso_label
_atom_site_aniso_U_11
_atom_site_aniso_U_22
_atom_site_aniso_U_33
_atom_site_aniso_U_23
_atom_site_aniso_U_13
_atom_site_aniso_U_12
S1 0.0248(3) 0.0172(2) 0.0145(2) 0.0008(2) 0.00495(18) 0.0024(2)
O1 0.0362(10) 0.0186(8) 0.0204(9) -0.0035(7) -0.0008(7) 0.0034(7)
O2 0.0333(9) 0.0358(10) 0.0227(9) 0.0051(8) 0.0132(7) 0.0028(8)
N1 0.0241(10) 0.0135(10) 0.0200(10) 0.0019(8) 0.0042(8) -0.0006(8)
C1 0.0210(10) 0.0220(10) 0.0173(11) 0.0002(9) 0.0031(9) -0.0027(9)
C2 0.0179(9) 0.0211(10) 0.0198(10) 0.0024(11) 0.0057(8) 0.0030(10)
C3 0.0280(12) 0.0224(12) 0.0240(12) -0.0015(10) 0.0071(10) 0.0019(10)
C4 0.0340(13) 0.0362(15) 0.0201(12) -0.0047(10) 0.0040(11) 0.0103(11)
C5 0.0357(15) 0.0473(17) 0.0243(14) 0.0130(13) 0.0125(12) 0.0142(13)
C6 0.0366(14) 0.0328(15) 0.0396(16) 0.0148(12) 0.0170(13) 0.0000(11)
C7 0.0249(12) 0.0269(13) 0.0300(13) 0.0021(11) 0.0068(10) -0.0062(10)
C8 0.0251(12) 0.0392(15) 0.0273(14) 0.0085(11) 0.0056(10) 0.0084(11)
C9 0.0193(9) 0.0196(12) 0.0154(9) -0.0014(9) 0.0044(8) 0.0023(9)
C10 0.0214(11) 0.0159(11) 0.0214(11) -0.0017(9) 0.0037(9) 0.0007(9)
C11 0.0255(12) 0.0213(11) 0.0208(12) 0.0041(10) 0.0061(10) 0.0041(9)
C12 0.0183(10) 0.0307(14) 0.0199(11) -0.0033(9) 0.0031(9) 0.0067(9)
C13 0.0212(11) 0.0287(13) 0.0275(13) -0.0078(11) 0.0053(10) -0.0078(10)
C14 0.0251(11) 0.0211(11) 0.0237(12) 0.0002(10) 0.0086(9) -0.0024(9)
C15 0.0320(14) 0.0444(17) 0.0233(13) -0.0036(11) -0.0014(11) 0.0028(11)
loop_
_atom_type_symbol
_atom_type_description
_atom_type_scat_dispersion_real
_atom_type_scat_dispersion_imag
_atom_type_scat_source
C C 0.0033 0.0016 'International Tables Vol C Tables 4.2.6.8 and 6.1.1.4'
H H 0.0000 0.0000 'International Tables Vol C Tables 4.2.6.8 and 6.1.1.4'
N N 0.0061 0.0033 'International Tables Vol C Tables 4.2.6.8 and 6.1.1.4'
O O 0.0106 0.0060 'International Tables Vol C Tables 4.2.6.8 and 6.1.1.4'
S S 0.1246 0.1234 'International Tables Vol C Tables 4.2.6.8 and 6.1.1.4'
loop_
_geom_angle_atom_site_label_1
_geom_angle_atom_site_label_2
_geom_angle_atom_site_label_3
_geom_angle
O2 S1 O1 119.53(11)
O2 S1 N1 106.55(10)
O1 S1 N1 106.42(10)
O2 S1 C9 107.33(10)
O1 S1 C9 108.12(10)
N1 S1 C9 108.51(10)
C1 N1 S1 122.60(16)
C1 N1 H1N 115.5(19)
S1 N1 H1N 111.1(19)
N1 C1 C8 107.07(19)
N1 C1 C2 114.57(17)
C8 C1 C2 112.4(2)
N1 C1 H1A 107.5
C8 C1 H1A 107.5
C2 C1 H1A 107.5
C7 C2 C3 119.0(2)
C7 C2 C1 119.7(2)
C3 C2 C1 121.3(2)
C4 C3 C2 120.1(2)
C4 C3 H3A 120.0
C2 C3 H3A 120.0
C5 C4 C3 120.5(3)
C5 C4 H4A 119.8
C3 C4 H4A 119.8
C6 C5 C4 119.5(3)
C6 C5 H5A 120.2
C4 C5 H5A 120.2
C5 C6 C7 120.4(2)
C5 C6 H6A 119.8
C7 C6 H6A 119.8
C2 C7 C6 120.5(2)
C2 C7 H7A 119.7
C6 C7 H7A 119.7
C1 C8 H8A 109.5
C1 C8 H8B 109.5
H8A C8 H8B 109.5
C1 C8 H8C 109.5
H8A C8 H8C 109.5
H8B C8 H8C 109.5
C10 C9 C14 120.8(2)
C10 C9 S1 121.16(17)
C14 C9 S1 117.93(17)
C11 C10 C9 119.0(2)
C11 C10 H10A 120.5
C9 C10 H10A 120.5
C10 C11 C12 121.3(2)
C10 C11 H11A 119.3
C12 C11 H11A 119.3
C11 C12 C13 118.7(2)
C11 C12 C15 120.7(2)
C13 C12 C15 120.6(2)
C14 C13 C12 120.9(2)
C14 C13 H13A 119.6
C12 C13 H13A 119.6
C13 C14 C9 119.3(2)
C13 C14 H14A 120.4
C9 C14 H14A 120.4
C12 C15 H15A 109.5
C12 C15 H15B 109.5
H15A C15 H15B 109.5
C12 C15 H15C 109.5
H15A C15 H15C 109.5
H15B C15 H15C 109.5
loop_
_geom_bond_atom_site_label_1
_geom_bond_atom_site_label_2
_geom_bond_distance
S1 O2 1.4318(18)
S1 O1 1.4417(17)
S1 N1 1.616(2)
S1 C9 1.767(2)
N1 C1 1.478(3)
N1 H1N 0.80(3)
C1 C8 1.521(3)
C1 C2 1.524(3)
C1 H1A 1.0000
C2 C7 1.381(4)
C2 C3 1.396(3)
C3 C4 1.389(3)
C3 H3A 0.9500
C4 C5 1.381(4)
C4 H4A 0.9500
C5 C6 1.377(4)
C5 H5A 0.9500
C6 C7 1.391(4)
C6 H6A 0.9500
C7 H7A 0.9500
C8 H8A 0.9800
C8 H8B 0.9800
C8 H8C 0.9800
C9 C10 1.388(3)
C9 C14 1.390(3)
C10 C11 1.387(3)
C10 H10A 0.9500
C11 C12 1.387(3)
C11 H11A 0.9500
C12 C13 1.394(3)
C12 C15 1.508(3)
C13 C14 1.387(3)
C13 H13A 0.9500
C14 H14A 0.9500
C15 H15A 0.9800
C15 H15B 0.9800
C15 H15C 0.9800
loop_
_geom_hbond_atom_site_label_D
_geom_hbond_atom_site_label_H
_geom_hbond_atom_site_label_A
_geom_hbond_distance_DH
_geom_hbond_distance_HA
_geom_hbond_distance_DA
_geom_hbond_angle_DHA
_geom_hbond_site_symmetry_A
N1 H1N O1 0.80(3) 2.13(3) 2.929(3) 172(3) 2_647
loop_
_geom_torsion_atom_site_label_1
_geom_torsion_atom_site_label_2
_geom_torsion_atom_site_label_3
_geom_torsion_atom_site_label_4
_geom_torsion
O2 S1 N1 C1 -166.65(17)
O1 S1 N1 C1 -38.07(19)
C9 S1 N1 C1 78.07(19)
S1 N1 C1 C8 173.17(17)
S1 N1 C1 C2 -61.4(3)
N1 C1 C2 C7 121.9(2)
C8 C1 C2 C7 -115.5(2)
N1 C1 C2 C3 -57.6(3)
C8 C1 C2 C3 65.0(3)
C7 C2 C3 C4 -0.3(3)
C1 C2 C3 C4 179.2(2)
C2 C3 C4 C5 0.7(4)
C3 C4 C5 C6 -0.5(4)
C4 C5 C6 C7 -0.1(4)
C3 C2 C7 C6 -0.3(4)
C1 C2 C7 C6 -179.8(2)
C5 C6 C7 C2 0.5(4)
O2 S1 C9 C10 144.92(18)
O1 S1 C9 C10 14.7(2)
N1 S1 C9 C10 -100.31(19)
O2 S1 C9 C14 -39.5(2)
O1 S1 C9 C14 -169.66(17)
N1 S1 C9 C14 75.31(19)
C14 C9 C10 C11 -0.1(3)
S1 C9 C10 C11 175.43(17)
C9 C10 C11 C12 -0.1(3)
C10 C11 C12 C13 1.0(3)
C10 C11 C12 C15 -177.0(2)
C11 C12 C13 C14 -1.8(3)
C15 C12 C13 C14 176.2(2)
C12 C13 C14 C9 1.7(3)
C10 C9 C14 C13 -0.7(3)
S1 C9 C14 C13 -176.37(18)
