#------------------------------------------------------------------------------
#$Date: 2019-11-11 15:39:01 +0200 (Mon, 11 Nov 2019) $
#$Revision: 226407 $
#$URL: file:///home/coder/svn-repositories/cod/cif/4/03/48/4034887.cif $
#------------------------------------------------------------------------------
#
# This file is available in the Crystallography Open Database (COD),
# http://www.crystallography.net/
#
# All data on this site have been placed in the public domain by the
# contributors.
#
data_4034887
loop_
_publ_author_name
'Chang, Meng-Yang'
'Hsiao, Yu-Ting'
'Lai, Kai-Hsiang'
_publ_section_title
;
 mCPBA-Mediated Intramolecular Oxidative Annulation of ortho-Crotyl or
 Cinnamyl Arylaldehydes: Synthesis of Benzofused Five-, Six-, and
 Seven-Membered Oxacycles.
;
_journal_issue                   22
_journal_name_full               'The Journal of organic chemistry'
_journal_page_first              14110
_journal_page_last               14119
_journal_paper_doi               10.1021/acs.joc.8b02146
_journal_volume                  83
_journal_year                    2018
_chemical_formula_sum            'C17 H18 O4'
_chemical_formula_weight         286.31
_space_group_crystal_system      triclinic
_space_group_IT_number           2
_space_group_name_Hall           '-P 1'
_space_group_name_H-M_alt        'P -1'
_atom_sites_solution_hydrogens   geom
_audit_creation_method           SHELXL-2014/6
_cell_angle_alpha                82.634(3)
_cell_angle_beta                 75.552(3)
_cell_angle_gamma                88.084(3)
_cell_formula_units_Z            2
_cell_length_a                   8.0587(6)
_cell_length_b                   8.8690(7)
_cell_length_c                   10.2746(8)
_cell_measurement_reflns_used    4691
_cell_measurement_temperature    100(2)
_cell_measurement_theta_max      26.3698
_cell_measurement_theta_min      2.6100
_cell_volume                     705.26(9)
_computing_cell_refinement       'SAINT V8.34A (Bruker AXS Inc., 2013)'
_computing_data_collection       'Bruker APEX2'
_computing_data_reduction        'SAINT V8.34A (Bruker AXS Inc., 2013)'
_computing_molecular_graphics    'Bruker SHELXTL'
_computing_publication_material  'Bruker SHELXTL'
_computing_structure_refinement  'SHELXL-2014/6 (Sheldrick, 2014)'
_diffrn_ambient_temperature      100(2)
_diffrn_detector_area_resol_mean 8.3333
_diffrn_measured_fraction_theta_full 0.994
_diffrn_measured_fraction_theta_max 0.993
_diffrn_measurement_device_type  'Bruker APEX-II CCD'
_diffrn_measurement_method       '\f and \w scans'
_diffrn_radiation_type           MoK\a
_diffrn_radiation_wavelength     0.71073
_diffrn_reflns_av_R_equivalents  0.0268
_diffrn_reflns_av_unetI/netI     0.0244
_diffrn_reflns_Laue_measured_fraction_full 0.994
_diffrn_reflns_Laue_measured_fraction_max 0.993
_diffrn_reflns_limit_h_max       10
_diffrn_reflns_limit_h_min       -9
_diffrn_reflns_limit_k_max       11
_diffrn_reflns_limit_k_min       -8
_diffrn_reflns_limit_l_max       12
_diffrn_reflns_limit_l_min       -12
_diffrn_reflns_number            11247
_diffrn_reflns_point_group_measured_fraction_full 0.994
_diffrn_reflns_point_group_measured_fraction_max 0.993
_diffrn_reflns_theta_full        25.242
_diffrn_reflns_theta_max         26.410
_diffrn_reflns_theta_min         2.063
_exptl_absorpt_coefficient_mu    0.095
_exptl_absorpt_correction_T_max  0.9485
_exptl_absorpt_correction_T_min  0.8864
_exptl_absorpt_correction_type   multi-scan
_exptl_absorpt_process_details   'SADABS V2014/4 (Bruker AXS Inc.)'
_exptl_crystal_colour            Colorless
_exptl_crystal_density_diffrn    1.348
_exptl_crystal_density_meas      ?
_exptl_crystal_density_method    'not measured'
_exptl_crystal_description       Tabullar
_exptl_crystal_F_000             304
_exptl_crystal_size_max          0.20
_exptl_crystal_size_mid          0.17
_exptl_crystal_size_min          0.04
_refine_diff_density_max         0.253
_refine_diff_density_min         -0.215
_refine_diff_density_rms         0.041
_refine_ls_extinction_method     none
_refine_ls_goodness_of_fit_ref   1.053
_refine_ls_hydrogen_treatment    constr
_refine_ls_matrix_type           full
_refine_ls_number_parameters     193
_refine_ls_number_reflns         2868
_refine_ls_number_restraints     0
_refine_ls_restrained_S_all      1.053
_refine_ls_R_factor_all          0.0405
_refine_ls_R_factor_gt           0.0354
_refine_ls_shift/su_max          0.000
_refine_ls_shift/su_mean         0.000
_refine_ls_structure_factor_coef Fsqd
_refine_ls_weighting_details
'w=1/[\s^2^(Fo^2^)+(0.0424P)^2^+0.2262P] where P=(Fo^2^+2Fc^2^)/3'
_refine_ls_weighting_scheme      calc
_refine_ls_wR_factor_gt          0.0889
_refine_ls_wR_factor_ref         0.0928
_reflns_Friedel_coverage         0.000
_reflns_number_gt                2508
_reflns_number_total             2868
_reflns_threshold_expression     'I > 2\s(I)'
_cod_data_source_file            jo8b02146_si_002.cif
_cod_data_source_block           171209lt_0m_a
_cod_depositor_comments
;
The following automatic conversions were performed:

data item '_exptl_crystal_density_meas' value 'not measured' was
changed to '?' -- the value is perceived as not measured.

Automatic conversion script
Id: cif_fix_values 6909 2019-04-08 15:41:33Z antanas 
;
_cod_database_code               4034887
_shelx_space_group_comment
;
The symmetry employed for this shelxl refinement is uniquely defined
by the following loop, which should always be used as a source of
symmetry information in preference to the above space-group names.
They are only intended as comments.
;
_shelxl_version_number           2014/6
_shelx_res_file
;
TITL 171209lt_0m_a.res in P-1
CELL  0.71073   8.0587   8.8690  10.2746   82.634   75.552   88.084
ZERR    2.000   0.0006   0.0007   0.0008    0.003    0.003    0.003
LATT 1
SFAC C  H  O
UNIT 34  36  8
L.S. 4
ACTA
BOND $H
FMAP 2
PLAN 5
TEMP -173.000
WGHT    0.042400    0.226200
FVAR       0.84342
C1    1    0.182971    0.168820    0.876580    11.00000    0.01890    0.02184 =
         0.01297   -0.00363   -0.00355    0.00415
AFIX  13
H1    2    0.143315    0.216424    0.962189    11.00000   -1.20000
AFIX   0
C2    1    0.026882    0.152304    0.819775    11.00000    0.01719    0.01956 =
         0.01214   -0.00292   -0.00034   -0.00035
AFIX  13
H2    2   -0.048299    0.073362    0.883638    11.00000   -1.20000
AFIX   0
O4    3    0.074590    0.095490    0.690422    11.00000    0.01535    0.02023 =
         0.01450   -0.00511    0.00084   -0.00282
C4    1    0.227998    0.144156    0.602524    11.00000    0.01388    0.01376 =
         0.01455   -0.00027   -0.00196    0.00114
C5    1    0.256425    0.098233    0.473604    11.00000    0.01486    0.01420 =
         0.01670   -0.00196   -0.00544    0.00000
AFIX  43
H5    2    0.171178    0.042526    0.450919    11.00000   -1.20000
AFIX   0
C6    1    0.408901    0.134265    0.379582    11.00000    0.01628    0.01529 =
         0.01181   -0.00187   -0.00396    0.00281
C7    1    0.534663    0.218800    0.412651    11.00000    0.01385    0.01710 =
         0.01485    0.00129   -0.00238   -0.00032
C8    1    0.502719    0.264491    0.539793    11.00000    0.01604    0.01722 =
         0.01771   -0.00155   -0.00602   -0.00241
AFIX  43
H8    2    0.586851    0.322086    0.561959    11.00000   -1.20000
AFIX   0
C9    1    0.348602    0.227944    0.637559    11.00000    0.01693    0.01613 =
         0.01456   -0.00161   -0.00483    0.00093
C10   1    0.314641    0.274479    0.778093    11.00000    0.01851    0.02285 =
         0.01691   -0.00490   -0.00515   -0.00101
AFIX  23
H10A  2    0.271548    0.380365    0.777039    11.00000   -1.20000
H10B  2    0.422608    0.270181    0.807907    11.00000   -1.20000
AFIX   0
C11   1   -0.079733    0.295925    0.814766    11.00000    0.01469    0.01772 =
         0.01815   -0.00307   -0.00400   -0.00156
C12   1   -0.169161    0.344367    0.937080    11.00000    0.02167    0.02498 =
         0.01672   -0.00339   -0.00462    0.00229
AFIX  43
H12   2   -0.157928    0.289729    1.020235    11.00000   -1.20000
AFIX   0
C13   1   -0.274112    0.471356    0.938310    11.00000    0.02436    0.02628 =
         0.02218   -0.00969   -0.00378    0.00394
AFIX  43
H13   2   -0.333320    0.504006    1.022107    11.00000   -1.20000
AFIX   0
C14   1   -0.293049    0.551134    0.817334    11.00000    0.02148    0.01745 =
         0.03173   -0.00465   -0.00739    0.00334
AFIX  43
H14   2   -0.366082    0.637529    0.818289    11.00000   -1.20000
AFIX   0
C15   1   -0.205093    0.504210    0.695499    11.00000    0.02090    0.01980 =
         0.02318    0.00269   -0.00754   -0.00336
AFIX  43
H15   2   -0.217302    0.558791    0.612595    11.00000   -1.20000
AFIX   0
C16   1   -0.098673    0.377105    0.694138    11.00000    0.01736    0.02052 =
         0.01663   -0.00207   -0.00258   -0.00303
AFIX  43
H16   2   -0.038498    0.345563    0.610125    11.00000   -1.20000
AFIX   0
C17   1    0.322930    0.016797    0.211287    11.00000    0.02041    0.03076 =
         0.01790   -0.00930   -0.00616   -0.00250
AFIX 137
H17A  2    0.296040   -0.080333    0.269267    11.00000   -1.50000
H17B  2    0.365264   -0.001972    0.116722    11.00000   -1.50000
H17C  2    0.219311    0.079701    0.220543    11.00000   -1.50000
AFIX   0
C3    1    0.821625    0.309514    0.345489    11.00000    0.01720    0.03592 =
         0.02411   -0.00277   -0.00247   -0.00962
AFIX 137
H3A   2    0.788545    0.408051    0.377894    11.00000   -1.50000
H3B   2    0.918589    0.323332    0.265562    11.00000   -1.50000
H3C   2    0.854836    0.240311    0.417048    11.00000   -1.50000
AFIX   0
O1    3    0.250817    0.022879    0.909833    11.00000    0.02341    0.02636 =
         0.01410   -0.00029   -0.00119    0.00825
AFIX 147
H1A   2    0.308917   -0.009169    0.838863    11.00000   -1.50000
AFIX   0
O2    3    0.451638    0.094151    0.251179    11.00000    0.01541    0.02234 =
         0.01329   -0.00524   -0.00270   -0.00121
O3    3    0.680695    0.246880    0.310603    11.00000    0.01505    0.03364 =
         0.01579   -0.00368   -0.00067   -0.00702
HKLF 4

REM  171209lt_0m_a.res in P-1
REM R1 =  0.0354 for    2508 Fo > 4sig(Fo)  and  0.0405 for all    2868 data
REM    193 parameters refined using      0 restraints

END

WGHT      0.0424      0.2263

REM Highest difference peak  0.253,  deepest hole -0.215,  1-sigma level  0.041
Q1    1   0.1113  0.1628  0.8448  11.00000  0.05    0.25
Q2    1  -0.1125  0.3245  0.7580  11.00000  0.05    0.24
Q3    1   0.3283  0.2584  0.7048  11.00000  0.05    0.24
Q4    1   0.4723  0.1726  0.3972  11.00000  0.05    0.22
Q5    1  -0.0267  0.2291  0.8186  11.00000  0.05    0.22
;
_shelx_res_checksum              19724
_shelx_hkl_file
;
  -1   0   0   43.53    1.64
  -1   0   0   42.52    1.62
  -1   0   0   42.73    1.61
  -1   0   0   42.80    1.63
  -1   0   0   43.23    1.68
  -1   0   0   43.92    1.64
   1   0   0   44.04    1.69
   1   0   0   44.19    1.66
   1   0   0   40.97    1.62
   1   0   0   43.44    1.62
   1   0   0   43.21    1.65
  -2   0   0 1357.31   40.52
  -2   0   0 1347.62   40.48
  -2   0   0 1364.05   40.49
  -2   0   0 1409.60   41.28
  -2   0   0 1396.90   41.56
   2   0   0 1340.72   40.57
   2   0   0 1344.81   40.50
   2   0   0 1354.96   40.49
   2   0   0 1471.45   40.74
   2   0   0 1382.42   40.61
   2   0   0 1266.38   40.50
  -3   0   0   -0.18    0.25
  -3   0   0    0.46    0.30
  -3   0   0    0.48    0.33
   3   0   0    0.04    0.25
   3   0   0   -0.26    0.20
   3   0   0    0.21    0.29
   3   0   0    0.15    0.30
   3   0   0    0.11    0.25
  -4   0   0  206.11    7.39
  -4   0   0  208.99    7.43
   4   0   0  208.92    7.64
   4   0   0  224.44    7.54
   4   0   0  214.82    7.56
  -5   0   0  166.10    6.45
  -5   0   0  172.97    6.47
   5   0   0  174.17    6.85
   5   0   0  177.80    6.61
   5   0   0  170.30    6.63
   5   0   0  165.02    6.44
  -6   0   0    0.89    0.58
  -6   0   0    0.28    0.49
   6   0   0    0.29    0.48
   6   0   0    0.21    0.47
   6   0   0    0.52    0.48
   6   0   0    0.78    0.62
  -7   0   0   25.39    2.47
   7   0   0   20.56    2.39
   7   0   0   20.88    2.45
   7   0   0   24.21    2.52
   7   0   0   28.65    2.79
   8   0   0  112.59    5.79
   8   0   0  108.45    5.77
   8   0   0  110.24    5.77
   8   0   0  113.43    5.54
   9   0   0    0.98    0.98
   9   0   0    0.59    0.88
   9   0   0    1.02    0.98
   9  -1   0   42.99    4.05
   9  -1   0   40.77    4.09
   9  -1   0   42.56    4.08
   8  -1   0   12.39    2.14
   8  -1   0   11.25    1.96
   8  -1   0   11.00    2.04
   8  -1   0   12.85    2.10
  -8   1   0   11.83    1.97
   7  -1   0   23.77    2.59
   7  -1   0   23.20    2.57
   7  -1   0   23.19    2.57
   7  -1   0   26.44    2.70
  -7   1   0   26.17    2.73
   6  -1   0    0.29    0.49
   6  -1   0   -0.04    0.48
   6  -1   0    0.96    0.64
  -6   1   0    0.25    0.58
  -6   1   0    0.37    0.53
   5  -1   0  119.47    5.26
   5  -1   0  128.51    5.14
   5  -1   0  121.39    5.23
  -5   1   0  126.06    5.27
  -5   1   0  128.32    5.32
   4  -1   0   69.38    3.18
   4  -1   0   68.27    3.15
   4  -1   0   62.37    3.23
   4  -1   0   63.49    2.95
  -4   1   0   64.35    3.15
  -4   1   0   58.29    3.06
   3  -1   0    0.49    0.38
   3  -1   0    1.56    0.53
   3  -1   0    1.13    0.50
   3  -1   0    0.28    0.29
  -3   1   0    0.74    0.44
  -3   1   0    1.31    0.49
  -3   1   0    0.37    0.33
   2  -1   0  104.68    3.75
   2  -1   0  101.18    3.83
   2  -1   0  101.96    3.61
   2  -1   0  102.36    3.71
   2  -1   0   93.66    3.77
   2  -1   0  105.94    3.91
  -2   1   0  100.21    3.70
  -2   1   0  102.42    3.63
  -2   1   0   99.79    3.78
  -2   1   0  100.22    3.80
  -2   1   0  106.96    3.88
   1  -1   0    0.07    0.19
   1  -1   0    0.25    0.18
   1  -1   0    0.34    0.20
   1  -1   0    0.34    0.20
   1  -1   0    0.18    0.15
   1  -1   0    0.10    0.15
  -1   1   0    0.33    0.20
  -1   1   0    0.61    0.23
  -1   1   0    0.29    0.19
  -1   1   0   -0.07    0.12
  -1   1   0    0.09    0.13
  -1   1   0    0.16    0.16
   0  -1   0  782.59   21.55
   0  -1   0  770.72   21.52
   0   1   0  764.18   21.64
   0   1   0  701.57   21.53
   0   1   0  660.37   21.49
   0   1   0  755.85   21.70
   0   1   0  619.29   21.46
  -1  -1   0  731.25   20.42
  -1  -1   0  638.96   20.23
  -1  -1   0  645.43   20.27
  -1  -1   0  633.01   20.14
  -1  -1   0  755.76   20.62
   1   1   0  639.13   20.55
   1   1   0  674.16   20.39
   1   1   0  723.30   20.55
   1   1   0  655.43   20.39
   1   1   0  696.22   20.33
  -2  -1   0 1161.35   33.93
  -2  -1   0 1164.07   34.22
  -2  -1   0 1146.22   33.76
  -2  -1   0 1144.18   34.04
  -2  -1   0 1156.61   33.82
  -2  -1   0 1110.97   33.95
   2   1   0 1146.74   34.68
   2   1   0 1153.77   33.98
   2   1   0 1134.87   34.32
   2   1   0 1134.60   33.89
   2   1   0 1119.29   33.88
  -3  -1   0  173.31    5.77
  -3  -1   0  178.51    6.13
  -3  -1   0  174.96    5.95
   3   1   0  174.77    5.90
   3   1   0  169.92    5.93
   3   1   0  172.20    5.98
   3   1   0  171.82    5.96
   3   1   0  168.09    5.94
  -4  -1   0   73.90    3.08
   4   1   0   77.12    3.40
   4   1   0   75.98    3.26
   4   1   0   71.04    3.33
   4   1   0   73.86    3.28
   4   1   0   78.42    3.31
  -5  -1   0   37.29    2.04
   5   1   0   34.83    2.29
   5   1   0   31.30    2.10
   5   1   0   38.17    2.27
   5   1   0   34.01    2.19
  -6  -1   0  192.15    7.33
  -6  -1   0  203.25    7.42
   6   1   0  218.29    7.93
   6   1   0  201.41    7.82
   6   1   0  203.71    7.78
   6   1   0  208.29    7.85
   6   1   0  196.70    8.00
  -7  -1   0    4.08    0.99
   7   1   0    3.67    1.02
   7   1   0    3.29    1.01
   7   1   0    4.75    1.17
   7   1   0    5.01    1.19
   8   1   0    1.58    0.94
   8   1   0    2.57    1.04
   8   1   0    2.16    1.08
   8   1   0    0.59    0.70
   9   1   0    0.95    1.05
   9   1   0    0.87    0.76
   9   1   0    0.27    0.85
   9   1   0    1.58    1.00
   9  -2   0    2.56    1.30
   9  -2   0    1.32    1.16
   9  -2   0    3.09    1.28
   9  -2   0    1.33    1.09
   8  -2   0   10.32    1.90
   8  -2   0   10.10    1.90
   8  -2   0    7.14    1.56
   8  -2   0    4.87    1.39
  -8   2   0    7.71    1.77
   7  -2   0   17.66    2.18
   7  -2   0   21.83    2.57
   7  -2   0   16.91    2.23
   7  -2   0   19.76    2.44
  -7   2   0   15.79    2.18
  -7   2   0   21.45    2.57
   6  -2   0  124.29    5.34
   6  -2   0  120.57    5.61
   6  -2   0  124.68    5.61
  -6   2   0  115.18    5.55
  -6   2   0  119.92    5.61
   5  -2   0  254.47    9.09
   5  -2   0  257.73    9.42
   5  -2   0  248.64    9.30
  -5   2   0  257.34    9.53
  -5   2   0  263.11    9.54
   4  -2   0   30.20    2.02
   4  -2   0   34.55    1.95
   4  -2   0   29.28    1.99
  -4   2   0   30.78    2.15
  -4   2   0   30.17    2.12
   3  -2   0  487.16   15.87
   3  -2   0  512.22   16.12
   3  -2   0  524.88   16.19
  -3   2   0  508.68   16.33
  -3   2   0  507.16   15.94
  -3   2   0  517.18   16.32
  -3   2   0  505.70   16.12
   2  -2   0    1.08    0.43
   2  -2   0    0.13    0.29
   2  -2   0    0.96    0.36
   2  -2   0    0.26    0.34
   2  -2   0   -0.05    0.23
  -2   2   0   -0.01    0.35
  -2   2   0    0.43    0.35
  -2   2   0    0.19    0.36
  -2   2   0    0.23    0.27
  -2   2   0    0.39    0.29
   1  -2   0 3315.97  102.08
   1  -2   0 3449.10  102.55
   1  -2   0 3367.34  102.44
   1  -2   0 3379.88  102.19
   1  -2   0 3641.80  102.86
   1  -2   0 3447.77  103.07
  -1   2   0 3516.26  103.27
  -1   2   0 3418.59  102.35
  -1   2   0 3435.16  103.58
  -1   2   0 3627.07  103.86
  -1   2   0 3242.63  102.84
  -1   2   0 3430.16  102.47
   0  -2   0  186.99    5.85
   0  -2   0  188.61    5.81
   0  -2   0  191.88    5.80
   0   2   0  186.08    5.95
   0   2   0  186.65    5.89
   0   2   0  189.06    5.86
   0   2   0  181.90    5.90
   0   2   0  202.23    5.95
   1   2   0 1932.20   56.79
   1   2   0 1917.05   56.83
   1   2   0 1868.41   56.69
   1   2   0 1948.08   56.76
   1   2   0 1933.69   58.84
  -2  -2   0 2824.57   81.02
  -2  -2   0 2684.50   80.84
  -2  -2   0 2695.07   80.86
  -2  -2   0 2650.45   80.88
  -2  -2   0 2800.51   81.63
   2   2   0 2715.11   81.88
   2   2   0 2754.75   81.79
   2   2   0 2866.04   84.23
   2   2   0 2706.10   82.05
   2   2   0 2810.63   81.77
   2   2   0 2794.95   81.92
  -3  -2   0  116.30    5.20
  -3  -2   0  117.17    3.97
   3   2   0  126.18    4.32
   3   2   0  119.79    4.45
   3   2   0  119.99    4.30
   3   2   0  119.10    4.29
   3   2   0  119.74    4.29
   3   2   0  126.62    4.78
  -4  -2   0  460.13   14.00
  -4  -2   0  477.75   14.04
   4   2   0  462.85   14.58
   4   2   0  443.12   14.40
   4   2   0  450.53   14.48
   4   2   0  456.75   14.44
   4   2   0  432.35   14.46
  -5  -2   0   86.01    3.45
  -5  -2   0   90.33    3.51
   5   2   0   95.12    3.99
   5   2   0   86.74    3.96
   5   2   0   95.25    3.98
   5   2   0   76.98    3.89
   5   2   0   89.06    3.92
   5   2   0   89.95    4.04
  -6  -2   0  486.65   15.01
  -6  -2   0  447.35   15.15
   6   2   0  481.35   15.70
   6   2   0  446.49   15.81
   6   2   0  479.17   15.75
   6   2   0  484.59   15.76
   6   2   0  469.71   15.73
   7   2   0   32.55    3.00
   7   2   0   34.27    2.97
   7   2   0   32.21    2.92
   7   2   0   41.02    2.80
   8   2   0   23.64    2.80
   8   2   0   29.93    3.08
   8   2   0   27.11    2.99
   9   2   0    3.09    1.17
   9   2   0    2.41    1.08
   9   2   0    2.02    1.14
   9  -3   0    2.90    1.36
   9  -3   0    4.38    1.39
   9  -3   0    5.03    1.66
   9  -3   0    0.66    1.20
   8  -3   0    2.62    1.09
   8  -3   0    3.72    1.27
   8  -3   0    4.59    1.44
   8  -3   0    4.70    1.29
  -8   3   0    4.88    1.57
   7  -3   0    2.08    0.98
   7  -3   0    2.95    1.04
   7  -3   0    0.49    0.75
   7  -3   0    2.54    1.04
  -7   3   0    4.72    1.47
  -7   3   0    2.06    0.95
   6  -3   0    5.09    1.07
   6  -3   0    6.57    1.34
   6  -3   0    6.72    1.42
  -6   3   0    4.84    1.28
  -6   3   0    6.75    1.44
   5  -3   0   62.83    3.56
   5  -3   0   66.60    3.35
   5  -3   0   67.02    3.57
  -5   3   0   60.32    3.66
  -5   3   0   71.47    3.85
   4  -3   0  145.46    5.71
   4  -3   0  140.36    5.96
   4  -3   0  176.18    6.21
  -4   3   0  153.06    6.30
  -4   3   0  145.88    6.22
   3  -3   0   12.91    1.42
   3  -3   0   11.56    1.21
   3  -3   0   15.68    1.54
  -3   3   0    9.79    1.15
  -3   3   0   14.54    1.67
  -3   3   0   14.34    1.66
  -3   3   0   15.27    1.61
   2  -3   0   10.92    1.18
   2  -3   0   11.82    1.08
   2  -3   0    8.88    0.98
  -2   3   0   10.45    1.25
  -2   3   0    9.23    1.12
  -2   3   0    9.76    0.98
  -2   3   0   11.59    1.19
  -2   3   0    8.49    1.08
   1  -3   0 1224.02   36.04
  -1   3   0 1213.98   36.15
  -1   3   0 1190.26   35.93
  -1   3   0 1230.30   36.26
  -1   3   0 1197.80   36.27
  -1   3   0 1171.76   36.08
  -1   3   0 1232.66   36.26
   0  -3   0   33.23    1.28
   0  -3   0   31.59    1.28
   0  -3   0   28.28    1.25
   0  -3   0   31.53    1.33
   0   3   0   34.07    1.50
   0   3   0   31.49    1.51
   0   3   0   32.56    1.43
   0   3   0   33.25    1.41
   0   3   0   35.91    1.51
   1   3   0  371.41   11.75
   1   3   0  379.01   11.72
   1   3   0  396.49   11.81
   1   3   0  412.20   11.76
   2   3   0    0.18    0.17
   2   3   0    0.11    0.15
   2   3   0    0.44    0.41
   2   3   0    0.22    0.18
   2   3   0    0.15    0.15
   3   3   0   39.30    1.78
   3   3   0   38.88    2.34
   3   3   0   36.62    1.92
   3   3   0   40.02    1.78
   3   3   0   38.22    1.73
   3   3   0   39.12    1.73
  -4  -3   0   89.42    2.86
   4   3   0   90.17    3.56
   4   3   0   82.54    4.04
   4   3   0   88.16    3.53
   4   3   0   81.78    3.47
   4   3   0   81.46    3.48
   4   3   0   90.80    3.75
  -5  -3   0  744.00   22.01
   5   3   0  763.20   22.99
   5   3   0  702.61   22.98
   5   3   0  738.84   22.95
   5   3   0  708.18   22.95
   5   3   0  749.84   23.15
   6   3   0   57.76    3.17
   6   3   0   58.06    3.25
   6   3   0   51.91    3.46
   6   3   0   57.51    3.14
   7   3   0   26.62    2.70
   7   3   0   25.97    2.54
   7   3   0   26.44    2.71
   7   3   0   26.52    2.66
   8   3   0    1.26    0.80
   8   3   0    0.46    0.72
   8   3   0    2.19    0.94
   9   3   0    0.80    0.78
   9   3   0    0.22    0.81
   9   3   0   -0.01    0.80
   9  -4   0   39.03    4.33
   9  -4   0   37.88    3.78
  -9   4   0   32.81    4.00
   8  -4   0   28.07    4.04
   8  -4   0   19.91    3.32
   8  -4   0   27.97    3.42
   8  -4   0   21.06    2.70
  -8   4   0   23.27    3.04
   7  -4   0   49.35    3.58
   7  -4   0   50.39    3.64
   7  -4   0   51.62    3.37
   7  -4   0   48.58    3.54
  -7   4   0   48.98    4.41
  -7   4   0   57.53    4.02
   6  -4   0   21.28    2.53
   6  -4   0   17.39    2.09
   6  -4   0   18.24    2.37
  -6   4   0   20.05    2.73
  -6   4   0   19.28    2.63
   5  -4   0    5.78    1.28
   5  -4   0    3.17    0.81
   5  -4   0    5.22    1.15
  -5   4   0    4.65    1.22
  -5   4   0    6.19    1.34
   4  -4   0   75.71    3.75
   4  -4   0   79.59    3.86
   4  -4   0   75.08    3.50
  -4   4   0   74.59    4.04
  -4   4   0   74.72    4.04
   3  -4   0  123.25    5.25
   3  -4   0  139.54    5.11
   3  -4   0  129.16    5.24
  -3   4   0  141.89    5.72
  -3   4   0  135.65    5.66
   2  -4   0 1123.30   34.71
   2  -4   0 1196.82   35.03
   2  -4   0 1168.70   34.95
  -2   4   0 1160.89   34.86
  -2   4   0 1133.40   35.35
  -2   4   0 1170.21   35.38
  -2   4   0 1157.15   35.08
  -2   4   0 1141.99   35.33
   1  -4   0  730.76   21.68
   1  -4   0  728.40   21.72
  -1   4   0  678.06   21.88
  -1   4   0  708.67   22.05
  -1   4   0  708.20   21.83
  -1   4   0  708.82   22.02
  -1   4   0  729.11   22.10
  -1   4   0  718.15   21.69
   0  -4   0   88.05    2.98
   0  -4   0   85.88    2.99
   0  -4   0   91.90    3.00
   0   4   0   86.82    3.36
   0   4   0   88.35    3.44
   0   4   0   85.85    3.29
   0   4   0   89.71    3.38
   0   4   0   87.05    3.27
   1   4   0  285.88    8.72
   1   4   0  278.24    8.78
   1   4   0  286.99    8.88
   1   4   0  268.52    8.74
   2   4   0   30.43    2.26
   2   4   0   26.51    1.26
   2   4   0   27.62    1.24
   2   4   0   28.35    1.35
   2   4   0   31.31    1.34
   3   4   0  175.12    5.79
   3   4   0  179.65    5.89
   3   4   0  173.23    5.76
   3   4   0  176.13    7.13
   3   4   0  174.14    5.89
   4   4   0    0.68    0.38
   4   4   0    0.90    0.63
   4   4   0    0.50    0.42
   4   4   0    0.83    0.40
   4   4   0    0.53    0.38
   4   4   0    0.44    0.36
   5   4   0  536.22   17.56
   5   4   0  559.56   17.60
   5   4   0  540.75   17.54
   5   4   0  561.43   17.87
   5   4   0  562.79   17.58
   6   4   0  577.31   19.36
   6   4   0  598.59   19.14
   6   4   0  597.76   19.17
   7   4   0    0.48    0.60
   7   4   0    0.20    0.65
   7   4   0   -0.22    0.54
   8   4   0    7.10    1.61
   8   4   0    4.61    1.31
   8   4   0    8.56    1.57
   9   4   0    2.96    1.30
   9   4   0    4.55    1.51
   9   4   0    5.24    1.54
   8  -5   0    7.79    1.86
   8  -5   0    8.31    1.81
  -8   5   0   10.10    2.30
   7  -5   0   -0.16    0.62
   7  -5   0    0.23    0.61
  -7   5   0   -0.60    0.66
  -7   5   0    0.21    0.84
   6  -5   0    9.74    1.74
   6  -5   0    7.42    1.51
   6  -5   0    8.23    1.61
   6  -5   0   10.52    1.67
  -6   5   0    6.21    1.67
  -6   5   0   11.09    2.10
   5  -5   0   32.14    2.90
   5  -5   0   34.30    2.77
   5  -5   0   33.48    3.03
  -5   5   0   28.77    3.02
  -5   5   0   29.48    3.13
   4  -5   0    2.00    0.71
   4  -5   0    1.38    0.65
   4  -5   0    0.36    0.46
  -4   5   0    3.03    1.04
  -4   5   0    1.62    0.80
   3  -5   0   10.89    1.38
   3  -5   0   12.11    1.34
   3  -5   0   10.83    1.42
  -3   5   0   11.82    1.49
  -3   5   0   12.01    1.67
  -3   5   0   12.92    1.69
   2  -5   0    3.76    0.79
  -2   5   0    3.54    0.91
  -2   5   0    4.64    0.88
  -2   5   0    3.58    0.91
   1  -5   0    0.06    0.19
   1  -5   0    0.12    0.25
  -1   5   0    0.34    0.32
  -1   5   0    0.35    0.35
  -1   5   0    0.14    0.23
  -1   5   0    0.13    0.35
  -1   5   0    0.26    0.42
  -1   5   0   -0.05    0.24
   0  -5   0  331.78   10.30
   0   5   0  342.39   11.11
   0   5   0  344.89   11.03
   0   5   0  339.73   10.93
   0   5   0  334.16   10.99
   0   5   0  340.71   10.85
   1   5   0   53.67    2.41
   1   5   0   50.51    2.27
   1   5   0   55.38    2.25
   1   5   0   53.71    2.32
   2   5   0   52.88    2.18
   2   5   0   50.10    2.07
   2   5   0   49.77    2.10
   2   5   0   52.93    2.29
   2   5   0   51.15    3.36
   3   5   0   59.75    2.59
   3   5   0   61.03    2.47
   3   5   0   59.54    3.71
   3   5   0   61.64    2.45
   3   5   0   62.18    2.53
   4   5   0   45.28    2.16
   4   5   0   42.76    2.46
   4   5   0   42.72    2.15
   4   5   0   43.92    2.19
   4   5   0   47.74    2.30
   4   5   0   45.55    3.16
   5   5   0   25.71    1.77
   5   5   0   26.50    2.41
   5   5   0   24.15    1.73
   5   5   0   24.16    2.73
   5   5   0   27.36    1.84
   6   5   0  110.38    4.81
   6   5   0  105.03    4.96
   6   5   0  106.31    4.77
   7   5   0    8.28    1.48
   7   5   0   11.09    1.76
   7   5   0   10.35    1.57
   8   5   0   47.19    3.27
   8   5   0   38.11    3.48
   8   5   0   46.30    4.00
   8  -6   0    0.17    0.74
  -8   6   0    1.01    1.14
   7  -6   0   -0.31    0.62
   7  -6   0    0.78    0.85
  -7   6   0    0.50    1.01
  -7   6   0    0.35    1.09
   6  -6   0   17.60    2.23
   6  -6   0   19.66    2.48
  -6   6   0   20.69    2.87
  -6   6   0   14.64    2.46
   5  -6   0   71.12    3.78
   5  -6   0   83.78    4.35
  -5   6   0   72.35    4.60
  -5   6   0   67.31    4.49
   4  -6   0   11.79    1.68
   4  -6   0   10.81    1.65
   4  -6   0   11.64    1.67
   4  -6   0   12.37    1.58
  -4   6   0   13.71    2.02
  -4   6   0   11.39    1.90
   3  -6   0  161.02    6.25
  -3   6   0  160.02    6.84
  -3   6   0  141.42    6.33
  -3   6   0  158.56    6.81
   2  -6   0  101.77    4.12
   2  -6   0   95.69    4.03
   2  -6   0   96.43    4.04
  -2   6   0   96.84    4.38
  -2   6   0   91.56    4.56
  -2   6   0   97.65    4.70
   1  -6   0  100.25    3.70
   1  -6   0   99.06    3.71
   1  -6   0   96.36    3.70
  -1   6   0   94.66    4.29
  -1   6   0  100.54    4.44
  -1   6   0   90.50    4.16
  -1   6   0   94.98    4.33
  -1   6   0   98.14    4.14
   0   6   0    4.58    0.77
   0   6   0    4.10    0.87
   0   6   0    5.44    0.96
   0   6   0    4.80    0.85
   0   6   0    4.96    0.86
   1   6   0  269.03    8.84
   1   6   0  248.01    8.59
   1   6   0  257.90    8.52
   1   6   0  258.82    8.68
   2   6   0  190.94    6.32
   2   6   0  177.05    6.15
   2   6   0  177.62    8.04
   2   6   0  180.81    6.41
   2   6   0  178.81    6.10
   3   6   0    0.96    0.34
   3   6   0    1.00    0.42
   3   6   0    0.73    0.36
   3   6   0    0.62    0.31
   3   6   0    1.50    0.87
   4   6   0    3.76    0.71
   4   6   0    3.54    0.75
   4   6   0    4.41    0.96
   4   6   0    4.03    1.35
   4   6   0    4.82    0.84
   5   6   0  512.04   16.70
   5   6   0  518.00   16.19
   5   6   0  501.29   16.41
   5   6   0  495.47   16.24
   5   6   0  487.11   17.84
   6   6   0    5.35    1.11
   6   6   0    7.15    1.25
   6   6   0    6.77    1.33
   7   6   0    2.31    0.96
   7   6   0    3.74    1.22
   7   6   0    3.10    0.96
   8   6   0    0.63    0.75
   8   6   0    1.46    0.97
   8   6   0   -0.19    0.58
   7  -7   0   10.53    1.90
  -7   7   0    8.64    2.25
  -7   7   0   10.13    2.32
   6  -7   0    0.28    0.53
  -6   7   0    0.11    1.00
  -6   7   0    0.54    1.05
  -5   7   0    7.06    1.80
  -5   7   0    5.77    1.71
  -4   7   0   34.32    3.38
  -4   7   0   29.48    3.35
  -3   7   0    1.44    0.84
  -3   7   0    0.55    0.74
  -2   7   0   11.83    1.78
  -2   7   0   12.93    1.85
   1  -7   0    1.22    0.39
  -1   7   0    0.77    0.57
  -1   7   0    0.50    0.49
  -1   7   0    0.89    0.57
  -1   7   0    0.72    0.64
   0   7   0   10.82    1.44
   0   7   0    9.65    1.37
   0   7   0    9.93    1.27
   0   7   0    9.79    1.39
   1   7   0    1.10    0.55
   1   7   0    1.07    0.49
   1   7   0    0.64    0.80
   1   7   0    1.15    0.46
   1   7   0    1.04    0.57
   2   7   0    5.81    1.62
   2   7   0    5.29    0.95
   2   7   0    6.17    0.92
   2   7   0    4.43    1.00
   2   7   0    4.39    0.73
   3   7   0  136.23    4.99
   3   7   0  133.93    5.20
   3   7   0  139.53    5.40
   3   7   0  152.64    7.41
   4   7   0    0.58    0.86
   4   7   0    0.15    0.44
   4   7   0   -0.30    0.33
   4   7   0    0.12    0.35
   5   7   0   30.46    2.15
   5   7   0   31.60    2.05
   5   7   0   29.18    2.69
   5   7   0   29.69    3.65
   6   7   0    1.36    0.69
   6   7   0    0.86    0.60
   6   7   0    1.44    1.27
   6   7   0   -0.23    0.60
   7   7   0   -0.50    0.78
   7   7   0    1.31    0.72
   7   7   0    1.26    0.74
  -6   8   0    0.09    0.89
  -6   8   0    0.36    1.03
  -5   8   0    4.97    1.66
  -5   8   0    1.40    1.27
  -4   8   0    4.71    1.55
  -4   8   0    4.58    1.50
  -3   8   0   21.86    2.82
  -3   8   0   16.85    2.37
  -2   8   0    6.87    1.49
  -2   8   0    6.71    1.50
  -1   8   0    0.02    0.53
  -1   8   0    0.43    0.72
   0   8   0  127.94    5.76
   0   8   0  143.42    5.96
   1   8   0  110.55    6.53
   1   8   0  107.79    4.76
   1   8   0  106.62    5.12
   1   8   0  108.92    4.87
   2   8   0    0.21    0.42
   2   8   0   -0.28    0.51
   2   8   0    0.15    0.36
   2   8   0   -0.34    0.83
   3   8   0  109.97    4.87
   3   8   0  118.98    4.78
   3   8   0  117.85    6.81
   4   8   0   25.89    3.65
   4   8   0   19.55    1.89
   4   8   0   19.33    2.02
   5   8   0   -0.15    0.83
   5   8   0   -0.53    0.50
   5   8   0    0.01    0.57
   5   8   0    0.20    0.48
   6   8   0   -0.76    0.98
   6   8   0    0.42    0.69
   6   8   0    1.23    0.89
   6   8   0    0.46    0.68
  -5   9   0    3.24    1.54
  -5   9   0    4.06    1.70
  -4   9   0    3.28    1.69
  -4   9   0    3.00    1.50
  -3   9   0    3.70    1.35
  -3   9   0    3.52    1.41
  -2   9   0    2.64    1.16
  -2   9   0    5.71    1.52
  -1   9   0    9.68    1.76
  -1   9   0    8.67    1.69
   0   9   0   12.69    1.87
   0   9   0   11.18    1.76
   1   9   0   75.30    4.03
   1   9   0   69.85    3.86
   1   9   0   78.45    5.64
   2   9   0    0.52    0.61
   2   9   0    1.77    1.39
   2   9   0    0.18    0.53
   3   9   0   20.72    3.38
   3   9   0   18.84    1.97
   3   9   0   17.99    2.06
   4   9   0    5.04    1.23
   4   9   0    5.73    1.96
   4   9   0    5.24    1.09
   5   9   0    2.50    1.57
   5   9   0    3.85    1.02
   5   9   0    3.45    1.06
  -4  10   0   19.71    3.22
  -4  10   0   15.56    2.73
  -3  10   0   10.22    2.24
  -3  10   0   17.74    2.73
  -2  10   0    0.00    0.85
  -2  10   0    0.58    0.87
  -1  10   0   16.81    2.41
  -1  10   0   19.57    2.59
   0  10   0    0.14    0.60
   0  10   0    0.26    0.67
   0  10   0    0.72    1.24
   1  10   0    0.93    0.73
   1  10   0   -0.27    0.64
   1  10   0    0.87    1.20
   2  10   0   21.67    2.41
   2  10   0   22.54    3.79
   2  10   0   19.12    2.25
   3  10   0   16.58    3.33
   3  10   0   11.53    1.76
   3  10   0   16.21    2.02
   4  10   0   33.41    3.00
   4  10   0   31.45    2.43
   4  10   0   31.34    4.38
   0  11   0    5.92    2.29
   0  11   0    4.37    1.54
   0  11   0    6.33    1.70
   3  10  -1   13.10    2.95
   3  10  -1   12.56    1.95
   3  10  -1   10.90    1.97
   2  10  -1    3.70    1.80
   2  10  -1    6.46    1.55
   2  10  -1    5.99    1.43
   1  10  -1    0.96    1.14
   1  10  -1    0.07    0.71
   0  10  -1   11.50    2.02
   0  10  -1   11.49    2.01
   0  10  -1    7.27    2.33
  -1  10  -1   19.31    3.57
  -1  10  -1   17.54    2.56
  -1  10  -1   16.71    2.48
  -2  10  -1    8.85    2.08
  -2  10  -1    6.65    2.08
  -2  10  -1    6.48    1.72
  -3  10  -1    3.21    1.48
  -3  10  -1    3.48    1.58
   5   9  -1   40.45    3.58
   5   9  -1   53.90    5.54
   5   9  -1   39.14    3.53
   5   9  -1   39.27    2.89
   4   9  -1   99.17    5.08
   4   9  -1  102.04    6.64
   4   9  -1  104.47    4.94
   3   9  -1    1.19    0.73
   3   9  -1    1.77    1.24
   3   9  -1    0.61    0.73
   2   9  -1   32.67    2.94
   2   9  -1   33.15    3.09
   2   9  -1   36.15    4.51
   1   9  -1    7.02    1.42
   1   9  -1    7.61    2.10
   1   9  -1    7.00    1.53
   0   9  -1   17.81    2.30
   0   9  -1   15.06    2.20
   0   9  -1   17.21    3.20
  -1   9  -1    0.94    1.07
  -1   9  -1    1.74    0.98
  -1   9  -1    0.47    0.82
  -2   9  -1   17.34    2.50
  -2   9  -1   16.29    2.46
  -3   9  -1   33.37    3.71
  -3   9  -1   26.57    3.31
  -4   9  -1    0.70    1.01
  -4   9  -1    2.21    1.26
  -5   9  -1   -0.01    0.98
  -5   9  -1   -0.83    0.94
   6   8  -1    2.71    1.03
   6   8  -1    3.09    1.19
   6   8  -1    2.16    0.95
   5   8  -1    0.11    0.62
   5   8  -1    0.31    0.72
   5   8  -1    0.21    1.01
   5   8  -1    0.56    0.78
   4   8  -1  333.66   11.63
   4   8  -1  314.37   11.24
   4   8  -1  311.34   13.28
   3   8  -1  116.07    5.05
   3   8  -1  113.85    6.77
   3   8  -1  113.95    5.21
   2   8  -1    1.92    0.79
   2   8  -1    1.24    1.03
   2   8  -1    1.34    0.70
   1   8  -1   13.43    1.80
   1   8  -1   17.19    2.96
   1   8  -1   15.82    1.96
   0   8  -1  201.95    8.24
   0   8  -1  217.74    9.92
   0   8  -1  203.18    8.15
  -1   8  -1  170.40    7.27
  -1   8  -1  167.62    7.26
  -2   8  -1   11.23    1.95
  -2   8  -1    9.91    1.76
  -3   8  -1   13.58    2.25
  -3   8  -1   11.74    2.06
  -4   8  -1    7.41    1.74
  -4   8  -1    8.92    1.91
  -5   8  -1    4.70    1.64
  -5   8  -1    0.40    1.15
  -6   8  -1    0.64    1.07
  -6   8  -1   -1.07    1.09
   7   7  -1   20.69    2.65
   7   7  -1   25.18    2.91
   7   7  -1   28.50    2.87
   6   7  -1   28.67    2.65
   6   7  -1   23.96    2.67
   6   7  -1   23.44    2.56
   5   7  -1  119.04    5.29
   5   7  -1  124.38    5.67
   5   7  -1  128.39    6.92
   5   7  -1  123.66    5.54
   4   7  -1   14.24    1.70
   4   7  -1   13.59    1.77
   4   7  -1   16.24    2.63
   3   7  -1  201.47    7.53
   3   7  -1  221.32    9.58
   3   7  -1  204.26    7.77
   3   7  -1  202.91    7.26
   2   7  -1   26.64    2.34
   2   7  -1   25.51    1.68
   2   7  -1   29.72    3.64
   2   7  -1   29.30    1.99
   1   7  -1    5.40    1.14
   1   7  -1    7.49    1.22
   1   7  -1    5.79    0.97
   1   7  -1    5.42    1.56
   0   7  -1    7.49    1.85
   0   7  -1    8.26    1.38
   0   7  -1   10.01    1.47
   0   7  -1    8.42    1.21
  -1   7  -1  209.94    8.14
  -1   7  -1  210.49    8.16
  -1   7  -1  197.19    7.66
  -2   7  -1   29.79    2.89
  -2   7  -1   24.99    2.63
  -3   7  -1    2.01    1.00
  -3   7  -1    1.42    0.89
  -4   7  -1   87.40    5.13
  -4   7  -1   88.02    5.13
  -5   7  -1   15.35    2.54
  -5   7  -1   15.35    2.53
  -6   7  -1   31.73    3.73
  -6   7  -1   30.53    3.66
  -7   7  -1   20.89    3.21
  -7   7  -1   14.61    2.71
   7   6  -1    6.67    1.40
   7   6  -1    6.26    1.55
   7   6  -1    6.26    1.39
   6   6  -1   35.51    3.20
   6   6  -1   38.55    2.78
   6   6  -1   38.94    2.64
   5   6  -1  587.55   18.88
   5   6  -1  588.67   19.08
   5   6  -1  573.03   20.34
   5   6  -1  560.38   18.62
   4   6  -1  285.37    9.86
   4   6  -1  288.65   11.46
   4   6  -1  298.51   10.10
   4   6  -1  277.28    9.67
   3   6  -1   39.02    2.08
   3   6  -1   36.20    2.00
   3   6  -1   36.47    2.30
   3   6  -1   40.04    3.22
   3   6  -1   43.21    2.28
   2   6  -1    3.91    1.22
   2   6  -1    3.51    0.80
   2   6  -1    3.97    0.80
   2   6  -1    3.00    0.61
   2   6  -1    3.51    0.69
   1   6  -1    1.82    0.54
   1   6  -1    1.27    0.88
   1   6  -1    0.81    0.48
   1   6  -1    0.73    0.41
   1   6  -1    1.76    0.64
   0   6  -1  226.27    7.93
   0   6  -1  210.72    7.58
   0   6  -1  212.49    7.75
   0   6  -1  220.83    9.18
   0   6  -1  214.06    7.99
   0  -6   1  218.79    7.06
  -1   6  -1   27.91    2.08
  -1   6  -1   26.09    1.86
  -1   6  -1   27.94    2.52
  -1   6  -1   27.46    2.01
   1  -6   1   27.33    1.64
  -2   6  -1   26.89    2.36
  -2   6  -1   24.26    2.48
  -2   6  -1   18.51    2.09
   2  -6   1   23.92    1.74
   2  -6   1   24.57    2.05
  -3   6  -1    1.59    0.73
  -3   6  -1    1.37    0.83
  -3   6  -1    2.24    0.92
   3  -6   1    1.39    0.66
   3  -6   1    1.21    0.62
  -4   6  -1   26.26    2.97
  -4   6  -1   24.80    2.79
   4  -6   1   28.23    2.63
   4  -6   1   23.42    2.37
  -5   6  -1   68.89    4.49
  -5   6  -1   68.86    4.49
   5  -6   1   73.62    4.16
  -6   6  -1    1.28    1.00
  -6   6  -1    2.10    1.25
   6  -6   1    3.53    1.10
   6  -6   1    3.87    1.26
  -7   6  -1  118.44    6.74
  -7   6  -1  120.44    6.78
   7  -6   1  116.06    6.25
   7  -6   1  122.38    5.87
  -8   6  -1    2.07    1.47
   8  -6   1    3.80    1.46
   8  -6   1    3.27    1.24
   8   5  -1    0.58    0.80
   8   5  -1    0.22    0.70
   8   5  -1    0.19    0.81
   7   5  -1    0.39    0.67
   7   5  -1    1.40    0.76
   7   5  -1   -0.50    0.61
   6   5  -1   20.21    2.27
   6   5  -1   18.34    2.08
   6   5  -1   18.57    2.09
   5   5  -1   48.84    3.08
   5   5  -1   54.46    2.91
   5   5  -1   52.59    2.97
   4   5  -1  472.85   15.88
   4   5  -1  485.82   15.88
   4   5  -1  511.18   16.37
   4   5  -1  530.31   16.08
   4   5  -1  516.24   17.46
   4   5  -1  492.38   16.15
   3   5  -1    8.25    1.03
   3   5  -1    7.50    0.92
   3   5  -1    6.46    1.48
   3   5  -1    7.48    0.89
   3   5  -1    6.07    0.93
   2   5  -1    0.77    0.32
   2   5  -1    1.27    0.41
   2   5  -1    0.91    0.46
   2   5  -1    0.33    0.55
   2   5  -1    1.43    0.47
   1   5  -1   12.14    1.17
   1   5  -1   12.37    1.27
   1   5  -1    9.47    1.18
   1   5  -1   12.60    1.13
   1   5  -1    9.77    1.65
   0   5  -1  408.95   13.13
   0   5  -1  398.74   12.75
   0   5  -1  399.96   12.99
   0  -5   1  401.94   12.40
   0  -5   1  390.13   12.45
  -1   5  -1  378.01   12.29
  -1   5  -1  367.83   12.42
  -1   5  -1  362.51   12.56
  -1   5  -1  374.04   12.53
   1  -5   1  417.10   12.37
   1  -5   1  363.74   11.99
   1  -5   1  362.67   12.07
  -2   5  -1  377.12   12.84
  -2   5  -1  382.24   13.16
  -2   5  -1  411.30   13.33
   2  -5   1  371.40   12.93
   2  -5   1  394.84   12.79
  -3   5  -1   70.12    3.89
  -3   5  -1   67.89    3.58
  -3   5  -1   78.15    4.03
   3  -5   1   71.19    3.52
   3  -5   1   82.44    3.98
   3  -5   1   70.66    3.55
  -4   5  -1   46.86    3.21
  -4   5  -1   48.85    3.29
   4  -5   1   42.80    2.79
   4  -5   1   47.16    2.91
  -5   5  -1  164.71    7.26
  -5   5  -1  163.01    7.24
   5  -5   1  150.80    6.65
   5  -5   1  153.31    6.70
   5  -5   1  147.43    6.23
  -6   5  -1    4.14    1.43
  -6   5  -1    3.13    1.23
   6  -5   1    4.98    1.13
   6  -5   1    3.59    1.17
   6  -5   1    4.57    1.28
  -7   5  -1    0.50    0.89
  -7   5  -1    0.16    0.76
   7  -5   1   -0.08    0.71
   7  -5   1   -0.34    0.53
  -8   5  -1    9.60    2.17
   8  -5   1   10.70    2.15
   8  -5   1   12.17    1.99
   8   4  -1   21.14    2.66
   8   4  -1   23.98    2.91
   8   4  -1   24.72    2.90
   7   4  -1   46.67    3.15
   7   4  -1   42.97    3.11
   7   4  -1   46.94    3.84
   6   4  -1    1.23    0.66
   6   4  -1    1.21    0.67
   6   4  -1    0.19    0.63
   5   4  -1  196.11    7.53
   5   4  -1  199.78    7.37
   5   4  -1  193.78    7.31
   5   4  -1  191.09    7.27
   4   4  -1   23.35    1.61
   4   4  -1   24.38    1.61
   4   4  -1   24.29    1.69
   4   4  -1   25.04    2.58
   4   4  -1   21.82    1.98
   4   4  -1   20.94    1.51
   3   4  -1    2.50    0.59
   3   4  -1    1.79    0.50
   3   4  -1    2.31    0.51
   3   4  -1    2.00    0.77
   3   4  -1    2.11    0.53
   2   4  -1  130.51    4.84
   2   4  -1  127.67    5.75
   2   4  -1  143.00    4.80
   2   4  -1  128.16    4.62
   2   4  -1  133.93    4.62
   1   4  -1   23.78    1.48
   1   4  -1   23.24    1.95
   1   4  -1   25.11    1.35
   1   4  -1   23.63    1.29
   1   4  -1   25.10    1.41
  -1  -4   1   24.96    1.14
  -1  -4   1   22.65    1.10
  -1  -4   1   24.04    1.08
   0   4  -1   25.58    1.46
   0   4  -1   22.23    1.44
   0   4  -1   24.03    1.36
   0   4  -1   23.93    1.55
   0  -4   1   22.47    1.23
   0  -4   1   23.49    1.32
  -1   4  -1   40.23    2.04
  -1   4  -1   39.34    2.19
  -1   4  -1   39.36    2.23
  -1   4  -1   38.25    2.10
  -1   4  -1   38.29    1.90
  -1   4  -1   38.05    2.06
   1  -4   1   43.51    2.16
   1  -4   1   39.10    1.99
  -2   4  -1 1721.25   51.56
  -2   4  -1 1699.18   51.50
  -2   4  -1 1656.69   50.96
  -2   4  -1 1674.40   51.20
   2  -4   1 1665.62   51.17
   2  -4   1 1724.94   51.11
   2  -4   1 1815.08   51.48
  -3   4  -1    3.63    0.94
  -3   4  -1    2.90    0.81
  -3   4  -1    2.46    0.86
   3  -4   1    1.79    0.52
   3  -4   1    2.62    0.87
   3  -4   1    1.21    0.56
   3  -4   1    3.47    0.83
  -4   4  -1   14.56    1.88
  -4   4  -1   11.82    1.77
   4  -4   1   14.88    1.54
   4  -4   1   16.59    2.10
   4  -4   1   13.06    1.68
   4  -4   1   18.59    2.05
  -5   4  -1   40.81    3.54
  -5   4  -1   43.78    3.12
   5  -4   1   42.31    2.60
   5  -4   1   42.00    2.83
   5  -4   1   44.05    2.91
  -6   4  -1  327.94   12.50
  -6   4  -1  316.63   12.41
   6  -4   1  337.37   12.17
   6  -4   1  329.20   11.71
   6  -4   1  329.68   12.21
  -7   4  -1   -0.26    0.72
  -7   4  -1   -0.07    0.85
   7  -4   1   -0.68    0.56
   7  -4   1    1.38    0.98
   7  -4   1    0.97    0.74
  -8   4  -1    5.49    1.74
   8  -4   1    6.35    1.63
   8  -4   1    5.58    1.51
   8  -4   1    5.59    1.43
  -9   4  -1   27.88    3.67
   9  -4   1   29.50    3.35
   9  -4   1   27.25    3.47
   9   3  -1   44.63    4.28
   9   3  -1   37.10    3.69
   9   3  -1   43.12    4.15
   8   3  -1    3.26    1.20
   8   3  -1    7.62    1.69
   8   3  -1    7.43    1.66
   7   3  -1   18.35    2.26
   7   3  -1   18.83    2.36
   7   3  -1   19.83    2.32
   6   3  -1   11.65    1.65
   6   3  -1   13.88    1.79
   6   3  -1   12.11    1.82
   5   3  -1   77.71    3.71
   5   3  -1   69.82    3.57
   5   3  -1   77.61    3.67
   5   3  -1   76.75    3.65
   5   3  -1   74.77    3.71
  -5  -3   1   74.73    3.02
   4   3  -1   67.12    3.25
   4   3  -1   68.63    3.13
   4   3  -1   69.75    3.13
   4   3  -1   69.77    3.20
   4   3  -1   70.11    3.14
  -4  -3   1   66.43    2.64
   3   3  -1  104.29    3.94
   3   3  -1  103.13    4.64
   3   3  -1  106.65    4.06
   3   3  -1  105.25    3.96
   3   3  -1  107.38    4.03
  -3  -3   1  105.33    3.60
   2   3  -1    5.51    0.70
   2   3  -1    4.82    0.65
   2   3  -1    3.86    0.93
   2   3  -1    5.13    0.65
   2   3  -1    7.01    0.83
  -2  -3   1    4.99    0.50
  -2  -3   1    2.81    0.43
   1   3  -1  368.60   11.57
   1   3  -1  397.07   11.82
   1   3  -1  354.05   12.46
   1   3  -1  372.07   11.52
   1   3  -1  377.38   11.67
  -1  -3   1  380.40   11.41
  -1  -3   1  378.73   11.42
   0   3  -1  258.00    8.53
   0   3  -1  276.95    8.53
   0   3  -1  275.17    8.68
   0   3  -1  248.56    9.12
   0   3  -1  255.83    8.39
   0  -3   1  263.90    8.34
   0  -3   1  274.43    8.45
   0  -3   1  265.52    8.38
   0  -3   1  266.55    8.37
  -1   3  -1 1543.19   44.71
  -1   3  -1 1443.40   44.79
  -1   3  -1 1542.15   44.92
  -1   3  -1 1496.69   44.94
  -1   3  -1 1489.42   44.75
  -1   3  -1 1520.31   44.57
   1  -3   1 1551.19   44.73
   1  -3   1 1388.03   44.59
   1  -3   1 1540.13   44.82
  -2   3  -1  271.03    9.25
  -2   3  -1  263.11    8.81
  -2   3  -1  265.09    8.97
  -2   3  -1  260.98    9.20
  -2   3  -1  270.12    9.17
   2  -3   1  268.51    8.97
   2  -3   1  267.75    9.02
   2  -3   1  290.72    9.26
  -3   3  -1  252.00    9.07
  -3   3  -1  275.39    9.46
  -3   3  -1  265.04    9.45
   3  -3   1  283.70    9.49
   3  -3   1  252.38    9.13
   3  -3   1  258.34    8.83
   3  -3   1  270.58    9.12
  -4   3  -1    7.54    1.42
  -4   3  -1    5.21    1.21
   4  -3   1    7.70    1.26
   4  -3   1    7.50    1.11
   4  -3   1    5.24    1.04
   4  -3   1    7.92    1.30
  -5   3  -1    6.55    1.37
  -5   3  -1    5.85    1.29
   5  -3   1    6.83    1.28
   5  -3   1    8.72    1.25
   5  -3   1    6.70    1.28
   5  -3   1    6.03    1.32
  -6   3  -1   13.25    2.03
  -6   3  -1   13.66    2.07
   6  -3   1   12.56    1.65
   6  -3   1   17.67    2.26
   6  -3   1   14.69    1.93
  -7   3  -1   10.77    1.89
  -7   3  -1   14.98    2.24
   7  -3   1   13.66    2.15
   7  -3   1   13.19    1.91
   7  -3   1   12.95    1.97
  -8   3  -1   16.80    2.57
   8  -3   1   14.41    2.30
   8  -3   1   17.65    2.66
   8  -3   1   17.03    2.36
   9  -3   1    5.64    1.63
   9  -3   1    4.53    1.39
   9  -3   1    3.87    1.44
   9  -3   1    2.31    1.34
   9   2  -1    0.14    0.84
   9   2  -1    0.68    0.91
   9   2  -1    0.31    0.86
   8   2  -1    0.78    0.78
   8   2  -1   -0.28    0.66
   8   2  -1   -0.49    0.58
   7   2  -1  133.73    6.20
   7   2  -1  139.68    6.23
   7   2  -1  131.11    6.10
   6   2  -1   19.93    2.14
   6   2  -1   19.08    2.10
   6   2  -1   14.52    1.82
  -6  -2   1   19.51    1.77
   5   2  -1  286.22    9.81
   5   2  -1  256.95    9.71
   5   2  -1  266.60    9.69
   5   2  -1  282.05    9.72
  -5  -2   1  281.61    9.21
  -5  -2   1  275.75    9.16
   4   2  -1  129.60    5.11
   4   2  -1  141.38    5.21
   4   2  -1  129.94    5.15
   4   2  -1  125.33    5.14
   4   2  -1  132.48    5.20
  -4  -2   1  134.04    4.75
  -4  -2   1  139.39    4.81
   3   2  -1   84.13    3.37
   3   2  -1   84.27    3.39
   3   2  -1   86.98    3.41
   3   2  -1   85.11    3.36
   3   2  -1   83.36    3.46
  -3  -2   1   82.65    3.11
  -3  -2   1   85.30    3.13
   2   2  -1  516.48   15.80
   2   2  -1  519.32   15.84
   2   2  -1  509.01   15.75
   2   2  -1  518.78   15.74
   2   2  -1  497.15   16.32
  -2  -2   1  528.24   15.61
  -2  -2   1  526.37   15.59
  -2  -2   1  515.79   16.54
   1   2  -1    2.42    0.40
   1   2  -1    3.15    0.47
   1   2  -1    2.05    0.58
   1   2  -1    2.76    0.48
   1   2  -1    2.95    0.44
  -1  -2   1    3.16    0.42
  -1  -2   1    2.03    0.37
  -1  -2   1    2.78    0.38
  -1  -2   1    2.71    0.41
  -1  -2   1    2.03    0.63
   0   2  -1  870.92   26.39
   0   2  -1  920.88   26.47
   0   2  -1  881.12   26.58
   0   2  -1  854.77   26.91
   0   2  -1  906.07   26.51
   0  -2   1  890.95   26.45
   0  -2   1  868.86   26.49
   0  -2   1  907.87   26.43
   1  -2   1 9999.00  286.87
   1  -2   1 9683.87  287.31
   1  -2   1 9476.64  287.21
  -2   2  -1 1492.43   44.11
  -2   2  -1 1544.02   44.51
  -2   2  -1 1483.38   44.48
  -2   2  -1 1452.93   44.23
   2  -2   1 1472.37   44.47
   2  -2   1 1565.41   44.50
   2  -2   1 1412.69   44.28
   2  -2   1 1454.60   44.05
   2  -2   1 1482.22   44.26
  -3   2  -1   73.73    3.22
  -3   2  -1   93.24    3.76
  -3   2  -1   83.98    3.65
  -3   2  -1   74.93    3.35
   3  -2   1   73.80    3.18
   3  -2   1   80.25    3.48
   3  -2   1   78.90    3.62
   3  -2   1   76.00    3.57
   3  -2   1   80.17    3.40
  -4   2  -1    1.20    0.65
  -4   2  -1    1.56    0.67
   4  -2   1    0.84    0.56
   4  -2   1    0.56    0.45
   4  -2   1    1.74    0.59
   4  -2   1    0.88    0.43
  -5   2  -1  140.16    5.98
  -5   2  -1  148.53    6.07
   5  -2   1  138.95    5.57
   5  -2   1  141.47    5.89
   5  -2   1  135.23    6.12
   5  -2   1  136.11    5.78
  -6   2  -1    3.06    1.05
  -6   2  -1    1.79    0.84
   6  -2   1    1.33    0.71
   6  -2   1    1.61    0.70
   6  -2   1    2.21    0.94
  -7   2  -1   12.11    1.92
  -7   2  -1    8.75    1.65
   7  -2   1    9.51    1.57
   7  -2   1    8.29    1.61
   7  -2   1   12.48    1.95
  -8   2  -1   62.01    4.15
   8  -2   1   68.05    4.38
   8  -2   1   66.40    4.32
   8  -2   1   69.29    4.09
   9  -2   1   45.12    3.96
   9  -2   1   38.36    3.94
   9  -2   1   49.39    4.54
   9  -2   1   43.33    4.21
   9   1  -1   19.26    2.59
   9   1  -1   22.83    2.93
   9   1  -1   20.23    2.79
   8   1  -1    0.15    0.70
   8   1  -1    0.31    0.76
   8   1  -1    0.48    0.71
   7   1  -1    3.10    0.96
   7   1  -1    3.97    1.21
   7   1  -1    4.51    1.18
  -7  -1   1    3.34    1.27
   6   1  -1   43.28    2.81
   6   1  -1   44.05    3.92
   6   1  -1   45.39    2.91
   6   1  -1   45.43    2.92
   6   1  -1   45.16    2.84
  -6  -1   1   39.53    2.47
   5   1  -1    3.22    0.86
   5   1  -1    2.00    0.66
   5   1  -1    3.04    0.80
   5   1  -1    3.92    0.89
  -5  -1   1    3.58    0.76
   4   1  -1   33.82    2.16
   4   1  -1   30.24    1.91
   4   1  -1   29.51    1.91
   4   1  -1   34.03    2.02
   4   1  -1   32.68    2.04
  -4  -1   1   32.85    1.82
   3   1  -1   26.87    1.55
   3   1  -1   24.69    1.54
   3   1  -1   24.13    1.51
   3   1  -1   27.44    1.57
   3   1  -1   27.59    1.59
   3   1  -1   26.23    1.56
  -3  -1   1   24.95    1.40
   2   1  -1  684.18   20.90
   2   1  -1  680.40   20.87
   2   1  -1  685.03   20.87
   2   1  -1  687.03   20.88
   2   1  -1  688.77   20.85
  -2  -1   1  705.30   20.78
  -2  -1   1  700.97   21.24
  -2  -1   1  690.15   20.81
   1   1  -1 1759.19   52.82
   1   1  -1 1735.72   52.18
   1   1  -1 1759.65   52.57
   1   1  -1 1721.07   52.48
  -1  -1   1 1712.36   52.13
  -1  -1   1 1739.53   52.51
  -1  -1   1 1778.03   52.89
  -1  -1   1 1810.84   52.72
   0   1  -1  931.71   27.89
   0   1  -1  939.91   27.76
   0   1  -1  903.87   28.06
   0   1  -1  928.18   27.74
   0   1  -1  927.21   28.06
   0  -1   1  920.45   28.05
   0  -1   1  958.09   27.82
   0  -1   1  851.26   27.50
   0  -1   1  944.30   27.77
   0  -1   1  917.63   27.56
  -1   1  -1   72.11    2.84
  -1   1  -1   75.32    2.74
  -1   1  -1   80.63    2.82
  -1   1  -1   77.23    2.68
  -1   1  -1   77.55    2.88
   1  -1   1   73.28    2.85
   1  -1   1   76.55    2.75
   1  -1   1   73.49    2.76
   1  -1   1   76.70    2.85
  -2   1  -1  791.02   24.18
  -2   1  -1  788.68   24.09
  -2   1  -1  776.86   24.34
  -2   1  -1  813.67   24.37
  -2   1  -1  814.73   24.31
   2  -1   1  804.43   24.38
   2  -1   1  809.44   24.27
   2  -1   1  767.25   24.16
   2  -1   1  784.19   24.36
   2  -1   1  801.04   24.09
   2  -1   1  880.69   24.42
  -3   1  -1  250.11    8.38
  -3   1  -1  260.64    8.42
  -3   1  -1  232.93    8.07
   3  -1   1  232.95    8.38
   3  -1   1  242.70    8.42
   3  -1   1  264.66    8.51
   3  -1   1  244.11    8.23
   3  -1   1  243.73    8.09
   3  -1   1  241.30    8.28
  -4   1  -1  134.52    5.24
  -4   1  -1  141.08    5.30
   4  -1   1  135.85    5.43
   4  -1   1  123.61    5.32
   4  -1   1  126.29    4.93
   4  -1   1  128.07    5.11
   4  -1   1  129.29    5.18
  -5   1  -1  174.07    6.73
  -5   1  -1  165.59    6.66
   5  -1   1  191.19    7.21
   5  -1   1  173.72    6.46
   5  -1   1  159.23    6.86
   5  -1   1  158.80    6.60
   5  -1   1  178.80    6.70
  -6   1  -1   72.77    3.85
  -6   1  -1   72.17    3.85
   6  -1   1   81.46    4.03
   6  -1   1   72.53    3.69
   6  -1   1   72.05    3.92
  -7   1  -1   71.89    3.96
   7  -1   1   65.76    3.92
   7  -1   1   66.89    4.00
   7  -1   1   65.80    3.73
  -8   1  -1   11.60    1.88
   8  -1   1   11.40    1.91
   8  -1   1    9.66    1.85
   8  -1   1   10.47    1.92
   9  -1   1    2.84    1.26
   9  -1   1    2.62    1.25
   9  -1   1    2.86    1.19
   9  -1   1    2.57    1.26
   9   0  -1   46.53    4.22
   9   0  -1   57.54    4.20
   9   0  -1   51.80    4.66
   8   0  -1    6.74    1.52
   8   0  -1    6.23    1.52
   8   0  -1    6.16    1.53
   7   0  -1    2.93    1.14
   7   0  -1    1.71    0.91
   7   0  -1    1.72    0.94
  -7   0   1    1.47    0.75
   6   0  -1   46.29    3.00
   6   0  -1   46.12    2.99
   6   0  -1   44.69    2.86
  -6   0   1   50.52    2.89
  -6   0   1   44.39    2.75
   5   0  -1   43.31    2.66
   5   0  -1   42.89    2.58
   5   0  -1   45.90    2.75
   5   0  -1   46.43    2.73
   5   0  -1   42.48    2.78
  -5   0   1   48.98    2.67
  -5   0   1   49.02    2.67
   4   0  -1  153.87    5.95
   4   0  -1  147.74    5.78
   4   0  -1  151.09    5.70
   4   0  -1  157.74    5.81
   4   0  -1  147.41    5.76
  -4   0   1  152.46    5.71
  -4   0   1  147.69    5.67
   3   0  -1  349.96   12.15
   3   0  -1  380.96   12.08
   3   0  -1  376.25   12.15
   3   0  -1  394.60   12.17
   3   0  -1  362.54   12.20
   3   0  -1  369.33   12.09
  -3   0   1  374.32   12.06
  -3   0   1  402.99   12.13
  -3   0   1  382.16   12.04
   2   0  -1  484.81   15.18
   2   0  -1  515.32   15.27
   2   0  -1  506.33   15.28
   2   0  -1  489.93   15.30
   2   0  -1  484.92   15.30
  -2   0   1  482.15   15.22
  -2   0   1  494.30   15.22
  -2   0   1  491.43   15.17
  -2   0   1  502.68   15.24
   1   0  -1  235.36    7.33
   1   0  -1  222.87    7.30
   1   0  -1  240.59    7.34
   1   0  -1  230.82    7.32
  -1   0   1  239.28    7.31
  -1   0   1  239.77    7.33
  -1   0   1  238.67    7.33
  -1   0   1  224.28    7.27
   0   0  -1  211.54    7.45
   0   0  -1  255.57    7.58
   0   0  -1  253.68    7.53
   0   0   1  258.19    7.48
   0   0   1  250.71    7.48
  -1   0  -1 1091.21   32.01
  -1   0  -1 1100.65   32.43
  -1   0  -1 1071.66   32.24
  -1   0  -1 1070.20   32.47
  -1   0  -1 1058.86   32.16
   1   0   1 1049.20   32.44
   1   0   1 1072.30   32.41
   1   0   1 1090.47   32.66
   1   0   1 1086.07   32.44
  -2   0  -1  258.44    8.00
  -2   0  -1  254.94    8.10
  -2   0  -1  248.87    8.00
  -2   0  -1  255.98    8.11
   2   0   1  257.37    8.07
   2   0   1  249.33    8.14
   2   0   1  252.42    8.03
   2   0   1  263.37    8.15
   2   0   1  256.76    8.00
   2   0   1  253.78    8.15
  -3   0  -1    0.42    0.32
  -3   0  -1    0.72    0.32
  -3   0  -1    1.09    0.41
   3   0   1    0.45    0.29
   3   0   1    1.06    0.38
   3   0   1    0.34    0.33
   3   0   1    1.62    0.48
   3   0   1    0.71    0.34
   3   0   1    0.51    0.38
  -4   0  -1  122.04    4.72
  -4   0  -1  126.77    4.77
  -4   0  -1  127.29    4.78
   4   0   1  127.56    4.86
   4   0   1  113.30    4.86
   4   0   1  120.29    4.66
   4   0   1  125.62    5.02
   4   0   1  121.24    4.75
   4   0   1  117.03    4.92
  -5   0  -1   26.74    1.82
  -5   0  -1   24.89    1.76
  -5   0  -1   24.08    1.58
   5   0   1   23.57    2.30
   5   0   1   20.57    1.93
   5   0   1   24.94    1.73
   5   0   1   24.33    1.82
   5   0   1   23.91    2.30
  -6   0  -1   72.66    3.61
  -6   0  -1   76.20    3.68
   6   0   1   76.19    3.88
   6   0   1   69.32    3.59
   6   0   1   71.22    4.01
   6   0   1   76.97    3.86
  -7   0  -1  238.26    9.19
   7   0   1  252.18    9.70
   7   0   1  255.14    9.46
   7   0   1  253.47    9.64
   8   0   1    9.45    1.80
   8   0   1    5.66    1.39
   8   0   1    5.86    1.48
   9   0   1   -0.12    0.66
   9   0   1   -0.90    0.60
   9   0   1   -0.15    0.66
   9   0   1   -0.05    0.71
   9  -1  -1   14.19    2.35
   9  -1  -1   10.45    2.11
   9  -1  -1    9.19    2.01
   8  -1  -1    1.97    1.14
   8  -1  -1    4.47    1.47
   8  -1  -1    4.89    1.28
   8  -1  -1    3.25    1.23
  -8   1   1    1.92    1.03
   7  -1  -1    0.88    0.82
   7  -1  -1    2.17    0.88
   7  -1  -1    1.24    0.74
  -7   1   1    1.90    0.93
   6  -1  -1   92.64    4.54
   6  -1  -1   99.19    4.88
   6  -1  -1   96.49    4.79
   6  -1  -1   97.48    4.82
  -6   1   1   98.63    4.74
  -6   1   1  102.40    4.79
   5  -1  -1   39.01    2.45
   5  -1  -1   42.41    2.62
   5  -1  -1   35.84    2.49
   5  -1  -1   42.02    2.63
  -5   1   1   46.08    2.71
  -5   1   1   43.98    2.65
   4  -1  -1  191.37    6.87
   4  -1  -1  182.82    6.66
   4  -1  -1  176.91    6.99
   4  -1  -1  181.25    6.82
   4  -1  -1  178.52    6.78
  -4   1   1  184.46    6.85
  -4   1   1  184.01    6.88
   3  -1  -1  153.37    5.46
   3  -1  -1  147.97    5.31
   3  -1  -1  147.88    5.44
   3  -1  -1  142.07    5.38
   3  -1  -1  147.75    5.57
  -3   1   1  145.21    5.46
  -3   1   1  140.36    5.43
  -3   1   1  149.43    5.31
   2  -1  -1  373.71   11.70
   2  -1  -1  372.04   11.59
   2  -1  -1  363.12   11.80
   2  -1  -1  363.49   11.81
   2  -1  -1  364.92   11.71
   2  -1  -1  371.05   11.71
  -2   1   1  378.67   11.59
  -2   1   1  361.42   11.75
  -2   1   1  379.14   11.72
  -2   1   1  384.65   11.81
   1  -1  -1  166.06    5.29
   1  -1  -1  158.22    5.33
   1  -1  -1  155.05    5.33
   1  -1  -1  156.69    5.27
  -1   1   1  158.57    5.33
  -1   1   1  165.78    5.18
  -1   1   1  163.02    5.28
  -1   1   1  160.77    5.30
  -1   1   1  169.03    5.32
  -1   1   1  170.57    5.38
   0  -1  -1   68.36    2.19
   0  -1  -1   64.45    2.18
   0  -1  -1   60.64    2.14
   0   1   1   70.41    2.21
   0   1   1   68.95    2.21
   0   1   1   68.15    2.21
   0   1   1   66.79    2.07
   0   1   1   66.47    2.17
  -2  -1  -1 1428.20   43.11
  -2  -1  -1 1435.41   43.66
  -2  -1  -1 1543.03   43.19
  -2  -1  -1 1409.92   43.10
   2   1   1 1496.19   43.16
   2   1   1 1500.21   43.80
   2   1   1 1436.30   44.11
   2   1   1 1452.42   44.00
   2   1   1 1444.26   43.62
   2   1   1 1457.26   43.40
   2   1   1 1408.66   43.94
  -3  -1  -1   41.43    1.71
  -3  -1  -1   40.47    1.84
  -3  -1  -1   37.77    1.67
  -3  -1  -1   38.84    1.88
   3   1   1   38.73    1.85
   3   1   1   37.39    1.83
   3   1   1   37.37    1.77
   3   1   1   38.87    1.83
   3   1   1   41.31    1.87
   3   1   1   39.23    1.90
  -4  -1  -1  125.12    4.52
  -4  -1  -1  123.53    4.70
  -4  -1  -1  125.85    4.75
  -4  -1  -1  120.20    4.49
   4   1   1  124.27    4.83
   4   1   1  123.98    4.81
   4   1   1  133.98    5.00
   4   1   1  124.05    4.77
   4   1   1  125.52    4.71
   4   1   1  124.92    4.71
  -5  -1  -1   83.62    3.49
  -5  -1  -1   83.10    4.00
  -5  -1  -1   83.87    3.49
   5   1   1   81.22    3.88
   5   1   1   85.01    3.74
   5   1   1   79.74    3.96
   5   1   1   85.27    3.80
   5   1   1   80.47    3.67
   5   1   1   84.29    3.90
  -6  -1  -1  110.37    4.52
  -6  -1  -1  106.48    4.49
   6   1   1  106.82    5.04
   6   1   1  112.52    4.95
   6   1   1  120.45    4.93
   6   1   1  106.07    4.85
  -7  -1  -1  556.09   18.92
   7   1   1  608.87   19.71
   7   1   1  605.22   19.53
   7   1   1  606.38   19.82
   8   1   1    3.37    1.08
   8   1   1    3.82    1.16
   8   1   1    2.52    1.03
   9   1   1   -0.66    0.59
   9   1   1   -0.07    0.72
   9   1   1    0.13    0.73
   9   1   1   -0.06    0.68
   9  -2  -1   25.38    3.07
   9  -2  -1   36.42    4.05
   9  -2  -1   30.42    3.70
   8  -2  -1   14.75    2.51
   8  -2  -1   13.69    2.22
   8  -2  -1   14.63    2.46
   8  -2  -1   13.01    2.06
  -8   2   1   12.72    2.22
   7  -2  -1  261.93   10.72
   7  -2  -1  283.03   10.54
   7  -2  -1  298.16   11.02
  -7   2   1  264.32   13.40
  -7   2   1  271.62   10.73
   6  -2  -1   -0.43    0.49
   6  -2  -1    0.35    0.54
   6  -2  -1    0.20    0.46
   6  -2  -1   -0.37    0.48
  -6   2   1   -0.17    0.50
  -6   2   1   -0.75    0.46
   5  -2  -1  307.92   10.98
   5  -2  -1  316.67   11.00
   5  -2  -1  324.11   10.75
   5  -2  -1  296.50   10.92
  -5   2   1  293.26   10.94
  -5   2   1  305.39   11.05
   4  -2  -1  241.55    8.51
   4  -2  -1  255.18    8.83
   4  -2  -1  232.82    8.69
   4  -2  -1  241.13    8.74
  -4   2   1  248.58    8.95
  -4   2   1  253.16    8.95
   3  -2  -1    2.58    0.67
   3  -2  -1    2.63    0.60
   3  -2  -1    2.35    0.60
   3  -2  -1    2.62    0.64
  -3   2   1    2.80    0.64
  -3   2   1    4.36    0.89
  -3   2   1    3.28    0.74
  -3   2   1    3.46    0.76
   2  -2  -1 1071.89   32.35
   2  -2  -1 1070.33   32.38
   2  -2  -1 1022.70   32.49
   2  -2  -1 1062.82   32.17
   2  -2  -1 1100.19   32.40
  -2   2   1 1136.03   32.71
  -2   2   1 1058.89   32.40
  -2   2   1 1098.29   32.55
  -2   2   1 1064.62   32.53
  -2   2   1 1071.96   32.21
   1  -2  -1  939.89   26.84
   1  -2  -1  896.89   26.94
   1  -2  -1  907.87   26.83
   1  -2  -1  882.97   26.94
   1  -2  -1  913.78   26.68
   1  -2  -1  861.66   26.78
  -1   2   1  881.68   26.95
  -1   2   1  908.91   26.85
  -1   2   1  917.56   26.70
  -1   2   1  865.18   26.86
  -1   2   1  897.27   26.96
   0  -2  -1 1073.49   31.80
   0  -2  -1 1070.22   32.00
   0  -2  -1 1103.78   31.86
   0   2   1 1050.60   32.24
   0   2   1 1089.43   32.02
   0   2   1 1063.30   32.16
   0   2   1 1115.50   32.17
   0   2   1 1072.06   32.09
   2   2   1    0.86    0.16
   2   2   1    0.51    0.14
   2   2   1    0.70    0.16
   2   2   1    1.52    0.33
   2   2   1    0.17    0.32
   3   2   1  661.25   20.20
   3   2   1  657.22   19.98
   3   2   1  641.40   20.46
   3   2   1  682.46   20.02
   3   2   1  653.07   20.02
   3   2   1  658.10   20.01
   3   2   1  692.20   20.14
  -4  -2  -1  273.50   10.20
  -4  -2  -1  288.60    8.89
  -4  -2  -1  287.93    9.47
  -4  -2  -1  266.16    8.85
   4   2   1  286.32    9.41
   4   2   1  287.97    9.45
   4   2   1  299.85    9.39
   4   2   1  306.02    9.49
   4   2   1  296.61    9.52
   4   2   1  279.38    9.55
  -5  -2  -1  117.85    4.10
   5   2   1  112.07    4.71
   5   2   1  113.19    4.66
   5   2   1  112.95    4.62
   5   2   1  111.89    4.57
   5   2   1  113.57    4.69
  -6  -2  -1  169.40    6.03
  -6  -2  -1  170.08    6.04
   6   2   1  173.21    6.73
   6   2   1  170.55    6.70
   6   2   1  182.25    6.85
   6   2   1  173.07    6.90
   7   2   1  775.00   24.94
   7   2   1  791.13   25.03
   7   2   1  768.71   25.05
   8   2   1   21.68    2.51
   8   2   1   17.83    2.29
   8   2   1   16.42    2.20
   8   2   1   17.84    2.26
   9   2   1    6.97    1.65
   9   2   1    5.04    1.37
   9   2   1    4.87    1.48
   9   2   1    4.62    1.39
   9  -3  -1    7.26    1.81
   9  -3  -1    4.86    1.66
   8  -3  -1    4.92    1.58
   8  -3  -1    4.18    1.39
   8  -3  -1    4.25    1.41
   8  -3  -1    2.43    0.96
  -8   3   1    3.93    1.40
   7  -3  -1   15.81    2.26
   7  -3  -1   20.75    2.63
   7  -3  -1   14.38    1.99
  -7   3   1   20.78    2.82
  -7   3   1   12.53    2.11
   6  -3  -1    4.82    1.23
   6  -3  -1    4.76    1.24
   6  -3  -1    5.48    1.33
   6  -3  -1    2.12    0.78
  -6   3   1    4.16    1.22
  -6   3   1    6.57    1.49
   5  -3  -1   61.51    3.47
   5  -3  -1   62.63    3.26
   5  -3  -1   63.41    3.53
   5  -3  -1   62.27    3.51
  -5   3   1   64.83    3.72
  -5   3   1   62.03    3.67
   4  -3  -1  184.24    7.15
   4  -3  -1  191.25    6.93
   4  -3  -1  197.58    7.25
   4  -3  -1  182.00    7.14
  -4   3   1  191.61    7.45
  -4   3   1  185.80    7.40
   3  -3  -1  164.31    6.11
   3  -3  -1  175.20    6.18
   3  -3  -1  167.02    5.89
   3  -3  -1  162.22    6.10
  -3   3   1  149.84    6.05
  -3   3   1  156.41    5.89
  -3   3   1  164.65    6.35
  -3   3   1  164.05    6.34
   2  -3  -1    0.07    0.28
   2  -3  -1    0.12    0.27
   2  -3  -1    0.32    0.30
   2  -3  -1    0.82    0.32
  -2   3   1    0.84    0.43
  -2   3   1   -0.09    0.23
  -2   3   1    0.02    0.31
  -2   3   1    0.26    0.29
  -2   3   1    0.18    0.35
   1  -3  -1   19.98    1.07
   1  -3  -1   21.70    1.18
   1  -3  -1   21.82    1.17
  -1   3   1   21.20    1.24
  -1   3   1   18.79    1.29
  -1   3   1   19.84    1.09
  -1   3   1   21.50    1.34
  -1   3   1   20.18    1.21
   0  -3  -1  133.48    4.11
   0  -3  -1  136.62    4.15
   0  -3  -1  131.68    4.11
   0  -3  -1  131.53    4.16
   0   3   1  135.87    4.37
   0   3   1  137.23    4.49
   0   3   1  135.30    4.32
   0   3   1  132.66    4.46
   0   3   1  136.41    4.40
   3   3   1  304.06    9.31
   3   3   1  288.76    9.50
   3   3   1  298.32    9.14
   3   3   1  309.39    9.15
   3   3   1  294.00    9.21
   3   3   1  292.01    9.17
   3   3   1  293.67   10.22
   4   3   1  200.10    6.73
   4   3   1  198.28    6.95
   4   3   1  199.54    7.37
   4   3   1  194.56    6.68
   4   3   1  204.32    6.75
   4   3   1  200.05    6.72
   5   3   1   45.60    2.46
   5   3   1   46.55    2.55
   5   3   1   48.15    2.43
   5   3   1   47.47    2.51
   5   3   1   49.80    2.50
   6   3   1  171.14    6.59
   6   3   1  167.59    6.47
   6   3   1  174.58    6.47
   6   3   1  147.24    6.41
   7   3   1   56.47    3.36
   7   3   1   55.77    3.37
   7   3   1   63.53    3.49
   7   3   1   64.68    3.51
   8   3   1   51.35    3.47
   8   3   1   52.11    3.43
   8   3   1   54.21    3.48
   8   3   1   52.29    3.44
   9   3   1    0.06    0.71
   9   3   1    0.07    0.60
   9   3   1    1.18    0.87
   8  -4  -1    9.10    2.05
   8  -4  -1   12.15    2.37
   8  -4  -1    5.48    1.33
  -8   4   1    8.22    1.92
   7  -4  -1    7.97    1.52
   7  -4  -1    5.65    1.45
   7  -4  -1    6.15    1.51
  -7   4   1    6.13    1.70
  -7   4   1   11.05    2.06
   6  -4  -1  122.91    5.97
   6  -4  -1  125.23    5.96
   6  -4  -1  123.35    5.56
   6  -4  -1  117.04    5.84
  -6   4   1  128.05    6.27
  -6   4   1  128.90    6.27
   5  -4  -1   47.19    3.04
   5  -4  -1   50.25    2.85
   5  -4  -1   51.89    3.13
   5  -4  -1   41.09    2.92
  -5   4   1   50.55    3.38
  -5   4   1   46.00    3.28
   4  -4  -1   36.78    2.41
   4  -4  -1   32.89    2.34
   4  -4  -1   37.66    2.46
   4  -4  -1   35.83    2.22
  -4   4   1   38.51    2.69
  -4   4   1   42.01    2.77
   3  -4  -1    3.05    0.76
   3  -4  -1    2.66    0.72
   3  -4  -1    2.73    0.62
   3  -4  -1    4.11    0.90
  -3   4   1    3.25    0.94
  -3   4   1    2.79    0.76
  -3   4   1    2.98    0.88
   2  -4  -1   18.92    1.65
   2  -4  -1   23.88    1.38
   2  -4  -1   18.15    1.36
   2  -4  -1   21.68    1.46
  -2   4   1   21.45    1.66
  -2   4   1   22.86    1.55
  -2   4   1   25.46    1.76
  -2   4   1   20.50    1.33
  -2   4   1   21.48    1.95
   1  -4  -1    3.14    0.53
   1  -4  -1    2.94    0.51
   1  -4  -1    4.43    0.60
  -1   4   1    3.00    0.67
  -1   4   1    2.89    0.58
  -1   4   1    4.01    0.71
  -1   4   1    3.55    0.72
  -1   4   1    4.20    0.60
  -1   4   1    2.78    0.62
   0   4   1  102.39    3.66
   0   4   1  105.60    3.75
   0   4   1  116.14    3.95
   0   4   1  106.99    3.81
   0   4   1  105.71    3.87
   0   4   1  108.10    3.91
   1   4   1  309.04    9.55
   1   4   1  316.55    9.52
   1   4   1  313.74    9.58
   1   4   1  317.17    9.54
   1   4   1  319.56    9.59
   3   4   1  787.56   24.49
   3   4   1  852.74   26.34
   3   4   1  811.68   24.53
   3   4   1  825.78   24.99
   3   4   1  855.56   24.46
   3   4   1  822.02   24.45
   4   4   1    0.79    0.32
   4   4   1    1.26    0.38
   4   4   1    0.65    0.58
   4   4   1    0.50    0.42
   4   4   1    0.43    0.30
   4   4   1    1.31    0.38
   5   4   1  181.63    6.56
   5   4   1  200.09    7.59
   5   4   1  184.89    6.63
   5   4   1  180.62    6.57
   5   4   1  181.11    6.63
   5   4   1  184.36    6.90
   5   4   1  190.09    6.60
   6   4   1 1235.76   37.59
   6   4   1 1243.54   37.54
   6   4   1 1258.82   37.59
   6   4   1 1208.80   37.75
   6   4   1 1196.97   37.63
   7   4   1   24.69    2.57
   7   4   1   27.00    2.51
   7   4   1   27.25    2.48
   8   4   1    0.18    0.63
   8   4   1    0.76    0.70
   8   4   1    0.71    0.71
   9   4   1    1.26    0.96
   9   4   1    0.00    0.65
   9   4   1    0.90    0.91
   8  -5  -1   32.23    3.64
   8  -5  -1   33.73    3.79
   8  -5  -1   31.86    3.35
  -8   5   1   30.91    3.69
   7  -5  -1   10.20    1.75
   7  -5  -1    7.41    1.67
  -7   5   1    6.86    1.87
  -7   5   1   15.33    2.51
   6  -5  -1   82.14    4.24
   6  -5  -1   77.53    4.52
  -6   5   1   81.63    4.96
  -6   5   1   73.32    4.78
   5  -5  -1   -0.13    0.50
   5  -5  -1    0.69    0.60
   5  -5  -1    0.03    0.47
   5  -5  -1   -0.25    0.38
  -5   5   1   -0.46    0.65
  -5   5   1   -0.99    0.55
   4  -5  -1   66.19    3.73
   4  -5  -1   76.95    3.89
   4  -5  -1   82.84    3.68
   4  -5  -1   76.37    3.87
  -4   5   1   74.81    4.21
  -4   5   1   74.30    4.21
   3  -5  -1   15.45    1.68
   3  -5  -1   16.66    1.57
   3  -5  -1   14.11    1.55
   3  -5  -1   19.24    1.89
  -3   5   1   13.11    1.73
  -3   5   1   16.16    1.95
  -3   5   1   16.04    1.86
   2  -5  -1    4.88    0.82
   2  -5  -1    5.53    0.85
   2  -5  -1    4.86    0.74
  -2   5   1    4.61    1.00
  -2   5   1    3.95    0.85
  -2   5   1    5.01    0.85
  -2   5   1    4.81    1.04
   1  -5  -1    9.99    0.95
   1  -5  -1    9.34    0.93
  -1   5   1    8.20    1.16
  -1   5   1   10.24    1.29
  -1   5   1    6.88    0.86
  -1   5   1    8.32    1.17
  -1   5   1    7.92    1.00
  -1   5   1    8.91    1.14
   0   5   1   11.20    1.10
   0   5   1   13.37    1.28
   0   5   1   13.88    1.18
   0   5   1   12.68    1.07
   0   5   1   14.44    1.10
   0   5   1   12.77    1.23
   1   5   1   36.92    1.66
   1   5   1   37.49    1.69
   1   5   1   37.61    1.64
   1   5   1   39.86    1.77
   1   5   1   39.23    1.70
   2   5   1   37.51    1.47
   2   5   1   37.03    1.53
   2   5   1   39.64    1.52
   2   5   1   37.57    1.47
   3   5   1    7.76    1.57
   3   5   1    8.53    0.70
   3   5   1    7.58    0.55
   3   5   1    7.76    0.55
   3   5   1    7.38    0.66
   4   5   1   47.38    3.25
   4   5   1   43.53    2.04
   4   5   1   47.47    2.03
   4   5   1   51.68    2.51
   4   5   1   46.26    2.06
   4   5   1   46.15    2.01
   5   5   1  145.66    5.57
   5   5   1  138.31    5.15
   5   5   1  134.28    5.14
   5   5   1  140.55    6.37
   5   5   1  135.96    5.14
   5   5   1  137.20    5.54
   6   5   1   20.06    2.09
   6   5   1   23.33    2.75
   6   5   1   23.11    2.06
   6   5   1   19.74    1.89
   7   5   1    3.56    1.04
   7   5   1    2.95    0.89
   7   5   1    2.98    0.87
   8   5   1   16.87    2.18
   8   5   1   15.15    2.05
   8   5   1   14.72    2.08
   8  -6  -1    2.49    1.22
  -8   6   1    3.14    1.47
   7  -6  -1    5.82    1.43
   7  -6  -1    3.97    1.35
   7  -6  -1    4.95    1.67
  -7   6   1    4.08    1.69
  -7   6   1    4.37    1.72
   6  -6  -1    0.04    0.68
   6  -6  -1    0.59    0.60
  -6   6   1   -1.52    0.77
  -6   6   1   -0.02    0.81
   5  -6  -1    3.76    1.11
   5  -6  -1    4.39    1.04
  -5   6   1    3.23    1.26
  -5   6   1    3.10    1.31
   4  -6  -1  119.71    5.06
   4  -6  -1  120.88    5.42
  -4   6   1  117.89    5.90
  -4   6   1  120.59    5.93
   3  -6  -1   16.61    1.63
   3  -6  -1   15.26    1.74
  -3   6   1   16.64    2.17
  -3   6   1   17.26    2.02
  -3   6   1   17.22    2.10
   2  -6  -1  122.91    4.76
   2  -6  -1  115.95    4.69
  -2   6   1  128.63    5.47
  -2   6   1  118.96    5.35
  -2   6   1  120.76    5.14
   1  -6  -1  103.92    3.74
  -1   6   1  102.08    4.38
  -1   6   1  101.91    4.32
  -1   6   1  100.19    4.48
  -1   6   1  108.80    4.10
  -1   6   1  112.15    4.63
  -1   6   1   96.80    4.43
   0   6   1  346.11   11.17
   0   6   1  348.77   11.29
   0   6   1  349.28   11.31
   0   6   1  314.36   11.17
   0   6   1  346.05   10.92
   0   6   1  342.05   11.06
   1   6   1  394.10   12.36
   1   6   1  381.68   12.26
   1   6   1  386.15   12.25
   1   6   1  381.63   12.18
   1   6   1  392.48   12.16
   2   6   1    6.44    0.76
   2   6   1    6.89    0.75
   2   6   1    5.07    0.64
   2   6   1    7.42    0.71
   3   6   1   30.71    3.35
   3   6   1   26.78    1.33
   3   6   1   27.54    1.30
   3   6   1   30.29    1.40
   3   6   1   30.25    1.48
   4   6   1   91.42    3.46
   4   6   1   90.83    3.39
   4   6   1   88.21    5.11
   4   6   1   96.13    3.55
   4   6   1   88.32    3.89
   4   6   1   92.66    3.42
   5   6   1   11.64    2.02
   5   6   1   14.00    1.66
   5   6   1   15.12    1.43
   5   6   1   13.99    1.35
   5   6   1   14.18    1.41
   6   6   1   10.78    1.39
   6   6   1   13.75    1.54
   6   6   1   12.34    2.23
   6   6   1    8.85    1.51
   7   6   1   41.58    2.74
   7   6   1   41.30    3.46
   7   6   1   50.56    2.93
   8   6   1   86.04    4.61
   8   6   1   93.28    4.72
   8   6   1   91.18    4.97
   7  -7  -1    1.23    0.81
  -7   7   1    1.81    1.23
  -7   7   1    2.14    1.41
   6  -7  -1    1.28    0.79
  -6   7   1   -0.30    0.84
  -6   7   1    0.46    1.13
   5  -7  -1   -0.07    0.52
  -5   7   1    0.42    0.98
  -5   7   1    0.19    0.89
   4  -7  -1  110.89    7.13
  -4   7   1  118.75    5.98
  -4   7   1  104.81    5.75
   3  -7  -1   24.40    2.40
  -3   7   1   33.22    3.23
  -3   7   1   27.61    2.91
   2  -7  -1   18.99    1.79
  -2   7   1   19.78    2.25
  -2   7   1   18.04    2.14
   1  -7  -1    6.98    0.75
  -1   7   1    6.45    1.13
  -1   7   1    7.50    1.30
  -1   7   1    6.59    1.25
  -1   7   1    6.99    1.28
   0   7   1   25.63    2.18
   0   7   1   20.33    1.86
   0   7   1   21.02    1.83
   0   7   1   18.34    1.85
   0   7   1   20.63    1.92
   1   7   1   17.54    1.60
   1   7   1   14.01    1.37
   1   7   1   16.72    1.53
   1   7   1   15.26    1.53
   1   7   1   14.76    1.36
   2   7   1   44.28    3.69
   2   7   1   51.54    2.39
   2   7   1   44.75    2.19
   2   7   1   43.44    2.15
   2   7   1   47.16    2.10
   3   7   1    1.96    0.50
   3   7   1    1.10    0.95
   3   7   1    2.20    0.54
   3   7   1    2.40    0.45
   3   7   1    3.02    0.64
   4   7   1    0.59    0.39
   4   7   1    0.95    0.44
   4   7   1    1.35    1.01
   4   7   1    0.66    0.54
   4   7   1    0.52    0.33
   5   7   1   -0.62    0.45
   5   7   1    0.11    0.42
   5   7   1   -0.46    0.33
   5   7   1    0.47    0.93
   5   7   1    0.07    0.36
   6   7   1    1.26    0.66
   6   7   1    2.81    0.92
   6   7   1    3.10    0.77
   6   7   1    4.86    1.54
   7   7   1   45.11    3.23
   7   7   1   50.86    2.98
   7   7   1   54.59    3.14
  -6   8   1    6.80    1.95
  -6   8   1    7.70    2.14
  -5   8   1   -0.38    0.83
  -5   8   1    0.01    0.87
  -4   8   1    5.79    1.70
  -4   8   1    7.30    1.71
  -3   8   1   19.87    2.66
  -3   8   1   19.71    2.54
  -2   8   1   34.92    3.30
  -2   8   1   38.48    3.42
  -1   8   1   43.98    2.96
  -1   8   1   43.35    2.96
   0   8   1    0.84    0.60
   0   8   1    1.95    0.78
   1   8   1   68.56    3.42
   1   8   1   69.26    3.18
   1   8   1   65.35    3.30
   2   8   1   45.35    4.74
   2   8   1   37.10    2.05
   2   8   1   44.69    2.42
   2   8   1   42.80    2.30
   3   8   1   -0.10    0.36
   3   8   1    0.13    0.98
   3   8   1   -0.39    0.43
   3   8   1    0.34    0.34
   4   8   1  143.82    5.24
   4   8   1  141.32    5.61
   4   8   1  173.88    8.34
   4   8   1  142.70    5.85
   4   8   1  154.46    5.54
   5   8   1    9.91    1.25
   5   8   1    9.11    1.50
   5   8   1   11.07    1.38
   5   8   1   12.17    2.53
   6   8   1    9.46    1.41
   6   8   1   10.65    2.40
  -5   9   1   10.46    2.36
  -5   9   1   11.93    2.47
  -4   9   1  111.76    6.34
  -4   9   1  111.36    6.35
  -3   9   1  105.67    5.91
  -3   9   1  109.22    5.96
  -2   9   1   21.85    2.74
  -2   9   1   25.92    2.99
  -1   9   1    1.72    0.87
  -1   9   1    0.72    0.73
   0   9   1    0.98    0.72
   0   9   1    0.94    0.81
   1   9   1    0.50    0.60
   1   9   1    0.51    0.57
   2   9   1    6.59    2.00
   2   9   1    5.98    1.13
   2   9   1    7.25    1.22
   3   9   1   19.60    1.87
   3   9   1   16.91    3.00
   3   9   1   21.21    2.01
   4   9   1    0.01    0.43
   4   9   1    0.86    0.63
   4   9   1    0.51    1.11
   5   9   1    1.21    0.68
   5   9   1    0.44    0.60
   5   9   1    1.49    1.31
  -3  10   1    9.68    2.06
  -3  10   1   10.25    2.19
  -2  10   1    0.13    0.70
  -2  10   1    0.57    0.84
  -1  10   1    2.01    0.98
  -1  10   1    1.54    0.96
   0  10   1   71.02    4.10
   0  10   1   66.45    4.03
   1  10   1   36.82    4.89
   1  10   1   43.20    2.91
   1  10   1   39.57    2.90
   2  10   1    6.14    2.07
   2  10   1    4.77    1.14
   2  10   1    3.71    1.06
   3  10   1   10.88    1.52
   3  10   1    9.88    2.48
   3  10   1    8.45    1.46
   4  10   1    0.19    1.18
   4  10   1    0.33    0.55
   4  10   1   -0.02    0.66
   0  11   1   13.69    2.17
   0  11   1   15.29    2.31
   0  11   1    9.79    2.73
   1  11   1    3.13    1.18
   1  11   1    5.04    1.32
   1  11   1    3.61    1.91
   2  10  -2   14.70    2.26
   2  10  -2   17.11    3.41
   2  10  -2   14.05    2.20
   1  10  -2   15.50    2.30
   1  10  -2   13.35    2.27
   1  10  -2   20.11    3.63
   0  10  -2   22.23    3.62
   0  10  -2   18.49    2.62
   0  10  -2   19.56    2.65
  -1  10  -2   30.78    4.29
  -1  10  -2   29.19    3.39
  -1  10  -2   41.87    4.13
  -2  10  -2  103.16    6.27
  -2  10  -2  115.86    7.42
  -2  10  -2  115.29    6.40
  -3  10  -2    1.88    1.31
  -3  10  -2    1.38    1.27
   4   9  -2    2.77    1.10
   4   9  -2    2.36    1.54
   4   9  -2    2.00    1.09
   3   9  -2   31.98    3.06
   3   9  -2   35.42    4.43
   3   9  -2   36.86    3.49
   2   9  -2    5.71    1.86
   2   9  -2    4.36    1.24
   2   9  -2    5.20    1.41
   1   9  -2  158.46    7.42
   1   9  -2  169.78    7.34
   1   9  -2  173.91    9.03
   0   9  -2    2.11    1.00
   0   9  -2    2.34    1.35
   0   9  -2    4.19    1.28
  -1   9  -2   13.61    2.17
  -1   9  -2   15.03    2.90
  -1   9  -2   14.62    2.35
  -2   9  -2   16.30    2.50
  -2   9  -2   18.25    2.61
  -2   9  -2   25.08    3.61
  -3   9  -2    7.01    1.86
  -3   9  -2    5.98    1.86
  -3   9  -2    5.94    1.70
  -4   9  -2    6.50    1.77
  -4   9  -2    6.45    1.80
  -5   9  -2   20.03    3.12
  -5   9  -2   19.99    3.17
   5   8  -2   52.98    3.60
   5   8  -2   47.59    3.27
   5   8  -2   56.71    5.59
   5   8  -2   46.55    4.00
   4   8  -2  167.01    7.07
   4   8  -2  172.87    7.42
   4   8  -2  165.45    8.62
   3   8  -2  249.16    9.67
   3   8  -2  251.12    9.43
   3   8  -2  242.19   11.04
   2   8  -2   26.44    3.58
   2   8  -2   33.85    3.11
   2   8  -2   32.48    2.95
   1   8  -2  117.82    5.54
   1   8  -2  122.68    6.88
   1   8  -2  116.34    5.67
   0   8  -2   32.68    3.07
   0   8  -2   39.09    4.40
   0   8  -2   29.19    2.98
  -1   8  -2    0.67    0.83
  -1   8  -2    0.86    0.78
  -1   8  -2    0.06    0.87
  -2   8  -2   30.86    3.69
  -2   8  -2   30.97    3.21
  -2   8  -2   41.12    3.80
  -3   8  -2    1.34    0.99
  -3   8  -2    1.70    1.01
  -4   8  -2    3.03    1.37
  -4   8  -2    5.88    1.72
  -5   8  -2   27.88    3.62
  -5   8  -2   38.53    4.18
  -6   8  -2    7.30    2.03
  -6   8  -2    4.62    1.79
   6   7  -2    9.32    1.73
   6   7  -2    5.48    1.42
   6   7  -2    9.43    1.81
   5   7  -2    4.49    1.18
   5   7  -2    4.34    1.29
   5   7  -2    4.56    1.25
   4   7  -2   34.43    3.03
   4   7  -2   33.99    2.52
   4   7  -2   28.23    3.48
   3   7  -2  138.60    5.84
   3   7  -2  143.60    7.24
   3   7  -2  134.82    6.05
   2   7  -2   39.94    2.58
   2   7  -2   35.54    3.08
   2   7  -2   42.18    4.22
   1   7  -2   32.42    2.34
   1   7  -2   36.18    3.22
   1   7  -2   24.35    3.07
   1   7  -2   28.02    2.68
   0   7  -2  110.72    6.09
   0   7  -2  104.68    4.93
   0   7  -2  101.69    5.03
  -1   7  -2  133.97    6.07
  -1   7  -2  133.19    6.17
  -1   7  -2  144.37    7.12
  -2   7  -2    0.45    0.74
  -2   7  -2    1.26    0.81
   2  -7   2    4.83    1.11
  -3   7  -2  144.05    6.80
  -3   7  -2  143.13    6.73
   3  -7   2  134.57    6.23
  -4   7  -2   20.91    2.82
  -4   7  -2   27.47    3.23
  -5   7  -2    8.46    1.83
  -5   7  -2    8.96    1.96
  -6   7  -2    5.16    1.72
  -6   7  -2    2.77    1.46
  -7   7  -2   11.36    2.50
  -7   7  -2   20.24    3.24
   7   6  -2   -0.33    0.68
   7   6  -2    0.14    0.72
   7   6  -2    0.08    0.72
   6   6  -2    0.80    0.72
   6   6  -2    1.22    0.91
   6   6  -2    0.99    0.81
   5   6  -2   19.10    2.12
   5   6  -2   24.20    2.49
   5   6  -2   20.41    2.34
   4   6  -2  370.29   13.02
   4   6  -2  381.97   13.32
   4   6  -2  402.20   14.72
   3   6  -2   15.73    2.41
   3   6  -2   15.44    1.75
   3   6  -2   15.22    1.58
   3   6  -2   18.93    2.04
   2   6  -2   10.50    1.48
   2   6  -2    9.66    1.20
   2   6  -2   13.70    2.21
   2   6  -2   11.50    1.29
   2   6  -2   13.19    1.56
   1   6  -2   91.78    4.04
   1   6  -2   83.66    3.62
   1   6  -2   86.10    3.74
   1   6  -2   90.17    4.98
   1   6  -2   87.80    4.16
  -1  -6   2   82.63    3.44
  -1  -6   2   78.31    3.17
   0   6  -2   69.65    3.28
   0   6  -2   71.99    3.40
   0   6  -2   69.54    3.67
   0   6  -2   71.11    4.36
   0   6  -2   70.30    3.57
   0  -6   2   76.72    3.01
   0  -6   2   58.92    2.88
  -1   6  -2   96.32    4.33
  -1   6  -2  102.99    5.39
  -1   6  -2  102.11    4.73
  -1   6  -2  103.08    4.80
   1  -6   2   95.12    4.14
   1  -6   2  100.51    4.10
   1  -6   2   97.79    4.32
  -2   6  -2   -0.05    0.38
  -2   6  -2    0.23    0.60
  -2   6  -2   -0.70    0.39
   2  -6   2    0.07    0.38
   2  -6   2    0.79    0.60
   2  -6   2    0.04    0.32
  -3   6  -2  131.39    6.00
  -3   6  -2  144.10    6.49
  -3   6  -2  145.10    6.45
   3  -6   2  133.12    5.76
   3  -6   2  139.90    5.94
   3  -6   2  140.49    6.17
  -4   6  -2   31.90    3.18
  -4   6  -2   33.27    3.25
   4  -6   2   37.80    3.41
   4  -6   2   35.08    3.10
   4  -6   2   29.14    2.72
  -5   6  -2    6.22    1.63
  -5   6  -2    6.01    1.59
   5  -6   2    6.91    1.50
   5  -6   2    5.95    1.58
  -6   6  -2    6.38    1.74
  -6   6  -2    8.47    1.93
   6  -6   2    7.66    1.70
  -7   6  -2   32.89    3.85
  -7   6  -2   34.12    3.94
   7  -6   2   31.33    3.06
   7  -6   2   34.13    3.68
  -8   6  -2   37.42    4.27
   8  -6   2   26.63    3.11
   8  -6   2   32.55    3.81
   8   5  -2  156.82    7.73
   8   5  -2  157.13    7.69
   8   5  -2  171.34    7.72
   7   5  -2    0.94    0.80
   7   5  -2    0.42    0.67
   7   5  -2    0.44    0.78
   6   5  -2    1.14    0.72
   6   5  -2    1.14    0.84
   6   5  -2    1.19    0.80
   5   5  -2   31.45    2.82
   5   5  -2   37.29    2.51
   5   5  -2   36.40    2.62
   4   5  -2   66.73    3.28
   4   5  -2   68.04    3.55
   4   5  -2   65.09    3.36
   3   5  -2   44.55    2.65
   3   5  -2   44.65    2.50
   3   5  -2   46.03    2.36
   3   5  -2   42.56    2.34
   3   5  -2   48.82    3.34
   2   5  -2   18.60    1.32
   2   5  -2   19.87    1.38
   2   5  -2   17.98    1.81
   2   5  -2   18.16    1.74
   2   5  -2   21.64    2.61
  -2  -5   2   18.18    1.08
  -2  -5   2   16.86    1.07
   1   5  -2    0.18    0.28
   1   5  -2    0.04    0.33
   1   5  -2    0.21    0.34
   1   5  -2   -0.22    0.35
   1   5  -2    0.02    0.43
  -1  -5   2    0.29    0.29
  -1  -5   2   -0.03    0.15
  -1  -5   2   -0.14    0.23
   0   5  -2   91.51    4.82
   0   5  -2   98.28    4.33
   0   5  -2   88.52    3.92
   0   5  -2   94.01    3.90
   0   5  -2   97.52    4.20
   0  -5   2   95.59    3.84
   0  -5   2   97.98    3.81
   0  -5   2   99.80    3.75
  -1   5  -2   14.12    1.98
  -1   5  -2   12.40    1.43
  -1   5  -2   10.55    1.42
  -1   5  -2   10.64    1.49
   1  -5   2   13.81    1.44
   1  -5   2    9.11    1.22
   1  -5   2   14.43    1.40
  -2   5  -2 1149.88   34.69
  -2   5  -2 1106.27   34.20
  -2   5  -2 1065.98   34.56
   2  -5   2 1128.60   34.36
   2  -5   2 1084.57   34.12
   2  -5   2 1145.74   34.11
  -3   5  -2   50.94    3.28
  -3   5  -2   51.40    3.24
  -3   5  -2   51.72    2.99
   3  -5   2   47.01    3.06
   3  -5   2   56.91    3.00
   3  -5   2   55.34    3.03
  -4   5  -2   28.83    2.90
  -4   5  -2   20.17    2.50
   4  -5   2   28.52    2.73
   4  -5   2   28.20    2.62
   4  -5   2   32.05    3.00
  -5   5  -2   74.89    4.57
  -5   5  -2   72.21    4.47
   5  -5   2   81.07    4.26
   5  -5   2   78.56    3.93
   5  -5   2   76.24    4.58
   5  -5   2   81.77    4.38
  -6   5  -2  119.87    6.12
  -6   5  -2  105.22    5.90
   6  -5   2  112.93    5.68
   6  -5   2  106.57    5.52
   6  -5   2  109.90    5.97
   6  -5   2  107.89    5.14
  -7   5  -2    5.76    1.63
  -7   5  -2    8.29    1.91
   7  -5   2    6.13    1.38
   7  -5   2    7.38    1.65
  -8   5  -2   29.68    3.79
   8  -5   2   31.48    3.65
   8  -5   2   26.93    2.96
   8   4  -2    6.54    1.56
   8   4  -2    6.98    1.69
   8   4  -2    4.96    1.46
   7   4  -2   52.79    3.59
   7   4  -2   47.68    3.36
   7   4  -2   47.04    3.45
   6   4  -2  107.47    5.31
   6   4  -2  112.80    5.27
   6   4  -2  113.31    5.39
   5   4  -2   78.57    4.12
   5   4  -2   87.98    4.20
   5   4  -2   77.25    3.94
   4   4  -2   61.05    3.00
   4   4  -2   56.77    3.09
   4   4  -2   54.55    2.87
   4   4  -2   55.21    2.88
   4   4  -2   59.27    3.12
  -4  -4   2   52.95    2.36
   3   4  -2   47.29    2.59
   3   4  -2   46.11    2.37
   3   4  -2   49.87    3.17
   3   4  -2   45.40    2.46
   3   4  -2   47.55    2.41
  -3  -4   2   45.81    2.01
   2   4  -2  316.12   10.31
   2   4  -2  329.91   10.31
   2   4  -2  317.16   10.66
   2   4  -2  313.13   10.46
   2   4  -2  306.65   11.30
  -2  -4   2  317.11    9.98
   1   4  -2    0.02    0.43
   1   4  -2   -0.29    0.18
   1   4  -2   -0.25    0.22
   1   4  -2   -0.32    0.25
   1   4  -2    0.01    0.32
  -1  -4   2   -0.20    0.21
  -1  -4   2   -0.12    0.24
   0   4  -2   -0.09    0.38
   0   4  -2    0.02    0.30
   0   4  -2   -0.03    0.33
   0   4  -2   -0.13    0.25
   0   4  -2    0.17    0.42
   0  -4   2    0.61    0.39
   0  -4   2   -0.27    0.24
   0  -4   2    0.44    0.34
  -1   4  -2    0.59    0.50
  -1   4  -2    0.95    0.58
  -1   4  -2    1.19    0.53
  -1   4  -2    0.35    0.46
  -1   4  -2    1.37    0.46
   1  -4   2    0.45    0.38
   1  -4   2    0.36    0.30
   1  -4   2    0.65    0.45
  -2   4  -2 2537.14   74.58
  -2   4  -2 2498.27   74.57
  -2   4  -2 2497.44   74.17
   2  -4   2 2372.96   74.15
   2  -4   2 2505.80   74.09
   2  -4   2 2542.00   74.38
  -3   4  -2 1030.90   33.09
  -3   4  -2 1064.41   33.55
  -3   4  -2 1094.85   33.58
   3  -4   2 1054.46   33.17
   3  -4   2 1118.21   33.16
   3  -4   2 1094.92   33.46
  -4   4  -2    5.87    1.28
  -4   4  -2    4.27    1.12
   4  -4   2    3.25    1.02
   4  -4   2    5.50    0.96
   4  -4   2    5.99    1.14
   4  -4   2    5.59    1.06
  -5   4  -2   33.74    3.22
  -5   4  -2   36.32    3.20
   5  -4   2   40.38    2.84
   5  -4   2   39.54    3.02
   5  -4   2   42.15    2.54
   5  -4   2   40.47    2.75
  -6   4  -2    4.22    1.25
  -6   4  -2    4.94    1.48
   6  -4   2    0.90    0.73
   6  -4   2   -0.18    0.65
   6  -4   2    2.00    1.04
   6  -4   2    0.81    0.63
  -7   4  -2   68.09    4.51
  -7   4  -2   70.55    4.60
   7  -4   2   68.23    4.34
   7  -4   2   70.90    4.05
   7  -4   2   79.08    4.54
  -8   4  -2   16.66    2.61
   8  -4   2   17.31    2.57
   8  -4   2   21.42    2.58
   8  -4   2   19.14    2.66
  -9   4  -2    1.27    1.16
   9  -4   2   -0.72    0.85
   9  -4   2    0.45    0.84
   8   3  -2    1.72    0.99
   8   3  -2    2.72    1.15
   8   3  -2    2.44    1.08
   7   3  -2  165.38    7.19
   7   3  -2  157.12    7.19
   7   3  -2  157.18    7.15
   6   3  -2   60.18    3.57
   6   3  -2   62.15    3.56
   6   3  -2   55.37    3.49
   5   3  -2   45.77    2.79
   5   3  -2   49.46    2.96
   5   3  -2   49.10    2.90
   5   3  -2   50.82    2.98
  -5  -3   2   43.11    2.63
  -5  -3   2   46.63    2.34
   4   3  -2   22.79    1.72
   4   3  -2   23.55    1.76
   4   3  -2   22.45    1.99
   4   3  -2   28.56    2.31
   4   3  -2   25.74    2.17
  -4  -3   2   20.63    1.35
  -4  -3   2   22.74    1.42
   3   3  -2  173.08    6.31
   3   3  -2  176.97    6.39
   3   3  -2  187.78    6.57
   3   3  -2  176.13    6.30
  -3  -3   2  169.58    5.94
  -3  -3   2  177.62    6.01
   2   3  -2  188.77    6.80
   2   3  -2  189.15    7.32
   2   3  -2  194.80    6.58
   2   3  -2  191.00    6.54
   2   3  -2  195.60    6.69
  -2  -3   2  194.67    6.37
  -2  -3   2  193.62    6.40
   1   3  -2  241.71    7.96
   1   3  -2  240.32    8.11
   1   3  -2  238.56    7.91
   1   3  -2  241.10    8.66
   1   3  -2  253.31    8.30
  -1  -3   2  243.33    7.89
  -1  -3   2  245.26    7.82
   0   3  -2   68.73    2.83
   0   3  -2   67.54    2.87
   0   3  -2   68.71    3.34
   0   3  -2   76.19    3.20
   0   3  -2   70.10    3.02
   0  -3   2   72.27    2.91
  -1   3  -2   45.75    2.32
  -1   3  -2   41.88    2.34
  -1   3  -2   44.15    2.20
  -1   3  -2   43.21    2.11
  -1   3  -2   40.94    2.39
   1  -3   2   43.97    2.17
   1  -3   2   50.43    2.21
   1  -3   2   50.43    2.30
  -2   3  -2   15.20    1.30
  -2   3  -2   17.53    1.55
  -2   3  -2   13.33    1.50
  -2   3  -2   17.39    1.68
   2  -3   2   15.55    1.45
   2  -3   2   18.23    1.33
   2  -3   2   18.11    1.71
  -3   3  -2  769.38   25.58
  -3   3  -2  820.44   25.59
  -3   3  -2  843.34   25.67
   3  -3   2  805.89   24.95
   3  -3   2  796.92   25.23
   3  -3   2  843.25   25.56
   3  -3   2  819.30   25.36
  -4   3  -2   83.18    4.11
  -4   3  -2   80.55    4.05
   4  -3   2   82.51    3.90
   4  -3   2   81.06    4.04
   4  -3   2   67.57    3.60
   4  -3   2   77.75    3.52
  -5   3  -2   39.02    2.80
  -5   3  -2   31.71    2.98
   5  -3   2   32.93    2.42
   5  -3   2   38.73    2.79
   5  -3   2   36.40    2.29
   5  -3   2   38.41    2.62
  -6   3  -2   15.15    2.07
  -6   3  -2   12.49    1.96
   6  -3   2   18.55    2.28
   6  -3   2   17.71    2.42
   6  -3   2   16.72    1.88
   6  -3   2   19.79    2.34
  -7   3  -2  230.02    9.67
  -7   3  -2  236.16    9.66
   7  -3   2  235.07    9.60
   7  -3   2  227.96    9.47
   7  -3   2  226.54    9.95
   7  -3   2  245.96    9.18
  -8   3  -2  136.68    6.88
   8  -3   2  131.70    6.78
   8  -3   2  137.78    6.41
   8  -3   2  136.83    6.80
   9  -3   2  110.04    5.90
   9  -3   2  115.10    6.41
   9  -3   2  115.37    6.51
   9   2  -2   13.41    2.49
   9   2  -2   13.32    2.21
   9   2  -2   10.74    2.18
   8   2  -2    1.42    0.90
   8   2  -2    1.45    0.98
   8   2  -2    2.13    1.08
   7   2  -2    2.67    1.06
   7   2  -2    1.86    0.93
   7   2  -2    0.69    0.74
   6   2  -2   27.81    2.76
   6   2  -2   27.64    2.68
   6   2  -2   20.83    2.34
  -6  -2   2   25.64    1.85
   5   2  -2    5.97    1.19
   5   2  -2    5.40    1.10
   5   2  -2    5.09    1.08
   5   2  -2    5.02    1.04
  -5  -2   2    5.26    0.92
  -5  -2   2    3.60    0.78
   4   2  -2    9.20    1.28
   4   2  -2   10.05    1.26
   4   2  -2    8.79    1.24
   4   2  -2    9.40    1.32
  -4  -2   2    9.65    1.09
  -4  -2   2    6.89    0.90
   3   2  -2 1666.72   50.12
   3   2  -2 1631.45   50.07
   3   2  -2 1746.52   50.15
   3   2  -2 1637.58   50.04
   3   2  -2 1673.51   50.19
  -3  -2   2 1685.12   49.77
   2   2  -2  262.22    8.77
   2   2  -2  260.56    8.73
   2   2  -2  269.56    8.72
   2   2  -2  266.85    8.90
  -2  -2   2  276.04    8.60
   1   2  -2   68.48    2.65
   1   2  -2   72.53    2.91
   1   2  -2   64.59    3.04
   1   2  -2   65.00    2.64
   1   2  -2   70.23    2.78
  -1  -2   2   64.78    2.61
   0   2  -2   24.57    1.31
   0   2  -2   24.44    1.53
   0   2  -2   24.86    1.42
   0   2  -2   24.61    1.48
   0   2  -2   24.72    1.26
   0  -2   2   23.14    1.32
   0  -2   2   23.50    1.39
   0  -2   2   26.69    1.34
   0  -2   2   23.78    1.58
   0  -2   2   25.52    1.28
  -1   2  -2 1786.61   53.79
  -1   2  -2 1843.40   53.90
  -1   2  -2 1805.06   54.03
  -1   2  -2 1778.62   54.89
  -1   2  -2 1888.74   54.15
   1  -2   2 1807.02   54.09
   1  -2   2 1863.43   53.96
   1  -2   2 1822.04   54.52
   1  -2   2 1763.08   53.95
  -2   2  -2 1164.69   35.56
  -2   2  -2 1137.78   36.68
  -2   2  -2 1157.36   35.28
  -2   2  -2 1184.57   35.17
  -2   2  -2 1225.40   35.64
   2  -2   2 1207.52   35.34
   2  -2   2 1163.22   35.47
   2  -2   2 1133.25   35.60
   2  -2   2 1199.04   35.41
  -3   2  -2  304.10   10.69
  -3   2  -2  317.16   10.75
  -3   2  -2  317.27   10.32
   3  -2   2  318.55   10.26
   3  -2   2  317.52   10.46
   3  -2   2  323.28   10.70
   3  -2   2  317.96   10.56
   3  -2   2  305.67   10.75
  -4   2  -2  125.55    5.31
  -4   2  -2  128.53    5.35
   4  -2   2  133.50    5.44
   4  -2   2  118.75    5.14
   4  -2   2  124.04    4.88
   4  -2   2  126.83    5.14
  -5   2  -2  118.19    5.38
  -5   2  -2  120.77    5.40
   5  -2   2  117.88    5.55
   5  -2   2  117.99    5.26
   5  -2   2  115.86    5.13
   5  -2   2  127.02    5.03
  -6   2  -2    0.26    0.55
  -6   2  -2   -0.34    0.52
   6  -2   2   -0.87    0.50
   6  -2   2   -0.10    0.47
   6  -2   2   -0.27    0.41
   6  -2   2    0.21    0.40
  -7   2  -2   37.78    3.45
  -7   2  -2   42.92    3.12
   7  -2   2   36.33    3.39
   7  -2   2   37.69    3.78
   7  -2   2   42.61    2.87
   7  -2   2   44.79    3.13
  -8   2  -2    6.90    1.61
   8  -2   2    7.96    1.73
   8  -2   2   10.17    1.93
   8  -2   2    6.09    1.44
   9  -2   2   31.72    3.51
   9  -2   2   26.94    3.40
   9  -2   2   35.07    3.54
   9   1  -2   12.02    2.28
   9   1  -2    8.93    2.02
   9   1  -2   13.07    2.34
   8   1  -2   18.50    2.62
   8   1  -2   15.98    2.49
   8   1  -2   11.50    1.98
   7   1  -2   -0.20    0.54
   7   1  -2    0.84    0.84
   7   1  -2    0.49    0.71
   6   1  -2   60.74    3.72
   6   1  -2   75.64    4.03
   6   1  -2   66.32    3.75
  -6  -1   2   74.30    3.60
   5   1  -2    3.74    0.96
   5   1  -2    5.50    1.14
   5   1  -2    5.21    1.10
   5   1  -2    5.52    1.10
  -5  -1   2    2.38    0.67
  -5  -1   2    4.54    0.96
   4   1  -2    1.33    0.59
   4   1  -2    0.96    0.50
   4   1  -2    1.05    0.56
   4   1  -2    0.61    0.45
  -4  -1   2    1.81    0.58
  -4  -1   2    2.04    0.59
   3   1  -2  443.09   14.82
   3   1  -2  456.19   14.82
   3   1  -2  454.27   14.84
   3   1  -2  469.92   14.84
   3   1  -2  470.68   14.79
  -3  -1   2  489.48   14.68
  -3  -1   2  463.45   14.63
   2   1  -2  267.30    8.83
   2   1  -2  279.55    8.95
   2   1  -2  276.59    8.86
   2   1  -2  264.11    8.84
  -2  -1   2  261.51    8.69
  -2  -1   2  276.40    8.76
   1   1  -2   89.81    3.26
   1   1  -2   89.18    3.27
   1   1  -2   89.69    3.42
   1   1  -2   87.39    3.30
  -1  -1   2   91.02    3.22
  -1  -1   2   84.07    3.25
  -1  -1   2   88.46    3.34
  -1  -1   2   93.74    3.61
  -1  -1   2   89.33    3.22
   0   1  -2 1147.36   33.44
   0   1  -2 1073.99   32.95
   0   1  -2 1092.09   33.21
   0   1  -2 1124.71   33.13
   0  -1   2 1127.64   33.00
   0  -1   2 1121.58   33.09
   0  -1   2 1098.16   33.19
   0  -1   2 1103.69   33.18
   0  -1   2 1105.91   33.47
  -1   1  -2  379.24   11.69
  -1   1  -2  378.97   11.58
  -1   1  -2  362.60   11.80
  -1   1  -2  381.58   11.66
  -1   1  -2  384.58   11.91
   1  -1   2  396.37   11.69
   1  -1   2  383.79   11.74
   1  -1   2  385.85   11.84
   1  -1   2  366.01   11.63
   1  -1   2  363.54   11.89
  -2   1  -2  173.32    6.06
  -2   1  -2  177.19    5.77
  -2   1  -2  168.15    5.81
  -2   1  -2  179.55    5.93
  -2   1  -2  175.57    6.05
  -2   1  -2  169.17    5.44
   2  -1   2  163.82    6.01
   2  -1   2  171.43    5.96
   2  -1   2  175.41    5.73
   2  -1   2  171.88    6.10
   2  -1   2  180.82    5.90
  -3   1  -2  306.26   10.40
  -3   1  -2  315.84   10.09
  -3   1  -2  311.28   10.40
   3  -1   2  310.11   10.44
   3  -1   2  320.90   10.42
   3  -1   2  311.37   10.04
   3  -1   2  313.79   10.24
   3  -1   2  303.89   10.45
   3  -1   2  319.04   10.30
  -4   1  -2   34.51    2.22
  -4   1  -2   42.93    2.39
   4  -1   2   39.70    2.26
   4  -1   2   38.27    2.08
   4  -1   2   37.56    2.43
   4  -1   2   39.49    2.28
   4  -1   2   43.58    2.47
  -5   1  -2    8.41    1.33
  -5   1  -2    8.97    1.41
   5  -1   2    5.51    1.21
   5  -1   2    5.82    0.94
   5  -1   2    6.76    1.27
   5  -1   2    4.92    1.03
   5  -1   2    5.48    1.03
  -6   1  -2  140.77    6.01
  -6   1  -2  148.62    6.08
   6  -1   2  133.37    6.29
   6  -1   2  137.27    6.08
   6  -1   2  142.93    6.03
   6  -1   2  131.76    5.66
  -7   1  -2  343.33   12.47
   7  -1   2  356.01   12.36
   7  -1   2  342.67   12.71
   7  -1   2  321.85   13.02
   7  -1   2  374.52   12.81
  -8   1  -2  476.77   16.65
   8  -1   2  472.54   16.40
   8  -1   2  480.81   16.94
   8  -1   2  464.32   16.83
   9  -1   2    7.71    1.79
   9  -1   2    8.23    1.80
   9  -1   2    6.47    1.53
   9   0  -2   82.08    5.04
   9   0  -2   81.76    5.27
   9   0  -2   72.24    5.14
   8   0  -2   67.71    4.46
   8   0  -2   66.15    4.46
   8   0  -2   66.76    4.25
   7   0  -2  105.09    5.32
   7   0  -2   98.37    5.22
  -7   0   2   88.80    4.70
   6   0  -2   30.90    2.90
   6   0  -2   38.27    2.64
   6   0  -2   39.22    2.79
  -6   0   2   34.09    2.45
  -6   0   2   36.13    2.55
   5   0  -2   12.82    1.67
   5   0  -2   10.77    1.58
   5   0  -2   13.92    1.69
  -5   0   2   13.03    1.56
  -5   0   2   15.58    1.73
   4   0  -2  589.70   20.25
   4   0  -2  631.37   20.21
   4   0  -2  646.83   20.24
   4   0  -2  636.33   20.11
  -4   0   2  658.15   20.08
  -4   0   2  649.50   20.08
   3   0  -2  323.98   10.62
   3   0  -2  333.35   10.80
   3   0  -2  311.79   10.69
   3   0  -2  321.85   10.82
  -3   0   2  328.53   10.65
  -3   0   2  322.08   10.62
   2   0  -2  154.88    5.40
   2   0  -2  148.41    5.33
   2   0  -2  151.27    5.39
   2   0  -2  154.74    5.27
   2   0  -2  153.08    5.43
  -2   0   2  149.05    5.29
  -2   0   2  152.30    5.29
  -2   0   2  143.50    5.32
   1   0  -2   62.30    2.40
   1   0  -2   58.28    2.44
   1   0  -2   59.56    2.39
   1   0  -2   56.85    2.36
  -1   0   2   58.39    2.38
  -1   0   2   58.29    2.40
  -1   0   2   57.90    2.33
  -1   0   2   59.62    2.35
   0   0  -2 1486.35   44.80
   0   0  -2 1562.42   46.11
   0   0  -2 1528.84   45.95
   0   0  -2 1503.01   45.36
   0   0   2 1487.26   45.66
   0   0   2 1555.54   45.68
   0   0   2 1470.01   45.68
  -1   0  -2  788.17   23.44
  -1   0  -2  789.41   23.29
  -1   0  -2  767.33   23.47
  -1   0  -2  789.14   23.28
   1   0   2  801.83   23.30
   1   0   2  785.10   23.52
   1   0   2  776.12   23.45
   1   0   2  766.25   23.32
  -2   0  -2   14.32    1.01
  -2   0  -2   13.48    0.86
  -2   0  -2   13.29    0.98
  -2   0  -2   14.53    0.89
  -2   0  -2   14.92    0.92
   2   0   2   13.77    1.02
   2   0   2   13.77    1.02
   2   0   2   12.81    0.93
   2   0   2   13.91    0.87
   2   0   2   13.48    0.90
  -3   0  -2  817.17   24.61
  -3   0  -2  837.98   24.79
  -3   0  -2  799.93   24.74
   3   0   2  826.49   24.59
   3   0   2  789.36   24.87
   3   0   2  843.03   24.71
   3   0   2  808.22   24.83
   3   0   2  806.34   24.75
   3   0   2  799.17   24.88
  -4   0  -2    2.61    0.60
  -4   0  -2    2.64    0.43
   4   0   2    4.12    0.75
   4   0   2    3.06    0.69
   4   0   2    2.96    0.75
   4   0   2    3.61    0.74
   4   0   2    2.37    0.56
  -5   0  -2  317.17    9.99
  -5   0  -2  313.55   10.65
  -5   0  -2  322.78   10.67
   5   0   2  306.83   10.69
   5   0   2  303.77   10.98
   5   0   2  319.49   10.58
   5   0   2  308.85   11.02
   5   0   2  311.29   10.81
  -6   0  -2    9.04    1.37
  -6   0  -2   12.71    1.29
  -6   0  -2    9.52    1.37
   6   0   2   10.09    1.54
   6   0   2    9.09    1.37
   6   0   2   14.25    1.66
   6   0   2    9.06    1.61
   6   0   2    9.61    1.59
  -7   0  -2   44.05    2.89
   7   0   2   47.08    2.93
   7   0   2   44.77    3.09
   7   0   2   46.26    3.07
   7   0   2   43.39    3.32
   8   0   2  546.24   18.41
   8   0   2  558.98   18.86
   8   0   2  519.04   18.63
   9   0   2   63.04    4.33
   9   0   2   64.59    4.29
   9   0   2   60.65    3.97
  10   0   2   -0.22    0.79
  10   0   2    0.45    0.93
  10   0   2   -0.71    0.74
  10   0   2   -0.06    0.68
   9  -1  -2   46.58    4.36
   9  -1  -2   56.99    5.19
   9  -1  -2   53.50    4.94
   8  -1  -2  184.88    7.98
   8  -1  -2  178.51    8.26
   8  -1  -2  168.19    8.11
   7  -1  -2    0.83    0.70
   7  -1  -2    0.82    0.70
   7  -1  -2    0.81    0.75
  -7   1   2    1.82    0.91
   6  -1  -2   37.25    2.78
   6  -1  -2   32.17    2.82
   6  -1  -2   39.37    3.31
  -6   1   2   35.57    2.70
  -6   1   2   39.85    3.30
   5  -1  -2    1.75    0.65
   5  -1  -2    2.48    0.90
   5  -1  -2    2.56    0.87
  -5   1   2    1.30    0.82
  -5   1   2    1.00    0.76
   4  -1  -2  185.14    6.78
   4  -1  -2  173.47    6.69
   4  -1  -2  173.39    6.53
  -4   1   2  170.01    6.65
  -4   1   2  172.52    6.68
   3  -1  -2   34.66    1.93
   3  -1  -2   34.72    2.03
   3  -1  -2   34.96    2.05
   3  -1  -2   34.14    2.14
  -3   1   2   36.94    1.96
  -3   1   2   40.28    2.18
  -3   1   2   33.58    2.02
   2  -1  -2   73.97    3.20
   2  -1  -2   72.99    3.11
   2  -1  -2   74.38    2.98
   2  -1  -2   80.32    3.20
  -2   1   2   76.37    3.13
  -2   1   2   79.57    3.21
  -2   1   2   73.50    3.13
  -2   1   2   75.10    2.97
  -2   1   2   79.36    3.22
   1  -1  -2   13.94    0.96
   1  -1  -2   14.10    0.97
   1  -1  -2   15.08    0.96
   1  -1  -2   14.51    0.85
   1  -1  -2   14.25    0.97
  -1   1   2   14.88    0.98
  -1   1   2   14.69    0.98
  -1   1   2   13.27    0.93
  -1   1   2   13.60    0.96
   0  -1  -2  672.88   19.62
   0  -1  -2  647.82   19.60
   0  -1  -2  641.59   19.62
   0   1   2  644.78   19.69
   0   1   2  655.05   19.60
   0   1   2  657.93   19.64
   0   1   2  669.63   19.62
  -1  -1  -2  921.47   26.66
  -1  -1  -2  923.23   26.71
  -1  -1  -2  859.25   26.61
  -1  -1  -2  899.44   26.72
   1   1   2  864.71   26.79
   1   1   2  891.01   26.55
   1   1   2  891.54   26.59
   1   1   2  911.37   26.52
  -2  -1  -2 1596.80   47.92
  -2  -1  -2 1607.26   48.25
  -2  -1  -2 1662.65   48.35
  -2  -1  -2 1596.96   48.34
   2   1   2 1622.48   48.27
   2   1   2 1600.29   48.50
   2   1   2 1636.45   48.32
   2   1   2 1687.69   48.72
   2   1   2 1598.08   48.40
  -3  -1  -2  448.83   13.13
  -3  -1  -2  442.33   13.11
  -3  -1  -2  422.53   13.22
   3   1   2  417.51   13.34
   3   1   2  424.85   13.21
   3   1   2  421.64   13.35
   3   1   2  421.07   13.25
   3   1   2  418.76   13.19
   3   1   2  415.30   13.00
   3   1   2  439.58   13.32
  -4  -1  -2   58.19    2.49
  -4  -1  -2   58.13    2.64
  -4  -1  -2   62.60    2.54
   4   1   2   58.25    2.76
   4   1   2   57.00    2.77
   4   1   2   56.06    2.66
   4   1   2   56.83    2.76
   4   1   2   62.29    2.66
   4   1   2   57.33    2.61
  -5  -1  -2  243.34    8.37
  -5  -1  -2  244.63    8.40
  -5  -1  -2  251.18    8.41
   5   1   2  258.95    8.83
   5   1   2  235.63    8.85
   5   1   2  261.10    8.75
   5   1   2  253.52    8.63
   5   1   2  242.01    8.87
   5   1   2  255.21    9.00
  -6  -1  -2   24.91    1.77
  -6  -1  -2   28.70    1.85
  -6  -1  -2   26.84    1.84
   6   1   2   25.54    2.52
   6   1   2   28.49    2.44
   6   1   2   27.94    2.57
   6   1   2   30.93    2.19
   6   1   2   24.32    2.16
  -7  -1  -2  132.23    5.50
   7   1   2  137.29    5.74
   7   1   2  139.17    5.93
   7   1   2  109.49    5.91
   7   1   2  133.33    5.92
   8   1   2   81.01    4.45
   8   1   2   71.53    4.12
   8   1   2   75.07    4.40
   9   1   2    0.04    0.70
   9   1   2   -0.86    0.60
   9   1   2   -0.21    0.62
  10   1   2    0.54    0.95
  10   1   2   -0.01    0.83
  10   1   2    0.71    0.84
   9  -2  -2    3.15    1.41
   9  -2  -2    0.84    0.91
   9  -2  -2    2.95    1.24
   8  -2  -2  217.00    9.20
   8  -2  -2  214.94    9.55
   8  -2  -2  228.93    9.73
  -8   2   2  211.41    9.30
   7  -2  -2   25.93    2.72
   7  -2  -2   21.51    2.69
   7  -2  -2   29.75    3.15
  -7   2   2   26.14    2.94
   6  -2  -2   28.79    2.65
   6  -2  -2   26.74    2.76
   6  -2  -2   33.36    3.08
  -6   2   2   30.51    2.98
  -6   2   2   27.50    2.69
   5  -2  -2   35.75    2.57
   5  -2  -2   41.03    2.53
   5  -2  -2   39.78    2.70
  -5   2   2   37.67    2.64
  -5   2   2   36.68    2.64
   4  -2  -2    6.23    1.08
   4  -2  -2    4.22    0.89
   4  -2  -2    4.51    0.86
  -4   2   2    4.07    0.97
  -4   2   2    4.32    1.00
   3  -2  -2   -0.09    0.22
   3  -2  -2   -0.28    0.29
   3  -2  -2   -0.15    0.27
  -3   2   2    0.59    0.52
  -3   2   2   -0.01    0.35
  -3   2   2   -0.02    0.26
   2  -2  -2  171.69    5.88
   2  -2  -2  170.88    6.11
   2  -2  -2  177.40    6.12
  -2   2   2  164.75    6.08
  -2   2   2  174.95    5.89
  -2   2   2  170.92    6.11
  -2   2   2  172.63    6.22
  -2   2   2  179.01    6.26
   1  -2  -2  100.43    3.59
   1  -2  -2   99.39    3.70
   1  -2  -2   95.13    3.60
   1  -2  -2   98.57    3.41
   1  -2  -2   93.06    3.66
  -1   2   2  101.61    3.74
  -1   2   2   96.02    3.63
  -1   2   2  102.47    3.74
  -1   2   2  101.19    3.65
  -1   2   2  100.57    3.42
   0  -2  -2   14.59    0.81
   0  -2  -2   15.68    0.64
   0  -2  -2   12.41    0.73
   0  -2  -2   14.69    0.79
   0  -2  -2   15.48    0.82
   0   2   2   14.48    0.84
   0   2   2   14.29    0.85
   0   2   2   14.75    0.85
   0   2   2   15.01    0.64
   0   2   2   15.28    0.82
   1   2   2   77.07    2.50
   1   2   2   82.77    2.53
   1   2   2   77.85    2.49
   1   2   2   80.27    2.50
  -2  -2  -2   52.35    1.87
   2   2   2   52.40    1.73
   2   2   2   51.65    1.86
   2   2   2   52.04    1.74
   2   2   2   48.03    1.66
   2   2   2   51.98    1.68
  -3  -2  -2 2766.66   82.66
   3   2   2 2776.41   82.90
   3   2   2 2877.84   82.56
   3   2   2 2664.86   82.75
   3   2   2 2758.90   83.05
   3   2   2 2826.99   83.08
   3   2   2 2811.72   83.19
  -4  -2  -2   24.16    1.50
  -4  -2  -2   28.90    1.12
  -4  -2  -2   25.24    1.08
   4   2   2   24.99    1.54
   4   2   2   25.62    1.45
   4   2   2   26.71    1.58
   4   2   2   28.22    1.56
   4   2   2   26.94    1.55
   4   2   2   27.55    1.59
   4   2   2   23.96    1.55
  -5  -2  -2   32.57    1.50
  -5  -2  -2   32.62    1.53
   5   2   2   32.58    1.94
   5   2   2   30.22    1.88
   5   2   2   35.60    2.05
   5   2   2   31.07    2.02
   5   2   2   32.72    2.12
   5   2   2   33.67    2.10
   6   2   2   10.90    1.39
   6   2   2    7.17    1.31
   6   2   2    6.86    1.28
   6   2   2    8.09    1.34
   6   2   2    5.40    1.17
   6   2   2    8.21    1.27
   7   2   2  249.52    9.11
   7   2   2  240.93    8.92
   7   2   2  226.49    9.01
   8   2   2  126.27    5.93
   8   2   2  119.67    5.77
   8   2   2  119.79    5.66
   9   2   2    0.27    0.74
   9   2   2    1.08    0.77
   9   2   2    0.31    0.80
   8  -3  -2  180.70    8.34
   8  -3  -2  166.79    8.16
   8  -3  -2  180.97    7.89
  -8   3   2  162.06    8.03
   7  -3  -2   20.03    2.60
   7  -3  -2   19.99    2.46
   7  -3  -2   18.13    2.41
  -7   3   2   16.35    2.41
  -7   3   2   18.06    2.79
   6  -3  -2  124.60    6.12
   6  -3  -2  137.37    6.25
   6  -3  -2  127.04    5.81
  -6   3   2  135.26    6.31
  -6   3   2  135.35    6.38
   5  -3  -2   21.49    2.28
   5  -3  -2   22.35    2.34
   5  -3  -2   25.05    2.29
  -5   3   2   25.70    2.77
  -5   3   2   24.26    2.58
   4  -3  -2   28.91    2.53
   4  -3  -2   24.59    2.25
   4  -3  -2   25.79    1.80
  -4   3   2   23.68    2.29
  -4   3   2   24.60    2.35
   3  -3  -2   37.51    2.20
   3  -3  -2   36.47    2.16
   3  -3  -2   36.35    1.99
  -3   3   2   32.25    2.13
  -3   3   2   39.02    2.38
  -3   3   2   33.00    2.25
   2  -3  -2  141.47    5.22
   2  -3  -2  138.22    4.96
   2  -3  -2  135.01    5.17
  -2   3   2  143.37    5.03
  -2   3   2  141.64    5.28
  -2   3   2  148.13    5.48
  -2   3   2  139.30    5.41
   1  -3  -2  113.48    4.04
   1  -3  -2  110.28    3.88
  -1   3   2  115.37    4.29
  -1   3   2  112.49    4.17
  -1   3   2  111.42    4.16
  -1   3   2  114.66    4.16
  -1   3   2  114.37    3.92
  -1   3   2  116.54    4.31
   0  -3  -2  199.49    6.09
   0  -3  -2  194.28    6.03
   0  -3  -2  202.32    6.06
   0  -3  -2  194.92    6.11
   0   3   2  208.84    6.42
   0   3   2  188.91    6.37
   0   3   2  192.78    6.31
   0   3   2  195.17    6.06
   0   3   2  195.61    6.30
   2   3   2  113.48    3.69
   3   3   2   81.97    2.77
   3   3   2   85.64    3.09
   3   3   2   79.58    2.74
   3   3   2   86.30    2.78
   3   3   2   84.22    2.78
   3   3   2   83.34    3.78
   4   3   2  616.40   18.44
   4   3   2  598.68   18.50
   4   3   2  590.97   19.27
   4   3   2  609.12   18.59
   4   3   2  611.32   18.51
   4   3   2  619.65   18.52
   4   3   2  590.64   18.67
   5   3   2 1179.79   35.35
   5   3   2 1134.54   35.45
   5   3   2 1139.44   35.10
   5   3   2 1165.13   35.02
   5   3   2 1213.08   35.15
   5   3   2 1149.44   35.13
   5   3   2 1132.06   35.16
   6   3   2   55.35    2.88
   6   3   2   47.18    2.98
   6   3   2   50.70    3.18
   6   3   2   53.96    3.01
   6   3   2   60.66    3.03
   6   3   2   56.39    2.96
   7   3   2   -0.21    0.40
   7   3   2    0.77    0.62
   7   3   2   -0.19    0.39
   8   3   2    8.92    1.62
   8   3   2    8.26    1.53
   8   3   2    8.11    1.50
   9   3   2    6.22    1.47
   9   3   2    6.20    1.48
   9   3   2    7.15    1.57
   9   3   2    5.48    1.38
   8  -4  -2   92.22    5.29
   8  -4  -2  102.43    5.89
  -8   4   2   95.08    5.82
   7  -4  -2    0.69    0.70
   7  -4  -2    2.51    1.21
   7  -4  -2    0.27    1.08
  -7   4   2    0.60    1.02
  -7   4   2    2.06    1.20
   6  -4  -2  116.08    5.73
   6  -4  -2  110.58    5.62
   6  -4  -2  111.24    5.31
  -6   4   2  115.16    5.95
  -6   4   2  115.60    5.93
   5  -4  -2   18.18    2.17
   5  -4  -2   20.87    2.11
   5  -4  -2   16.48    2.03
  -5   4   2   21.00    2.64
  -5   4   2   20.75    2.57
   4  -4  -2  181.67    7.09
   4  -4  -2  181.66    6.76
   4  -4  -2  174.38    7.05
  -4   4   2  182.57    7.45
  -4   4   2  174.80    7.34
   3  -4  -2   25.71    1.82
   3  -4  -2   22.64    1.99
   3  -4  -2   23.33    1.58
  -3   4   2   27.84    2.36
  -3   4   2   25.19    2.34
  -3   4   2   24.30    2.37
   2  -4  -2    0.50    0.32
   2  -4  -2    1.36    0.41
   2  -4  -2    1.16    0.48
  -2   4   2    1.84    0.61
  -2   4   2    1.94    0.63
  -2   4   2    0.93    0.45
  -2   4   2    3.38    0.63
   1  -4  -2   90.93    3.45
   1  -4  -2   92.35    3.31
   1  -4  -2   87.29    3.37
  -1   4   2   92.96    3.67
  -1   4   2   96.91    3.82
  -1   4   2   88.98    3.59
  -1   4   2   90.39    3.75
  -1   4   2   93.07    3.37
   0   4   2   25.06    1.31
   0   4   2   26.90    1.19
   0   4   2   26.62    1.36
   0   4   2   27.82    1.45
   0   4   2   27.90    1.48
   0   4   2   25.79    1.34
   1   4   2   20.55    0.85
   1   4   2   20.40    0.90
   1   4   2   19.34    0.86
   1   4   2   20.46    0.83
   2   4   2  699.23   20.86
   3   4   2  247.84    9.12
   3   4   2  239.79    7.80
   4   4   2   97.28    3.39
   4   4   2   93.96    3.37
   4   4   2   89.85    3.46
   4   4   2  103.84    4.66
   4   4   2   91.49    3.37
   4   4   2   95.41    3.73
   4   4   2   96.12    3.43
   5   4   2    2.74    0.62
   5   4   2    3.06    0.61
   5   4   2    3.92    0.80
   5   4   2    3.56    1.02
   5   4   2    1.35    0.55
   5   4   2    3.76    0.73
   5   4   2    2.94    0.65
   6   4   2   11.37    1.40
   6   4   2    9.78    1.37
   6   4   2    9.80    1.39
   6   4   2   10.31    1.32
   7   4   2    0.71    0.53
   7   4   2    0.82    0.59
   7   4   2    1.23    0.63
   8   4   2   -0.26    0.59
   8   4   2    0.34    0.53
   8   4   2    0.70    0.67
   8   4   2    1.33    0.70
   9   4   2   16.91    2.26
   9   4   2   16.08    2.27
   9   4   2   16.95    2.37
   9   4   2   16.83    2.32
   8  -5  -2    2.03    1.01
   8  -5  -2    3.47    1.48
  -8   5   2    3.85    1.57
   7  -5  -2    0.39    0.81
   7  -5  -2    0.23    0.63
  -7   5   2   -0.37    0.71
  -7   5   2   -0.04    0.87
   6  -5  -2   42.99    2.97
   6  -5  -2   47.26    4.07
  -6   5   2   41.91    4.04
  -6   5   2   49.08    4.46
   5  -5  -2   88.55    4.36
   5  -5  -2   89.51    4.70
   5  -5  -2   92.22    4.75
  -5   5   2   96.64    5.21
  -5   5   2   92.88    5.11
   4  -5  -2    1.19    0.65
   4  -5  -2    0.25    0.37
   4  -5  -2    0.31    0.52
  -4   5   2    0.59    0.76
  -4   5   2    0.28    0.63
   3  -5  -2   24.31    2.13
   3  -5  -2   22.22    1.86
   3  -5  -2   27.49    1.91
  -3   5   2   24.96    2.50
  -3   5   2   20.82    2.15
  -3   5   2   21.09    2.28
   2  -5  -2  154.23    5.70
   2  -5  -2  155.17    5.49
   2  -5  -2  150.04    5.71
  -2   5   2  143.88    6.09
  -2   5   2  151.11    5.94
  -2   5   2  160.81    5.63
  -2   5   2  162.09    6.25
   1  -5  -2   60.28    2.53
  -1   5   2   60.96    2.99
  -1   5   2   59.07    2.86
  -1   5   2   65.74    3.09
  -1   5   2   59.59    2.54
  -1   5   2   68.29    3.10
  -1   5   2   60.23    2.83
   0   5   2   67.96    2.82
   0   5   2   69.25    2.85
   0   5   2   70.51    2.98
   0   5   2   70.61    2.98
   0   5   2   73.18    2.67
   1   5   2  123.30    4.07
   1   5   2  115.22    3.92
   1   5   2  118.20    4.01
   1   5   2  113.97    3.91
   1   5   2  119.96    3.96
   3   5   2   40.57    1.88
   4   5   2  118.66    3.79
   4   5   2  119.17    5.62
   4   5   2  108.06    3.93
   4   5   2  108.91    4.26
   4   5   2  115.46    3.79
   4   5   2  108.83    3.83
   4   5   2  110.29    3.80
   5   5   2    5.61    1.37
   5   5   2    3.50    0.64
   5   5   2    4.73    0.76
   5   5   2    3.41    0.67
   5   5   2    4.86    0.77
   5   5   2    5.66    0.96
   6   5   2  158.20    6.12
   6   5   2  151.78    6.78
   6   5   2  146.08    5.82
   6   5   2  154.49    5.79
   6   5   2  153.07    5.76
   7   5   2   65.89    3.52
   7   5   2   72.23    3.79
   7   5   2   74.52    3.66
   7   5   2   71.91    3.59
   8   5   2   51.22    3.26
   8   5   2   57.17    3.39
   8   5   2   53.32    3.42
   9   5   2    2.77    1.12
   9   5   2    4.03    1.36
   9   5   2    3.52    1.24
   7  -6  -2   -0.54    0.70
   7  -6  -2   -0.28    0.58
  -7   6   2    0.26    0.89
  -7   6   2   -0.41    0.92
   6  -6  -2   54.04    3.39
   6  -6  -2   54.09    3.76
  -6   6   2   43.09    4.25
  -6   6   2   58.78    4.25
   5  -6  -2   18.63    2.38
   5  -6  -2   16.94    1.98
  -5   6   2   16.05    2.44
  -5   6   2   15.61    2.46
   4  -6  -2   34.80    2.29
   4  -6  -2   37.70    2.61
  -4   6   2   39.87    3.61
  -4   6   2   29.21    3.00
   3  -6  -2   44.54    2.61
   3  -6  -2   30.78    2.30
   3  -6  -2   46.20    2.46
  -3   6   2   46.90    3.39
  -3   6   2   45.22    3.09
  -3   6   2   56.51    3.32
   2  -6  -2   15.48    1.50
   2  -6  -2   12.65    1.33
  -2   6   2   13.10    1.73
  -2   6   2   12.62    1.71
  -2   6   2   15.02    1.74
   1  -6  -2   44.37    1.87
  -1   6   2   45.62    2.49
  -1   6   2   44.02    2.57
  -1   6   2   45.44    2.59
  -1   6   2   36.74    2.43
  -1   6   2   45.24    2.15
  -1   6   2   43.07    2.38
   0   6   2   15.80    1.47
   0   6   2   13.20    1.42
   0   6   2   16.81    1.44
   0   6   2   18.26    1.61
   0   6   2   16.48    1.07
   0   6   2   14.99    1.47
   1   6   2    5.98    0.70
   1   6   2    3.96    0.65
   1   6   2    5.74    0.66
   1   6   2    5.13    0.72
   1   6   2    6.86    0.82
   1   6   2    5.69    0.72
   2   6   2   15.51    0.83
   2   6   2   14.64    0.78
   2   6   2   12.68    0.79
   2   6   2   17.05    0.91
   2   6   2   15.13    0.81
   3   6   2    0.00    0.53
   3   6   2    0.62    0.35
   4   6   2   21.54    1.05
   4   6   2   23.03    2.86
   4   6   2   20.41    1.69
   4   6   2   22.76    1.07
   4   6   2   20.15    1.07
   5   6   2   32.71    1.70
   5   6   2   31.92    3.35
   5   6   2   31.06    1.69
   5   6   2   32.21    2.06
   6   6   2   18.45    2.55
   6   6   2   18.90    1.70
   6   6   2   17.91    1.91
   7   6   2   26.62    2.03
   7   6   2   28.43    2.38
   7   6   2   26.88    2.61
   8   6   2   43.23    2.89
   8   6   2   39.87    2.80
   8   6   2   46.02    3.11
   7  -7  -2   94.18    5.10
  -7   7   2   90.31    5.99
  -7   7   2   86.69    5.89
   6  -7  -2    5.71    1.33
  -6   7   2    8.70    2.10
  -6   7   2    7.54    1.94
   5  -7  -2   38.98    2.63
  -5   7   2   34.29    3.60
  -5   7   2   30.94    3.50
   4  -7  -2    3.12    0.89
  -4   7   2    3.57    1.20
  -4   7   2    4.00    1.30
  -3   7   2  114.06    5.65
  -3   7   2  110.24    5.54
  -2   7   2   97.51    4.74
  -2   7   2   89.12    4.63
  -1   7   2    0.03    0.40
  -1   7   2    0.02    0.37
  -1   7   2   -0.27    0.40
  -1   7   2   -0.05    0.49
   0   7   2   67.42    3.21
   0   7   2   64.88    2.74
   0   7   2   61.81    2.96
   0   7   2   64.92    3.08
   0   7   2   65.58    3.20
   0   7   2   56.12    3.04
   1   7   2  159.76    5.61
   1   7   2  160.16    5.75
   1   7   2  173.64    5.85
   1   7   2  153.73    5.74
   1   7   2  152.54    5.44
   1   7   2  152.04    5.63
   2   7   2   32.14    1.60
   2   7   2   35.51    1.67
   2   7   2   35.51    1.71
   2   7   2   36.23    1.78
   2   7   2   34.82    1.70
   3   7   2  262.24    8.06
   3   7   2  245.76    7.87
   3   7   2  251.64    7.94
   3   7   2  241.71    7.91
   3   7   2  275.65   11.04
   4   7   2   27.22    1.35
   4   7   2   27.49    1.40
   4   7   2   28.06    1.30
   4   7   2   32.78    1.89
   4   7   2   36.91    3.96
   5   7   2    0.17    0.35
   5   7   2    1.20    0.64
   5   7   2    0.78    0.42
   5   7   2    0.65    0.38
   5   7   2    1.81    1.11
   6   7   2   45.84    4.33
   6   7   2   32.91    2.02
   6   7   2   34.66    2.38
   6   7   2   34.56    2.01
   7   7   2   45.63    2.71
   7   7   2   51.27    5.28
   7   7   2   45.24    2.67
   7   7   2   49.37    4.05
   6  -8  -2   19.77    2.44
  -6   8   2   14.29    2.65
  -6   8   2   24.18    3.41
  -5   8   2    0.96    1.08
  -5   8   2    3.03    1.37
  -4   8   2   12.53    2.16
  -4   8   2   11.19    2.06
  -3   8   2   23.00    2.78
  -3   8   2   20.38    2.66
  -2   8   2   12.37    1.93
  -2   8   2   12.95    1.93
  -1   8   2   21.82    2.37
  -1   8   2   21.95    2.32
   0   8   2    6.40    1.19
   0   8   2    8.18    1.35
   0   8   2    7.79    1.27
   1   8   2   10.07    1.20
   1   8   2    8.10    1.16
   1   8   2   10.68    1.35
   2   8   2    9.58    1.04
   2   8   2    9.53    1.15
   2   8   2   10.19    1.21
   3   8   2   -0.15    0.24
   3   8   2    0.53    0.91
   3   8   2    0.34    0.34
   3   8   2    0.29    0.37
   4   8   2    3.97    0.85
   4   8   2    5.66    0.67
   4   8   2    5.13    0.74
   4   8   2    5.82    1.92
   4   8   2    4.07    0.71
   5   8   2    0.26    0.34
   5   8   2    0.31    0.86
   5   8   2    0.00    0.32
   5   8   2    0.17    0.39
   6   8   2    2.11    1.21
   6   8   2    1.25    0.53
   6   8   2    1.95    0.64
   7   8   2   12.95    1.57
   7   8   2   13.44    1.58
   7   8   2   11.76    2.53
  -5   9   2    3.43    1.37
  -5   9   2    2.61    1.46
  -4   9   2    1.73    1.11
  -4   9   2    0.83    0.96
  -3   9   2   65.91    4.44
  -3   9   2   67.44    4.48
  -2   9   2    8.67    1.72
  -2   9   2    8.19    1.73
  -1   9   2   66.50    3.94
  -1   9   2   69.38    4.01
   0   9   2   14.54    1.93
   0   9   2   18.94    2.15
   1   9   2    3.37    1.02
   1   9   2    5.71    1.12
   2   9   2    7.82    1.19
   2   9   2   10.08    1.35
   3   9   2    2.58    0.71
   3   9   2    2.55    0.72
   3   9   2    3.79    1.75
   4   9   2    1.64    0.64
   4   9   2    2.44    0.63
   4   9   2    2.31    1.34
   5   9   2   12.72    1.43
   5   9   2   15.40    2.92
   5   9   2   17.36    1.52
   6   9   2    2.22    0.72
   6   9   2    2.13    0.78
   6   9   2    2.79    1.54
  -3  10   2   49.43    4.60
  -3  10   2   48.86    4.52
  -2  10   2    3.97    1.39
  -2  10   2    1.81    1.06
  -1  10   2    9.87    1.74
  -1  10   2   12.14    1.96
   0  10   2    9.31    1.68
   0  10   2    7.18    1.56
   1  10   2    0.54    0.65
   1  10   2    1.36    0.79
   2  10   2   -0.26    0.50
   2  10   2   -0.13    0.52
   2  10   2    1.07    1.09
   3  10   2   10.96    2.72
   3  10   2    8.42    1.29
   3  10   2    8.61    1.25
   4  10   2    4.80    1.99
   4  10   2    2.97    0.78
   4  10   2    5.14    0.98
   0  11   2    2.25    1.04
   0  11   2    0.64    0.79
   1  11   2    0.38    0.83
   1  11   2    0.71    0.68
   1  10  -3   13.03    2.84
   1  10  -3   18.85    2.81
   1  10  -3   14.80    2.41
   0  10  -3    1.67    1.43
   0  10  -3    0.18    0.92
   0  10  -3    1.90    1.11
  -1  10  -3    6.19    1.77
  -1  10  -3    8.82    2.40
  -1  10  -3    8.86    2.20
  -2  10  -3   17.77    2.86
  -2  10  -3   25.36    4.02
  -2  10  -3   23.62    3.40
  -3  10  -3    1.45    1.29
  -3  10  -3    2.23    1.35
  -3  10  -3    0.18    1.04
   4   9  -3   -1.05    1.24
   4   9  -3    1.89    1.02
   4   9  -3   -0.11    0.91
   3   9  -3    6.89    1.59
   3   9  -3   10.64    2.06
   3   9  -3    5.05    1.88
   2   9  -3  452.66   17.61
   2   9  -3  439.87   16.11
   2   9  -3  425.29   15.73
   1   9  -3    0.72    1.02
   1   9  -3    1.46    1.00
   1   9  -3   -0.23    0.74
   0   9  -3   11.78    2.17
   0   9  -3   17.40    3.24
   0   9  -3   16.04    2.45
  -1   9  -3   13.29    2.22
  -1   9  -3    9.81    2.33
  -1   9  -3   12.25    2.30
  -2   9  -3   12.98    2.35
  -2   9  -3   15.09    2.50
  -2   9  -3   12.80    2.51
  -3   9  -3    5.99    1.83
  -3   9  -3    6.89    1.95
  -3   9  -3    7.19    1.83
  -4   9  -3  176.27    9.06
  -4   9  -3  173.22    8.76
  -4   9  -3  166.78    8.64
  -5   9  -3   16.80    2.91
  -5   9  -3   14.96    2.73
  -5   9  -3   18.10    3.13
   5   8  -3   20.55    2.62
   5   8  -3   21.42    2.74
   5   8  -3   15.79    2.47
   4   8  -3   26.85    3.72
   4   8  -3   23.25    2.91
   4   8  -3   24.90    2.81
   3   8  -3  130.16    6.19
   3   8  -3  136.60    7.54
   3   8  -3  137.37    6.58
   2   8  -3    7.16    1.92
   2   8  -3    6.25    1.48
   2   8  -3    3.54    1.16
   1   8  -3   -0.08    0.62
   1   8  -3    1.63    1.11
   1   8  -3   -0.25    0.88
   0   8  -3   50.15    3.65
   0   8  -3   50.58    4.22
   0   8  -3   55.68    3.66
  -1   8  -3    0.96    0.98
  -1   8  -3    1.62    0.95
  -1   8  -3    1.26    0.94
  -2   8  -3   -1.17    0.54
  -2   8  -3   -0.09    0.76
  -2   8  -3   -1.28    0.53
  -3   8  -3    0.45    0.91
  -3   8  -3    1.85    1.06
  -3   8  -3    0.87    0.98
  -4   8  -3  111.27    6.49
  -4   8  -3  113.02    6.50
  -4   8  -3  121.77    6.61
  -5   8  -3    8.47    2.12
  -5   8  -3    7.22    1.90
  -5   8  -3    4.62    1.59
  -6   8  -3   11.99    2.60
  -6   8  -3    8.01    2.09
   6   7  -3   -0.11    0.92
   6   7  -3   -0.15    0.84
   6   7  -3    0.62    0.93
   5   7  -3   22.13    2.76
   5   7  -3   24.84    2.77
   5   7  -3   24.08    2.74
   4   7  -3   22.91    2.51
   4   7  -3   23.50    2.72
   3   7  -3   19.23    2.93
   3   7  -3   17.92    2.18
   3   7  -3   15.74    2.21
   2   7  -3    8.05    1.51
   2   7  -3    5.86    1.69
   2   7  -3    5.60    1.36
   1   7  -3   84.62    4.43
   1   7  -3   85.90    4.64
   1   7  -3   89.98    5.38
   0   7  -3  409.56   15.70
   0   7  -3  416.31   14.81
   0   7  -3  426.89   14.69
  -1   7  -3   69.20    4.11
  -1   7  -3   63.59    3.92
  -1   7  -3   66.72    4.51
  -2   7  -3  204.44    8.49
  -2   7  -3  198.67    8.38
  -2   7  -3  194.19    8.78
   2  -7   3  182.29    7.79
  -3   7  -3  201.96    8.65
  -3   7  -3  202.68    8.74
  -3   7  -3  216.20    9.07
   3  -7   3  170.65    7.94
  -4   7  -3    5.71    1.61
  -4   7  -3    4.43    1.38
  -4   7  -3    5.60    1.54
   4  -7   3    2.34    1.06
  -5   7  -3   53.17    4.81
  -5   7  -3   43.09    4.37
   5  -7   3   32.86    3.71
  -6   7  -3    2.12    1.36
  -6   7  -3    1.16    1.15
  -7   7  -3   31.97    4.07
  -7   7  -3   24.85    3.57
   7   6  -3    3.66    1.37
   7   6  -3    4.84    1.57
   7   6  -3    2.15    1.13
   6   6  -3   27.21    2.87
   6   6  -3   21.67    2.78
   6   6  -3   26.26    2.99
   5   6  -3   17.96    2.29
   5   6  -3   21.30    2.66
   5   6  -3   20.49    2.37
   4   6  -3   25.71    2.71
   4   6  -3   22.26    2.37
   3   6  -3    0.81    0.88
   3   6  -3    0.98    0.78
   3   6  -3    1.08    0.67
   2   6  -3    2.74    0.96
   2   6  -3    3.29    1.24
   2   6  -3    4.79    1.16
   2   6  -3    4.31    1.33
   1   6  -3  201.22    7.60
   1   6  -3  211.99    8.32
   1   6  -3  219.91    8.14
   1   6  -3  209.98    8.98
   0   6  -3   25.88    2.63
   0   6  -3   24.19    2.07
   0   6  -3   20.48    2.21
   0   6  -3   26.50    3.10
   0  -6   3   22.50    1.59
   0  -6   3   22.89    1.64
   0  -6   3   22.49    1.68
  -1   6  -3    0.80    0.71
  -1   6  -3    0.45    0.64
  -1   6  -3    0.74    0.64
  -1   6  -3    0.35    0.41
   1  -6   3   -0.23    0.35
   1  -6   3    0.19    0.48
   1  -6   3    0.92    0.49
  -2   6  -3    5.24    1.31
  -2   6  -3    2.56    0.97
  -2   6  -3    3.03    1.12
  -2   6  -3    3.67    0.93
   2  -6   3    2.76    0.87
   2  -6   3    3.69    0.98
  -3   6  -3 1108.92   34.95
  -3   6  -3 1095.11   34.81
  -3   6  -3 1105.22   34.94
   3  -6   3 1020.85   34.34
   3  -6   3 1119.75   34.27
   3  -6   3 1111.82   34.11
  -4   6  -3  269.40   10.64
  -4   6  -3  260.58   10.60
   4  -6   3  285.99   12.52
   4  -6   3  241.70   10.22
   4  -6   3  263.22   10.07
  -5   6  -3    5.70    1.64
  -5   6  -3    5.87    1.63
   5  -6   3    3.81    1.37
   5  -6   3    6.33    1.45
  -6   6  -3    0.05    0.84
  -6   6  -3    1.06    1.04
   6  -6   3    0.40    0.71
   6  -6   3    0.26    0.81
  -7   6  -3    7.47    1.98
  -7   6  -3    9.77    2.18
   7  -6   3    8.67    1.96
  -8   6  -3   39.16    4.46
   8  -6   3   48.63    4.68
   7   5  -3    2.01    1.12
   7   5  -3    1.33    0.96
   7   5  -3    1.53    1.11
   6   5  -3   20.08    2.53
   6   5  -3   19.92    2.45
   6   5  -3   16.89    2.32
   5   5  -3    3.46    1.04
   5   5  -3    2.57    0.96
   5   5  -3    3.13    1.09
   4   5  -3   15.54    1.94
   4   5  -3   15.50    2.01
   3   5  -3   64.07    3.47
   3   5  -3   68.18    4.23
   3   5  -3   69.80    3.78
   3   5  -3   69.13    3.33
   2   5  -3   68.58    3.28
   2   5  -3   70.21    3.51
   2   5  -3   69.24    3.69
   2   5  -3   65.15    3.19
   2   5  -3   69.94    4.12
  -2  -5   3   69.16    2.95
  -2  -5   3   71.08    3.05
   1   5  -3    5.43    1.26
   1   5  -3    5.69    1.13
   1   5  -3    4.82    1.09
   1   5  -3    6.33    0.99
   1   5  -3    6.24    0.99
  -1  -5   3    6.35    0.96
  -1  -5   3    6.84    0.94
   0   5  -3   66.50    3.56
   0   5  -3   61.84    3.79
   0   5  -3   64.08    3.36
   0   5  -3   69.18    3.11
   0  -5   3   62.22    2.96
   0  -5   3   66.88    3.12
   0  -5   3   62.29    3.02
  -1   5  -3   73.93    4.01
  -1   5  -3   83.24    4.36
  -1   5  -3   84.49    4.04
  -1   5  -3   80.85    3.67
   1  -5   3   81.53    3.77
   1  -5   3   75.45    3.60
  -2   5  -3  147.69    6.41
  -2   5  -3  137.93    5.81
  -2   5  -3  149.53    6.33
  -2   5  -3  144.50    6.41
   2  -5   3  152.26    5.86
   2  -5   3  156.60    6.02
   2  -5   3  145.24    6.04
  -3   5  -3    1.95    0.85
  -3   5  -3    1.26    0.69
  -3   5  -3    1.44    0.88
   3  -5   3    0.76    0.62
   3  -5   3    2.20    0.80
   3  -5   3    1.15    0.62
  -4   5  -3    2.93    1.09
  -4   5  -3    1.86    0.92
   4  -5   3    2.28    0.93
   4  -5   3    1.10    0.76
   4  -5   3    1.46    0.73
  -5   5  -3    3.72    1.21
  -5   5  -3    2.32    1.11
   5  -5   3    2.72    0.99
   5  -5   3    3.78    1.15
   5  -5   3    3.03    1.16
  -6   5  -3   37.33    3.89
  -6   5  -3   37.46    3.88
   6  -5   3   37.56    3.51
   6  -5   3   32.36    3.39
   6  -5   3   35.41    3.82
  -7   5  -3    3.97    1.50
  -7   5  -3    4.15    1.49
   7  -5   3    3.67    1.17
   7  -5   3    5.67    1.51
   7  -5   3    4.31    1.45
  -8   5  -3    2.96    1.35
   8  -5   3    2.46    1.27
   8  -5   3    1.74    1.02
   8   4  -3    9.66    2.12
   8   4  -3    7.86    1.82
   8   4  -3    7.73    1.90
   7   4  -3    0.77    0.86
   7   4  -3    1.76    1.05
   7   4  -3    1.61    1.08
   6   4  -3    7.34    1.59
   6   4  -3    7.20    1.57
   6   4  -3    6.96    1.42
   5   4  -3    1.34    0.86
   5   4  -3    2.69    0.91
   5   4  -3    1.69    0.76
   4   4  -3   27.84    2.60
   4   4  -3   33.72    2.35
   4   4  -3   30.69    2.22
  -4  -4   3   29.79    1.80
   3   4  -3    8.48    1.18
   3   4  -3    8.46    1.29
   3   4  -3    8.53    1.37
  -3  -4   3    8.23    1.00
  -3  -4   3   10.01    1.10
   2   4  -3  754.34   23.53
   2   4  -3  737.73   24.60
   2   4  -3  736.79   23.52
   2   4  -3  814.71   24.21
   2   4  -3  760.53   23.86
  -2  -4   3  761.17   23.27
  -2  -4   3  766.49   23.36
   1   4  -3   15.27    1.43
   1   4  -3   18.33    1.82
   1   4  -3   15.72    1.46
   1   4  -3   14.81    1.84
   1   4  -3   16.10    1.64
  -1  -4   3   17.39    1.29
  -1  -4   3   16.50    1.21
   0   4  -3   13.35    1.32
   0   4  -3   14.67    1.59
   0   4  -3   14.33    1.68
   0   4  -3   12.97    1.75
   0   4  -3   17.78    1.69
   0  -4   3   14.89    1.44
  -1   4  -3  103.39    4.76
  -1   4  -3  111.28    4.68
  -1   4  -3  106.38    4.73
  -1   4  -3  104.90    4.30
   1  -4   3  103.39    4.35
   1  -4   3  104.56    4.28
   1  -4   3  110.25    4.47
  -2   4  -3  229.42    8.23
  -2   4  -3  206.02    7.58
  -2   4  -3  209.24    7.97
  -2   4  -3  217.52    8.06
   2  -4   3  199.41    7.77
   2  -4   3  218.90    7.75
   2  -4   3  205.18    7.60
  -3   4  -3  403.39   13.77
  -3   4  -3  408.66   14.19
  -3   4  -3  412.99   14.16
   3  -4   3  418.91   13.72
   3  -4   3  413.85   14.00
   3  -4   3  404.41   13.80
  -4   4  -3   76.19    4.20
  -4   4  -3   71.60    4.10
   4  -4   3   70.36    3.85
   4  -4   3   83.63    3.99
   4  -4   3   73.76    4.06
  -5   4  -3  145.03    6.72
  -5   4  -3  142.09    6.66
   5  -4   3  136.60    6.57
   5  -4   3  151.25    6.52
   5  -4   3  151.45    6.39
  -6   4  -3   74.00    4.62
  -6   4  -3   79.81    4.69
   6  -4   3   73.96    4.38
   6  -4   3   71.72    3.89
   6  -4   3   82.82    4.84
   6  -4   3   77.79    4.36
  -7   4  -3    2.01    1.08
  -7   4  -3    3.83    1.39
   7  -4   3    1.26    0.98
   7  -4   3    2.41    1.24
   7  -4   3    2.12    0.94
   7  -4   3    3.34    1.11
  -8   4  -3    4.10    1.46
   8  -4   3    3.82    1.38
   8  -4   3    5.13    1.26
   8  -4   3    3.49    1.35
   8  -4   3    3.24    1.43
  -9   4  -3    1.37    1.87
   9  -4   3    1.00    1.06
   9  -4   3    1.01    0.84
   8   3  -3   -0.39    0.74
   8   3  -3   -0.51    0.69
   8   3  -3    0.30    0.87
   7   3  -3    9.36    1.89
   7   3  -3    7.10    1.70
   7   3  -3    6.89    1.57
   6   3  -3   33.05    3.12
   6   3  -3   34.44    3.17
   6   3  -3   32.68    3.24
   5   3  -3    0.54    0.55
   5   3  -3   -0.46    0.44
   5   3  -3    0.89    0.65
  -5  -3   3    0.53    0.47
   4   3  -3  228.42    8.19
   4   3  -3  212.88    8.03
   4   3  -3  223.54    8.32
   4   3  -3  207.55    7.97
  -4  -3   3  216.13    7.54
  -4  -3   3  206.10    7.46
   3   3  -3   12.36    1.52
   3   3  -3   13.08    1.49
   3   3  -3   14.55    1.58
  -3  -3   3   12.56    1.22
  -3  -3   3   17.08    1.24
   2   3  -3   79.18    3.38
   2   3  -3   72.53    3.47
   2   3  -3   78.20    3.41
   2   3  -3   79.30    3.70
  -2  -3   3   85.77    3.35
   1   3  -3  470.19   15.57
   1   3  -3  482.24   15.82
   1   3  -3  508.92   15.62
   1   3  -3  524.96   16.13
   1   3  -3  485.33   16.29
  -1  -3   3  508.94   15.57
   0   3  -3  179.04    6.41
   0   3  -3  187.24    6.90
   0   3  -3  190.65    6.98
   0   3  -3  179.35    6.47
   0   3  -3  186.90    6.73
   0  -3   3  194.96    6.45
   0  -3   3  184.56    6.53
  -1   3  -3  251.69    8.81
  -1   3  -3  250.17    9.24
  -1   3  -3  254.86    9.18
  -1   3  -3  271.43    9.22
   1  -3   3  277.44    9.05
   1  -3   3  285.04    8.95
  -2   3  -3    5.15    1.06
  -2   3  -3    3.70    0.70
  -2   3  -3    4.14    0.82
  -2   3  -3    6.17    1.10
   2  -3   3    5.39    0.93
   2  -3   3    4.85    0.88
   2  -3   3    6.54    1.04
  -3   3  -3    8.44    1.37
  -3   3  -3   11.16    1.58
  -3   3  -3    7.32    1.03
   3  -3   3    9.84    1.33
   3  -3   3    9.31    1.24
   3  -3   3   12.25    1.55
  -4   3  -3   27.12    2.56
  -4   3  -3   24.90    2.39
   4  -3   3   24.09    2.28
   4  -3   3   21.84    2.23
   4  -3   3   23.84    2.42
  -5   3  -3   53.25    3.33
  -5   3  -3   45.89    3.15
   5  -3   3   41.07    3.06
   5  -3   3   52.11    3.18
   5  -3   3   51.76    2.81
   5  -3   3   49.84    3.06
  -6   3  -3   24.45    2.71
  -6   3  -3   21.70    2.54
   6  -3   3   21.06    2.47
   6  -3   3   31.49    3.29
   6  -3   3   28.03    2.78
   6  -3   3   24.25    2.34
  -7   3  -3   13.98    2.15
  -7   3  -3   13.95    2.27
   7  -3   3   11.74    2.06
   7  -3   3   14.09    2.36
   7  -3   3   11.88    1.76
   7  -3   3   10.78    1.85
  -8   3  -3   59.14    4.20
   8  -3   3   54.99    3.65
   8  -3   3   45.88    4.75
   8  -3   3   59.63    4.17
   8  -3   3   53.73    4.62
   9  -3   3  124.46    6.62
   9  -3   3  101.17    5.67
   9  -3   3  107.06    6.27
   8   2  -3   13.57    2.43
   8   2  -3   13.75    2.25
   8   2  -3   15.10    2.44
   7   2  -3    3.59    1.29
   7   2  -3    3.14    1.06
   7   2  -3    3.55    1.30
   6   2  -3    4.64    1.16
   6   2  -3    5.68    1.32
   6   2  -3    7.37    1.47
  -6  -2   3    9.10    1.63
   5   2  -3   18.12    2.08
   5   2  -3   17.46    1.99
   5   2  -3   19.28    2.09
  -5  -2   3   22.64    1.70
   4   2  -3    9.07    1.35
   4   2  -3   10.17    1.36
   4   2  -3   10.58    1.45
   4   2  -3    7.44    1.24
  -4  -2   3    9.32    1.21
  -4  -2   3   12.04    1.34
   3   2  -3   72.45    3.35
   3   2  -3   73.83    3.35
   3   2  -3   70.76    3.46
  -3  -2   3   66.61    3.01
  -3  -2   3   66.19    3.04
   2   2  -3  714.21   22.09
   2   2  -3  707.67   22.01
   2   2  -3  701.93   22.27
   2   2  -3  728.39   22.03
  -2  -2   3  708.53   21.79
  -2  -2   3  709.43   21.82
   1   2  -3   53.05    2.46
   1   2  -3   53.15    2.60
   1   2  -3   56.73    2.78
   1   2  -3   55.57    2.47
  -1  -2   3   57.81    2.48
  -1  -2   3   57.53    2.44
   0   2  -3   98.68    4.05
   0   2  -3  104.38    3.73
   0   2  -3   96.33    3.91
   0   2  -3   99.58    3.73
   0  -2   3   95.67    3.71
   0  -2   3   94.14    3.65
   0  -2   3   90.75    4.06
  -1   2  -3 1257.24   37.47
  -1   2  -3 1210.14   37.24
  -1   2  -3 1251.99   37.12
  -1   2  -3 1229.39   37.30
  -1   2  -3 1249.15   36.98
   1  -2   3 1192.49   37.09
   1  -2   3 1276.87   37.03
   1  -2   3 1211.93   37.26
  -2   2  -3  274.30    9.09
  -2   2  -3  283.67    9.64
  -2   2  -3  281.46    9.25
  -2   2  -3  292.60    9.62
  -2   2  -3  269.13    9.04
   2  -2   3  274.00    9.87
   2  -2   3  282.90    9.30
  -3   2  -3   47.48    2.13
  -3   2  -3   50.55    2.75
  -3   2  -3   49.96    2.78
   3  -2   3   50.91    2.64
   3  -2   3   48.92    2.64
   3  -2   3   46.34    2.50
  -4   2  -3   57.67    3.33
  -4   2  -3   63.55    3.45
   4  -2   3   70.52    3.11
   4  -2   3   66.92    3.27
   4  -2   3   67.24    3.34
   4  -2   3   69.99    3.52
  -5   2  -3    1.55    0.73
  -5   2  -3    0.81    0.59
   5  -2   3    0.68    0.48
   5  -2   3    0.45    0.47
   5  -2   3    1.38    0.73
   5  -2   3    0.05    0.45
  -6   2  -3  102.53    5.04
  -6   2  -3   99.25    4.96
   6  -2   3  101.96    4.99
   6  -2   3  100.02    4.55
   6  -2   3   99.92    4.85
   6  -2   3   87.65    4.98
  -7   2  -3    5.18    1.28
   7  -2   3    5.26    1.18
   7  -2   3    5.70    1.37
   7  -2   3    2.81    1.14
   7  -2   3    3.59    1.23
  -8   2  -3    3.79    1.21
   8  -2   3    3.74    1.26
   8  -2   3    1.18    0.82
   8  -2   3    2.20    1.24
   8  -2   3    4.07    1.41
   9  -2   3  331.84   13.15
   9  -2   3  329.01   12.45
   9  -2   3  314.21   12.90
   8   1  -3   12.06    2.10
   8   1  -3   13.45    2.29
   8   1  -3    9.62    1.96
   7   1  -3   42.79    3.73
   7   1  -3   31.51    3.34
   7   1  -3   40.82    3.78
   6   1  -3   62.97    3.82
   6   1  -3   61.57    3.68
   6   1  -3   54.44    3.56
  -6  -1   3   61.43    3.39
   5   1  -3  349.41   11.98
   5   1  -3  329.46   11.77
   5   1  -3  330.72   11.99
  -5  -1   3  336.89   11.54
  -5  -1   3  327.15   11.47
   4   1  -3    7.52    1.28
   4   1  -3    5.70    1.10
   4   1  -3    7.77    1.19
   4   1  -3    8.70    1.31
  -4  -1   3    7.56    1.09
  -4  -1   3   10.07    1.32
   3   1  -3  106.87    4.26
   3   1  -3  101.71    4.38
   3   1  -3   95.98    4.26
   3   1  -3   99.31    4.27
  -3  -1   3  101.97    4.10
  -3  -1   3  101.37    4.11
   2   1  -3  894.35   26.49
   2   1  -3  874.15   26.60
   2   1  -3  839.18   26.36
  -2  -1   3  837.40   26.16
  -2  -1   3  868.12   26.24
   1   1  -3    3.71    0.62
   1   1  -3    4.94    0.73
   1   1  -3    5.19    0.83
   1   1  -3    4.12    0.69
  -1  -1   3    5.17    0.75
  -1  -1   3    4.22    0.62
   0   1  -3  495.14   15.90
   0   1  -3  513.00   15.57
   0   1  -3  499.07   15.75
   0   1  -3  524.99   15.57
   0  -1   3  503.36   15.55
   0  -1   3  513.30   15.53
   0  -1   3  477.68   15.79
   0  -1   3  508.32   15.69
   0  -1   3  507.59   15.82
  -1   1  -3    1.51    0.47
  -1   1  -3    2.11    0.61
  -1   1  -3    1.72    0.47
  -1   1  -3    2.17    0.62
   1  -1   3    2.93    0.71
   1  -1   3    2.26    0.59
   1  -1   3    3.03    0.63
   1  -1   3    2.74    0.59
   1  -1   3    2.25    0.55
  -2   1  -3  191.50    6.83
  -2   1  -3  190.67    6.39
  -2   1  -3  202.10    6.53
  -2   1  -3  192.17    6.78
   2  -1   3  195.99    6.57
   2  -1   3  183.42    6.20
   2  -1   3  198.95    6.91
   2  -1   3  193.29    6.79
  -3   1  -3  178.46    6.26
  -3   1  -3  185.47    6.68
  -3   1  -3  181.33    6.63
   3  -1   3  172.32    6.38
   3  -1   3  184.61    6.52
   3  -1   3  176.82    6.72
   3  -1   3  188.75    6.61
   3  -1   3  182.76    6.23
  -4   1  -3  192.40    7.62
  -4   1  -3  229.15    7.84
   4  -1   3  204.25    7.60
   4  -1   3  215.01    7.60
   4  -1   3  211.79    7.34
   4  -1   3  216.69    7.94
   4  -1   3  207.14    7.76
  -5   1  -3    1.08    0.54
  -5   1  -3    0.33    0.45
   5  -1   3    0.20    0.40
   5  -1   3    0.42    0.53
   5  -1   3    1.23    0.58
   5  -1   3    1.19    0.63
   5  -1   3    1.49    0.59
  -6   1  -3  211.73    8.03
  -6   1  -3  206.58    7.99
   6  -1   3  199.66    7.65
   6  -1   3  190.70    8.19
   6  -1   3  207.84    8.13
   6  -1   3  206.05    8.01
   7  -1   3   10.16    1.79
   7  -1   3   12.95    1.88
   8  -1   3   89.26    5.07
   8  -1   3   86.38    5.41
   8  -1   3   89.85    4.68
   8  -1   3   84.50    4.91
   9  -1   3   12.95    2.37
   9  -1   3    9.36    1.72
   9  -1   3    9.51    2.02
  10  -1   3    0.16    0.80
  10  -1   3   -0.34    0.98
  10  -1   3   -0.69    0.75
   8   0  -3   36.63    3.79
   8   0  -3   40.79    4.08
   8   0  -3   40.35    3.92
   7   0  -3   38.17    3.55
   7   0  -3   31.21    3.28
   7   0  -3   36.81    3.51
  -7   0   3   41.34    2.90
   6   0  -3   -0.66    0.51
   6   0  -3    0.42    0.61
   6   0  -3   -0.30    0.35
  -6   0   3    0.71    0.67
   5   0  -3   17.11    2.05
   5   0  -3   16.51    2.07
   5   0  -3   14.13    1.80
  -5   0   3   15.15    1.72
  -5   0   3   17.46    1.91
   4   0  -3    0.31    0.41
   4   0  -3    0.23    0.47
   4   0  -3   -0.17    0.35
  -4   0   3   -0.02    0.41
  -4   0   3    0.28    0.42
   3   0  -3    3.00    0.69
   3   0  -3    3.25    0.81
   3   0  -3    3.69    0.81
   3   0  -3    4.85    0.93
  -3   0   3    3.88    0.75
  -3   0   3    3.10    0.70
   2   0  -3   61.26    2.71
   2   0  -3   66.11    2.99
   2   0  -3   57.25    2.81
   2   0  -3   58.99    2.79
  -2   0   3   65.53    2.81
  -2   0   3   63.02    2.79
   1   0  -3   39.65    1.94
   1   0  -3   38.70    2.07
   1   0  -3   42.67    2.11
   1   0  -3   39.52    1.98
  -1   0   3   38.87    1.88
  -1   0   3   39.84    2.00
  -1   0   3   38.06    2.02
  -1   0   3   38.09    1.88
   0   0  -3   92.03    3.44
   0   0  -3   91.65    3.54
   0   0  -3   94.67    3.44
   0   0  -3   98.10    3.71
   0   0   3   88.55    3.48
   0   0   3  100.46    3.46
   0   0   3   93.28    3.40
   0   0   3   89.89    3.60
  -1   0  -3  399.54   12.28
  -1   0  -3  393.64   12.56
  -1   0  -3  391.12   12.28
  -1   0  -3  412.43   12.51
   1   0   3  398.77   12.29
   1   0   3  413.90   12.33
   1   0   3  388.66   12.56
   1   0   3  388.18   12.46
  -2   0  -3   22.96    1.42
  -2   0  -3   24.74    1.25
  -2   0  -3   26.00    1.51
   2   0   3   25.52    1.38
   2   0   3   24.00    1.54
   2   0   3   25.30    1.34
   2   0   3   23.23    1.45
  -3   0  -3  144.75    5.37
  -3   0  -3  146.64    5.39
  -3   0  -3  149.67    5.16
   3   0   3  145.30    5.51
   3   0   3  151.61    5.12
   3   0   3  145.52    5.50
   3   0   3  147.23    5.35
   3   0   3  150.08    5.26
  -4   0  -3 1207.53   37.40
  -4   0  -3 1289.78   37.67
  -4   0  -3 1215.87   37.59
   4   0   3 1232.13   37.38
   4   0   3 1283.84   37.71
   4   0   3 1240.21   37.90
   4   0   3 1232.42   37.87
   4   0   3 1241.24   37.77
   4   0   3 1243.12   37.56
  -5   0  -3  200.50    7.27
   5   0   3  199.41    7.29
   5   0   3  195.26    7.38
   5   0   3  198.58    7.54
   5   0   3  187.73    7.55
   5   0   3  200.20    7.13
  -6   0  -3    6.38    1.13
   6   0   3    6.94    1.22
   6   0   3    5.40    1.21
   6   0   3    6.79    1.33
   6   0   3    6.91    1.12
   6   0   3    8.19    1.35
  -7   0  -3    9.20    1.39
   7   0   3    8.14    1.36
   7   0   3    8.02    1.66
   7   0   3    8.97    1.51
   7   0   3    6.60    1.40
   8   0   3  318.59   12.15
   8   0   3  315.30   12.74
   8   0   3  334.94   12.37
   8   0   3  316.60   11.72
   9   0   3   66.23    4.37
   9   0   3   56.36    4.11
   9   0   3   62.10    3.94
  10   0   3    0.43    0.97
  10   0   3    0.26    0.70
  10   0   3   -0.78    0.79
   8  -1  -3   20.63    2.78
   8  -1  -3   22.32    3.11
   8  -1  -3   21.12    3.00
   7  -1  -3  165.52    7.60
   7  -1  -3  176.21    7.76
   7  -1  -3  159.97    7.22
  -7   1   3  155.80    7.18
   6  -1  -3   92.68    4.67
   6  -1  -3   85.91    4.76
   6  -1  -3   93.15    4.90
  -6   1   3   92.01    4.67
  -6   1   3   88.64    4.62
   5  -1  -3    8.48    1.48
   5  -1  -3    8.85    1.42
   5  -1  -3    6.45    1.31
  -5   1   3    8.78    1.47
  -5   1   3    7.18    1.40
   4  -1  -3   17.86    1.92
   4  -1  -3   22.24    2.15
   4  -1  -3   12.53    1.48
  -4   1   3   13.47    1.62
  -4   1   3   14.39    1.68
   3  -1  -3  593.68   19.02
   3  -1  -3  619.04   19.29
   3  -1  -3  592.11   19.31
  -3   1   3  614.85   19.25
  -3   1   3  616.14   19.27
   2  -1  -3  137.02    4.91
   2  -1  -3  134.62    5.09
   2  -1  -3  139.59    5.21
  -2   1   3  129.69    5.05
  -2   1   3  136.86    5.13
  -2   1   3  132.34    5.07
   1  -1  -3 2410.61   72.69
   1  -1  -3 2376.31   70.61
   1  -1  -3 2394.20   71.40
   1  -1  -3 2464.26   70.75
  -1   1   3 2345.39   71.44
  -1   1   3 2299.58   71.92
  -1   1   3 2394.14   71.24
  -1   1   3 2406.82   71.22
   0  -1  -3   39.79    1.76
   0  -1  -3   38.40    1.85
   0  -1  -3   36.35    1.69
   0  -1  -3   35.22    1.73
   0   1   3   37.44    1.70
   0   1   3   38.78    1.85
   0   1   3   35.70    1.69
   0   1   3   38.16    1.77
  -1  -1  -3  972.86   27.92
  -1  -1  -3  938.07   28.04
  -1  -1  -3  905.49   27.89
   1   1   3  947.08   27.93
   1   1   3  955.98   28.09
   1   1   3  909.40   27.93
   1   1   3  943.92   28.18
  -2  -1  -3    7.86    0.77
  -2  -1  -3    7.55    0.77
  -2  -1  -3    6.81    0.55
  -2  -1  -3    7.77    0.67
   2   1   3    6.94    0.78
   2   1   3    8.06    0.73
   2   1   3    6.60    0.81
   2   1   3    7.26    0.72
  -3  -1  -3 1019.87   30.30
  -3  -1  -3 1001.55   30.30
  -3  -1  -3  987.72   30.29
   3   1   3 1021.29   30.42
   3   1   3 1017.19   30.27
   3   1   3 1019.11   30.33
   3   1   3 1031.55   30.63
   3   1   3 1005.81   30.57
  -4  -1  -3   78.76    3.10
  -4  -1  -3   75.67    3.07
  -4  -1  -3   73.30    3.14
   4   1   3   73.42    3.08
   4   1   3   77.20    3.20
   4   1   3   77.73    3.32
   4   1   3   73.21    3.36
   4   1   3   77.64    3.27
   4   1   3   75.90    3.37
  -5  -1  -3    1.55    0.46
   5   1   3    0.71    0.53
   5   1   3    2.45    0.68
   5   1   3    1.07    0.49
   5   1   3    0.65    0.40
   5   1   3    1.31    0.57
   5   1   3    1.43    0.57
  -6  -1  -3   98.60    4.28
  -6  -1  -3  105.39    4.35
   6   1   3  107.03    4.56
   6   1   3  106.50    4.79
   6   1   3  109.66    4.74
   6   1   3  108.75    4.99
   6   1   3  102.41    4.93
   7   1   3  101.97    4.94
   7   1   3  107.03    4.81
   7   1   3  104.73    5.34
   7   1   3  103.93    5.05
   8   1   3    9.82    1.68
   8   1   3   10.09    1.82
   8   1   3   10.60    1.78
   8   1   3    3.61    1.31
   9   1   3    1.45    0.95
   9   1   3    1.91    1.03
   9   1   3    5.01    1.36
  10   1   3    1.09    0.92
  10   1   3    1.27    1.07
  10   1   3    2.07    1.26
   8  -2  -3    5.19    1.51
   8  -2  -3    4.17    1.41
  -8   2   3    7.00    1.73
   7  -2  -3  126.37    6.35
   7  -2  -3  112.99    6.20
   7  -2  -3  122.67    5.96
  -7   2   3  128.20    6.22
   6  -2  -3   47.03    3.14
   6  -2  -3   49.49    3.46
   6  -2  -3   55.04    3.52
  -6   2   3   44.41    3.24
  -6   2   3   50.18    3.41
   5  -2  -3    0.48    0.44
   5  -2  -3   -0.28    0.44
   5  -2  -3    0.91    0.66
  -5   2   3    0.07    0.55
  -5   2   3    0.92    0.80
   4  -2  -3   31.85    2.16
   4  -2  -3   36.98    2.45
   4  -2  -3   36.77    2.44
  -4   2   3   35.63    2.42
  -4   2   3   33.92    2.41
   3  -2  -3   -0.20    0.31
   3  -2  -3    0.42    0.36
   3  -2  -3    0.54    0.46
  -3   2   3    0.04    0.40
  -3   2   3    0.05    0.42
   2  -2  -3  540.11   16.94
   2  -2  -3  540.01   17.02
   2  -2  -3  555.80   16.71
  -2   2   3  511.24   16.98
  -2   2   3  548.45   17.11
  -2   2   3  521.45   17.01
  -2   2   3  544.18   16.66
   1  -2  -3   43.86    2.15
   1  -2  -3   44.76    2.09
   1  -2  -3   42.49    1.87
  -1   2   3   46.29    2.19
  -1   2   3   42.88    2.11
  -1   2   3   44.01    2.16
  -1   2   3   46.15    2.17
   0  -2  -3   -0.05    0.13
   0  -2  -3    0.33    0.23
   0  -2  -3    0.48    0.25
   0  -2  -3    0.09    0.20
   0   2   3    0.84    0.33
   0   2   3    0.00    0.20
   0   2   3    0.14    0.25
   0   2   3    0.24    0.23
  -1  -2  -3   72.66    2.58
  -1  -2  -3   81.03    2.64
  -1  -2  -3   77.83    2.58
  -1  -2  -3   75.60    2.58
   1   2   3   76.54    2.86
   1   2   3   77.19    2.80
   1   2   3   80.92    2.74
   1   2   3   76.91    2.73
  -2  -2  -3   -0.44    0.12
   2   2   3   -0.42    0.10
   2   2   3   -0.45    0.13
   2   2   3   -0.47    0.17
   2   2   3   -0.24    0.21
   2   2   3   -0.42    0.14
  -3  -2  -3 1919.72   55.28
   3   2   3 1873.87   56.07
   3   2   3 1835.91   55.18
   3   2   3 1912.36   55.62
   3   2   3 1844.79   55.39
   3   2   3 1851.13   55.40
  -4  -2  -3  224.42    7.53
  -4  -2  -3  227.65    6.89
   4   2   3  235.97    7.58
   4   2   3  217.82    7.58
   4   2   3  221.03    7.47
   4   2   3  224.83    7.67
   4   2   3  230.14    7.72
   4   2   3  228.27    7.51
   4   2   3  226.33    7.61
  -5  -2  -3   28.76    1.32
   5   2   3   26.08    1.86
   5   2   3   29.02    1.76
   5   2   3   21.91    1.72
   5   2   3   29.49    1.77
   5   2   3   28.60    1.93
   5   2   3   29.67    1.83
  -6  -2  -3   69.64    2.80
   6   2   3   73.95    3.52
   6   2   3   69.90    3.67
   6   2   3   80.09    3.87
   6   2   3   67.36    3.35
   6   2   3   69.07    3.53
   6   2   3   69.15    3.65
   7   2   3   18.83    2.05
   7   2   3   14.48    1.75
   7   2   3   17.70    2.11
   7   2   3   11.49    1.88
   8   2   3    5.85    1.33
   8   2   3    8.26    1.54
   8   2   3    7.07    1.67
   8   2   3    8.42    1.61
   9   2   3   50.65    3.69
   9   2   3   54.34    3.71
   9   2   3   48.06    3.38
   8  -3  -3   39.19    3.99
   8  -3  -3   41.72    3.99
  -8   3   3   38.15    3.93
   7  -3  -3  408.08   15.97
   7  -3  -3  450.39   16.10
   7  -3  -3  434.44   15.54
  -7   3   3  452.89   16.11
   6  -3  -3   60.92    3.61
   6  -3  -3   66.12    4.04
   6  -3  -3   63.45    4.04
  -6   3   3   66.31    4.11
  -6   3   3   59.78    3.95
   5  -3  -3    8.01    1.33
   5  -3  -3    9.14    1.56
   5  -3  -3    9.97    1.73
  -5   3   3    9.85    1.65
  -5   3   3    7.12    1.51
   4  -3  -3    9.72    1.51
   4  -3  -3    9.44    1.30
   4  -3  -3    6.86    1.22
  -4   3   3    7.46    1.45
  -4   3   3    8.43    1.51
   3  -3  -3   13.28    1.53
   3  -3  -3   12.41    1.33
   3  -3  -3   20.01    1.90
  -3   3   3   13.86    1.71
  -3   3   3   13.45    1.66
  -3   3   3   14.08    1.73
   2  -3  -3   37.89    2.14
   2  -3  -3   41.53    2.01
   2  -3  -3   42.06    2.27
  -2   3   3   43.41    2.32
  -2   3   3   41.22    2.38
  -2   3   3   39.96    2.00
  -2   3   3   44.32    2.41
  -2   3   3   38.85    2.24
   1  -3  -3    3.48    0.52
   1  -3  -3    4.66    0.70
  -1   3   3    3.12    0.70
  -1   3   3    4.08    0.57
  -1   3   3    4.35    0.74
  -1   3   3    3.60    0.66
  -1   3   3    3.40    0.67
   0  -3  -3    6.89    0.45
   0  -3  -3    7.53    0.76
   0   3   3    7.50    0.78
   0   3   3    5.78    0.74
   0   3   3    8.11    0.87
   0   3   3    5.91    0.72
   1   3   3   47.32    1.86
   1   3   3   47.18    1.85
   1   3   3   49.74    1.87
   1   3   3   47.35    1.92
   2   3   3   16.34    0.66
   2   3   3   16.47    0.71
   2   3   3   16.99    0.77
   2   3   3   15.55    0.69
   2   3   3   16.39    0.74
  -3  -3  -3  453.57   13.80
   3   3   3  436.93   13.59
   3   3   3  444.26   13.61
   3   3   3  457.82   13.75
   3   3   3  452.82   13.80
   3   3   3  481.90   13.77
  -4  -3  -3  627.64   18.85
   4   3   3  620.67   18.83
   4   3   3  596.41   18.80
   4   3   3  622.21   18.70
   4   3   3  605.83   18.83
   4   3   3  630.15   18.80
   4   3   3  605.81   19.52
   5   3   3  165.92    5.94
   5   3   3  149.20    5.53
   5   3   3  144.89    5.54
   5   3   3  147.58    5.46
   5   3   3  146.87    5.65
   5   3   3  153.58    5.70
   5   3   3  153.93    5.72
   6   3   3    0.64    0.56
   6   3   3    1.28    0.54
   6   3   3    0.96    0.49
   6   3   3    2.04    0.65
   6   3   3    2.05    0.76
   6   3   3    0.83    0.47
   7   3   3    7.25    1.25
   7   3   3    8.78    1.37
   7   3   3    8.73    1.57
   7   3   3    5.85    1.23
   8   3   3    0.53    0.66
   8   3   3    0.01    0.65
   8   3   3   -0.45    0.48
   9   3   3   36.69    3.46
   9   3   3   30.29    3.11
   9   3   3   35.47    3.50
   8  -4  -3    0.35    0.88
   8  -4  -3   -0.33    0.79
  -8   4   3    0.51    1.02
   7  -4  -3   38.60    3.81
   7  -4  -3   29.66    3.06
  -7   4   3   31.40    3.62
  -7   4   3   35.17    4.23
   6  -4  -3    4.00    1.19
   6  -4  -3    5.99    1.42
   6  -4  -3    3.09    0.99
  -6   4   3    3.47    1.30
  -6   4   3    5.05    1.48
   5  -4  -3  161.66    7.26
   5  -4  -3  176.93    7.33
   5  -4  -3  171.07    6.90
  -5   4   3  162.21    7.45
  -5   4   3  182.51    7.71
   4  -4  -3  258.59    9.24
   4  -4  -3  253.74    9.61
   4  -4  -3  275.94    9.79
  -4   4   3  262.16    9.91
  -4   4   3  254.08    9.88
   3  -4  -3   20.37    1.98
   3  -4  -3   29.00    2.03
   3  -4  -3   28.82    1.80
  -3   4   3   34.24    2.83
  -3   4   3   26.75    2.46
  -3   4   3   30.85    2.63
   2  -4  -3   16.68    1.14
   2  -4  -3   13.81    1.43
   2  -4  -3    8.96    1.17
  -2   4   3   16.63    1.74
  -2   4   3    9.99    1.28
  -2   4   3   17.87    1.19
  -2   4   3   13.09    1.52
   1  -4  -3  283.97    9.45
   1  -4  -3  285.27    9.36
   1  -4  -3  299.15    9.16
  -1   4   3  292.61    9.77
  -1   4   3  289.55    9.63
  -1   4   3  293.57    9.66
  -1   4   3  286.28    9.76
  -1   4   3  282.40    9.63
  -1   4   3  295.06    9.19
   0  -4  -3   -0.04    0.15
   0  -4  -3   -0.16    0.16
   0  -4  -3   -0.01    0.23
   0   4   3    0.01    0.23
   0   4   3   -0.17    0.23
   0   4   3    0.04    0.25
   0   4   3    0.06    0.15
   0   4   3    0.01    0.23
   1   4   3   24.84    1.20
   1   4   3   24.72    1.15
   1   4   3   26.41    1.23
   1   4   3   24.53    1.20
   3   4   3   47.45    1.86
   4   4   3    8.97    1.50
   4   4   3   10.03    0.85
   4   4   3    8.59    0.78
   4   4   3    9.39    0.67
   4   4   3    9.44    0.83
   4   4   3    9.65    0.95
   5   4   3    7.74    0.91
   5   4   3    6.97    0.95
   5   4   3    7.54    1.00
   5   4   3    7.19    1.35
   5   4   3    7.30    0.96
   5   4   3    8.15    1.06
   5   4   3    7.59    0.95
   6   4   3  176.79    6.75
   6   4   3  181.38    6.75
   6   4   3  178.16    6.80
   6   4   3  191.86    7.08
   6   4   3  190.52    6.73
   6   4   3  181.64    7.21
   7   4   3   13.27    1.68
   7   4   3   12.01    1.75
   7   4   3   12.94    1.59
   7   4   3   11.30    1.56
   8   4   3   15.07    1.92
   8   4   3   18.06    2.16
   8   4   3   14.03    1.85
   9   4   3   76.45    4.37
   9   4   3   75.56    4.35
   9   4   3   64.59    4.09
   7  -5  -3   19.26    2.44
   7  -5  -3   26.05    3.22
  -7   5   3   25.97    3.41
  -7   5   3   21.90    3.07
   6  -5  -3    6.23    1.51
   6  -5  -3    7.67    1.46
  -6   5   3    4.69    1.53
  -6   5   3    5.69    1.63
   5  -5  -3  161.88    7.11
   5  -5  -3  157.32    6.62
  -5   5   3  171.91    7.54
  -5   5   3  160.23    7.42
   4  -5  -3   65.35    3.63
   4  -5  -3   62.84    3.57
   4  -5  -3   66.71    3.31
  -4   5   3   63.82    3.87
  -4   5   3   63.16    3.89
   3  -5  -3  523.40   16.85
   3  -5  -3  509.55   16.38
   3  -5  -3  531.43   16.80
  -3   5   3  496.59   17.22
  -3   5   3  516.61   17.32
  -3   5   3  501.95   17.04
   2  -5  -3  339.59   11.03
   2  -5  -3  339.54   11.12
   2  -5  -3  334.47   10.77
  -2   5   3  328.58   10.84
  -2   5   3  343.48   11.60
  -2   5   3  311.53   11.28
  -2   5   3  329.41   11.56
   1  -5  -3  735.32   22.96
   1  -5  -3  778.77   22.76
  -1   5   3  729.94   23.46
  -1   5   3  780.07   23.57
  -1   5   3  746.49   22.81
  -1   5   3  745.89   23.32
  -1   5   3  758.39   23.40
   0   5   3    0.51    0.36
   0   5   3    0.42    0.22
   0   5   3    0.62    0.36
   0   5   3    0.63    0.32
   0   5   3    0.37    0.28
   1   5   3   44.38    1.54
   1   5   3   42.95    1.81
   1   5   3   42.30    1.87
   1   5   3   43.79    1.80
   1   5   3   44.47    1.90
   2   5   3  100.74    3.23
   3   5   3    2.21    0.40
   4   5   3  306.44    8.98
   4   5   3  301.69   11.17
   4   5   3  279.44    8.97
   4   5   3  304.18    8.99
   4   5   3  288.07    8.95
   4   5   3  290.92    9.46
   5   5   3  172.12    5.75
   5   5   3  162.00    5.72
   5   5   3  171.34    6.02
   5   5   3  172.18    7.24
   5   5   3  164.80    5.66
   5   5   3  157.14    5.70
   5   5   3  166.80    5.84
   6   5   3  177.43    7.49
   6   5   3  219.63    7.59
   6   5   3  215.86    7.43
   6   5   3  221.87    8.58
   6   5   3  216.90    7.67
   6   5   3  220.48    7.50
   7   5   3    1.54    0.68
   7   5   3    0.64    0.50
   7   5   3    1.34    0.70
   8   5   3  128.69    5.72
   8   5   3  136.35    5.86
   8   5   3  127.81    5.76
   9   5   3    6.60    1.47
   9   5   3    5.66    1.37
   9   5   3    8.39    1.65
   9   5   3    7.44    1.63
   7  -6  -3   59.23    3.99
  -7   6   3   70.43    5.91
  -7   6   3   66.50    4.91
   6  -6  -3   48.98    3.64
   6  -6  -3   50.02    3.32
  -6   6   3   49.27    4.64
  -6   6   3   54.64    4.12
   5  -6  -3    7.18    1.37
   5  -6  -3    7.59    1.61
  -5   6   3    6.03    1.70
  -5   6   3    7.16    1.85
   4  -6  -3   14.54    1.89
   4  -6  -3   21.08    2.04
  -4   6   3   15.69    2.27
  -4   6   3   17.80    2.41
   3  -6  -3    3.58    0.77
   3  -6  -3    5.45    1.02
  -3   6   3    4.73    1.19
  -3   6   3    4.65    1.26
   2  -6  -3  336.08   11.14
   2  -6  -3  328.09   10.85
   2  -6  -3  339.23   11.04
  -2   6   3  331.34   11.80
  -2   6   3  342.89   11.85
  -2   6   3  324.31   11.56
   1  -6  -3   55.10    2.28
  -1   6   3   56.04    3.02
  -1   6   3   57.51    3.03
  -1   6   3   53.62    2.44
  -1   6   3   56.74    2.93
  -1   6   3   60.40    2.94
   0   6   3    4.18    0.82
   0   6   3    2.75    0.62
   0   6   3    3.01    0.66
   0   6   3    4.09    0.80
   0   6   3    2.72    0.47
   1   6   3   25.47    1.36
   1   6   3   25.17    1.35
   1   6   3   25.26    1.15
   1   6   3   25.83    1.48
   1   6   3   26.31    1.46
   1   6   3   25.39    1.37
   2   6   3    0.60    0.20
   2   6   3    0.47    0.21
   2   6   3    0.46    0.21
   2   6   3    0.41    0.18
   2   6   3    0.65    0.25
   3   6   3   15.05    0.94
   4   6   3   82.11    4.76
   4   6   3   73.18    3.02
   5   6   3   78.69    4.57
   5   6   3   66.44    2.65
   5   6   3   69.25    2.65
   5   6   3   65.41    3.03
   5   6   3   60.14    2.74
   5   6   3   71.97    2.70
   6   6   3   16.92    2.49
   6   6   3   14.50    1.49
   6   6   3   12.32    1.47
   6   6   3   14.54    1.35
   6   6   3   16.57    1.50
   7   6   3   16.56    1.73
   7   6   3   17.15    1.72
   7   6   3   16.32    1.88
   7   6   3   19.40    2.68
   7   6   3   18.25    1.76
   8   6   3   25.51    2.40
   8   6   3   24.37    2.40
   8   6   3   21.10    2.26
   6  -7  -3  142.88    6.50
  -6   7   3  142.71    7.59
  -6   7   3  150.09    7.71
   5  -7  -3   35.68    3.12
  -5   7   3   43.02    4.34
  -5   7   3   47.08    4.45
   4  -7  -3    1.53    0.62
  -4   7   3    2.12    1.13
  -4   7   3    2.07    1.00
   3  -7  -3   24.57    2.09
  -3   7   3   21.00    2.61
  -3   7   3   18.86    2.44
  -2   7   3  451.98   15.11
  -2   7   3  419.69   14.99
  -1   7   3   25.47    2.38
  -1   7   3   29.01    2.18
  -1   7   3   28.70    1.65
  -1   7   3   25.20    2.26
   0   7   3   33.44    1.94
   0   7   3   30.33    2.00
   0   7   3   23.85    1.89
   0   7   3   28.56    1.51
   0   7   3   31.91    2.04
   1   7   3   51.68    2.11
   1   7   3   53.63    2.55
   1   7   3   52.72    2.40
   1   7   3   52.03    2.51
   1   7   3   53.11    2.44
   2   7   3    4.37    0.57
   2   7   3    3.92    0.60
   2   7   3    4.30    0.61
   2   7   3    3.65    0.51
   2   7   3    4.00    0.58
   3   7   3   84.69    3.17
   4   7   3    4.85    0.75
   4   7   3    4.43    1.46
   5   7   3   23.12    1.21
   5   7   3   20.20    1.14
   5   7   3   25.97    3.27
   5   7   3   19.99    1.71
   6   7   3    2.54    1.27
   6   7   3    0.59    0.57
   6   7   3    0.48    0.39
   7   7   3   40.29    2.38
   7   7   3   46.60    3.74
   7   7   3   41.30    2.39
   8   7   3   59.79    3.29
   8   7   3   59.43    3.32
   6  -8  -3  111.38    5.60
  -6   8   3  115.42    6.84
  -6   8   3  122.34    7.04
   5  -8  -3    0.02    0.55
  -5   8   3   -0.12    0.90
  -5   8   3    0.35    0.99
  -4   8   3   -0.53    0.75
  -4   8   3   -0.28    0.66
  -3   8   3    9.40    1.88
  -3   8   3    8.93    1.80
  -2   8   3   58.84    3.73
  -2   8   3   63.60    3.84
  -1   8   3    4.06    1.07
  -1   8   3    3.66    1.00
   0   8   3   45.32    2.81
   0   8   3   53.33    2.95
   1   8   3   14.30    1.55
   1   8   3   14.33    1.41
   1   8   3   14.04    1.50
   2   8   3    0.10    0.40
   2   8   3    0.83    0.40
   2   8   3    0.48    0.37
   3   8   3    9.28    0.84
   3   8   3    6.62    0.69
   3   8   3    6.97    0.77
   4   8   3   21.96    3.35
   5   8   3   24.36    1.23
   5   8   3   21.07    3.20
   5   8   3   23.51    1.25
   5   8   3   20.75    1.17
   6   8   3    2.34    1.30
   6   8   3    0.84    0.42
   6   8   3    1.00    0.45
   7   8   3    4.68    0.90
   7   8   3    7.15    2.09
   7   8   3    4.66    0.90
  -4   9   3   67.86    4.75
  -4   9   3   69.91    4.79
  -3   9   3   15.48    2.40
  -3   9   3   15.37    2.39
  -2   9   3    7.28    1.61
  -2   9   3    4.29    1.29
  -1   9   3    2.59    1.03
  -1   9   3    4.12    1.11
   0   9   3  110.80    5.21
   0   9   3  121.78    5.32
   1   9   3   15.33    1.82
   1   9   3   16.41    1.86
   2   9   3   69.71    3.22
   2   9   3   70.46    3.25
   3   9   3   39.26    4.70
   3   9   3   46.55    2.22
   3   9   3   47.04    2.08
   3   9   3   44.16    2.21
   4   9   3  230.79   10.82
   4   9   3  209.83    7.02
   4   9   3  206.61    6.81
   4   9   3  223.44    7.10
   5   9   3    0.24    1.05
   5   9   3    0.02    0.35
   5   9   3    0.27    0.34
   6   9   3    8.41    1.05
   6   9   3    8.73    2.25
  -3  10   3   -0.32    0.69
  -3  10   3   -0.60    0.75
  -2  10   3    5.01    1.47
  -2  10   3    4.30    1.41
  -1  10   3   54.14    3.63
  -1  10   3   50.87    3.59
   0  10   3    5.68    1.33
   0  10   3    3.42    1.11
   1  10   3   31.69    2.74
   1  10   3   30.08    2.29
   2  10   3    5.85    1.11
   2  10   3    4.92    1.02
   3  10   3   32.79    2.04
   3  10   3   32.46    2.01
   3  10   3   32.50    4.50
   4  10   3   12.18    1.25
   4  10   3   12.43    2.82
   0  11   3   94.12    5.08
   0  11   3   91.34    5.01
   1  11   3   -0.26    0.69
   1  11   3    0.52    0.71
  -1  10  -4    2.99    1.54
  -1  10  -4    1.98    1.47
  -1  10  -4    1.63    1.36
   3   9  -4    1.91    1.61
   3   9  -4    1.90    1.29
   3   9  -4    2.40    1.24
   2   9  -4    0.32    0.91
   2   9  -4    0.17    1.04
   2   9  -4    0.95    1.21
   1   9  -4    1.88    1.20
   1   9  -4    2.99    1.52
   1   9  -4    0.93    1.03
   0   9  -4    4.39    1.67
   0   9  -4    5.44    1.56
   0   9  -4    3.95    1.57
  -1   9  -4   10.07    2.21
  -1   9  -4    7.59    1.83
  -1   9  -4    7.27    2.09
  -2   9  -4   12.65    2.44
  -2   9  -4   13.16    2.48
  -2   9  -4   13.49    2.72
  -3   9  -4   18.18    2.96
  -3   9  -4   18.23    2.85
  -3   9  -4   25.07    3.56
  -4   9  -4  161.08    8.64
  -4   9  -4  180.50    8.91
  -4   9  -4  164.10    8.70
   4   8  -4   23.90    3.02
   4   8  -4   22.57    3.03
   3   8  -4    3.06    1.70
   3   8  -4    6.73    1.62
   3   8  -4    5.35    1.59
   2   8  -4  105.50    6.35
   2   8  -4  104.28    5.50
   2   8  -4   93.04    5.57
   1   8  -4  138.85    6.52
   1   8  -4  122.29    6.52
   1   8  -4  118.95    6.93
   0   8  -4  195.94    9.10
   0   8  -4  178.37    8.11
   0   8  -4  174.44    8.22
  -1   8  -4    8.57    1.90
  -1   8  -4    6.79    1.69
  -1   8  -4    7.36    1.88
  -2   8  -4   26.56    3.21
  -2   8  -4   31.88    3.46
  -2   8  -4   34.60    3.90
  -3   8  -4    6.79    1.79
  -3   8  -4    8.97    2.05
  -3   8  -4    9.15    2.03
  -4   8  -4  144.91    7.52
  -4   8  -4  138.96    7.58
  -4   8  -4  146.75    7.65
  -5   8  -4  250.05   11.29
  -5   8  -4  245.17   11.23
  -5   8  -4  247.79   10.79
  -6   8  -4   21.51    3.49
  -6   8  -4   18.52    3.29
   5   7  -4    3.93    1.56
   5   7  -4    4.68    1.43
   5   7  -4    4.52    1.45
   4   7  -4   15.12    2.25
   4   7  -4   15.28    2.40
   3   7  -4    1.72    0.99
   3   7  -4    1.32    0.96
   2   7  -4   60.14    3.80
   2   7  -4   59.05    4.39
   2   7  -4   69.73    4.26
   1   7  -4   23.09    2.81
   1   7  -4   22.38    3.05
   1   7  -4   21.59    2.55
   0   7  -4   53.82    3.62
   0   7  -4   53.03    3.77
   0   7  -4   52.34    3.95
  -1   7  -4   74.52    4.75
  -1   7  -4   68.19    4.23
  -1   7  -4   70.51    4.48
  -2   7  -4  157.02    7.51
  -2   7  -4  173.34    7.93
  -2   7  -4  169.03    7.80
  -3   7  -4   14.48    2.36
  -3   7  -4   12.96    2.20
  -3   7  -4   12.60    2.22
   3  -7   4   18.69    2.44
  -4   7  -4   70.95    4.44
  -4   7  -4   64.37    4.54
  -4   7  -4   65.48    4.51
   4  -7   4   49.54    3.88
  -5   7  -4   54.92    4.99
  -5   7  -4   59.57    4.50
  -5   7  -4   60.22    4.05
   5  -7   4   57.06    4.22
  -6   7  -4   -0.26    0.95
  -6   7  -4   -0.24    0.95
   6  -7   4   -0.33    0.83
  -7   7  -4   33.58    4.11
   6   6  -4    5.11    1.56
   6   6  -4    4.21    1.39
   6   6  -4    4.70    1.49
   5   6  -4    0.61    0.78
   5   6  -4    2.86    1.24
   5   6  -4    2.32    1.07
   4   6  -4    3.24    1.13
   4   6  -4    3.81    1.28
   3   6  -4   51.67    3.35
   3   6  -4   51.41    3.58
   2   6  -4    5.32    1.57
   2   6  -4    7.05    1.50
   2   6  -4    7.79    1.52
   1   6  -4  109.10    5.68
   1   6  -4  107.50    5.10
   1   6  -4  102.35    5.24
  -1  -6   4   91.42    4.84
   0   6  -4  498.92   18.02
   0   6  -4  512.39   17.56
   0   6  -4  549.04   17.99
   0  -6   4  497.96   16.90
   0  -6   4  529.98   16.94
  -1   6  -4  122.49    5.59
  -1   6  -4  110.18    5.62
  -1   6  -4  102.20    5.58
   1  -6   4  113.39    5.09
   1  -6   4  112.55    4.96
  -2   6  -4   36.55    2.96
  -2   6  -4   30.62    3.05
  -2   6  -4   35.63    3.48
   2  -6   4   33.90    2.48
   2  -6   4   42.21    4.17
   2  -6   4   38.20    2.69
  -3   6  -4  221.92    9.11
  -3   6  -4  220.98    9.25
  -3   6  -4  219.71    9.28
   3  -6   4  217.60    8.89
   3  -6   4  225.29    8.76
  -4   6  -4  113.48    5.62
  -4   6  -4  118.76    6.12
  -4   6  -4  121.93    6.14
   4  -6   4  111.15    5.51
   4  -6   4   95.35    5.47
  -5   6  -4    4.75    1.21
  -5   6  -4    3.35    1.39
  -5   6  -4    6.19    1.69
   5  -6   4    5.01    1.54
   5  -6   4    4.29    1.28
  -6   6  -4    1.71    1.18
  -6   6  -4    3.06    1.35
   6  -6   4    1.47    1.06
   6  -6   4    3.22    1.12
  -7   6  -4   -0.48    0.83
   7  -6   4    0.14    0.83
   7  -6   4    0.51    0.99
  -8   6  -4    0.97    1.26
   8  -6   4    0.14    1.18
   8  -6   4    1.23    1.22
   7   5  -4   22.66    2.93
   7   5  -4   16.42    2.59
   7   5  -4   16.27    2.70
   6   5  -4   17.17    2.58
   6   5  -4   12.02    2.07
   6   5  -4   12.89    2.24
   5   5  -4    4.61    1.41
   5   5  -4    4.23    1.23
   5   5  -4    4.25    1.25
   4   5  -4   29.92    3.09
   4   5  -4   28.90    2.85
   3   5  -4   57.73    3.48
   3   5  -4   58.08    3.69
   2   5  -4  137.85    6.27
   2   5  -4  137.18    5.67
   2   5  -4  144.52    6.07
  -2  -5   4  142.26    5.52
   1   5  -4    5.21    1.25
   1   5  -4    5.58    1.18
   1   5  -4    5.52    1.01
   1   5  -4    5.58    1.32
  -1  -5   4    3.39    0.83
  -1  -5   4    4.35    0.88
   0   5  -4  246.94    8.78
   0   5  -4  253.38    9.28
   0   5  -4  236.63    9.53
   0   5  -4  245.21    9.48
   0  -5   4  248.97    8.88
  -1   5  -4  128.41    5.66
  -1   5  -4  122.84    5.14
  -1   5  -4  128.03    5.81
  -1   5  -4  127.10    5.80
   1  -5   4  121.97    5.29
   1  -5   4  114.80    5.06
   1  -5   4  131.11    5.31
  -2   5  -4   17.34    2.22
  -2   5  -4   11.43    1.68
  -2   5  -4   12.31    1.87
  -2   5  -4   16.36    2.09
   2  -5   4   17.27    1.86
   2  -5   4   11.33    1.60
   2  -5   4   13.15    1.69
  -3   5  -4  193.45    7.69
  -3   5  -4  203.48    8.19
  -3   5  -4  181.55    7.90
   3  -5   4  194.54    7.60
   3  -5   4  177.01    7.34
   3  -5   4  188.70    7.73
  -4   5  -4  528.66   18.37
  -4   5  -4  514.06   17.61
  -4   5  -4  532.48   18.41
   4  -5   4  523.45   18.12
   4  -5   4  522.89   17.91
   4  -5   4  542.36   17.79
  -5   5  -4    5.52    1.56
  -5   5  -4    5.16    1.13
  -5   5  -4    5.40    1.47
   5  -5   4    6.83    1.58
   5  -5   4    5.64    1.37
   5  -5   4    5.76    1.41
  -6   5  -4   49.86    5.07
  -6   5  -4   54.95    4.04
  -6   5  -4   57.02    4.80
   6  -5   4   47.30    4.53
   6  -5   4   52.31    3.60
   6  -5   4   52.13    3.70
  -7   5  -4    1.95    1.25
   7  -5   4    0.54    1.19
   7  -5   4    1.26    1.01
  -8   5  -4    0.17    1.01
   8  -5   4   -0.91    0.82
   8  -5   4   -0.31    0.92
   7   4  -4   35.34    3.87
   7   4  -4   25.27    3.09
   7   4  -4   23.93    2.93
   6   4  -4   12.13    1.97
   6   4  -4   14.48    2.41
   6   4  -4   11.02    2.03
   5   4  -4    9.18    1.60
   5   4  -4    9.74    1.69
   5   4  -4   10.77    1.91
   4   4  -4   29.97    2.81
   4   4  -4   30.32    2.92
   3   4  -4    0.83    0.66
   3   4  -4    1.31    0.66
   3   4  -4    2.52    0.80
  -3  -4   4    1.49    0.57
  -3  -4   4    3.38    0.78
   2   4  -4    1.36    0.69
   2   4  -4    1.04    0.52
   2   4  -4    0.74    0.69
  -2  -4   4    1.41    0.50
  -2  -4   4    1.16    0.54
   1   4  -4  541.17   17.63
   1   4  -4  523.16   17.32
   1   4  -4  528.64   17.81
   1   4  -4  524.27   16.91
  -1  -4   4  522.56   16.86
   0   4  -4    4.73    1.08
   0   4  -4    4.21    0.84
   0   4  -4    4.12    1.06
   0   4  -4    5.87    1.19
   0  -4   4    6.65    1.01
   0  -4   4    4.00    0.83
  -1   4  -4  163.31    6.56
  -1   4  -4  187.30    7.34
  -1   4  -4  180.39    7.08
  -1   4  -4  183.25    7.15
   1  -4   4  177.05    6.84
   1  -4   4  189.22    6.74
  -2   4  -4    1.48    0.64
  -2   4  -4    0.83    0.66
  -2   4  -4    0.53    0.54
   2  -4   4    0.97    0.55
   2  -4   4    1.42    0.61
   2  -4   4    0.81    0.55
  -3   4  -4    2.00    0.84
  -3   4  -4    3.05    0.94
  -3   4  -4    1.67    0.68
   3  -4   4    2.28    0.81
   3  -4   4    1.08    0.63
   3  -4   4    2.33    0.76
  -4   4  -4    1.12    0.55
  -4   4  -4    0.87    0.76
  -4   4  -4   -0.10    0.47
   4  -4   4    0.45    0.55
   4  -4   4    0.14    0.49
   4  -4   4    0.45    0.52
  -5   4  -4   62.69    3.94
  -5   4  -4   67.56    4.06
  -5   4  -4   52.84    2.89
   5  -4   4   56.65    3.52
   5  -4   4   56.89    3.60
   5  -4   4   51.00    3.60
  -6   4  -4   33.76    2.05
  -6   4  -4   29.30    3.20
  -6   4  -4   36.41    3.62
   6  -4   4   32.79    3.34
   6  -4   4   29.04    3.23
   6  -4   4   35.07    3.30
  -7   4  -4   55.72    3.99
   7  -4   4   52.12    3.75
   7  -4   4   33.79    3.88
   7  -4   4   52.49    3.34
   7  -4   4   42.42    3.84
  -8   4  -4   27.45    3.42
   8  -4   4   39.37    3.90
   8  -4   4   21.31    3.25
   8  -4   4   29.30    3.40
   8  -4   4   33.32    3.26
   9  -4   4   15.55    2.89
   9  -4   4   17.25    2.81
   9  -4   4   20.80    2.87
   7   3  -4    3.74    1.32
   7   3  -4    2.74    1.20
   7   3  -4    3.69    1.35
   6   3  -4    1.82    0.97
   6   3  -4    2.79    1.03
   6   3  -4    2.20    1.11
   5   3  -4   21.15    2.56
   5   3  -4   23.96    2.61
   5   3  -4   22.33    2.49
   4   3  -4    0.22    0.57
   4   3  -4    0.65    0.64
   4   3  -4    0.93    0.61
  -4  -3   4    0.04    0.38
  -4  -3   4    1.04    0.51
   3   3  -4    7.83    1.31
   3   3  -4    5.17    1.13
   3   3  -4    6.62    1.20
  -3  -3   4    5.09    0.89
   2   3  -4  125.17    5.18
   2   3  -4  122.50    4.96
   2   3  -4  118.58    5.36
  -2  -3   4  122.88    4.84
  -2  -3   4  119.61    4.72
   1   3  -4  316.49   10.99
   1   3  -4  314.26   10.64
   1   3  -4  331.10   11.30
  -1  -3   4  320.60   10.63
  -1  -3   4  318.34   10.56
   0   3  -4  525.68   17.45
   0   3  -4  527.87   16.87
   0   3  -4  546.65   17.29
   0  -3   4  529.83   16.85
   0  -3   4  537.60   16.97
  -1   3  -4    9.99    1.40
  -1   3  -4    7.00    1.18
  -1   3  -4    9.52    1.16
  -1   3  -4    8.35    1.25
   1  -3   4    9.60    1.22
   1  -3   4   14.23    1.46
  -2   3  -4   49.11    2.89
  -2   3  -4   52.85    2.67
  -2   3  -4   53.23    3.07
   2  -3   4   49.84    2.66
   2  -3   4   51.42    2.82
  -3   3  -4  103.06    4.17
  -3   3  -4  100.97    4.80
  -3   3  -4  109.90    4.94
   3  -3   4  106.57    4.72
   3  -3   4   99.32    4.55
   3  -3   4  100.89    4.49
  -4   3  -4   44.25    2.25
  -4   3  -4   42.10    2.90
  -4   3  -4   46.58    3.06
   4  -3   4   44.00    2.80
   4  -3   4   44.78    2.76
   4  -3   4   49.04    3.04
  -5   3  -4  760.61   23.49
  -5   3  -4  780.23   25.28
  -5   3  -4  788.59   25.27
   5  -3   4  773.58   24.79
   5  -3   4  779.88   25.00
   5  -3   4  747.89   25.10
  -6   3  -4  100.18    5.27
  -6   3  -4   91.44    5.16
  -6   3  -4   97.37    3.66
   6  -3   4  104.95    5.28
   6  -3   4   97.67    5.03
   6  -3   4  103.11    5.45
   6  -3   4  106.77    4.76
  -7   3  -4    9.17    1.84
   7  -3   4   12.07    1.87
   7  -3   4    7.91    1.71
   7  -3   4   12.51    2.29
   7  -3   4   10.96    1.90
  -8   3  -4   14.13    2.35
   8  -3   4   16.44    2.58
   8  -3   4   15.37    2.40
   8  -3   4   11.22    2.34
   8  -3   4   14.88    2.15
   9  -3   4  131.47    6.90
   9  -3   4   83.33    6.34
   9  -3   4  129.11    6.80
   9  -3   4  126.94    6.15
   8   2  -4    0.12    0.92
   8   2  -4    0.83    0.97
   8   2  -4    0.53    0.96
   7   2  -4   12.43    2.01
   7   2  -4    8.41    1.90
   7   2  -4   10.51    1.96
   6   2  -4  262.68   10.56
   6   2  -4  264.28   10.25
   6   2  -4  256.45   10.29
   5   2  -4    3.32    1.08
   5   2  -4    4.47    1.12
   5   2  -4    3.33    0.99
  -5  -2   4    5.27    1.03
   4   2  -4   26.66    2.50
   4   2  -4   21.00    2.33
   4   2  -4   26.62    2.58
   4   2  -4   32.51    2.34
  -4  -2   4   26.34    1.87
  -4  -2   4   29.07    1.98
   3   2  -4   35.42    2.44
   3   2  -4   34.88    2.28
   3   2  -4   29.86    2.13
  -3  -2   4   30.31    1.96
  -3  -2   4   29.15    1.89
   2   2  -4    6.27    1.07
   2   2  -4    7.97    1.26
   2   2  -4    8.16    1.15
  -2  -2   4    8.47    1.10
  -2  -2   4    7.27    1.01
   1   2  -4   69.09    3.49
   1   2  -4   71.00    3.35
   1   2  -4   69.31    3.11
  -1  -2   4   70.84    3.06
  -1  -2   4   68.33    3.06
   0   2  -4   41.91    2.45
   0   2  -4   36.54    2.21
   0   2  -4   36.32    2.00
   0  -2   4   39.87    2.02
   0  -2   4   35.96    2.02
  -1   2  -4   75.03    3.55
  -1   2  -4   69.76    3.35
  -1   2  -4   69.87    3.05
   1  -2   4   72.12    3.12
   1  -2   4   73.45    3.20
   1  -2   4   66.80    3.47
  -2   2  -4   54.91    2.97
  -2   2  -4   54.86    2.90
   2  -2   4   57.03    2.70
   2  -2   4   50.26    2.56
   2  -2   4   58.68    2.83
  -3   2  -4    2.30    0.72
  -3   2  -4    3.00    0.55
  -3   2  -4    3.76    0.92
   3  -2   4    2.67    0.72
   3  -2   4    2.45    0.67
  -4   2  -4    3.72    0.50
  -4   2  -4    2.76    0.82
  -4   2  -4    3.59    0.96
   4  -2   4    2.44    0.80
   4  -2   4    3.82    0.92
   4  -2   4    2.67    0.74
  -5   2  -4  455.99   15.35
  -5   2  -4  432.25   15.24
   5  -2   4  443.31   14.58
   5  -2   4  431.91   15.05
   5  -2   4  457.89   15.38
   5  -2   4  442.13   14.97
  -6   2  -4   19.79    2.32
  -6   2  -4   28.39    2.89
   6  -2   4   23.18    2.71
   6  -2   4   17.75    1.95
   6  -2   4   27.21    2.70
   6  -2   4   21.55    2.42
  -7   2  -4   15.27    2.17
   7  -2   4   16.01    2.18
   7  -2   4   19.76    2.22
   7  -2   4   20.29    2.54
   7  -2   4   14.81    2.36
  -8   2  -4    8.99    1.80
   8  -2   4    5.80    1.66
   8  -2   4    8.76    1.80
   8  -2   4    8.91    1.84
   8  -2   4    7.88    1.57
   9  -2   4  152.42    7.11
   9  -2   4  163.40    7.93
   9  -2   4  147.63    8.22
   9  -2   4  153.08    7.67
   8   1  -4    1.99    1.17
   8   1  -4    2.50    1.22
   8   1  -4    2.23    1.21
   7   1  -4   -0.62    0.51
   7   1  -4   -0.30    0.68
   7   1  -4    0.46    0.76
   6   1  -4  197.40    8.39
   6   1  -4  206.41    8.59
   6   1  -4  203.68    8.76
  -6  -1   4  208.49    8.11
   5   1  -4  127.95    5.69
   5   1  -4  133.32    6.02
   5   1  -4  120.75    5.72
  -5  -1   4  121.99    5.36
  -5  -1   4  125.90    5.45
   4   1  -4    3.17    0.82
   4   1  -4    2.63    0.89
   4   1  -4    1.43    0.66
  -4  -1   4    3.26    0.84
  -4  -1   4    3.27    0.87
   3   1  -4  103.12    5.01
   3   1  -4  114.02    4.93
   3   1  -4  109.01    5.01
   3   1  -4  119.06    4.82
  -3  -1   4  120.94    4.74
  -3  -1   4  117.73    4.67
   2   1  -4    5.09    0.92
   2   1  -4    6.10    0.98
   2   1  -4    6.49    1.13
  -2  -1   4    5.78    0.91
  -2  -1   4    7.21    1.03
   1   1  -4  606.30   19.00
   1   1  -4  582.39   18.56
   1   1  -4  589.59   18.76
  -1  -1   4  566.07   18.41
  -1  -1   4  620.59   18.55
   0   1  -4   10.24    1.32
   0   1  -4    8.22    0.99
   0   1  -4    7.67    1.08
   0  -1   4    8.08    1.08
   0  -1   4    6.63    0.85
   0  -1   4    8.40    0.94
  -1   1  -4  119.66    4.72
  -1   1  -4  125.28    4.99
  -1   1  -4  124.39    4.86
   1  -1   4  125.67    4.97
   1  -1   4  122.43    4.65
   1  -1   4  132.37    4.64
   1  -1   4  123.64    4.66
  -2   1  -4  278.42    9.67
  -2   1  -4  293.45    9.65
   2  -1   4  287.81    9.43
   2  -1   4  285.67    9.33
   2  -1   4  265.46    9.67
   2  -1   4  277.49    9.05
  -3   1  -4   11.84    1.44
  -3   1  -4    9.43    1.03
  -3   1  -4    8.81    1.18
   3  -1   4    9.79    1.15
   3  -1   4   11.70    1.37
   3  -1   4   10.79    1.44
  -4   1  -4   69.62    3.45
  -4   1  -4   67.77    3.41
   4  -1   4   63.07    2.96
   4  -1   4   67.36    3.23
   4  -1   4   66.13    3.36
   4  -1   4   70.33    3.35
   4  -1   4   58.03    3.39
  -5   1  -4    9.77    1.52
  -5   1  -4    9.25    1.42
   5  -1   4   11.64    1.53
   5  -1   4   10.42    1.33
   5  -1   4   10.15    1.66
   5  -1   4   12.72    1.74
   5  -1   4    9.35    1.48
  -6   1  -4    0.58    0.59
  -6   1  -4    0.15    0.56
   6  -1   4    0.69    0.50
   6  -1   4    0.24    0.59
   6  -1   4    0.39    0.53
   6  -1   4    0.40    0.48
  -7   1  -4    0.18    0.58
   7  -1   4    0.15    0.50
   7  -1   4   -0.63    0.43
   7  -1   4    0.98    0.86
   7  -1   4    0.78    0.72
   8  -1   4   76.08    4.65
   8  -1   4   70.37    4.42
   8  -1   4   77.70    4.19
   8  -1   4   72.68    4.86
   9  -1   4    2.29    0.96
   9  -1   4    2.31    1.19
   9  -1   4    2.67    1.24
   9  -1   4    3.05    1.44
   8   0  -4    0.64    0.83
   8   0  -4    0.24    1.02
   8   0  -4    0.25    0.94
   7   0  -4   18.55    2.70
   7   0  -4   18.33    2.45
   7   0  -4   15.37    2.42
  -7   0   4   15.33    2.22
   6   0  -4    3.47    1.16
   6   0  -4    2.42    1.00
   6   0  -4    2.06    0.95
  -6   0   4    5.92    1.36
   5   0  -4  119.00    5.50
   5   0  -4  128.31    5.91
   5   0  -4  125.66    5.77
  -5   0   4  130.33    5.55
  -5   0   4  119.03    5.45
   4   0  -4  190.14    7.34
   4   0  -4  198.27    7.73
   4   0  -4  185.88    7.49
  -4   0   4  190.80    7.35
  -4   0   4  197.37    7.37
   3   0  -4    3.31    0.84
   3   0  -4    2.57    0.71
   3   0  -4    3.10    0.91
  -3   0   4    2.55    0.72
  -3   0   4    2.37    0.69
   2   0  -4  249.34    9.02
   2   0  -4  271.56    9.31
  -2   0   4  259.52    8.95
  -2   0   4  264.34    8.92
   1   0  -4  424.57   14.00
   1   0  -4  449.41   13.88
  -1   0   4  414.47   13.62
  -1   0   4  424.25   13.87
  -1   0   4  431.31   13.61
   0   0  -4   93.78    3.80
   0   0  -4   89.52    3.90
   0   0   4   88.97    3.81
   0   0   4   94.48    3.59
   0   0   4   93.02    3.60
  -1   0  -4   26.32    1.65
  -1   0  -4   29.26    1.78
   1   0   4   26.09    1.50
   1   0   4   31.54    1.61
   1   0   4   32.36    1.77
  -2   0  -4    3.23    0.54
  -2   0  -4    3.28    0.66
  -2   0  -4    2.47    0.61
   2   0   4    2.78    0.57
   2   0   4    2.65    0.56
   2   0   4    2.46    0.63
   2   0   4    1.96    0.58
  -3   0  -4   12.40    1.14
  -3   0  -4   12.34    1.32
  -3   0  -4   11.45    1.27
   3   0   4   10.57    1.35
   3   0   4   10.33    1.16
   3   0   4   12.60    1.23
   3   0   4   11.00    0.58
   3   0   4   13.05    1.48
  -4   0  -4  618.04   20.04
  -4   0  -4  631.54   20.12
  -4   0  -4  642.23   20.10
   4   0   4  634.88   19.97
   4   0   4  654.73   20.19
   4   0   4  639.64   19.69
   4   0   4  633.12   20.39
  -5   0  -4  329.04   11.14
   5   0   4  315.54   11.45
   5   0   4  325.09   10.85
   5   0   4  320.29   11.09
   5   0   4  323.42   11.24
   5   0   4  333.04   11.43
  -6   0  -4    0.00    0.26
  -6   0  -4    0.26    0.42
   6   0   4   -0.61    0.27
   6   0   4    0.53    0.49
   6   0   4    0.33    0.46
   6   0   4    0.97    0.72
   6   0   4    0.24    0.54
  -7   0  -4    4.45    1.05
   7   0   4    5.76    1.14
   7   0   4    4.27    1.24
   7   0   4    4.64    1.21
   7   0   4    3.85    1.09
   8   0   4    9.98    1.85
   8   0   4   11.89    1.72
   8   0   4   12.69    1.98
   9   0   4    7.71    1.70
   9   0   4    6.67    1.61
   9   0   4    4.24    1.45
   9   0   4    7.80    1.92
  10   0   4    5.75    1.57
  10   0   4   10.47    2.26
  10   0   4    8.68    2.02
   8  -1  -4    3.92    1.29
   8  -1  -4    3.24    1.50
   8  -1  -4    2.44    1.30
   7  -1  -4  120.18    6.31
   7  -1  -4  125.35    6.52
   7  -1  -4  125.13    6.13
  -7   1   4  115.82    5.94
   6  -1  -4  108.64    5.33
   6  -1  -4  112.64    5.73
   6  -1  -4  107.91    5.54
  -6   1   4  109.84    5.77
  -6   1   4  101.20    5.22
   5  -1  -4    9.20    1.64
   5  -1  -4    6.82    1.44
   5  -1  -4    8.61    1.46
  -5   1   4    7.26    1.38
  -5   1   4    8.77    1.56
   4  -1  -4   38.31    2.56
   4  -1  -4   38.95    2.46
   4  -1  -4   38.81    2.67
  -4   1   4   37.90    2.52
  -4   1   4   34.36    2.43
   3  -1  -4   19.64    1.93
   3  -1  -4   24.88    2.05
   3  -1  -4   19.36    2.00
  -3   1   4   23.35    1.78
  -3   1   4   19.00    1.83
   2  -1  -4    9.80    1.10
   2  -1  -4   11.22    1.45
   2  -1  -4    7.52    1.10
  -2   1   4    8.58    1.14
  -2   1   4    8.59    1.13
   1  -1  -4  715.03   22.47
   1  -1  -4  747.62   22.32
  -1   1   4  717.58   22.20
  -1   1   4  694.83   22.35
  -1   1   4  728.41   22.22
   0  -1  -4   98.64    3.95
   0  -1  -4  102.39    3.84
   0   1   4   93.10    3.69
   0   1   4   93.40    3.76
   0   1   4   96.21    3.90
   0   1   4   95.75    3.68
  -1  -1  -4  692.13   21.39
   1   1   4  702.09   21.61
   1   1   4  696.22   21.45
   1   1   4  728.23   21.27
   1   1   4  684.07   21.24
  -2  -1  -4  198.37    6.38
  -2  -1  -4  190.53    6.72
  -2  -1  -4  208.04    6.76
   2   1   4  192.60    6.58
   2   1   4  203.93    6.87
   2   1   4  206.78    6.61
   2   1   4  188.96    6.90
  -3  -1  -4  354.91   11.10
  -3  -1  -4  354.15   11.10
  -3  -1  -4  345.20   10.89
   3   1   4  327.65   11.33
   3   1   4  347.00   11.07
   3   1   4  354.04   11.02
   3   1   4  338.18   11.30
  -4  -1  -4    1.30    0.43
  -4  -1  -4    0.81    0.39
   4   1   4    1.04    0.47
   4   1   4    0.96    0.23
   4   1   4    0.55    0.45
   4   1   4    0.83    0.35
   4   1   4    0.83    0.44
   4   1   4    0.49    0.33
  -5  -1  -4   29.49    1.81
  -5  -1  -4   36.27    1.94
   5   1   4   31.13    1.99
   5   1   4   31.95    2.11
   5   1   4   29.60    2.12
   5   1   4   30.17    1.84
   5   1   4   29.50    2.14
   5   1   4   31.01    2.04
  -6  -1  -4   15.29    1.59
  -6  -1  -4   17.60    1.72
   6   1   4   16.98    1.76
   6   1   4   16.23    1.75
   6   1   4   16.03    1.85
   6   1   4   18.21    2.06
   6   1   4   14.83    1.95
   7   1   4   17.74    2.20
   7   1   4   20.86    2.08
   7   1   4   19.94    2.29
   7   1   4   15.66    2.20
   8   1   4   14.33    2.14
   8   1   4   11.22    1.67
   8   1   4    7.69    1.72
   8   1   4   12.22    1.86
   9   1   4    5.57    1.78
   9   1   4    6.55    1.55
   9   1   4    6.51    1.41
   9   1   4    5.86    1.57
  10   1   4   41.71    4.24
  10   1   4   52.75    4.49
  10   1   4   38.04    4.03
   8  -2  -4   78.44    5.20
   8  -2  -4   73.14    4.74
   8  -2  -4   89.16    7.36
  -8   2   4   75.82    4.90
   7  -2  -4   27.72    3.19
   7  -2  -4   26.60    3.15
   7  -2  -4   26.00    2.97
  -7   2   4   29.85    3.33
   6  -2  -4   36.07    3.17
   6  -2  -4   30.96    3.15
   6  -2  -4   34.07    3.28
  -6   2   4   40.19    3.57
  -6   2   4   32.16    3.26
   5  -2  -4    1.68    0.85
   5  -2  -4    1.21    0.69
   5  -2  -4    2.85    1.06
  -5   2   4    1.17    0.81
  -5   2   4    1.39    0.80
   4  -2  -4    4.40    1.11
   4  -2  -4    4.23    0.95
   4  -2  -4    4.27    1.02
  -4   2   4    3.25    0.98
  -4   2   4    6.83    1.27
   3  -2  -4    5.62    0.96
   3  -2  -4    5.18    1.05
   3  -2  -4    6.15    1.12
  -3   2   4    7.37    1.25
  -3   2   4    6.11    1.15
   2  -2  -4   20.60    1.38
   2  -2  -4   21.62    1.59
   2  -2  -4   25.08    2.12
  -2   2   4   17.80    1.72
  -2   2   4   18.71    1.80
  -2   2   4   17.83    1.73
   1  -2  -4  209.29    6.96
   1  -2  -4  221.07    7.51
   1  -2  -4  209.30    7.30
  -1   2   4  198.52    7.30
  -1   2   4  220.13    7.39
  -1   2   4  211.04    7.33
  -1   2   4  205.98    7.39
   0  -2  -4  182.31    6.22
   0   2   4  189.19    6.24
   0   2   4  179.25    6.21
   0   2   4  177.29    6.26
   0   2   4  175.44    6.35
  -1  -2  -4    7.07    0.77
  -1  -2  -4    8.40    0.90
   1   2   4    8.33    0.83
   1   2   4    8.24    0.82
   1   2   4    7.83    0.85
   1   2   4    7.21    0.89
  -2  -2  -4   17.74    0.93
  -2  -2  -4   17.69    0.85
  -2  -2  -4   19.74    0.99
  -2  -2  -4   16.13    0.90
   2   2   4   16.24    1.00
   2   2   4   18.15    1.15
   2   2   4   17.44    1.20
   2   2   4   17.24    1.02
  -3  -2  -4  127.45    4.25
  -3  -2  -4  124.62    4.01
  -3  -2  -4  127.29    4.04
   3   2   4  120.63    4.60
   3   2   4  122.69    4.30
   3   2   4  127.05    4.20
   3   2   4  124.31    4.58
   3   2   4  119.64    4.33
  -4  -2  -4   72.24    2.98
  -4  -2  -4   76.01    2.60
   4   2   4   73.44    2.94
   4   2   4   70.96    3.22
   4   2   4   75.93    3.13
   4   2   4   76.35    3.29
   4   2   4   73.40    3.02
  -5  -2  -4    0.34    0.25
   5   2   4    0.48    0.40
   5   2   4    0.23    0.28
   5   2   4    0.09    0.41
   5   2   4    0.11    0.34
   5   2   4   -0.05    0.28
   5   2   4   -0.10    0.34
   5   2   4    0.48    0.37
  -6  -2  -4   13.58    0.98
   6   2   4   11.64    1.48
   6   2   4   12.80    1.63
   6   2   4   16.03    1.91
   6   2   4   14.91    1.80
   6   2   4   15.85    1.77
   6   2   4   13.21    1.47
   7   2   4   58.34    3.47
   7   2   4   56.45    3.60
   7   2   4   61.56    3.25
   7   2   4   68.33    3.58
   8   2   4    2.10    0.86
   8   2   4    0.88    0.85
   8   2   4    3.60    1.24
   8   2   4    2.69    1.04
   9   2   4    0.32    0.71
   9   2   4   -0.63    0.67
   9   2   4   -0.54    0.64
   9   2   4    0.08    0.57
   8  -3  -4   53.48    5.00
   8  -3  -4   45.58    4.39
  -8   3   4   55.14    5.04
   7  -3  -4    6.29    1.58
   7  -3  -4    3.74    1.26
  -7   3   4    8.23    1.85
   6  -3  -4   21.38    2.53
   6  -3  -4   29.33    2.87
   6  -3  -4   23.49    2.77
  -6   3   4   29.07    3.10
  -6   3   4   24.42    2.82
   5  -3  -4  327.81   12.01
   5  -3  -4  352.13   12.69
   5  -3  -4  334.97   12.46
  -5   3   4  345.67   12.67
  -5   3   4  347.81   12.66
   4  -3  -4    4.63    1.12
   4  -3  -4    5.27    1.07
   4  -3  -4    3.98    1.01
  -4   3   4    4.18    1.13
  -4   3   4    2.57    0.93
   3  -3  -4  283.29    9.77
   3  -3  -4  277.27   10.20
   3  -3  -4  291.29   10.15
  -3   3   4  295.70   10.35
  -3   3   4  285.64   10.31
   2  -3  -4  153.63    5.32
   2  -3  -4  143.53    5.54
   2  -3  -4  146.18    5.70
  -2   3   4  136.58    5.65
  -2   3   4  137.75    5.64
  -2   3   4  142.46    5.73
   1  -3  -4   93.08    3.39
   1  -3  -4   90.63    3.70
  -1   3   4   89.34    3.81
  -1   3   4   82.74    3.76
  -1   3   4   95.88    3.89
  -1   3   4   91.59    3.87
   0  -3  -4 2350.34   69.31
   0  -3  -4 2373.40   69.22
   0  -3  -4 2362.73   70.51
   0   3   4 2333.53   69.35
   0   3   4 2342.06   69.45
   0   3   4 2352.92   69.36
   0   3   4 2282.69   70.31
  -1  -3  -4  131.11    4.14
  -1  -3  -4  134.26    4.15
  -1  -3  -4  131.35    4.20
   1   3   4  128.41    4.68
   1   3   4  123.29    4.54
   1   3   4  129.73    4.52
   1   3   4  132.58    4.53
   2   3   4   28.21    1.32
   2   3   4   27.98    1.31
   2   3   4   29.06    1.49
   2   3   4   29.14    1.42
  -3  -3  -4    0.30    0.19
   3   3   4    0.32    0.20
   3   3   4   -0.09    0.17
   3   3   4    0.10    0.22
   3   3   4   -0.09    0.23
   3   3   4   -0.19    0.14
  -4  -3  -4   14.38    1.16
   4   3   4   16.21    1.39
   4   3   4   15.28    1.13
   4   3   4   13.85    0.97
   4   3   4   14.27    1.01
   4   3   4   13.92    0.96
  -5  -3  -4   94.47    3.84
   5   3   4   97.92    3.85
   5   3   4   92.43    4.07
   5   3   4   94.19    3.79
   5   3   4   95.70    4.04
   5   3   4   92.91    4.00
   5   3   4   99.61    3.94
   5   3   4  100.63    4.01
   6   3   4   40.78    2.51
   6   3   4   40.29    2.33
   6   3   4   40.38    2.41
   6   3   4   43.84    2.34
   6   3   4   38.82    2.49
   6   3   4   37.24    2.23
   7   3   4   12.43    1.66
   7   3   4   15.25    1.80
   7   3   4   13.02    1.90
   7   3   4   13.49    1.74
   8   3   4   31.82    3.28
   8   3   4   40.10    3.52
   8   3   4   35.84    3.04
   8   3   4   35.58    3.11
   9   3   4   11.85    2.27
   9   3   4    8.70    1.63
   9   3   4   10.90    1.86
   9   3   4    7.42    1.64
   7  -4  -4    0.52    0.75
   7  -4  -4   -0.04    0.74
  -7   4   4   -0.60    0.83
   6  -4  -4   11.17    1.80
   6  -4  -4    8.66    1.71
  -6   4   4    8.07    1.74
  -6   4   4    8.04    1.82
   5  -4  -4  165.40    6.65
   5  -4  -4  164.35    7.21
   5  -4  -4  158.08    7.03
  -5   4   4  151.00    7.17
  -5   4   4  151.20    7.21
   4  -4  -4   96.30    4.83
   4  -4  -4   92.19    4.28
   4  -4  -4  100.97    4.79
  -4   4   4   97.58    5.04
  -4   4   4   93.21    4.98
   3  -4  -4    8.30    1.15
   3  -4  -4    7.38    1.22
   3  -4  -4    8.11    1.37
  -3   4   4    6.49    1.38
  -3   4   4    9.52    1.53
  -3   4   4    8.17    1.38
   2  -4  -4    8.20    1.21
   2  -4  -4    9.08    1.22
   2  -4  -4    9.97    1.08
  -2   4   4    6.91    1.16
  -2   4   4    8.98    1.31
  -2   4   4    9.03    1.33
  -2   4   4    9.34    1.06
  -2   4   4    8.68    1.36
   1  -4  -4  215.65    7.07
   1  -4  -4  214.28    7.54
   1  -4  -4  212.06    7.39
  -1   4   4  219.23    7.69
  -1   4   4  216.80    7.07
  -1   4   4  228.66    7.82
  -1   4   4  219.78    7.77
  -1   4   4  210.96    7.63
   0  -4  -4    3.81    0.61
   0  -4  -4    5.55    0.50
   0  -4  -4    4.00    0.57
   0   4   4    4.93    0.82
   0   4   4    3.87    0.75
   0   4   4    4.16    0.73
   0   4   4    3.56    0.66
   1   4   4   45.64    2.02
   1   4   4   45.87    2.08
   1   4   4   45.49    2.01
   1   4   4   43.61    1.96
   2   4   4    3.26    0.50
   2   4   4    3.42    0.47
   2   4   4    3.84    0.50
   2   4   4    3.79    0.49
   3   4   4    0.25    0.14
   3   4   4    0.75    0.20
   3   4   4    0.54    0.25
   3   4   4    0.42    0.24
   3   4   4    0.42    0.19
   4   4   4  121.13    4.23
   4   4   4  119.54    4.02
   4   4   4  116.25    4.20
   4   4   4  119.04    4.13
   4   4   4  117.99    4.05
   5   4   4   13.19    1.73
   5   4   4   10.11    1.11
   5   4   4   10.49    1.20
   5   4   4   10.29    1.04
   5   4   4   11.59    1.24
   5   4   4   12.42    1.19
   5   4   4   14.41    1.28
   6   4   4    0.36    0.49
   6   4   4   -0.02    0.34
   6   4   4   -0.03    0.42
   6   4   4    0.12    0.47
   6   4   4   -0.02    0.40
   6   4   4   -0.30    0.32
   7   4   4   23.82    2.49
   7   4   4   27.67    2.38
   7   4   4   26.26    2.33
   7   4   4   28.66    2.11
   8   4   4    0.86    0.68
   8   4   4    0.46    0.63
   8   4   4   -0.20    0.60
   8   4   4    0.04    0.71
   9   4   4    5.31    1.39
   9   4   4    5.99    1.42
   9   4   4    3.49    1.19
   7  -5  -4    4.85    1.38
   7  -5  -4    6.20    1.77
  -7   5   4    6.84    1.99
   6  -5  -4   18.72    2.39
   6  -5  -4   18.12    2.60
  -6   5   4   16.29    2.48
  -6   5   4   14.40    2.44
   5  -5  -4  127.22    6.02
   5  -5  -4  121.55    5.52
  -5   5   4  120.66    6.23
  -5   5   4  127.63    6.38
   4  -5  -4   -0.07    0.43
   4  -5  -4    0.49    0.66
  -4   5   4    0.53    0.74
  -4   5   4    0.32    0.72
   3  -5  -4  535.32   16.87
   3  -5  -4  521.60   17.37
   3  -5  -4  537.50   17.27
  -3   5   4  543.45   17.80
  -3   5   4  518.93   17.73
  -3   5   4  497.10   18.07
   2  -5  -4   60.93    3.05
   2  -5  -4   58.30    2.64
   2  -5  -4   58.56    2.89
  -2   5   4   52.87    3.18
  -2   5   4   53.12    3.16
  -2   5   4   60.49    2.72
  -2   5   4   59.19    3.14
   1  -5  -4  180.41    6.21
   1  -5  -4  179.80    5.98
   1  -5  -4  171.79    6.32
  -1   5   4  175.78    6.74
  -1   5   4  189.07    6.82
  -1   5   4  174.66    6.61
  -1   5   4  179.18    6.01
  -1   5   4  175.14    6.65
  -1   5   4  184.45    7.04
   0   5   4  117.20    4.54
   0   5   4  122.20    3.90
   0   5   4  117.05    4.63
   0   5   4  122.60    4.58
   0   5   4  115.27    4.60
   1   5   4   79.43    3.18
   1   5   4   85.80    3.25
   1   5   4   84.87    3.16
   1   5   4   79.48    3.20
   2   5   4  228.80    7.27
   2   5   4  233.30    7.27
   2   5   4  232.66    7.27
   2   5   4  230.41    7.35
   4   5   4   13.56    0.71
   4   5   4   13.51    0.73
   4   5   4   14.72    0.89
   4   5   4   15.65    0.88
   4   5   4   12.70    0.80
   5   5   4    3.73    0.65
   5   5   4    3.51    0.66
   5   5   4    4.26    0.73
   5   5   4    3.18    0.60
   5   5   4    1.78    0.92
   5   5   4    2.59    0.51
   5   5   4    4.11    0.67
   6   5   4   19.59    1.65
   6   5   4   20.81    1.80
   6   5   4   16.17    1.67
   6   5   4   17.79    2.20
   6   5   4   20.20    1.88
   6   5   4   20.23    1.75
   7   5   4   26.89    2.37
   7   5   4   28.61    2.83
   7   5   4   29.90    2.04
   7   5   4   23.60    2.37
   7   5   4   28.35    2.06
   8   5   4   15.89    2.00
   8   5   4   14.69    1.87
   8   5   4   14.66    1.84
   9   5   4    2.36    1.00
   9   5   4    3.49    1.20
   7  -6  -4   23.41    2.89
  -7   6   4   26.52    3.48
  -7   6   4   26.63    3.69
   6  -6  -4   59.86    3.84
  -6   6   4   70.80    4.83
  -6   6   4   76.88    5.00
   5  -6  -4    3.73    1.07
   5  -6  -4    2.62    1.45
  -5   6   4    2.82    1.34
  -5   6   4    1.74    1.07
   4  -6  -4   45.70    2.75
   4  -6  -4   46.32    3.03
  -4   6   4   45.76    3.41
  -4   6   4   49.16    3.52
   3  -6  -4   11.98    1.57
   3  -6  -4   13.31    1.51
  -3   6   4   11.88    1.83
  -3   6   4   12.45    1.95
   2  -6  -4   99.85    3.87
   2  -6  -4   95.19    4.04
  -2   6   4   94.25    4.64
  -2   6   4   88.78    4.54
   1  -6  -4  104.44    3.83
  -1   6   4   99.94    4.58
  -1   6   4  102.58    4.95
  -1   6   4  101.90    4.60
  -1   6   4  105.08    4.47
  -1   6   4  103.84    3.84
   0   6   4    2.65    0.72
   0   6   4    1.75    0.34
   0   6   4    1.87    0.61
   0   6   4    1.70    0.52
   0   6   4    1.65    0.53
   0   6   4    1.30    0.51
   1   6   4    0.93    0.42
   1   6   4    1.91    0.53
   1   6   4    1.62    0.45
   1   6   4    1.60    0.45
   2   6   4    1.85    0.38
   2   6   4    1.71    0.38
   2   6   4    1.60    0.39
   2   6   4    2.93    0.44
   4   6   4   93.39    3.27
   5   6   4   43.68    3.37
   5   6   4   42.83    1.95
   5   6   4   44.03    1.95
   5   6   4   44.88    1.91
   5   6   4   46.58    1.89
   5   6   4   44.09    2.08
   6   6   4    0.33    0.68
   6   6   4    0.34    0.35
   6   6   4    0.02    0.33
   6   6   4    0.12    0.44
   6   6   4    0.28    0.39
   6   6   4    0.93    0.46
   7   6   4   47.36    2.59
   7   6   4   42.34    2.70
   7   6   4   44.79    2.51
   7   6   4   45.29    3.38
   8   6   4    0.74    0.66
   8   6   4    1.84    0.78
   6  -7  -4  310.52   11.76
  -6   7   4  315.85   13.16
  -6   7   4  320.06   13.25
   5  -7  -4  226.69    8.85
  -5   7   4  242.42   10.27
  -5   7   4  222.96    9.98
   4  -7  -4   73.90    3.74
  -4   7   4   71.53    4.57
  -4   7   4   77.23    4.71
   3  -7  -4  134.24    5.37
  -3   7   4  137.81    6.45
  -3   7   4  135.02    6.41
  -2   7   4   98.58    4.99
  -2   7   4  103.25    5.04
  -1   7   4  481.87   15.67
  -1   7   4  450.84   15.59
   0   7   4    5.36    1.00
   0   7   4    4.95    0.93
   0   7   4    4.56    0.95
   0   7   4    5.23    0.75
   1   7   4    3.11    0.73
   1   7   4    2.89    0.61
   1   7   4    2.59    0.64
   1   7   4    3.51    0.65
   1   7   4    3.81    0.75
   2   7   4    7.21    0.83
   2   7   4    6.81    0.77
   2   7   4    8.39    0.83
   2   7   4    9.81    0.92
   5   7   4   21.96    1.14
   5   7   4   22.35    2.98
   6   7   4   58.13    2.61
   6   7   4   58.73    2.50
   6   7   4   57.05    2.51
   6   7   4   55.54    4.16
   7   7   4   13.91    1.49
   7   7   4   17.74    1.62
   7   7   4   17.23    2.66
   8   7   4    7.03    1.22
   8   7   4    8.44    1.32
   8   7   4    7.37    1.23
   5  -8  -4   24.22    2.53
  -5   8   4   23.15    3.21
  -5   8   4   24.70    3.41
   4  -8  -4   26.63    2.48
  -4   8   4   22.41    2.97
  -4   8   4   28.06    3.36
  -3   8   4    1.17    0.97
  -3   8   4   -0.86    0.50
  -2   8   4    1.04    0.76
  -2   8   4    0.14    0.68
  -1   8   4    5.70    1.25
  -1   8   4    5.57    1.21
   0   8   4  189.12    7.26
   0   8   4  189.04    7.29
   1   8   4    0.95    0.46
   1   8   4    0.34    0.48
   1   8   4    0.09    0.48
   2   8   4   79.99    3.22
   2   8   4   83.45    3.36
   2   8   4   80.36    3.31
   3   8   4   12.28    0.78
   3   8   4   11.25    0.82
   3   8   4   12.66    0.87
   5   8   4   90.59    5.88
   6   8   4   10.32    1.12
   6   8   4    7.41    0.80
   6   8   4    9.62    2.20
   7   8   4    3.13    0.68
   7   8   4    3.70    1.45
  -4   9   4    9.74    2.12
  -4   9   4   10.34    2.13
  -3   9   4    2.88    1.33
  -3   9   4    1.31    1.04
  -2   9   4    9.08    1.82
  -2   9   4    9.29    1.80
  -1   9   4   82.53    4.48
  -1   9   4   83.17    4.48
   0   9   4   -0.37    0.50
   0   9   4    0.55    0.65
   1   9   4  300.78   10.38
   1   9   4  292.08   10.34
   2   9   4   49.28    2.50
   2   9   4   46.76    2.49
   3   9   4   33.73    1.75
   3   9   4   34.64    1.67
   3   9   4   33.43    1.75
   4   9   4    1.08    1.19
   5   9   4   72.22    5.50
   6   9   4    8.13    2.23
  -2  10   4   10.51    2.01
  -2  10   4    9.91    1.94
  -1  10   4   99.77    5.26
  -1  10   4   99.61    5.27
   0  10   4   81.52    4.41
   0  10   4   86.22    4.47
   1  10   4    1.31    0.74
   1  10   4    1.09    0.66
   2  10   4    1.33    0.56
   2  10   4    0.52    0.54
   3  10   4   17.40    1.53
   3  10   4   16.69    1.59
   4  10   4   54.40    5.84
   2   9  -5    4.60    2.05
   2   9  -5    1.96    1.36
   2   9  -5    3.44    1.42
   1   9  -5   14.11    2.52
   1   9  -5    7.70    2.03
   1   9  -5    7.45    2.26
   0   9  -5   15.58    2.77
   0   9  -5   19.33    2.83
   0   9  -5   11.73    2.52
  -1   9  -5    9.59    2.21
  -1   9  -5   11.91    2.40
  -1   9  -5   10.56    2.37
  -2   9  -5   -0.28    0.85
  -2   9  -5    1.38    1.24
  -2   9  -5    1.18    1.11
  -3   9  -5    2.69    1.27
  -3   9  -5    2.06    1.49
  -3   9  -5    0.61    1.22
   3   8  -5    3.31    1.45
   3   8  -5    7.90    1.83
   2   8  -5    4.38    1.42
   2   8  -5    4.20    1.60
   1   8  -5    4.84    1.69
   1   8  -5    8.65    1.91
   1   8  -5    9.82    2.26
   0   8  -5   55.23    4.82
   0   8  -5   57.52    4.11
   0   8  -5   53.36    4.34
  -1   8  -5   41.86    4.25
  -1   8  -5   27.95    3.38
  -1   8  -5   38.49    4.07
  -2   8  -5    1.74    1.24
  -2   8  -5    0.30    0.90
  -2   8  -5   -0.56    0.74
  -3   8  -5   14.82    2.59
  -3   8  -5   18.16    2.74
  -3   8  -5   16.08    2.66
  -4   8  -5   40.04    4.49
  -4   8  -5   41.55    4.54
  -4   8  -5   37.97    4.06
  -5   8  -5  129.42    7.37
  -5   8  -5  111.76    7.06
   5   7  -5    8.29    2.06
   5   7  -5    7.98    1.90
   5   7  -5   10.19    2.06
   4   7  -5   17.49    2.58
   4   7  -5   14.25    2.49
   3   7  -5   10.89    2.01
   3   7  -5    6.70    1.75
   2   7  -5    9.04    1.93
   2   7  -5    8.98    1.76
   1   7  -5   10.40    2.12
   1   7  -5   16.03    2.33
   1   7  -5   12.74    2.42
   0   7  -5   27.90    3.32
   0   7  -5   38.64    3.85
   0   7  -5   38.44    3.71
  -1   7  -5   65.43    4.42
  -1   7  -5   72.91    4.73
  -1   7  -5   63.73    4.27
  -2   7  -5    5.75    1.65
  -2   7  -5    7.23    1.71
  -2   7  -5    5.10    1.39
  -3   7  -5   25.47    3.26
  -3   7  -5   19.99    2.92
  -3   7  -5   21.58    2.81
  -4   7  -5    0.66    1.14
  -4   7  -5    0.08    0.71
  -4   7  -5   -0.57    0.83
   4  -7   5    1.22    1.13
  -5   7  -5    6.41    1.48
  -5   7  -5    6.12    1.83
  -5   7  -5    9.60    2.35
   5  -7   5    7.45    2.18
  -6   7  -5   11.86    2.55
  -6   7  -5   10.72    2.43
   5   6  -5   34.90    3.67
   5   6  -5   32.04    3.71
   5   6  -5   33.40    3.45
   4   6  -5   58.05    4.19
   4   6  -5   54.62    3.88
   3   6  -5   -0.64    0.58
   3   6  -5    0.22    0.82
   2   6  -5    3.05    1.06
   2   6  -5    4.10    1.39
   1   6  -5    0.01    0.75
   1   6  -5   -0.95    0.45
   1   6  -5   -0.16    0.76
   0   6  -5   60.83    3.93
   0   6  -5   60.23    4.10
   0   6  -5   67.88    4.27
   0  -6   5   58.54    3.41
  -1   6  -5   57.00    3.78
  -1   6  -5   51.04    3.60
  -1   6  -5   54.39    3.80
   1  -6   5   51.51    3.26
   1  -6   5   54.92    3.27
  -2   6  -5   22.32    2.62
  -2   6  -5   25.82    3.01
  -2   6  -5   19.12    2.67
   2  -6   5   24.47    2.72
   2  -6   5   29.08    2.80
  -3   6  -5  332.06   13.06
  -3   6  -5  341.56   12.58
  -3   6  -5  338.60   13.08
   3  -6   5  333.19   12.59
   3  -6   5  343.72   12.43
  -4   6  -5   20.60    2.78
  -4   6  -5   22.75    2.53
  -4   6  -5   18.62    2.64
   4  -6   5   26.95    3.01
   4  -6   5   21.34    2.65
  -5   6  -5   42.07    3.02
  -5   6  -5   46.47    4.37
  -5   6  -5   41.57    4.16
   5  -6   5   35.12    3.72
   5  -6   5   48.58    4.24
  -6   6  -5    0.89    1.08
  -6   6  -5    2.17    1.32
   6  -6   5    0.89    0.89
   6  -6   5    0.82    0.92
  -7   6  -5   35.66    4.21
   7  -6   5   26.54    3.77
   7  -6   5   38.89    4.21
   6   5  -5   82.56    5.42
   6   5  -5   87.46    5.23
   6   5  -5   78.85    5.01
   5   5  -5   42.15    3.83
   5   5  -5   35.84    3.52
   5   5  -5   39.55    3.90
   4   5  -5   19.32    2.67
   4   5  -5   19.29    2.46
   3   5  -5    2.93    1.19
   3   5  -5    1.46    0.85
   2   5  -5   58.29    3.67
   2   5  -5   62.13    3.98
  -2  -5   5   62.58    3.26
   1   5  -5   41.44    3.67
   1   5  -5   33.90    3.12
  -1  -5   5   39.41    2.51
   0   5  -5   -0.65    0.53
   0   5  -5   -0.48    0.60
   0   5  -5   -0.05    0.50
   0   5  -5   -0.34    0.56
   0  -5   5    0.00    0.44
   0  -5   5    0.31    0.46
  -1   5  -5    0.21    0.59
  -1   5  -5    1.42    0.83
  -1   5  -5    1.90    0.89
   1  -5   5    2.07    0.76
   1  -5   5    0.72    0.62
  -2   5  -5    9.17    1.71
  -2   5  -5    8.04    1.48
  -2   5  -5    7.86    1.70
   2  -5   5    4.63    1.19
   2  -5   5    9.50    1.46
   2  -5   5    8.64    1.51
  -3   5  -5   75.98    4.45
  -3   5  -5   68.03    4.37
  -3   5  -5   71.55    3.89
   3  -5   5   78.05    4.04
   3  -5   5   69.41    3.98
   3  -5   5   74.18    4.21
  -4   5  -5    5.88    1.59
  -4   5  -5    9.86    1.96
  -4   5  -5    9.01    1.44
   4  -5   5    9.76    1.86
   4  -5   5    6.80    1.44
   4  -5   5    6.54    1.38
  -5   5  -5   23.69    1.92
  -5   5  -5   18.30    2.55
  -5   5  -5   22.52    2.83
   5  -5   5   20.65    2.42
   5  -5   5   17.05    2.39
   5  -5   5   19.24    2.44
  -6   5  -5   45.62    4.33
  -6   5  -5   47.21    4.51
   6  -5   5   42.56    3.93
   6  -5   5   37.33    4.01
   6  -5   5   42.55    3.80
  -7   5  -5   15.92    2.71
   7  -5   5    9.37    2.14
   7  -5   5   14.40    2.42
  -8   5  -5    0.61    0.99
   8  -5   5   -0.25    0.89
   8  -5   5    0.06    1.18
   7   4  -5   40.32    4.00
   7   4  -5   50.52    4.57
   7   4  -5   43.57    4.50
   6   4  -5   32.30    3.43
   6   4  -5   32.33    3.51
   6   4  -5   31.59    3.55
   5   4  -5  128.03    6.54
   5   4  -5  128.72    6.23
   5   4  -5  114.25    5.93
   4   4  -5   38.55    2.95
   4   4  -5   36.64    3.46
   3   4  -5   10.44    1.67
   3   4  -5   12.72    1.95
  -3  -4   5    8.33    1.27
   2   4  -5   36.89    3.30
   2   4  -5   35.61    2.53
   2   4  -5   33.45    2.55
  -2  -4   5   34.20    2.26
   1   4  -5   28.66    2.80
   1   4  -5   35.59    2.56
   1   4  -5   32.37    2.20
  -1  -4   5   32.91    2.13
  -1  -4   5   33.66    2.22
   0   4  -5    4.11    1.13
   0   4  -5    3.79    1.18
   0   4  -5    4.95    1.00
   0  -4   5    3.52    0.79
   0  -4   5    4.56    1.03
  -1   4  -5    1.72    0.77
  -1   4  -5    3.51    1.03
  -1   4  -5    3.06    0.96
   1  -4   5    3.94    0.85
   1  -4   5    2.18    0.78
  -2   4  -5  202.17    7.71
  -2   4  -5  196.59    8.05
  -2   4  -5  192.81    8.20
   2  -4   5  202.34    7.86
   2  -4   5  204.38    7.67
  -3   4  -5   10.41    1.82
  -3   4  -5   12.00    1.93
  -3   4  -5    9.80    1.38
   3  -4   5   12.05    1.69
   3  -4   5   12.37    1.82
   3  -4   5   11.53    1.65
  -4   4  -5  406.17   15.16
  -4   4  -5  424.61   13.99
  -4   4  -5  448.02   15.31
   4  -4   5  416.70   14.67
   4  -4   5  418.82   15.05
   4  -4   5  435.58   14.88
  -5   4  -5  328.41   12.76
  -5   4  -5  332.52   11.16
  -5   4  -5  338.48   12.83
   5  -4   5  332.64   12.68
   5  -4   5  341.20   12.32
   5  -4   5  345.84   12.52
  -6   4  -5  109.40    6.01
  -6   4  -5  113.09    6.09
   6  -4   5  121.05    6.22
   6  -4   5  109.07    5.71
   6  -4   5  113.35    5.86
  -7   4  -5  144.73    7.36
   7  -4   5  134.26    7.26
   7  -4   5  150.65    7.13
   7  -4   5  145.26    7.17
  -8   4  -5   19.10    2.97
   8  -4   5   23.63    3.24
   8  -4   5   17.07    2.67
   8  -4   5   21.32    3.31
   9  -4   5    3.48    1.56
   9  -4   5    0.98    1.23
   7   3  -5    0.38    1.10
   7   3  -5    0.74    0.93
   7   3  -5   -0.30    1.09
   6   3  -5   40.43    3.92
   6   3  -5   36.64    3.82
   6   3  -5   36.08    3.57
   5   3  -5  118.12    6.23
   5   3  -5  115.56    5.82
   5   3  -5  129.42    6.09
   4   3  -5    0.88    0.69
   4   3  -5   -0.24    0.61
  -4  -3   5    0.68    0.51
   3   3  -5   46.55    2.99
   3   3  -5   41.97    3.73
   3   3  -5   46.22    3.19
  -3  -3   5   45.00    2.59
  -3  -3   5   40.93    2.48
   2   3  -5    0.20    0.53
   2   3  -5    0.87    0.79
   2   3  -5    0.80    0.55
  -2  -3   5    0.71    0.43
  -2  -3   5    0.58    0.44
   1   3  -5    2.21    0.66
   1   3  -5    2.61    0.89
   1   3  -5    0.91    0.61
  -1  -3   5    2.21    0.66
  -1  -3   5    2.70    0.67
   0   3  -5    2.95    0.87
   0   3  -5    3.86    0.96
   0   3  -5    2.63    0.79
   0  -3   5    2.41    0.66
   0  -3   5    5.63    1.03
  -1   3  -5   12.32    1.85
  -1   3  -5   14.13    1.83
   1  -3   5   12.14    1.45
   1  -3   5   16.77    1.67
  -2   3  -5   48.93    3.03
  -2   3  -5   48.02    3.14
   2  -3   5   54.29    2.99
   2  -3   5   49.42    2.74
  -3   3  -5    3.55    1.03
  -3   3  -5    4.43    1.14
   3  -3   5    3.41    0.91
   3  -3   5    3.11    0.82
  -4   3  -5    0.58    0.69
  -4   3  -5   -0.32    0.53
   4  -3   5   -0.39    0.38
   4  -3   5    0.89    0.66
   4  -3   5   -0.26    0.46
  -5   3  -5    5.24    1.26
  -5   3  -5    5.75    1.44
   5  -3   5    8.33    1.68
   5  -3   5    5.39    1.32
   5  -3   5    5.13    1.23
  -6   3  -5   31.82    3.33
  -6   3  -5   25.87    2.90
   6  -3   5   33.08    3.17
   6  -3   5   26.91    2.97
   6  -3   5   29.75    3.25
  -7   3  -5   55.50    3.99
   7  -3   5   58.02    3.90
   7  -3   5   57.89    3.96
   7  -3   5   52.86    4.82
  -8   3  -5   95.66    5.54
   8  -3   5   92.59    5.49
   8  -3   5   82.83    5.63
   8  -3   5   85.90    5.21
   8  -3   5   91.01    4.88
   9  -3   5    8.27    2.03
   9  -3   5    4.18    1.77
   9  -3   5    6.52    1.57
   9  -3   5    5.27    1.72
   7   2  -5    6.25    1.76
   7   2  -5    6.45    1.92
   7   2  -5    5.63    1.53
   6   2  -5    9.53    1.81
   6   2  -5    5.84    1.61
   6   2  -5    8.35    1.84
   5   2  -5   19.23    2.35
   5   2  -5   16.03    2.24
   5   2  -5   18.61    2.54
  -5  -2   5   19.61    2.13
   4   2  -5   27.94    2.77
   4   2  -5   20.49    2.22
   4   2  -5   27.35    2.98
  -4  -2   5   25.77    2.30
  -4  -2   5   27.20    2.41
   3   2  -5   10.29    1.71
   3   2  -5    7.79    1.39
  -3  -2   5    7.47    1.22
  -3  -2   5    6.73    1.13
   2   2  -5    1.52    0.70
   2   2  -5    1.87    0.82
  -2  -2   5    1.23    0.52
  -2  -2   5    1.15    0.51
   1   2  -5    4.48    1.00
   1   2  -5    4.07    1.11
  -1  -2   5    1.78    0.63
  -1  -2   5    2.47    0.63
   0   2  -5   85.23    4.04
   0   2  -5   79.05    4.10
   0  -2   5   90.93    3.75
  -1   2  -5  144.46    6.11
  -1   2  -5  155.84    6.39
   1  -2   5  157.62    5.94
   1  -2   5  162.49    5.90
  -2   2  -5  153.54    6.45
  -2   2  -5  154.62    6.31
   2  -2   5  166.49    6.06
   2  -2   5  159.03    6.13
   2  -2   5  155.46    6.32
  -3   2  -5    8.06    1.36
  -3   2  -5    9.20    1.46
   3  -2   5    8.92    1.35
   3  -2   5    9.14    1.30
  -4   2  -5   45.99    3.02
  -4   2  -5   50.15    3.09
   4  -2   5   51.01    3.03
   4  -2   5   44.80    2.86
   4  -2   5   51.03    2.91
  -5   2  -5  106.60    5.26
  -5   2  -5  104.08    5.21
   5  -2   5  108.89    5.15
   5  -2   5  114.10    5.09
   5  -2   5  110.11    5.32
  -6   2  -5  920.62   29.04
  -6   2  -5  909.61   28.99
   6  -2   5  878.43   28.68
   6  -2   5  884.23   28.85
   6  -2   5  892.90   29.17
  -7   2  -5   69.38    4.27
   7  -2   5   69.51    4.34
   7  -2   5   74.79    3.93
   7  -2   5   67.41    4.45
   7  -2   5   69.78    4.25
   8  -2   5   22.67    2.57
   8  -2   5   27.31    3.11
   8  -2   5   18.22    2.91
   8  -2   5   24.18    3.06
   9  -2   5    1.14    0.88
   9  -2   5    0.92    1.08
   9  -2   5   -0.98    0.85
   9  -2   5   -0.50    0.82
   7   1  -5    2.59    1.17
   7   1  -5    2.28    1.23
   7   1  -5    3.53    1.27
   6   1  -5    1.91    1.10
   6   1  -5    1.95    0.95
   6   1  -5    0.74    0.86
  -6  -1   5    1.98    0.91
   5   1  -5  202.73    8.63
   5   1  -5  193.82    8.30
   5   1  -5  207.06    8.21
  -5  -1   5  197.84    7.88
   4   1  -5   37.88    2.62
   4   1  -5   39.98    3.45
   4   1  -5   40.29    2.84
  -4  -1   5   40.55    2.54
  -4  -1   5   36.79    2.51
   3   1  -5   84.18    4.17
   3   1  -5   81.18    4.34
  -3  -1   5   90.27    4.03
  -3  -1   5   79.39    3.83
   2   1  -5  356.34   12.11
   2   1  -5  362.42   12.41
  -2  -1   5  347.74   11.74
  -2  -1   5  338.58   11.68
   1   1  -5   39.47    2.61
   1   1  -5   39.89    2.48
  -1  -1   5   42.02    2.33
  -1  -1   5   43.17    2.31
   0   1  -5    2.92    0.79
   0   1  -5    3.80    0.89
   0  -1   5    3.07    0.71
   0  -1   5    4.32    0.78
  -1   1  -5   88.96    4.03
  -1   1  -5   92.34    4.24
   1  -1   5   94.59    3.79
   1  -1   5   87.32    3.80
  -2   1  -5    0.37    0.47
  -2   1  -5    0.94    0.58
   2  -1   5    0.61    0.43
   2  -1   5    0.52    0.36
   2  -1   5    0.52    0.52
   2  -1   5    0.98    0.43
  -3   1  -5  107.62    4.70
  -3   1  -5  106.17    4.70
   3  -1   5  102.57    3.87
   3  -1   5  100.76    4.79
   3  -1   5  113.60    4.48
   3  -1   5  103.16    4.48
  -4   1  -5    2.13    0.79
  -4   1  -5    1.33    0.63
   4  -1   5    1.25    0.59
   4  -1   5    0.42    0.40
   4  -1   5    1.56    0.77
  -5   1  -5   13.62    1.83
  -5   1  -5   16.74    2.00
   5  -1   5   10.45    1.46
   5  -1   5   12.42    1.76
   5  -1   5   14.48    2.10
   5  -1   5   10.60    1.61
  -6   1  -5    6.12    1.32
  -6   1  -5    8.77    1.53
   6  -1   5    8.82    1.33
   6  -1   5    5.86    1.34
   6  -1   5    9.53    1.69
   6  -1   5    6.88    1.33
  -7   1  -5   28.98    2.90
   7  -1   5   34.00    3.43
   7  -1   5   25.40    2.87
   7  -1   5   32.52    3.03
   7  -1   5   31.11    2.72
   8  -1   5   42.64    3.86
   8  -1   5   26.40    3.34
   8  -1   5   33.41    2.96
   8  -1   5   38.49    3.73
   9  -1   5   60.47    5.64
   9  -1   5   81.33    5.13
   9  -1   5   84.82    5.17
   9  -1   5   84.94    4.63
   8   0  -5    0.24    0.99
   7   0  -5  112.50    6.36
   7   0  -5  105.11    5.78
   7   0  -5  112.31    6.14
   6   0  -5   17.08    2.38
   6   0  -5   17.39    2.45
   6   0  -5   15.90    2.45
  -6   0   5   21.63    2.60
   5   0  -5    2.14    0.89
   5   0  -5    3.32    1.16
   5   0  -5    0.97    0.78
  -5   0   5    4.92    1.22
  -5   0   5    2.21    0.87
   4   0  -5   44.81    3.06
   4   0  -5   35.97    2.69
   4   0  -5   38.61    2.59
  -4   0   5   36.17    2.58
  -4   0   5   37.23    2.52
   3   0  -5   39.77    2.79
   3   0  -5   42.58    2.72
   3   0  -5   41.69    2.48
  -3   0   5   42.84    2.59
  -3   0   5   37.31    2.43
   2   0  -5  140.09    5.67
   2   0  -5  132.24    5.80
  -2   0   5  137.87    5.45
  -2   0   5  139.31    5.50
   1   0  -5   16.74    1.85
   1   0  -5   15.19    1.61
  -1   0   5   12.34    1.37
  -1   0   5   15.15    1.46
   0   0  -5   11.77    1.48
   0   0  -5   16.58    1.71
   0   0   5   18.57    1.34
   0   0   5   15.94    1.49
   0   0   5   19.37    1.90
  -1   0  -5 1062.55   32.25
  -1   0  -5 1085.44   32.48
   1   0   5  996.08   32.35
   1   0   5 1056.49   31.98
   1   0   5 1073.10   31.96
  -2   0  -5  122.85    4.85
  -2   0  -5  123.66    4.98
   2   0   5  121.42    4.61
   2   0   5  119.62    4.65
   2   0   5  116.19    4.98
  -3   0  -5  189.16    6.91
  -3   0  -5  175.71    6.39
  -3   0  -5  190.32    6.95
   3   0   5  193.25    6.71
   3   0   5  182.40    7.15
   3   0   5  188.39    6.77
  -4   0  -5   40.98    2.43
  -4   0  -5   36.14    2.33
   4   0   5   41.25    2.44
   4   0   5   38.04    2.60
   4   0   5   42.50    2.33
  -5   0  -5   12.85    1.60
   5   0   5   15.48    1.80
   5   0   5   11.63    1.48
   5   0   5   16.93    2.14
   5   0   5   15.43    1.56
   5   0   5   14.13    1.78
  -6   0  -5   14.79    1.90
   6   0   5   14.93    1.62
   6   0   5   18.57    2.75
   6   0   5   17.04    2.17
   6   0   5   15.09    1.91
   6   0   5   16.21    1.87
  -7   0  -5   26.54    2.80
   7   0   5   22.27    2.78
   7   0   5   25.55    2.42
   7   0   5   28.12    2.86
   7   0   5   20.52    2.36
   8   0   5    2.52    1.13
   8   0   5    4.97    1.23
   8   0   5    1.32    0.95
   8   0   5    3.70    1.24
   9   0   5    1.11    1.01
   9   0   5    0.09    0.74
   9   0   5    0.06    0.78
   9   0   5    0.15    0.71
   8  -1  -5    5.17    1.71
   7  -1  -5   53.61    4.44
   7  -1  -5   48.05    4.38
   7  -1  -5   44.11    4.30
  -7   1   5   50.50    3.67
   6  -1  -5   66.97    4.30
   6  -1  -5   74.01    4.60
   6  -1  -5   68.35    4.09
  -6   1   5   65.72    4.08
   5  -1  -5    1.48    0.83
   5  -1  -5    1.03    0.81
   5  -1  -5    1.92    0.86
  -5   1   5    1.12    0.79
  -5   1   5    1.66    0.85
   4  -1  -5   18.93    2.23
   4  -1  -5   11.21    1.77
   4  -1  -5   16.68    1.92
  -4   1   5   20.10    2.21
  -4   1   5   18.84    2.08
   3  -1  -5   34.94    2.57
   3  -1  -5   36.10    2.47
   3  -1  -5   36.33    2.29
  -3   1   5   38.16    2.47
  -3   1   5   37.86    2.46
   2  -1  -5  323.57   11.37
   2  -1  -5  334.20   11.02
   2  -1  -5  322.78   11.56
  -2   1   5  336.28   11.30
  -2   1   5  340.99   11.34
   1  -1  -5   59.82    3.12
   1  -1  -5   60.38    2.97
  -1   1   5   56.32    2.79
  -1   1   5   57.51    2.98
  -1   1   5   53.88    2.79
   0  -1  -5   11.74    1.40
   0  -1  -5    9.20    1.26
   0   1   5   10.32    1.36
   0   1   5   10.54    1.19
   0   1   5   11.29    1.22
  -1  -1  -5  725.71   22.07
  -1  -1  -5  709.83   21.86
   1   1   5  689.18   21.89
   1   1   5  713.78   21.69
   1   1   5  706.51   21.66
   1   1   5  689.67   22.06
  -2  -1  -5  160.57    5.71
   2   1   5  157.46    5.95
   2   1   5  149.32    5.75
   2   1   5  153.01    5.55
   2   1   5  159.16    5.53
  -3  -1  -5   63.61    2.59
  -3  -1  -5   60.32    2.82
  -3  -1  -5   62.22    2.86
   3   1   5   62.55    2.79
   3   1   5   58.74    2.99
   3   1   5   62.13    2.75
   3   1   5   62.96    3.15
  -4  -1  -5  239.39    8.16
  -4  -1  -5  242.89    8.36
  -4  -1  -5  255.28    8.43
   4   1   5  239.68    8.71
   4   1   5  243.82    8.35
   4   1   5  235.92    8.44
   4   1   5  245.00    8.84
  -5  -1  -5   86.16    3.77
  -5  -1  -5   88.54    3.79
   5   1   5   84.66    3.90
   5   1   5   82.73    4.21
   5   1   5   84.58    4.03
   5   1   5   93.34    3.71
  -6  -1  -5  298.21   10.04
   6   1   5  296.16   10.70
   6   1   5  302.51   10.42
   6   1   5  289.20   10.02
   6   1   5  271.17   10.67
   6   1   5  287.40   10.49
   7   1   5   18.18    2.17
   7   1   5   24.18    2.27
   7   1   5   21.74    2.29
   7   1   5   20.58    2.50
   8   1   5    0.00    0.68
   8   1   5   -0.21    0.47
   8   1   5    0.13    0.60
   8   1   5    0.32    0.64
   9   1   5    1.80    1.18
   9   1   5    4.16    1.33
   9   1   5    3.65    1.30
   9   1   5    4.38    1.18
   7  -2  -5    0.32    0.78
   7  -2  -5   -0.58    0.73
   7  -2  -5    0.43    0.95
  -7   2   5   -0.55    0.76
   6  -2  -5   23.30    2.62
   6  -2  -5   24.46    3.01
   6  -2  -5   20.51    2.60
  -6   2   5   25.15    2.92
  -6   2   5   18.83    2.77
   5  -2  -5    6.52    1.43
   5  -2  -5    4.62    1.29
   5  -2  -5    7.32    1.36
  -5   2   5    4.87    1.29
  -5   2   5    6.43    1.44
   4  -2  -5  138.63    6.43
   4  -2  -5  146.76    6.35
   4  -2  -5  141.10    5.99
  -4   2   5  149.36    6.38
  -4   2   5  148.93    6.38
   3  -2  -5  164.84    6.39
   3  -2  -5  169.66    6.93
   3  -2  -5  164.98    6.72
  -3   2   5  165.08    6.74
  -3   2   5  173.38    6.80
   2  -2  -5   66.73    3.09
   2  -2  -5   68.71    3.39
   2  -2  -5   67.62    3.54
  -2   2   5   71.51    3.44
  -2   2   5   67.50    3.41
   1  -2  -5  243.96    8.13
   1  -2  -5  254.14    8.85
   1  -2  -5  247.02    8.60
  -1   2   5  242.55    8.53
  -1   2   5  235.33    8.68
  -1   2   5  249.84    8.56
   0  -2  -5 1703.69   51.92
   0  -2  -5 1802.56   51.80
   0   2   5 1745.67   51.68
   0   2   5 1723.59   51.65
   0   2   5 1706.33   51.95
   0   2   5 1692.52   51.78
  -1  -2  -5   35.88    1.95
  -1  -2  -5   32.65    1.82
   1   2   5   34.52    1.82
   1   2   5   33.65    1.92
   1   2   5   37.05    1.87
   1   2   5   35.89    2.07
  -2  -2  -5  119.63    4.44
  -2  -2  -5  120.89    4.40
  -2  -2  -5  124.28    4.07
   2   2   5  127.28    4.45
   2   2   5  124.11    4.46
   2   2   5  118.67    4.73
   2   2   5  117.87    4.60
  -3  -2  -5  147.06    5.10
  -3  -2  -5  147.87    4.99
   3   2   5  143.98    5.50
   3   2   5  150.79    5.65
   3   2   5  148.92    5.20
   3   2   5  150.72    5.28
  -4  -2  -5  154.49    5.23
  -4  -2  -5  135.51    5.31
  -4  -2  -5  148.90    5.00
   4   2   5  146.10    5.32
   4   2   5  143.84    5.65
   4   2   5  151.72    5.77
   4   2   5  148.87    5.42
  -5  -2  -5  185.31    6.25
   5   2   5  190.96    7.24
   5   2   5  194.78    7.03
   5   2   5  195.22    6.64
   5   2   5  185.00    6.32
   5   2   5  186.69    7.19
   5   2   5  190.51    6.87
   6   2   5   43.49    2.45
   6   2   5   50.08    2.92
   6   2   5   43.79    2.71
   6   2   5   50.14    3.02
   6   2   5   47.33    2.70
   7   2   5   22.96    2.14
   7   2   5   19.02    2.20
   7   2   5   18.28    2.05
   7   2   5   16.75    2.15
   8   2   5    0.84    0.74
   8   2   5    0.38    0.68
   8   2   5    1.29    0.87
   8   2   5    1.10    0.69
   9   2   5    0.35    0.73
   9   2   5    0.64    0.73
   9   2   5   -0.49    0.70
   9   2   5    1.43    0.99
   7  -3  -5    2.46    1.13
   7  -3  -5    0.75    0.83
  -7   3   5    2.51    1.32
   6  -3  -5    2.88    1.02
   6  -3  -5    4.98    1.43
  -6   3   5    1.73    1.04
  -6   3   5    4.13    1.35
   5  -3  -5    9.07    1.77
   5  -3  -5    9.85    1.66
   5  -3  -5   10.11    1.74
  -5   3   5   13.21    2.01
  -5   3   5   11.52    1.95
   4  -3  -5  543.71   18.27
   4  -3  -5  510.81   17.92
   4  -3  -5  536.94   17.62
  -4   3   5  552.53   18.18
  -4   3   5  532.82   18.13
   3  -3  -5  142.29    5.61
   3  -3  -5  142.62    6.14
   3  -3  -5  146.99    6.02
  -3   3   5  140.52    6.06
  -3   3   5  137.13    6.05
   2  -3  -5   21.03    2.04
   2  -3  -5   26.26    1.64
   2  -3  -5   24.86    1.83
  -2   3   5   26.26    1.99
  -2   3   5   23.39    2.16
  -2   3   5   22.06    2.12
   1  -3  -5    0.71    0.47
   1  -3  -5    0.87    0.47
   1  -3  -5    1.11    0.38
  -1   3   5    0.57    0.47
  -1   3   5    0.89    0.48
  -1   3   5    0.73    0.46
   0  -3  -5  245.15    7.89
   0  -3  -5  261.76    8.62
   0  -3  -5  264.06    8.45
   0   3   5  239.57    8.48
   0   3   5  230.93    8.57
   0   3   5  248.37    8.49
   0   3   5  255.56    8.54
  -1  -3  -5  195.69    6.58
  -1  -3  -5  197.08    6.08
   1   3   5  198.84    6.80
   1   3   5  194.56    6.67
   1   3   5  191.99    6.91
   1   3   5  194.61    6.67
  -2  -3  -5  267.07    8.08
   2   3   5  261.54    8.82
   2   3   5  263.61    8.95
   2   3   5  281.88    8.64
   2   3   5  263.04    8.63
  -3  -3  -5    5.45    0.55
   3   3   5    4.18    0.79
   3   3   5    5.03    0.68
   3   3   5    5.99    0.73
   3   3   5    6.61    0.90
  -4  -3  -5   41.50    1.88
   4   3   5   40.27    1.79
   4   3   5   41.45    2.25
   4   3   5   39.99    1.95
   4   3   5   42.33    2.22
   4   3   5   40.20    1.99
  -5  -3  -5   35.82    1.91
   5   3   5   33.42    2.17
   5   3   5   36.40    1.86
   5   3   5   35.71    1.98
   5   3   5   35.26    2.13
   5   3   5   35.80    2.07
   5   3   5   33.96    2.14
   6   3   5   19.77    1.73
   6   3   5   11.83    1.44
   6   3   5   15.85    1.87
   6   3   5   14.02    1.64
   6   3   5   13.10    1.59
   6   3   5   16.23    1.52
   7   3   5   16.34    2.03
   7   3   5   18.69    1.89
   7   3   5   15.92    1.88
   7   3   5   17.19    2.00
   8   3   5   75.88    4.20
   8   3   5   79.96    3.97
   8   3   5   79.90    4.35
   8   3   5   73.09    4.41
   9   3   5    2.58    1.08
   9   3   5    0.94    0.71
   9   3   5    1.81    1.04
   9   3   5    0.75    0.96
   7  -4  -5   -0.09    0.66
   7  -4  -5   -0.16    0.76
  -7   4   5    0.54    1.01
   6  -4  -5   77.10    4.76
   6  -4  -5   80.87    4.44
  -6   4   5   74.94    4.82
  -6   4   5   79.23    4.98
   5  -4  -5  290.47   10.85
   5  -4  -5  300.11   11.42
  -5   4   5  307.02   11.74
  -5   4   5  293.64   11.61
   4  -4  -5  193.10    7.46
   4  -4  -5  190.82    8.06
   4  -4  -5  193.49    7.93
  -4   4   5  194.00    8.16
  -4   4   5  202.40    8.25
   3  -4  -5   23.38    2.42
   3  -4  -5   24.19    2.34
   3  -4  -5   22.75    1.99
  -3   4   5   24.29    2.60
  -3   4   5   25.26    2.59
   2  -4  -5   22.60    2.03
   2  -4  -5   20.79    2.06
   2  -4  -5   21.05    1.72
  -2   4   5   17.88    1.97
  -2   4   5   24.99    2.42
  -2   4   5   22.56    2.24
   1  -4  -5    7.60    1.21
   1  -4  -5    8.35    0.88
   1  -4  -5    9.21    1.16
  -1   4   5    9.06    1.29
  -1   4   5    7.22    1.16
  -1   4   5    5.20    0.97
   0  -4  -5   -0.03    0.16
   0  -4  -5    0.19    0.21
   0  -4  -5    0.13    0.32
   0   4   5    0.12    0.31
   0   4   5    0.41    0.39
   0   4   5    0.09    0.28
   0   4   5    0.29    0.39
   1   4   5  373.86   11.66
   1   4   5  359.39   11.66
   1   4   5  363.42   11.83
   1   4   5  358.45   11.62
   2   4   5  269.35    8.72
   2   4   5  272.13    9.00
   2   4   5  272.57    8.86
   2   4   5  274.86    8.73
   3   4   5   11.45    1.09
   3   4   5   11.75    0.84
   3   4   5   12.72    0.86
   3   4   5   11.62    1.17
   4   4   5   85.68    3.47
   4   4   5   80.64    3.14
   4   4   5   87.33    3.22
   4   4   5   84.82    2.98
   4   4   5   85.04    3.43
  -5  -4  -5  102.95    3.90
   5   4   5   98.06    4.18
   5   4   5  101.94    4.76
   5   4   5  105.15    3.87
   5   4   5  106.46    3.98
   5   4   5  101.26    4.19
   5   4   5  108.15    4.10
   6   4   5  105.43    4.79
   6   4   5  109.25    4.57
   6   4   5   98.90    4.55
   6   4   5  107.91    4.48
   6   4   5  111.24    4.30
   6   4   5  106.37    4.38
   7   4   5   43.66    2.88
   7   4   5   53.47    3.02
   7   4   5   49.31    2.73
   7   4   5   54.27    2.93
   7   4   5   48.25    3.05
   8   4   5   17.73    2.00
   8   4   5   13.68    2.06
   8   4   5   17.27    2.11
   8   4   5   13.86    1.84
   9   4   5    2.01    1.01
   9   4   5    0.70    0.78
   9   4   5    1.38    0.87
   9   4   5    1.00    0.94
   7  -5  -5   24.15    2.95
  -7   5   5   34.31    3.96
   6  -5  -5    7.50    1.52
   6  -5  -5   11.77    2.12
  -6   5   5   12.61    2.34
  -6   5   5    9.86    2.10
   5  -5  -5  464.88   16.01
   5  -5  -5  467.12   16.55
  -5   5   5  467.27   16.98
  -5   5   5  476.50   17.04
   4  -5  -5  508.42   17.34
   4  -5  -5  529.37   16.92
  -4   5   5  490.78   17.78
  -4   5   5  513.38   17.83
   3  -5  -5    0.57    0.55
   3  -5  -5    2.08    0.74
  -3   5   5    0.03    0.71
  -3   5   5    0.82    0.68
   2  -5  -5   97.26    4.27
   2  -5  -5  103.19    3.95
   2  -5  -5   95.31    4.41
  -2   5   5   96.84    4.59
  -2   5   5   88.73    4.46
  -2   5   5   98.13    4.68
  -2   5   5   96.87    4.63
   1  -5  -5   11.47    1.37
   1  -5  -5   10.80    1.21
   1  -5  -5   12.04    1.07
  -1   5   5    9.47    1.35
  -1   5   5   10.42    1.41
  -1   5   5   11.20    1.48
   0  -5  -5   64.77    2.31
   0  -5  -5   63.38    2.46
   0   5   5   64.68    3.12
   0   5   5   65.27    3.11
   0   5   5   67.00    3.10
   0   5   5   68.65    3.13
   1   5   5    4.61    0.76
   1   5   5    3.45    0.70
   1   5   5    5.64    0.83
   1   5   5    4.13    0.74
   2   5   5   95.93    3.58
   2   5   5   99.33    3.58
   2   5   5   99.43    3.75
   2   5   5   91.52    3.58
   3   5   5   63.90    2.70
   3   5   5   67.09    2.52
   3   5   5   68.14    2.64
   3   5   5   66.89    2.52
   4   5   5   10.80    0.76
   4   5   5   12.55    1.14
   4   5   5   12.63    0.82
   4   5   5   12.29    1.08
   5   5   5  111.19    4.00
   5   5   5  106.31    3.91
   5   5   5  106.87    4.21
   5   5   5  115.87    5.47
   5   5   5  108.69    4.06
   6   5   5   21.59    1.60
   6   5   5   19.65    1.46
   6   5   5   17.24    1.54
   6   5   5   17.08    1.58
   6   5   5   16.66    1.73
   6   5   5   18.64    2.34
   7   5   5   83.81    4.33
   7   5   5   84.78    3.87
   7   5   5   84.89    3.96
   7   5   5   77.00    4.00
   7   5   5   82.57    3.72
   8   5   5   -0.21    0.51
   8   5   5   -0.73    0.41
   8   5   5   -0.08    0.67
   9   5   5   35.23    3.28
   9   5   5   42.88    3.00
   9   5   5   28.78    3.27
   6  -6  -5    6.61    1.53
  -6   6   5    8.51    2.11
  -6   6   5    9.01    2.13
   5  -6  -5  122.32    5.65
  -5   6   5  124.23    6.58
  -5   6   5  128.02    6.66
   4  -6  -5   21.77    2.14
  -4   6   5   22.79    2.72
  -4   6   5   21.08    2.71
   3  -6  -5   74.31    3.51
  -3   6   5   75.08    4.33
  -3   6   5   78.20    4.43
   2  -6  -5  498.48   16.02
  -2   6   5  519.21   17.23
  -2   6   5  507.04   17.17
   1  -6  -5   25.03    1.38
  -1   6   5   27.27    2.40
  -1   6   5   25.15    2.34
  -1   6   5   24.43    2.32
  -1   6   5   27.58    2.39
   0   6   5    0.88    0.47
   0   6   5    2.05    0.63
   0   6   5    1.52    0.65
   0   6   5    1.20    0.56
   1   6   5  110.73    4.38
   1   6   5  115.77    4.44
   1   6   5  119.30    4.49
   1   6   5  110.09    4.42
   2   6   5   27.07    1.50
   2   6   5   25.50    1.45
   2   6   5   28.85    1.56
   2   6   5   27.64    1.51
   3   6   5   14.70    0.88
   3   6   5   14.76    0.92
   3   6   5   12.40    0.83
   3   6   5   12.36    1.05
   4   6   5   23.36    1.10
   4   6   5   23.36    1.10
   4   6   5   25.49    1.24
   4   6   5   23.93    1.27
   5   6   5   27.52    1.37
   5   6   5   31.04    3.41
   5   6   5   27.94    1.42
   5   6   5   27.24    1.54
   6   6   5  102.23    4.15
   6   6   5   95.06    4.05
   6   6   5  104.94    4.03
   6   6   5  105.85    3.98
   6   6   5   96.63    5.41
   7   6   5   13.42    1.56
   7   6   5   13.61    1.50
   7   6   5   17.93    2.40
   7   6   5    9.60    1.49
   8   6   5   -0.29    0.50
   8   6   5   -0.42    0.68
   8   6   5   -0.19    0.50
   5  -7  -5    2.99    1.02
  -5   7   5    1.93    1.27
  -5   7   5    2.35    1.22
   4  -7  -5    0.78    0.67
  -4   7   5    1.57    1.15
  -4   7   5    1.26    1.07
   3  -7  -5   10.54    1.36
  -3   7   5    9.22    1.78
  -3   7   5    8.03    1.66
   2  -7  -5    5.46    0.85
  -2   7   5    3.33    1.02
  -2   7   5    5.74    1.33
  -1   7   5    5.19    1.17
  -1   7   5    4.13    1.07
   0   7   5  373.80   13.16
   0   7   5  395.94   13.08
   0   7   5  367.35   13.16
   0   7   5  409.01   13.11
   1   7   5  197.05    7.04
   1   7   5  194.89    6.97
   1   7   5  196.41    7.06
   2   7   5  180.36    6.19
   2   7   5  172.75    6.19
   2   7   5  188.98    6.27
   3   7   5   19.69    1.11
   3   7   5   17.61    1.04
   3   7   5   19.83    1.09
   5   7   5   14.81    2.46
   5   7   5   13.67    0.85
   5   7   5   14.66    0.96
   6   7   5   85.46    3.65
   6   7   5   96.08    5.64
   6   7   5   97.22    3.63
   6   7   5   93.00    3.70
   6   7   5   93.98    3.56
   7   7   5   -0.36    0.48
   7   7   5    0.43    0.45
   7   7   5    0.82    0.98
   7   7   5    0.28    0.45
  -5   8   5   65.57    4.82
  -5   8   5   61.44    5.42
  -4   8   5   33.88    3.61
  -4   8   5   36.28    3.81
  -3   8   5    9.21    1.81
  -3   8   5   10.38    1.98
  -2   8   5    5.63    1.38
  -2   8   5    4.65    1.28
  -1   8   5   90.10    4.63
  -1   8   5   92.15    4.65
   0   8   5    0.63    0.58
   0   8   5   -0.52    0.36
   1   8   5  155.04    6.03
   1   8   5  156.46    6.02
   2   8   5   86.96    3.58
   2   8   5   82.62    3.56
   2   8   5   86.58    3.51
   2   8   5   90.70    3.54
   3   8   5   10.11    0.92
   3   8   5   10.88    0.96
   3   8   5    9.94    0.90
   5   8   5    6.09    1.82
   6   8   5    7.59    2.01
   6   8   5    5.37    0.65
   7   8   5    6.22    0.89
   7   8   5    5.87    0.84
   7   8   5    6.33    1.76
  -3   9   5   -0.56    0.70
  -3   9   5   -0.19    0.70
  -2   9   5    2.16    1.05
  -2   9   5    2.55    1.09
  -1   9   5   11.61    1.86
  -1   9   5   11.99    1.88
   0   9   5   83.28    4.32
   0   9   5   88.59    4.39
   1   9   5  408.91   13.77
   1   9   5  411.34   13.79
   2   9   5    2.41    0.71
   2   9   5    2.47    0.72
   3   9   5  100.16    3.83
   3   9   5  102.31    3.85
   3   9   5  102.74    3.78
   5   9   5   12.30    2.74
  -2  10   5   -0.06    0.76
  -2  10   5    0.41    0.76
  -1  10   5    7.08    1.51
  -1  10   5    6.56    1.54
   0  10   5   35.84    2.75
   0  10   5   35.83    3.22
   1  10   5    0.60    0.69
   1  10   5    1.83    0.81
   2  10   5   30.59    2.14
   2  10   5   33.62    2.20
   3  10   5   16.91    1.49
   4  10   5   11.54    2.82
  -1   9  -6   46.96    4.92
  -1   9  -6   49.87    5.08
  -1   9  -6   48.83    5.08
  -2   9  -6    0.83    1.07
  -2   9  -6    2.90    1.64
  -2   9  -6    3.79    1.69
   2   8  -6   32.82    3.78
   2   8  -6   29.19    3.77
   1   8  -6    1.57    1.19
   1   8  -6    0.72    1.26
   0   8  -6    6.65    1.93
   0   8  -6    5.87    1.84
   0   8  -6    8.45    1.96
  -1   8  -6  105.95    6.34
  -1   8  -6  106.17    6.44
  -1   8  -6  101.59    6.12
  -2   8  -6    0.98    1.06
  -2   8  -6    0.71    1.06
  -2   8  -6    0.09    1.01
  -3   8  -6   -0.44    0.73
  -3   8  -6   -1.31    1.00
  -3   8  -6    1.09    1.21
  -4   8  -6    9.52    2.29
  -4   8  -6   11.10    2.48
  -4   8  -6    7.73    1.93
  -5   8  -6   -0.99    1.02
  -5   8  -6    0.15    1.22
   4   7  -6    0.32    0.92
   4   7  -6   -0.18    1.05
   3   7  -6    5.20    1.79
   3   7  -6    2.75    1.32
   2   7  -6   -0.20    0.93
   2   7  -6   -1.10    0.65
   1   7  -6    0.37    0.95
   1   7  -6    0.54    0.86
   0   7  -6    9.06    2.03
   0   7  -6    6.22    1.79
  -1   7  -6   50.74    3.96
  -1   7  -6   48.05    4.64
  -1   7  -6   52.33    3.95
  -2   7  -6    5.76    1.62
  -2   7  -6    5.17    1.62
  -2   7  -6    5.60    1.50
  -3   7  -6    0.42    1.14
  -3   7  -6    2.01    1.12
  -3   7  -6    0.83    1.09
  -4   7  -6    2.25    1.46
  -4   7  -6    3.68    1.51
  -4   7  -6    3.50    1.21
  -5   7  -6   -0.57    0.95
  -5   7  -6   -0.10    1.07
  -6   7  -6    7.76    2.28
  -6   7  -6   11.37    2.53
   5   6  -6    0.33    1.04
   5   6  -6    1.98    1.43
   5   6  -6    1.17    1.08
   4   6  -6   45.10    4.44
   4   6  -6   38.34    3.88
   3   6  -6   37.21    3.76
   3   6  -6   42.62    4.18
   2   6  -6    1.37    1.15
   2   6  -6    5.11    1.48
   1   6  -6   37.71    3.78
   1   6  -6   32.25    3.30
   0   6  -6    1.27    1.07
   0   6  -6   -0.16    0.68
  -1   6  -6    0.70    0.89
  -1   6  -6    4.23    1.46
  -1   6  -6    3.14    1.17
   1  -6   6    0.68    0.68
  -2   6  -6   54.12    4.82
  -2   6  -6   51.74    3.61
  -2   6  -6   46.53    4.32
   2  -6   6   48.52    3.32
   2  -6   6   51.77    3.49
  -3   6  -6   26.36    3.29
  -3   6  -6   22.13    2.64
  -3   6  -6   25.63    3.22
   3  -6   6   23.27    2.95
   3  -6   6   21.21    2.50
  -4   6  -6    0.86    0.94
  -4   6  -6    2.46    1.19
  -4   6  -6    1.30    0.79
   4  -6   6    1.22    0.94
   4  -6   6    1.99    0.93
  -5   6  -6   -0.49    0.90
  -5   6  -6    0.37    0.84
   5  -6   6    0.62    0.78
   5  -6   6   -0.41    0.73
  -6   6  -6    8.17    2.08
  -6   6  -6    9.13    2.11
   6  -6   6    6.94    1.90
   6  -6   6    9.47    1.99
  -7   6  -6   24.01    3.53
   7  -6   6   22.13    3.25
   7  -6   6   15.27    3.00
   5   5  -6   10.31    2.17
   5   5  -6    9.33    2.13
   5   5  -6    9.19    1.99
   4   5  -6    2.80    1.16
   4   5  -6    1.84    1.18
   3   5  -6  117.96    6.18
   3   5  -6   97.88    5.53
   2   5  -6   13.66    2.32
   2   5  -6   12.31    2.10
   1   5  -6   -0.28    0.57
   1   5  -6   -0.01    0.74
  -1  -5   6    0.00    0.51
   0   5  -6   53.59    3.87
   0   5  -6   53.41    3.63
   0  -5   6   56.53    3.36
  -1   5  -6   53.14    3.92
  -1   5  -6   60.64    3.89
   1  -5   6   56.55    3.42
   1  -5   6   52.24    3.23
  -2   5  -6   63.37    4.12
  -2   5  -6   63.83    4.32
  -2   5  -6   64.92    3.90
   2  -5   6   67.23    3.93
   2  -5   6   67.11    3.75
  -3   5  -6   93.47    4.71
  -3   5  -6   87.63    5.27
  -3   5  -6   95.61    5.31
   3  -5   6   94.15    4.77
   3  -5   6   93.55    4.97
   3  -5   6   89.03    4.81
  -4   5  -6   64.21    4.28
  -4   5  -6   60.44    4.21
  -4   5  -6   56.65    3.36
   4  -5   6   59.37    3.74
   4  -5   6   59.11    3.98
   4  -5   6   58.65    3.80
  -5   5  -6    2.80    1.30
  -5   5  -6    1.68    1.11
  -5   5  -6    2.25    0.82
   5  -5   6    1.80    1.03
   5  -5   6    2.64    1.02
   5  -5   6    2.33    1.09
  -6   5  -6    6.66    1.82
  -6   5  -6    6.63    1.67
   6  -5   6    2.53    1.17
   6  -5   6    4.80    1.62
  -7   5  -6   18.28    2.98
   7  -5   6   21.58    3.10
   7  -5   6   12.73    2.58
  -8   5  -6   -0.04    1.04
   8  -5   6    0.01    1.10
   8  -5   6    0.53    1.02
   6   4  -6   11.43    2.26
   6   4  -6   13.81    2.48
   6   4  -6   11.15    2.38
   5   4  -6   74.61    4.78
   5   4  -6   81.57    4.72
   5   4  -6   72.72    5.10
   4   4  -6   23.78    2.84
   4   4  -6   19.97    2.77
   3   4  -6   17.19    2.44
   3   4  -6   16.49    2.30
  -3  -4   6   22.70    2.26
   2   4  -6    7.63    1.77
   2   4  -6    9.70    1.73
  -2  -4   6    7.16    1.27
   1   4  -6    7.15    1.61
   1   4  -6    5.68    1.27
  -1  -4   6    6.82    1.29
  -1  -4   6    4.95    1.02
   0   4  -6   -0.08    0.53
   0   4  -6   -0.37    0.62
   0  -4   6    0.29    0.48
   0  -4   6    0.40    0.50
  -1   4  -6  161.94    7.47
  -1   4  -6  172.37    7.34
   1  -4   6  160.58    6.82
   1  -4   6  174.75    6.78
  -2   4  -6   25.16    2.81
  -2   4  -6   26.50    3.03
   2  -4   6   29.31    2.80
   2  -4   6   23.90    2.35
  -3   4  -6   39.68    3.10
  -3   4  -6   47.25    3.97
   3  -4   6   46.70    3.15
   3  -4   6   38.02    2.74
  -4   4  -6  140.84    6.73
  -4   4  -6  133.62    6.66
   4  -4   6  131.58    6.30
   4  -4   6  154.46    6.45
   4  -4   6  134.90    6.44
  -5   4  -6   47.12    3.55
  -5   4  -6   38.99    3.89
   5  -4   6   44.83    3.42
   5  -4   6   37.78    3.43
   5  -4   6   43.38    3.23
  -6   4  -6  230.99    9.75
  -6   4  -6  211.57    9.51
   6  -4   6  195.37    9.28
   6  -4   6  222.84    9.36
   6  -4   6  226.20    9.19
  -7   4  -6   20.00    2.85
   7  -4   6   21.88    3.06
   7  -4   6   26.70    3.00
   7  -4   6   29.39    3.40
  -8   4  -6    0.27    0.93
   8  -4   6    0.39    0.90
   8  -4   6   -0.84    0.88
   8  -4   6    1.25    1.08
   6   3  -6    3.69    1.43
   6   3  -6    1.18    0.95
   6   3  -6    3.50    1.53
   5   3  -6    3.17    1.19
   5   3  -6    4.89    1.41
   5   3  -6    3.29    1.34
   4   3  -6  403.98   15.01
   4   3  -6  405.00   14.59
  -4  -3   6  389.29   13.76
   3   3  -6   27.04    2.94
   3   3  -6   29.50    3.22
  -3  -3   6   32.30    2.29
   2   3  -6   -0.25    0.48
   2   3  -6    0.76    0.78
  -2  -3   6    0.19    0.48
  -2  -3   6    0.10    0.37
   1   3  -6    9.07    1.57
   1   3  -6    8.43    1.57
  -1  -3   6   10.12    1.40
  -1  -3   6   10.33    1.45
   0   3  -6   66.26    3.80
   0   3  -6   76.36    4.21
   0  -3   6   63.41    3.45
   0  -3   6   70.49    3.48
  -1   3  -6    2.92    0.97
  -1   3  -6    4.13    1.06
   1  -3   6    6.51    1.20
   1  -3   6    4.78    1.04
  -2   3  -6   33.37    3.07
  -2   3  -6   34.68    3.13
   2  -3   6   30.34    2.20
   2  -3   6   33.99    2.43
  -3   3  -6   45.90    3.11
  -3   3  -6   44.57    3.77
   3  -3   6   39.09    2.64
   3  -3   6   38.45    2.73
  -4   3  -6   12.88    2.00
  -4   3  -6   12.09    1.89
   4  -3   6   11.25    1.70
   4  -3   6   14.14    2.03
   4  -3   6    9.96    1.69
  -5   3  -6  126.48    6.44
  -5   3  -6  144.96    6.73
   5  -3   6  138.75    6.40
   5  -3   6  149.28    6.40
   5  -3   6  134.65    6.52
  -6   3  -6   26.59    2.97
  -6   3  -6   30.12    3.31
   6  -3   6   28.06    3.21
   6  -3   6   25.36    2.84
   6  -3   6   25.70    2.87
  -7   3  -6   29.33    3.30
   7  -3   6   30.33    3.53
   7  -3   6   29.84    3.41
   7  -3   6   24.21    2.85
  -8   3  -6    1.20    1.81
   8  -3   6    2.10    1.19
   8  -3   6    1.06    1.06
   8  -3   6    0.77    1.17
   9  -3   6   37.11    4.28
   9  -3   6   19.37    2.90
   9  -3   6   20.63    3.40
   7   2  -6    2.48    1.31
   7   2  -6    2.26    1.31
   7   2  -6    1.98    1.31
   6   2  -6   23.76    3.10
   6   2  -6   20.04    3.09
   6   2  -6   16.84    2.43
   5   2  -6    6.70    1.69
   5   2  -6    6.18    1.49
   5   2  -6    5.34    1.43
  -5  -2   6    4.85    1.23
   4   2  -6   57.65    4.01
   4   2  -6   57.56    3.54
   4   2  -6   58.18    3.76
  -4  -2   6   55.01    3.32
   3   2  -6  102.81    5.24
   3   2  -6  122.48    5.84
  -3  -2   6  104.63    4.85
  -3  -2   6  109.35    4.89
   2   2  -6   44.79    3.87
   2   2  -6   39.28    2.84
  -2  -2   6   39.90    2.47
  -2  -2   6   39.14    2.50
   1   2  -6   22.58    2.44
   1   2  -6   22.97    2.29
  -1  -2   6   25.38    1.89
  -1  -2   6   21.46    2.00
   0   2  -6   17.10    2.09
   0   2  -6   18.57    2.05
   0  -2   6   20.89    1.91
   0  -2   6   19.39    1.88
  -1   2  -6   40.99    2.78
  -1   2  -6   47.11    3.09
   1  -2   6   45.25    2.58
   1  -2   6   49.37    2.71
  -2   2  -6  564.01   18.92
  -2   2  -6  561.23   19.05
   2  -2   6  602.92   18.55
   2  -2   6  564.67   18.59
  -3   2  -6    2.32    0.82
  -3   2  -6    2.83    0.98
   3  -2   6    2.88    0.80
   3  -2   6    2.58    0.94
   3  -2   6    2.66    0.70
  -4   2  -6   20.30    2.31
  -4   2  -6   23.35    2.45
   4  -2   6   19.66    2.07
  -5   2  -6    4.70    1.27
  -5   2  -6    4.01    1.23
   5  -2   6    4.10    1.08
   5  -2   6    4.43    1.12
   5  -2   6    4.84    1.24
  -6   2  -6   86.15    4.94
  -6   2  -6   84.60    5.53
   6  -2   6   99.89    5.11
   6  -2   6  103.62    5.10
   6  -2   6   95.90    5.24
  -7   2  -6    1.67    1.00
   7  -2   6    0.51    0.84
   7  -2   6    0.77    0.87
   7  -2   6    1.14    0.81
   8  -2   6   87.75    5.14
   8  -2   6   76.63    5.24
   8  -2   6   83.16    5.17
   9  -2   6   63.33    4.59
   9  -2   6   49.70    4.69
   9  -2   6   54.77    5.54
   7   1  -6   -0.37    0.73
   7   1  -6   -0.36    0.99
   7   1  -6    0.77    0.99
   6   1  -6    0.93    1.07
   6   1  -6    2.80    1.26
   6   1  -6    1.50    0.96
   5   1  -6    4.62    1.32
   5   1  -6    8.18    1.80
   5   1  -6    3.81    1.16
  -5  -1   6    3.79    1.15
   4   1  -6   24.38    2.77
   4   1  -6   16.23    2.02
   4   1  -6   12.65    2.00
  -4  -1   6   15.78    1.93
  -4  -1   6   19.80    2.20
   3   1  -6   10.45    1.84
   3   1  -6    8.81    1.62
  -3  -1   6    8.78    1.37
  -3  -1   6   10.73    1.60
   2   1  -6  218.67    8.57
   2   1  -6  228.42    8.92
  -2  -1   6  223.80    8.17
  -2  -1   6  214.23    8.16
   1   1  -6  274.88   10.07
   1   1  -6  278.53   10.40
  -1  -1   6  277.66    9.70
  -1  -1   6  273.77    9.67
   0   1  -6  188.49    7.52
   0   1  -6  187.67    7.30
   0  -1   6  180.13    6.90
   0  -1   6  185.40    6.87
  -1   1  -6    4.80    1.16
  -1   1  -6    0.94    0.56
   1  -1   6    2.36    0.70
   1  -1   6    2.73    0.68
  -2   1  -6  195.33    7.59
  -2   1  -6  196.45    7.49
   2  -1   6  188.24    7.15
   2  -1   6  191.79    7.09
  -3   1  -6  185.08    7.31
  -3   1  -6  180.78    7.20
   3  -1   6  175.01    6.40
   3  -1   6  174.98    6.95
   3  -1   6  198.37    6.96
  -4   1  -6   10.16    1.63
  -4   1  -6   10.99    1.58
   4  -1   6   13.40    1.68
   4  -1   6   11.38    1.65
  -5   1  -6   38.74    2.78
  -5   1  -6   42.71    2.89
   5  -1   6   43.91    2.94
   5  -1   6   41.99    2.75
  -6   1  -6    3.24    1.00
   6  -1   6    4.01    1.11
   6  -1   6    5.86    1.39
   6  -1   6    5.22    1.30
  -7   1  -6    5.13    1.29
   7  -1   6    5.57    1.30
   7  -1   6    4.46    1.26
   7  -1   6    4.10    1.32
   8  -1   6  109.84    5.92
   8  -1   6  104.50    5.13
   8  -1   6  108.70    5.78
   8  -1   6   98.27    5.89
   9  -1   6    6.49    1.89
   9  -1   6   11.29    1.90
   9  -1   6   12.00    2.20
   9  -1   6    7.78    1.83
   7   0  -6    3.70    1.45
   7   0  -6    3.06    1.39
   7   0  -6    2.90    1.39
   6   0  -6   -0.68    0.74
   6   0  -6    0.94    0.90
   6   0  -6    0.53    0.88
  -6   0   6   -0.04    0.74
   5   0  -6   12.39    2.01
   5   0  -6   12.17    2.07
   5   0  -6   12.36    1.93
  -5   0   6   13.67    1.98
   4   0  -6   11.99    1.97
   4   0  -6   15.64    2.03
   4   0  -6   13.24    1.92
  -4   0   6   14.61    1.94
  -4   0   6   14.94    1.93
   3   0  -6  197.04    8.12
   3   0  -6  201.49    7.50
   3   0  -6  180.23    7.68
  -3   0   6  191.52    7.45
  -3   0   6  190.21    7.52
   2   0  -6    0.67    0.60
   2   0  -6   -0.27    0.44
  -2   0   6    1.28    0.58
  -2   0   6    1.37    0.62
   1   0  -6  426.46   14.17
   1   0  -6  403.66   13.80
  -1   0   6  403.83   13.43
  -1   0   6  390.61   13.37
   0   0  -6    0.71    0.60
   0   0  -6    1.11    0.60
   0   0   6    1.42    0.53
   0   0   6    1.03    0.50
  -1   0  -6  206.28    7.89
  -1   0  -6  210.05    7.73
   1   0   6  211.09    7.40
   1   0   6  208.76    7.42
   1   0   6  193.56    7.77
  -2   0  -6   12.19    1.54
  -2   0  -6   11.25    1.48
   2   0   6   11.15    1.53
   2   0   6   10.08    1.23
   2   0   6   14.78    1.56
  -3   0  -6   81.93    3.83
  -3   0  -6   74.29    3.68
   3   0   6   72.32    3.88
   3   0   6   75.63    3.48
   3   0   6   75.40    3.53
  -4   0  -6  289.32   10.22
  -4   0  -6  286.93   10.19
   4   0   6  279.68    9.95
   4   0   6  296.83   10.20
   4   0   6  293.65   10.66
   4   0   6  277.28    8.88
  -5   0  -6   13.31    1.73
   5   0   6   11.88    1.55
   5   0   6   12.26    1.87
   5   0   6   11.11    1.65
  -6   0  -6   44.87    2.88
   6   0   6   46.92    2.98
   6   0   6   43.69    3.04
   6   0   6   42.58    2.95
   7   0   6   60.52    4.01
   7   0   6   63.64    3.92
   7   0   6   65.79    3.91
   7   0   6   63.75    3.42
   8   0   6   70.45    4.78
   8   0   6   85.88    4.92
   8   0   6   80.71    4.24
   8   0   6   92.29    4.94
   9   0   6   35.66    3.90
   9   0   6   20.18    3.18
   9   0   6   32.02    3.14
   9   0   6   38.81    3.87
   7  -1  -6    8.56    1.86
   7  -1  -6    7.01    2.08
   7  -1  -6    9.56    2.15
  -7   1   6   10.54    2.07
   6  -1  -6   48.33    4.46
   6  -1  -6   54.41    3.97
   6  -1  -6   59.56    3.84
  -6   1   6   52.27    3.72
   5  -1  -6   13.64    2.18
   5  -1  -6   13.99    2.21
   5  -1  -6   14.46    2.04
  -5   1   6   13.13    2.01
  -5   1   6   11.33    1.78
   4  -1  -6    7.47    1.59
   4  -1  -6    9.72    1.54
   4  -1  -6    5.68    1.52
  -4   1   6   11.97    1.89
  -4   1   6    9.22    1.57
   3  -1  -6  697.01   22.86
   3  -1  -6  740.45   23.30
   3  -1  -6  679.52   22.39
  -3   1   6  701.91   22.68
  -3   1   6  696.51   22.68
   2  -1  -6    4.58    0.91
   2  -1  -6    7.11    1.30
   2  -1  -6    3.32    0.99
  -2   1   6    5.42    1.08
  -2   1   6    5.28    1.05
   1  -1  -6   63.64    3.33
   1  -1  -6   61.77    3.47
  -1   1   6   59.91    3.09
  -1   1   6   61.37    3.13
   0  -1  -6   54.42    3.02
   0  -1  -6   49.72    2.78
   0   1   6   47.71    2.56
   0   1   6   48.14    2.82
   0   1   6   45.80    2.51
  -1  -1  -6  143.59    5.57
  -1  -1  -6  138.10    5.70
   1   1   6  133.62    5.68
   1   1   6  141.41    5.37
   1   1   6  143.34    5.35
  -2  -1  -6  118.42    4.91
   2   1   6  135.34    4.85
   2   1   6  118.42    4.78
   2   1   6  120.69    5.20
  -3  -1  -6  142.97    5.61
  -3  -1  -6  144.26    5.17
  -3  -1  -6  139.80    5.60
   3   1   6  141.51    5.51
   3   1   6  160.67    5.55
   3   1   6  142.18    5.97
  -4  -1  -6   12.54    1.49
  -4  -1  -6   12.90    1.47
   4   1   6   10.60    1.60
   4   1   6   10.68    1.28
   4   1   6   12.66    1.50
  -5  -1  -6    3.10    0.80
  -5  -1  -6    4.70    0.96
   5   1   6    2.92    0.79
   5   1   6    3.81    1.05
   5   1   6    3.07    0.87
  -6  -1  -6    1.38    0.63
   6   1   6    0.68    0.51
   6   1   6    1.49    0.76
   6   1   6    1.69    0.73
   6   1   6    0.69    0.56
   7   1   6    0.12    0.58
   7   1   6    0.36    0.51
   7   1   6    0.07    0.59
   7   1   6    0.17    0.56
   8   1   6    1.76    0.97
   8   1   6    4.06    1.14
   8   1   6    2.01    0.92
   8   1   6    3.34    1.01
   9   1   6    2.80    1.25
   9   1   6    6.94    1.51
   9   1   6    5.61    1.57
   9   1   6    4.77    1.60
   7  -2  -6    0.21    0.72
   7  -2  -6   -0.02    0.85
  -7   2   6   -0.82    0.75
   6  -2  -6    2.90    1.83
   6  -2  -6    1.28    1.03
   6  -2  -6    2.54    1.12
  -6   2   6    0.85    0.92
   5  -2  -6    4.07    1.22
   5  -2  -6    3.86    1.32
   5  -2  -6    2.18    0.94
  -5   2   6    3.09    1.14
  -5   2   6    3.37    1.08
   4  -2  -6  345.93   12.74
   4  -2  -6  334.60   11.96
   4  -2  -6  334.64   12.39
  -4   2   6  333.28   12.26
  -4   2   6  331.85   12.21
   3  -2  -6    0.76    0.57
   3  -2  -6    0.72    0.90
   3  -2  -6    0.55    0.84
  -3   2   6    1.24    0.91
  -3   2   6   -0.89    0.73
   2  -2  -6    9.73    1.48
   2  -2  -6    9.97    1.59
   2  -2  -6    7.10    1.11
  -2   2   6    9.11    1.48
  -2   2   6   12.13    1.69
   1  -2  -6    0.29    0.31
   1  -2  -6   -0.38    0.36
   1  -2  -6    0.70    0.52
  -1   2   6    1.13    0.56
  -1   2   6   -0.23    0.33
  -1   2   6    0.09    0.40
   0  -2  -6  185.64    7.08
   0  -2  -6  181.02    6.86
   0   2   6  185.14    6.76
   0   2   6  184.45    7.08
   0   2   6  185.71    6.80
  -1  -2  -6   12.70    1.36
   1   2   6   12.83    1.31
   1   2   6   12.00    1.29
   1   2   6   14.12    1.64
   1   2   6   11.66    1.37
  -2  -2  -6    0.21    0.39
  -2  -2  -6    0.65    0.42
   2   2   6    0.33    0.35
   2   2   6    1.07    0.58
   2   2   6    0.17    0.33
   2   2   6    0.21    0.40
  -3  -2  -6   56.26    2.75
  -3  -2  -6   62.11    2.56
  -3  -2  -6   65.99    2.83
   3   2   6   67.58    3.18
   3   2   6   71.51    3.39
   3   2   6   62.69    2.87
   3   2   6   60.09    2.81
  -4  -2  -6  192.97    6.63
  -4  -2  -6  191.87    6.61
   4   2   6  199.28    6.92
   4   2   6  200.94    6.98
   4   2   6  181.02    7.31
   4   2   6  190.22    7.25
  -5  -2  -6    0.68    0.40
   5   2   6   -0.14    0.47
   5   2   6    0.41    0.52
   5   2   6   -0.37    0.41
   5   2   6    0.52    0.44
   6   2   6    4.90    1.08
   6   2   6    5.07    0.89
   6   2   6    4.96    1.04
   6   2   6    4.76    1.05
   7   2   6    0.06    0.37
   7   2   6    0.05    0.46
   7   2   6   -0.08    0.53
   7   2   6    0.13    0.55
   8   2   6   37.86    3.40
   8   2   6   38.82    3.54
   8   2   6   40.49    2.69
   8   2   6   45.41    4.01
   9   2   6    5.18    1.48
   9   2   6    5.33    1.54
   9   2   6    5.66    1.35
   9   2   6    2.28    0.99
   7  -3  -6    4.21    1.41
   7  -3  -6    4.07    1.57
  -7   3   6    2.07    1.28
   6  -3  -6   13.27    2.16
   6  -3  -6   13.86    2.31
  -6   3   6   15.55    2.53
   5  -3  -6    0.76    0.74
   5  -3  -6    0.58    0.79
  -5   3   6    0.18    0.86
  -5   3   6    0.69    0.79
   4  -3  -6  426.23   15.37
   4  -3  -6  431.42   15.13
   4  -3  -6  437.62   14.63
  -4   3   6  410.89   15.07
  -4   3   6  428.73   15.15
   3  -3  -6  605.82   19.75
   3  -3  -6  603.24   19.24
   3  -3  -6  585.99   20.02
  -3   3   6  588.90   19.79
  -3   3   6  602.81   19.89
   2  -3  -6   91.47    4.64
   2  -3  -6   99.93    4.13
   2  -3  -6   94.08    4.45
  -2   3   6   97.32    4.57
  -2   3   6   97.89    4.56
   1  -3  -6    0.30    0.29
   1  -3  -6    0.90    0.53
   1  -3  -6    0.00    0.40
  -1   3   6    0.12    0.41
  -1   3   6    0.24    0.41
  -1   3   6   -0.04    0.43
   0  -3  -6  276.08    9.22
   0  -3  -6  271.54    8.59
   0  -3  -6  262.41    9.34
   0   3   6  269.10    9.20
   0   3   6  251.26    9.38
   0   3   6  260.97    9.17
  -1  -3  -6  218.16    7.56
  -1  -3  -6  215.90    7.67
   1   3   6  219.16    8.01
   1   3   6  223.77    7.72
   1   3   6  231.01    7.71
   1   3   6  218.19    7.80
  -2  -3  -6    0.30    0.18
  -2  -3  -6    0.14    0.26
  -2  -3  -6   -0.14    0.26
   2   3   6    0.76    0.43
   2   3   6    0.17    0.31
   2   3   6    0.63    0.44
   2   3   6    0.55    0.35
  -3  -3  -6  146.37    4.83
   3   3   6  150.98    5.32
   3   3   6  146.67    5.30
   3   3   6  148.38    5.58
   3   3   6  141.52    5.69
  -4  -3  -6   70.89    2.83
   4   3   6   72.66    3.51
   4   3   6   71.37    3.06
   4   3   6   74.93    3.16
   4   3   6   67.87    3.33
  -5  -3  -6   70.43    3.18
   5   3   6   85.34    3.95
   5   3   6   81.36    3.46
   5   3   6   79.42    3.56
   5   3   6   75.05    3.72
   6   3   6   57.67    3.03
   6   3   6   53.32    2.66
   6   3   6   53.37    3.09
   6   3   6   61.75    2.76
   7   3   6    6.48    1.25
   7   3   6    8.78    1.46
   7   3   6    9.47    1.27
   7   3   6   11.07    1.73
   8   3   6   40.82    2.65
   8   3   6   44.79    3.02
   8   3   6   43.93    3.09
   8   3   6   39.87    3.65
   9   3   6    3.41    1.12
   9   3   6    3.18    1.29
   9   3   6    3.17    1.01
   9   3   6    2.77    1.17
   6  -4  -6   15.71    2.23
   6  -4  -6   10.61    2.13
  -6   4   6   16.18    2.56
  -6   4   6   14.28    2.42
   5  -4  -6   22.62    2.53
   5  -4  -6   21.03    2.71
  -5   4   6   14.40    2.33
  -5   4   6   18.68    2.63
   4  -4  -6    4.74    1.24
   4  -4  -6    5.73    1.24
  -4   4   6    4.79    1.29
  -4   4   6    6.31    1.45
   3  -4  -6  170.41    6.50
   3  -4  -6  168.65    6.94
  -3   4   6  158.97    7.06
  -3   4   6  169.57    7.17
   2  -4  -6    0.15    0.50
   2  -4  -6   -0.05    0.45
   2  -4  -6    0.89    0.48
  -2   4   6    0.74    0.67
  -2   4   6    0.45    0.60
  -2   4   6    0.48    0.58
   1  -4  -6  124.83    5.32
   1  -4  -6  128.01    4.66
   1  -4  -6  130.89    5.20
  -1   4   6  129.34    5.35
  -1   4   6  116.41    5.23
  -1   4   6  125.49    5.40
   0  -4  -6    0.61    0.47
   0  -4  -6    0.59    0.38
   0  -4  -6    0.29    0.23
   0   4   6    0.32    0.44
   0   4   6   -0.08    0.42
   0   4   6    0.53    0.45
   0   4   6    0.52    0.42
  -1  -4  -6    0.62    0.20
  -1  -4  -6    0.59    0.32
   1   4   6    0.45    0.39
   1   4   6    0.31    0.35
   1   4   6    0.69    0.43
   1   4   6    0.42    0.45
   2   4   6   54.44    2.78
   2   4   6   61.28    3.01
   2   4   6   63.72    2.75
   2   4   6   65.86    2.80
   3   4   6    5.54    0.77
   3   4   6    5.01    0.89
   3   4   6    5.33    0.87
   3   4   6    5.74    0.79
  -4  -4  -6  278.57    8.82
   4   4   6  281.69    9.30
   4   4   6  302.51    9.29
   4   4   6  279.44    9.59
   4   4   6  277.66    9.71
  -5  -4  -6   28.66    1.60
   5   4   6   31.68    1.78
   5   4   6   29.43    1.81
   5   4   6   32.04    2.13
   6   4   6   35.49    1.96
   6   4   6   41.02    2.32
   6   4   6   38.20    2.52
   6   4   6   38.06    2.38
   7   4   6  105.08    4.66
   7   4   6   97.46    4.18
   7   4   6   95.62    4.70
   7   4   6   94.19    4.46
   8   4   6   37.94    2.41
   8   4   6   37.92    2.78
   8   4   6   28.10    3.00
   8   4   6   32.78    2.88
   9   4   6    0.76    0.95
   9   4   6   -0.36    0.57
   9   4   6   -0.83    0.53
   6  -5  -6    0.10    0.64
  -6   5   6   -0.97    0.78
  -6   5   6   -0.04    0.92
   5  -5  -6   -0.02    0.80
   5  -5  -6   -0.16    0.56
  -5   5   6   -0.57    0.69
  -5   5   6    0.15    0.91
   4  -5  -6  235.13    9.20
   4  -5  -6  222.67    8.52
  -4   5   6  230.05    9.51
  -4   5   6  218.68    9.42
   3  -5  -6   23.17    2.07
   3  -5  -6   22.63    2.39
  -3   5   6   23.25    2.72
  -3   5   6   21.57    2.55
   2  -5  -6   21.91    1.53
   2  -5  -6   21.16    2.08
  -2   5   6   20.95    2.39
  -2   5   6   21.33    2.33
   1  -5  -6   29.15    1.94
   1  -5  -6   29.05    1.60
  -1   5   6   31.53    2.25
  -1   5   6   32.89    2.30
  -1   5   6   29.25    2.58
   0  -5  -6    3.12    0.63
   0  -5  -6    2.48    0.40
   0   5   6    2.67    0.75
   0   5   6    3.24    0.82
   0   5   6    2.18    0.71
   0   5   6    4.11    0.91
   1   5   6  218.73    7.81
   1   5   6  213.26    7.64
   1   5   6  214.88    7.64
   1   5   6  222.80    7.65
   2   5   6   15.54    1.39
   2   5   6   14.06    1.49
   2   5   6   11.29    1.24
   2   5   6   13.79    1.28
   3   5   6  524.29   16.49
   3   5   6  511.02   16.22
   3   5   6  533.73   16.30
   3   5   6  540.11   16.69
   4   5   6   13.00    1.37
   4   5   6   12.55    0.97
   4   5   6   11.35    1.04
   4   5   6   14.25    1.34
   5   5   6    2.03    0.64
   5   5   6    0.43    0.37
   5   5   6    0.32    0.35
   6   5   6   10.79    1.81
   6   5   6   11.58    1.31
   6   5   6    9.43    1.29
   7   5   6   21.94    2.25
   7   5   6   18.21    1.97
   7   5   6   22.08    2.08
   8   5   6    7.89    1.63
   8   5   6   10.12    1.53
   8   5   6    6.54    1.37
   6  -6  -6   17.48    2.34
  -6   6   6   15.81    2.76
  -6   6   6   12.28    2.46
   5  -6  -6    1.66    0.82
  -5   6   6    1.59    1.26
  -5   6   6    3.74    1.47
   4  -6  -6  130.34    5.65
  -4   6   6  134.76    6.68
  -4   6   6  128.55    6.54
   3  -6  -6    3.76    0.85
  -3   6   6    6.67    1.57
  -3   6   6    6.05    1.47
   2  -6  -6   91.68    3.79
  -2   6   6   89.72    4.72
  -2   6   6   92.05    4.72
   1  -6  -6   15.81    1.09
  -1   6   6   17.54    2.05
  -1   6   6   14.24    1.86
   0   6   6   42.37    2.55
   0   6   6   42.17    2.52
   0   6   6   37.62    2.44
   1   6   6   98.55    4.28
   1   6   6  103.25    4.28
   1   6   6  104.71    4.31
   2   6   6  318.79   10.47
   2   6   6  313.77   10.61
   2   6   6  328.36   10.47
   3   6   6  104.22    4.23
   3   6   6  112.72    4.06
   3   6   6  110.93    4.04
   4   6   6   41.35    1.89
   4   6   6   42.27    1.89
   4   6   6   41.00    2.13
   5   6   6  189.06    6.31
   5   6   6  187.05    6.35
   5   6   6  189.35    6.67
   6   6   6   72.49    3.31
   6   6   6   75.24    3.23
   6   6   6   79.61    4.64
   7   6   6   12.24    1.42
   7   6   6   11.34    1.50
   7   6   6    9.98    1.44
   8   6   6   -0.55    0.42
   8   6   6   -0.20    0.65
   8   6   6    0.06    0.51
   5  -7  -6   14.10    2.04
  -5   7   6   18.16    2.87
  -5   7   6   20.11    3.06
   4  -7  -6   -0.67    0.40
  -4   7   6   -0.43    0.69
  -4   7   6    0.38    0.86
   3  -7  -6    7.50    1.19
  -3   7   6    6.81    1.65
  -3   7   6   10.66    2.02
  -2   7   6   83.63    4.63
  -2   7   6   88.61    4.72
  -1   7   6   48.54    3.10
  -1   7   6   45.24    3.04
   0   7   6    1.10    0.63
   0   7   6    1.11    0.63
   1   7   6    0.86    0.58
   1   7   6    0.25    0.50
   2   7   6  674.46   21.04
   2   7   6  673.61   20.98
   2   7   6  683.81   20.99
   3   7   6  154.27    5.28
   3   7   6  149.20    5.43
   3   7   6  151.20    5.27
   4   7   6    1.09    0.35
   4   7   6    0.23    0.36
   4   7   6    0.28    0.31
   5   7   6    1.10    0.35
   5   7   6    0.23    0.32
   5   7   6    1.34    0.49
   6   7   6    3.03    0.62
   6   7   6    3.47    0.72
   6   7   6    3.44    1.32
   6   7   6    2.90    0.64
   7   7   6    0.79    0.60
   7   7   6    0.46    0.50
   7   7   6    0.58    0.48
  -4   8   6   21.34    2.98
  -4   8   6   16.08    2.53
  -3   8   6   86.80    5.06
  -3   8   6   77.18    4.85
  -2   8   6   -0.03    0.54
  -2   8   6    0.17    0.75
  -1   8   6   52.23    3.46
  -1   8   6   59.67    3.60
   0   8   6   43.07    2.81
   0   8   6   42.96    2.84
   1   8   6  317.04   10.96
   1   8   6  319.08   11.02
   2   8   6  228.54    8.00
   2   8   6  229.44    7.99
   3   8   6    1.61    0.47
   3   8   6    1.36    0.51
   3   8   6    1.47    0.48
   4   8   6    0.71    0.34
   4   8   6    0.77    0.32
   4   8   6    0.22    0.30
   5   8   6    0.59    0.33
   5   8   6    0.65    0.26
   6   8   6    3.23    1.46
   6   8   6    2.85    0.54
   6   8   6    3.67    0.64
  -3   9   6   90.15    5.42
  -3   9   6   87.12    5.35
  -2   9   6   48.29    3.61
  -2   9   6   44.98    4.02
  -1   9   6   26.88    2.81
  -1   9   6   22.14    2.61
   0   9   6    3.50    1.08
   0   9   6    3.30    1.05
   1   9   6    3.82    1.01
   1   9   6    2.40    0.86
   2   9   6  119.92    4.89
   2   9   6  121.26    4.93
   3   9   6    3.44    0.72
   3   9   6    4.70    0.80
   4   9   6    0.52    0.32
   5   9   6    0.44    1.02
  -1  10   6    5.58    1.43
  -1  10   6    6.49    1.56
   0  10   6    0.77    0.78
   0  10   6    0.75    0.76
   1  10   6  142.13    6.15
   1  10   6  149.53    6.23
   2  10   6    6.05    1.12
   2  10   6    7.02    1.18
   3  10   6  266.74    8.97
   1   8  -7   16.25    3.19
   1   8  -7   18.69    3.05
   0   8  -7    8.02    2.29
   0   8  -7    8.51    2.13
  -1   8  -7    3.23    1.68
  -1   8  -7    3.48    1.57
  -2   8  -7   29.98    4.04
  -2   8  -7   37.80    4.36
  -3   8  -7    7.72    2.12
  -3   8  -7    5.54    1.93
  -3   8  -7    8.43    2.15
   3   7  -7   63.83    5.85
   3   7  -7   56.30    5.18
   2   7  -7    4.97    1.71
   2   7  -7    9.11    2.22
   1   7  -7   11.64    2.49
   1   7  -7   11.23    2.35
   0   7  -7    1.76    1.25
   0   7  -7   -0.25    1.02
  -1   7  -7   11.19    2.36
  -1   7  -7    7.21    1.88
  -2   7  -7    4.04    1.72
  -2   7  -7    1.67    1.32
  -3   7  -7   21.54    3.18
  -3   7  -7   19.76    3.13
  -4   7  -7   25.80    3.60
  -4   7  -7   26.52    3.66
  -5   7  -7    7.75    2.10
  -5   7  -7    4.37    1.80
   4   6  -7    0.49    1.13
   4   6  -7    1.33    1.39
   3   6  -7    5.00    1.67
   3   6  -7    5.90    1.87
   2   6  -7   41.94    4.32
   2   6  -7   44.22    4.17
   1   6  -7   75.97    5.20
   1   6  -7   78.37    4.97
   0   6  -7   -0.01    0.89
   0   6  -7    1.38    1.16
  -1   6  -7  126.83    6.82
  -1   6  -7  116.87    6.43
  -2   6  -7    0.71    0.88
  -2   6  -7   -0.09    0.92
   2  -6   7   -0.60    0.50
  -3   6  -7    8.65    2.09
  -3   6  -7   11.88    2.31
   3  -6   7   10.65    2.01
   3  -6   7   13.63    2.27
  -4   6  -7   -0.63    0.75
  -4   6  -7    0.99    1.07
   4  -6   7   -0.49    0.73
   4  -6   7   -0.22    0.66
  -5   6  -7   -0.37    0.75
  -5   6  -7   -0.46    0.88
   5  -6   7    1.10    0.94
   5  -6   7    0.49    0.80
  -6   6  -7    0.41    0.94
   6  -6   7    1.38    1.10
   6  -6   7    0.19    1.03
   5   5  -7   10.56    2.31
   5   5  -7   11.19    2.57
   5   5  -7    8.22    1.85
   4   5  -7   30.64    3.90
   3   5  -7   71.04    4.74
   3   5  -7   72.75    5.09
   2   5  -7   14.01    2.59
   2   5  -7   15.35    2.57
   1   5  -7   97.25    5.72
   1   5  -7   89.79    5.27
  -1  -5   7   93.41    4.78
   0   5  -7   35.47    3.89
   0   5  -7   29.71    3.31
   0  -5   7   28.61    2.88
  -1   5  -7   54.89    4.83
  -1   5  -7   54.99    3.95
   1  -5   7   53.08    3.52
  -2   5  -7    1.73    1.13
  -2   5  -7    1.32    0.97
   2  -5   7    1.16    0.82
  -3   5  -7   10.66    2.16
  -3   5  -7    9.04    2.00
   3  -5   7    9.55    1.72
   3  -5   7    8.09    1.65
  -4   5  -7    0.24    0.89
  -4   5  -7   -0.91    0.77
   4  -5   7    0.58    0.82
   4  -5   7    0.20    0.68
  -5   5  -7    0.36    0.96
  -5   5  -7    0.75    0.80
   5  -5   7    0.39    0.77
   5  -5   7   -0.74    0.71
  -6   5  -7    8.15    2.10
   6  -5   7    6.15    1.64
   6  -5   7    4.19    1.46
  -7   5  -7   -0.52    0.91
   7  -5   7   -0.69    0.74
   7  -5   7   -0.36    0.76
   5   4  -7  217.36    9.85
   5   4  -7  205.60    9.29
   5   4  -7  219.79   10.29
   4   4  -7   20.17    3.08
   4   4  -7   17.08    2.65
   3   4  -7    7.42    1.82
   3   4  -7    4.44    1.47
   2   4  -7    9.95    1.97
   2   4  -7    9.27    2.06
  -2  -4   7   10.98    1.71
   1   4  -7    0.81    0.95
   1   4  -7    0.49    0.70
  -1  -4   7    0.80    0.63
   0   4  -7   64.61    4.07
   0   4  -7   59.72    4.21
   0  -4   7   57.07    3.40
   0  -4   7   65.87    3.69
  -1   4  -7   13.16    2.05
  -1   4  -7   17.89    2.52
   1  -4   7   18.47    2.15
   1  -4   7   15.01    1.97
  -2   4  -7   34.07    3.46
  -2   4  -7   32.79    3.34
   2  -4   7   30.77    2.77
   2  -4   7   35.22    3.26
  -3   4  -7   24.38    3.05
  -3   4  -7   24.67    2.97
   3  -4   7   22.96    2.66
   3  -4   7   23.36    2.52
  -4   4  -7   10.54    2.00
  -4   4  -7    9.31    1.89
   4  -4   7   11.74    2.07
   4  -4   7   10.13    1.75
   4  -4   7   16.25    2.29
  -5   4  -7   -0.59    0.64
  -5   4  -7    2.11    1.19
   5  -4   7    0.37    0.82
   5  -4   7   -0.57    0.64
   5  -4   7   -1.41    0.43
  -6   4  -7    5.62    1.70
   6  -4   7    5.82    1.49
   6  -4   7    6.51    1.69
   6  -4   7    7.45    1.72
  -7   4  -7   29.93    3.85
   7  -4   7   27.14    3.57
   7  -4   7   29.58    3.56
   7  -4   7   27.56    3.33
   8  -4   7    8.16    2.79
   8  -4   7    7.46    2.12
   8  -4   7    7.12    2.00
   6   3  -7   22.72    3.20
   6   3  -7   20.31    3.25
   6   3  -7   19.88    2.94
   5   3  -7    1.23    0.90
   5   3  -7    2.34    1.41
   5   3  -7    1.40    1.12
   4   3  -7   69.46    4.90
   4   3  -7   69.20    4.56
   3   3  -7   78.90    5.02
   3   3  -7   78.34    4.71
  -3  -3   7   77.15    4.13
   2   3  -7   43.33    3.28
   2   3  -7   42.36    3.91
  -2  -3   7   45.89    2.98
   1   3  -7   64.68    4.23
   1   3  -7   60.81    3.97
  -1  -3   7   61.60    3.43
  -1  -3   7   68.88    3.69
   0   3  -7  179.48    7.64
   0   3  -7  173.17    7.86
   0  -3   7  181.04    7.18
   0  -3   7  168.14    6.95
  -1   3  -7    0.55    0.79
  -1   3  -7    0.65    0.76
   1  -3   7    0.36    0.51
   1  -3   7   -0.02    0.48
  -2   3  -7    0.23    0.84
  -2   3  -7    0.93    0.82
   2  -3   7    2.32    0.87
   2  -3   7    1.87    0.79
  -3   3  -7   32.08    3.25
  -3   3  -7   34.61    3.35
   3  -3   7   35.73    2.57
   3  -3   7   37.52    3.32
  -4   3  -7   11.02    1.89
  -4   3  -7   15.41    2.29
   4  -3   7   17.09    2.27
   4  -3   7   13.34    1.88
  -5   3  -7   83.69    4.97
  -5   3  -7   87.32    5.10
   5  -3   7   86.32    4.83
   5  -3   7   88.29    4.76
   5  -3   7   87.67    4.97
  -6   3  -7   38.25    3.86
   6  -3   7   58.14    4.98
   6  -3   7   46.97    3.56
   6  -3   7   54.30    3.68
  -7   3  -7   78.62    5.04
   7  -3   7   72.85    5.00
   7  -3   7   75.12    4.84
   7  -3   7   82.45    4.92
   8  -3   7   61.37    5.25
   8  -3   7   46.97    4.78
   8  -3   7   53.09    4.80
   6   2  -7    0.06    1.08
   6   2  -7    0.50    1.07
   6   2  -7    2.23    1.17
   5   2  -7    1.24    1.01
   5   2  -7    1.27    1.16
   5   2  -7    1.38    0.98
   4   2  -7   34.66    3.67
   4   2  -7   39.11    4.01
   4   2  -7   34.28    3.20
  -4  -2   7   37.34    3.31
   3   2  -7  287.16   11.35
   3   2  -7  284.56   11.71
  -3  -2   7  300.67   10.77
   2   2  -7  268.33   10.46
   2   2  -7  274.89   10.87
  -2  -2   7  254.15    9.75
  -2  -2   7  274.77    9.94
   1   2  -7  344.43   12.79
   1   2  -7  346.74   13.15
  -1  -2   7  348.93   12.24
  -1  -2   7  362.73   12.26
   0   2  -7   20.94    2.43
   0   2  -7   16.67    2.32
   0  -2   7   19.79    2.02
   0  -2   7   21.53    2.15
  -1   2  -7    5.23    1.34
  -1   2  -7    5.07    1.35
   1  -2   7    4.23    1.02
   1  -2   7    4.47    1.06
  -2   2  -7   36.84    2.76
  -2   2  -7   41.23    3.61
   2  -2   7   32.82    2.35
   2  -2   7   35.70    2.49
  -3   2  -7  103.89    5.26
  -3   2  -7  105.06    5.22
   3  -2   7  102.34    4.96
   3  -2   7  101.24    4.76
  -4   2  -7   18.30    2.32
  -4   2  -7   22.45    2.68
   4  -2   7   20.94    2.35
   4  -2   7   23.34    2.56
  -5   2  -7   25.25    2.80
  -5   2  -7   32.86    3.29
   5  -2   7   29.10    2.81
   5  -2   7   29.62    3.08
  -6   2  -7    1.65    0.99
   6  -2   7    1.11    0.77
   6  -2   7    1.52    0.90
   6  -2   7    0.10    0.77
  -7   2  -7   71.79    4.51
   7  -2   7   70.25    4.48
   7  -2   7   66.05    4.59
   7  -2   7   72.83    4.51
   8  -2   7   32.12    3.58
   8  -2   7   39.65    3.89
   8  -2   7   28.34    3.69
   9  -2   7    3.81    1.51
   9  -2   7    0.31    1.03
   9  -2   7    3.73    1.66
   6   1  -7   11.10    2.25
   6   1  -7    8.09    1.83
   6   1  -7   13.38    2.62
   5   1  -7   -0.68    0.53
   5   1  -7    0.31    0.77
   5   1  -7   -0.22    0.81
  -5  -1   7   -0.01    0.66
   4   1  -7   12.71    2.14
   4   1  -7   16.08    2.52
   4   1  -7    9.70    1.71
  -4  -1   7   12.09    1.81
   3   1  -7   56.88    3.69
   3   1  -7   47.39    4.26
  -3  -1   7   47.88    3.09
  -3  -1   7   51.83    3.24
   2   1  -7  946.72   30.31
   2   1  -7  920.71   29.84
  -2  -1   7  929.01   29.27
  -2  -1   7  924.15   29.33
   1   1  -7   11.62    1.95
   1   1  -7   13.18    1.87
  -1  -1   7   13.74    1.70
  -1  -1   7   12.25    1.68
   0   1  -7   44.76    2.99
   0   1  -7   48.44    3.25
   0  -1   7   44.38    2.72
   0  -1   7   44.30    2.65
  -1   1  -7    1.27    0.76
  -1   1  -7    1.16    0.64
   1  -1   7    0.67    0.49
   1  -1   7    1.61    0.70
  -2   1  -7   47.77    3.17
  -2   1  -7   48.20    3.06
   2  -1   7   47.05    2.80
   2  -1   7   50.09    2.81
  -3   1  -7  302.23   10.72
  -3   1  -7  305.57   10.82
   3  -1   7  267.37   10.22
   3  -1   7  272.81   10.11
  -4   1  -7   21.09    2.32
  -4   1  -7   25.18    2.57
   4  -1   7   22.23    2.30
   4  -1   7   19.18    1.36
   4  -1   7   20.51    2.15
  -5   1  -7   29.96    2.99
  -5   1  -7   28.49    2.89
   5  -1   7   28.33    2.82
   5  -1   7   31.13    2.88
  -6   1  -7   86.32    4.62
   6  -1   7   83.74    4.50
   6  -1   7   77.08    4.57
   6  -1   7   79.07    4.50
   7  -1   7   56.95    4.12
   7  -1   7   62.36    4.02
   7  -1   7   64.93    4.12
   8  -1   7    1.43    1.12
   8  -1   7    0.28    0.94
   8  -1   7    0.31    0.79
   9  -1   7  105.83    6.09
   9  -1   7   96.97    6.31
   9  -1   7  110.55    6.31
   6   0  -7    5.59    1.72
   6   0  -7    5.93    1.84
   6   0  -7    5.70    1.49
  -6   0   7    8.79    1.81
   5   0  -7    0.44    0.90
   5   0  -7    1.28    0.84
   5   0  -7    0.32    0.72
  -5   0   7    3.47    1.23
   4   0  -7    3.44    1.09
   4   0  -7    1.95    1.05
   4   0  -7    1.90    1.01
  -4   0   7    2.71    0.97
  -4   0   7    2.64    1.03
   3   0  -7  443.34   16.54
   3   0  -7  460.02   16.23
   3   0  -7  460.51   15.70
  -3   0   7  481.36   15.92
  -3   0   7  465.90   15.77
   2   0  -7  361.43   12.94
   2   0  -7  339.18   13.12
  -2   0   7  362.51   12.45
  -2   0   7  361.56   12.48
   1   0  -7  217.40    8.92
   1   0  -7  230.24    8.75
  -1   0   7  226.31    8.36
  -1   0   7  214.92    8.23
   0   0  -7   80.44    4.19
   0   0  -7   84.10    4.45
   0   0   7   83.34    3.94
   0   0   7   86.33    4.00
  -1   0  -7   57.86    3.50
  -1   0  -7   58.73    3.36
   1   0   7   56.56    3.08
   1   0   7   63.89    3.15
  -2   0  -7   43.45    2.74
  -2   0  -7   41.82    2.80
   2   0   7   43.50    2.51
   2   0   7   40.57    2.52
  -3   0  -7   80.15    4.03
  -3   0  -7   75.39    4.03
   3   0   7   77.64    3.83
   3   0   7   83.31    4.33
   3   0   7   84.23    3.85
  -4   0  -7   -0.04    0.49
  -4   0  -7    0.73    0.55
   4   0   7    1.40    0.66
   4   0   7    0.81    0.75
   4   0   7    0.19    0.31
   4   0   7   -0.05    0.40
  -5   0  -7    9.68    1.57
   5   0   7    6.06    1.20
   5   0   7    8.74    1.54
  -6   0  -7    5.77    1.25
   6   0   7    3.76    1.14
   6   0   7    3.26    1.06
   6   0   7    6.13    1.29
   7   0   7    6.05    1.41
   7   0   7    4.56    1.27
   7   0   7    3.21    1.17
   8   0   7   16.58    2.34
   8   0   7   13.95    2.42
   8   0   7   17.79    2.52
   9   0   7    3.37    1.47
   9   0   7    5.75    1.71
   9   0   7    0.94    0.99
   6  -1  -7   12.94    2.30
   6  -1  -7   15.54    2.34
  -6   1   7   13.30    2.22
   5  -1  -7   32.49    3.25
   5  -1  -7   32.51    3.60
   5  -1  -7   27.09    3.09
  -5   1   7   32.20    3.28
   4  -1  -7  109.87    5.21
   4  -1  -7  103.37    5.53
   4  -1  -7   96.43    5.67
  -4   1   7  106.36    5.32
  -4   1   7  112.35    5.46
   3  -1  -7  491.59   16.94
   3  -1  -7  474.41   16.35
   3  -1  -7  499.40   17.35
  -3   1   7  495.27   16.65
  -3   1   7  483.73   16.66
   2  -1  -7 1265.70   39.28
   2  -1  -7 1280.06   40.00
   2  -1  -7 1301.64   40.38
  -2   1   7 1305.63   39.63
  -2   1   7 1266.34   39.66
   1  -1  -7    3.55    0.99
   1  -1  -7    1.69    0.87
  -1   1   7    1.92    0.67
  -1   1   7    3.16    0.85
   0  -1  -7   21.59    2.21
   0  -1  -7   25.36    2.56
   0   1   7   24.74    2.20
   0   1   7   25.22    2.22
  -1  -1  -7  118.24    5.34
  -1  -1  -7  116.85    5.14
   1   1   7  111.60    5.28
   1   1   7  122.36    4.97
   1   1   7  125.37    5.02
  -2  -1  -7  159.10    6.38
  -2  -1  -7  165.57    6.54
   2   1   7  154.40    6.64
   2   1   7  163.43    6.15
   2   1   7  163.33    6.22
  -3  -1  -7   45.75    2.63
   3   1   7   41.77    2.44
   3   1   7   39.33    2.42
   3   1   7   43.33    2.86
  -4  -1  -7  141.13    5.62
  -4  -1  -7  128.50    5.47
   4   1   7  127.85    5.97
   4   1   7  135.17    5.46
   4   1   7  136.18    5.57
  -5  -1  -7    1.14    0.58
   5   1   7    0.77    0.53
   5   1   7    1.23    0.70
   6   1   7  151.64    6.61
   6   1   7  146.64    6.31
   7   1   7   14.39    2.14
   7   1   7   17.63    2.27
   7   1   7   16.46    2.18
   8   1   7   26.40    3.03
   8   1   7   22.70    2.93
   8   1   7   25.74    2.88
   9   1   7  103.84    5.83
   9   1   7  100.91    5.68
   9   1   7   89.09    5.79
   9   1   7  103.83    5.05
   6  -2  -7   10.11    1.88
   6  -2  -7   10.08    2.06
  -6   2   7    8.50    1.96
   5  -2  -7   23.37    2.70
   5  -2  -7   14.31    2.31
  -5   2   7   15.61    2.21
  -5   2   7   14.76    2.24
   4  -2  -7   -0.08    0.62
   4  -2  -7    1.52    0.87
   4  -2  -7   -0.03    0.68
  -4   2   7    1.97    0.95
  -4   2   7    2.06    0.92
   3  -2  -7   17.73    2.26
   3  -2  -7   17.02    2.40
   3  -2  -7   14.90    1.85
  -3   2   7   16.68    2.24
  -3   2   7   14.30    2.04
   2  -2  -7  271.88    9.52
   2  -2  -7  268.68   10.07
   2  -2  -7  256.03   10.29
  -2   2   7  278.93   10.02
  -2   2   7  262.35    9.91
   1  -2  -7   11.28    1.59
   1  -2  -7   13.12    1.94
   1  -2  -7   12.28    1.37
  -1   2   7   11.80    1.55
  -1   2   7   11.86    1.53
   0  -2  -7   -0.26    0.42
   0  -2  -7    0.12    0.43
   0   2   7    0.22    0.41
   0   2   7    0.15    0.40
   0   2   7    0.74    0.49
  -1  -2  -7   20.51    1.97
   1   2   7   23.76    1.72
   1   2   7   22.30    2.21
   1   2   7   21.00    1.91
  -2  -2  -7  356.26   11.90
  -2  -2  -7  341.44   11.99
   2   2   7  359.61   12.40
   2   2   7  360.87   11.85
   2   2   7  356.93   11.83
  -3  -2  -7  194.52    6.94
  -3  -2  -7  186.75    6.43
  -3  -2  -7  182.82    6.91
   3   2   7  183.47    7.44
   3   2   7  200.27    6.98
   3   2   7  193.21    6.98
  -4  -2  -7  350.87   11.34
  -4  -2  -7  339.05   11.32
  -4  -2  -7  333.13   11.06
   4   2   7  340.94   12.16
   4   2   7  346.87   11.58
   4   2   7  342.00   11.49
   5   2   7   51.58    5.10
   5   2   7   55.08    3.01
   5   2   7   63.55    3.25
   6   2   7   28.76    2.70
   6   2   7   22.20    2.20
   7   2   7   14.08    1.96
   7   2   7   10.73    1.83
   7   2   7   17.77    2.24
   8   2   7   90.25    4.90
   8   2   7   94.06    4.36
   8   2   7   94.45    4.89
   8   2   7   76.28    4.83
   9   2   7    3.90    1.31
   9   2   7    6.33    1.40
   9   2   7    4.96    1.51
   9   2   7    6.64    1.81
   6  -3  -7   39.98    3.88
   6  -3  -7   39.00    3.99
  -6   3   7   47.58    4.44
   5  -3  -7    1.19    1.09
   5  -3  -7    0.63    0.78
  -5   3   7    0.39    0.84
  -5   3   7    1.25    0.94
   4  -3  -7    0.75    0.74
   4  -3  -7    0.11    0.55
  -4   3   7    0.12    0.71
  -4   3   7    0.29    0.85
   3  -3  -7  406.95   14.22
   3  -3  -7  403.22   13.66
  -3   3   7  378.44   14.09
  -3   3   7  411.67   14.23
   2  -3  -7   45.56    3.21
   2  -3  -7   44.97    3.01
   2  -3  -7   49.29    2.68
  -2   3   7   47.41    3.04
  -2   3   7   53.20    3.19
   1  -3  -7   -0.21    0.43
   1  -3  -7    0.20    0.37
   1  -3  -7   -0.15    0.48
  -1   3   7   -0.31    0.47
  -1   3   7    0.45    0.52
  -1   3   7   -0.45    0.37
   0  -3  -7   32.31    1.76
   0  -3  -7   31.58    2.18
   0   3   7   32.50    2.88
   0   3   7   36.62    2.30
   0   3   7   31.35    2.17
  -1  -3  -7   15.56    1.63
  -1  -3  -7   21.65    2.04
   1   3   7   16.59    1.97
   1   3   7   17.86    1.68
   1   3   7   17.46    1.76
  -2  -3  -7  320.90   10.09
  -2  -3  -7  330.24   10.77
   2   3   7  328.97   11.41
   2   3   7  328.15   10.84
   2   3   7  322.55   11.16
   2   3   7  320.45   10.84
  -3  -3  -7    6.44    0.80
  -3  -3  -7    7.78    0.77
   3   3   7    5.51    1.10
   3   3   7    5.63    1.09
   3   3   7    6.61    0.98
   3   3   7    6.88    1.03
  -4  -3  -7  535.15   16.16
   4   3   7  556.82   16.81
   4   3   7  519.54   16.64
   4   3   7  511.27   17.26
   4   3   7  489.23   16.99
  -5  -3  -7    5.57    0.85
   5   3   7    4.87    1.23
   5   3   7    5.86    1.05
   5   3   7    5.49    0.97
   6   3   7    9.82    1.42
   6   3   7   11.64    1.60
   7   3   7    0.67    0.63
   7   3   7    2.05    0.84
   7   3   7   -0.33    0.46
   8   3   7    0.42    0.60
   8   3   7   -0.45    0.43
   8   3   7   -0.36    0.52
   8   3   7   -0.04    0.61
   9   3   7   11.66    2.03
   9   3   7   10.68    2.06
   9   3   7    8.37    1.76
   6  -4  -7    5.68    1.47
   6  -4  -7    1.70    1.23
  -6   4   7    2.28    1.31
   5  -4  -7   59.55    4.14
   5  -4  -7   62.15    3.80
  -5   4   7   60.10    4.23
  -5   4   7   62.93    4.30
   4  -4  -7   25.07    2.82
   4  -4  -7   31.71    2.83
  -4   4   7   25.20    2.91
  -4   4   7   28.42    3.03
   3  -4  -7   19.68    2.30
   3  -4  -7   18.83    2.06
  -3   4   7   20.35    2.51
  -3   4   7   16.18    2.23
   2  -4  -7   65.86    3.66
   2  -4  -7   58.87    3.08
  -2   4   7   68.41    3.82
  -2   4   7   67.49    3.77
   1  -4  -7   16.15    1.89
   1  -4  -7   15.78    1.45
  -1   4   7   12.82    1.68
  -1   4   7   16.13    1.93
   0  -4  -7    0.53    0.45
   0  -4  -7    1.71    0.66
   0  -4  -7    2.29    0.50
   0   4   7    1.01    0.59
   0   4   7    0.92    0.59
   0   4   7    1.65    0.70
  -1  -4  -7    0.65    0.25
  -1  -4  -7   -0.08    0.18
   1   4   7    0.30    0.48
   1   4   7    1.02    0.50
   1   4   7    0.92    0.56
   1   4   7    0.96    0.54
  -2  -4  -7   35.53    1.46
   2   4   7   35.18    2.22
   2   4   7   38.43    2.11
   2   4   7   35.84    2.37
   2   4   7   35.43    2.09
   3   4   7  787.80   24.80
   3   4   7  750.20   24.50
   3   4   7  796.08   24.27
   3   4   7  813.11   24.27
  -4  -4  -7   12.87    0.83
   4   4   7   14.37    1.38
   4   4   7   13.51    1.69
   4   4   7   11.70    1.29
   5   4   7   10.81    1.56
   5   4   7   12.12    1.33
   5   4   7   14.07    1.51
   6   4   7    3.48    0.80
   6   4   7    1.88    0.78
   6   4   7    4.26    0.99
   7   4   7   57.73    3.29
   7   4   7   62.41    3.46
   7   4   7   60.34    3.51
   8   4   7   17.13    2.33
   8   4   7   21.83    2.49
   8   4   7   22.60    2.42
   9   4   7    6.50    1.60
   9   4   7    5.27    1.43
   9   4   7    7.24    1.57
   5  -5  -7   47.91    3.25
  -5   5   7   51.56    4.63
  -5   5   7   44.27    4.37
   4  -5  -7   -0.34    0.45
  -4   5   7    0.50    0.78
  -4   5   7   -0.78    0.66
   3  -5  -7   12.11    1.55
  -3   5   7   10.32    1.77
  -3   5   7    7.21    1.60
   2  -5  -7   12.44    1.43
  -2   5   7   18.15    2.23
  -2   5   7   14.82    2.00
   1  -5  -7   64.42    2.80
  -1   5   7   67.70    3.66
  -1   5   7   61.46    3.56
   0  -5  -7   13.05    0.88
   0   5   7   14.45    1.70
   0   5   7   14.99    1.76
   1   5   7   24.33    1.78
   1   5   7   26.57    2.38
   1   5   7   23.26    2.07
   2   5   7    7.37    1.07
   2   5   7    7.31    1.22
   2   5   7    6.74    1.01
   3   5   7  841.67   26.77
   3   5   7  852.68   26.33
   3   5   7  887.09   26.32
   4   5   7   82.85    3.80
   4   5   7   79.25    3.35
   4   5   7   79.63    3.37
   5   5   7   43.98    2.23
   5   5   7   39.74    2.80
   5   5   7   38.86    2.19
   6   5   7    5.75    1.03
   6   5   7    6.09    1.01
   6   5   7    7.08    1.48
   7   5   7    6.54    1.21
   7   5   7    5.52    1.13
   7   5   7    5.42    1.08
   8   5   7    0.67    0.65
   8   5   7    1.09    0.69
   8   5   7    1.43    0.84
   5  -6  -7    0.98    0.83
  -5   6   7    0.08    0.93
  -5   6   7    1.16    1.15
   4  -6  -7   21.84    2.29
  -4   6   7   19.46    2.74
  -4   6   7   20.03    2.77
   3  -6  -7    2.69    0.81
  -3   6   7    3.27    1.23
  -3   6   7    6.30    1.57
   2  -6  -7   33.69    2.05
  -2   6   7   40.66    3.52
  -2   6   7   33.07    3.14
   1  -6  -7    1.49    0.47
  -1   6   7    2.27    0.91
  -1   6   7    2.24    0.89
   0   6   7   58.07    3.25
   0   6   7   56.31    3.20
   1   6   7    3.20    0.83
   1   6   7    2.50    0.76
   2   6   7   86.96    3.98
   2   6   7   88.52    3.80
   2   6   7   86.94    3.77
   3   6   7    6.88    0.97
   3   6   7    7.78    1.18
   3   6   7    5.75    0.86
   4   6   7   34.44    1.85
   4   6   7   34.64    1.87
   4   6   7   33.64    2.14
   5   6   7   13.83    1.29
   5   6   7   15.85    1.42
   6   6   7    1.32    0.59
   6   6   7    1.22    0.94
   6   6   7    1.44    0.53
   7   6   7    7.42    1.18
   7   6   7    8.82    1.39
   7   6   7    8.17    1.30
   8   6   7   12.07    1.61
   8   6   7    8.40    1.57
   8   6   7    9.18    1.49
  -4   7   7   -0.09    0.83
  -4   7   7    0.76    1.07
  -3   7   7    9.67    2.02
  -3   7   7    2.63    1.21
  -2   7   7   14.21    2.19
  -2   7   7   15.43    2.28
  -1   7   7  103.45    5.10
  -1   7   7  100.75    5.04
   0   7   7  148.46    6.32
   0   7   7  152.35    6.33
   1   7   7   31.10    2.19
   1   7   7   31.55    2.55
   2   7   7   57.02    2.85
   2   7   7   55.35    2.83
   3   7   7  101.17    4.06
   3   7   7  103.17    4.09
   4   7   7    7.93    0.95
   4   7   7    9.26    1.02
   4   7   7    8.27    1.18
   5   7   7   17.30    1.19
   5   7   7   18.70    1.27
   6   7   7   31.25    3.68
   6   7   7   25.00    1.60
   6   7   7   25.86    1.71
   7   7   7    0.08    0.53
   7   7   7    0.43    0.52
   7   7   7    0.05    0.45
  -3   8   7    1.43    1.07
  -3   8   7    0.14    1.05
  -2   8   7   30.79    3.19
  -2   8   7   40.38    3.79
  -1   8   7    0.35    0.65
  -1   8   7    0.89    0.79
   0   8   7   11.08    1.70
   0   8   7   11.88    1.74
   1   8   7   74.49    3.73
   1   8   7   69.28    3.67
   2   8   7    3.09    0.81
   2   8   7    2.55    0.74
   3   8   7    9.52    1.13
   3   8   7    8.82    1.12
   4   8   7   56.82    2.50
   4   8   7   55.44    2.44
   5   8   7    3.78    0.63
   5   8   7    2.78    0.55
   6   8   7    7.70    2.10
  -2   9   7   12.70    2.28
  -2   9   7   11.39    2.10
  -1   9   7   29.18    3.10
  -1   9   7   27.09    2.91
   0   9   7   47.93    3.24
   0   9   7   51.58    3.31
   1   9   7    7.62    1.40
   1   9   7   10.62    1.56
   2   9   7   79.79    3.82
   2   9   7   82.33    3.82
   3   9   7   57.12    2.72
   3   9   7   52.90    2.66
   4   9   7    6.70    0.86
   1  10   7   10.91    1.67
   1   7  -8   26.35    3.60
   1   7  -8   27.88    3.85
   0   7  -8    1.96    1.27
   0   7  -8    0.72    1.44
  -1   7  -8    1.72    1.28
  -1   7  -8   -0.56    0.99
  -2   7  -8   -1.07    0.91
  -2   7  -8   -0.10    0.92
  -3   7  -8   43.68    4.78
  -3   7  -8   39.07    4.63
  -4   7  -8   -0.08    1.04
  -4   7  -8   -0.46    1.11
   3   6  -8   12.84    2.79
   3   6  -8   12.64    2.60
   2   6  -8    3.72    1.51
   2   6  -8    6.80    2.10
   1   6  -8    8.30    2.07
   1   6  -8    2.97    1.59
   0   6  -8    8.01    1.99
   0   6  -8    4.27    1.78
  -1   6  -8    0.36    1.05
  -1   6  -8   -0.52    0.85
  -2   6  -8    3.53    1.57
  -2   6  -8    9.21    2.11
   2  -6   8    4.73    2.26
  -3   6  -8    1.09    1.26
  -3   6  -8    0.24    1.02
   3  -6   8    0.63    0.91
  -4   6  -8   59.52    5.60
  -4   6  -8   70.06    5.09
   4  -6   8   66.69    7.75
   4  -6   8   62.05    4.58
  -5   6  -8   59.32    5.40
   5  -6   8   54.61    5.02
   5  -6   8   48.51    4.97
  -6   6  -8   14.01    2.84
   6  -6   8    9.48    2.25
   6  -6   8    9.78    2.18
   4   5  -8    0.70    1.25
   4   5  -8   -0.02    1.06
   3   5  -8    8.60    2.33
   3   5  -8   16.85    2.90
   2   5  -8    3.58    1.53
   2   5  -8    6.28    2.16
   1   5  -8   42.79    4.20
   1   5  -8   52.41    4.98
   0   5  -8  132.79    6.75
   0   5  -8  102.80    6.46
   0  -5   8  119.87    5.95
  -1   5  -8    2.76    1.24
  -1   5  -8   -0.24    0.90
   1  -5   8    1.10    0.84
  -2   5  -8   88.99    5.59
  -2   5  -8  106.99    6.23
   2  -5   8   99.14    5.39
  -3   5  -8    5.00    1.60
  -3   5  -8    5.90    1.70
   3  -5   8    3.07    1.16
  -4   5  -8   83.91    5.55
  -4   5  -8   83.80    5.46
   4  -5   8   85.82    5.27
   4  -5   8   85.73    5.11
  -5   5  -8   13.09    2.51
   5  -5   8   19.12    2.84
   5  -5   8   18.73    2.91
  -6   5  -8    0.87    1.08
   6  -5   8   -0.91    0.88
   6  -5   8    1.25    1.13
  -7   5  -8    0.56    1.22
   7  -5   8   -1.01    1.01
   7  -5   8    1.49    1.24
   4   4  -8    4.25    1.57
   4   4  -8    2.31    1.40
   3   4  -8   11.87    2.60
   3   4  -8   19.65    2.90
   2   4  -8   40.88    4.44
   2   4  -8   35.00    3.85
  -2  -4   8   43.63    3.92
   1   4  -8  285.27   11.62
   1   4  -8  283.39   11.98
  -1  -4   8  288.31   10.89
   0   4  -8   86.16    5.45
   0   4  -8   86.71    5.18
   0  -4   8   85.83    4.67
  -1   4  -8    7.10    1.67
  -1   4  -8    3.47    1.52
   1  -4   8    4.24    1.17
  -2   4  -8    9.22    1.94
  -2   4  -8   13.66    2.29
   2  -4   8   13.46    1.88
   2  -4   8   14.73    2.19
  -3   4  -8  178.68    8.46
  -3   4  -8  186.57    8.46
   3  -4   8  171.29    7.89
   3  -4   8  178.18    7.72
  -4   4  -8   18.77    2.76
  -4   4  -8   19.72    2.86
   4  -4   8   23.04    2.82
   4  -4   8   20.13    2.75
  -5   4  -8    9.32    2.08
   5  -4   8    9.17    1.90
   5  -4   8   12.59    2.07
   5  -4   8    8.74    1.93
  -6   4  -8   37.44    4.12
   6  -4   8   40.33    4.41
   6  -4   8   42.71    4.12
   6  -4   8   47.11    4.37
  -7   4  -8   10.26    2.28
   7  -4   8    8.08    2.08
   7  -4   8   12.66    2.30
   7  -4   8    9.77    2.29
   5   3  -8   26.62    3.58
   5   3  -8   35.43    3.76
   5   3  -8   31.11    4.01
   4   3  -8  112.40    6.89
   4   3  -8  122.70    6.70
   4   3  -8  122.90    6.24
   3   3  -8    1.06    1.07
   3   3  -8    0.61    1.15
  -3  -3   8    1.69    0.91
   2   3  -8    5.49    1.72
   2   3  -8    4.52    1.42
  -2  -3   8    8.18    1.61
   1   3  -8  195.22    9.11
   1   3  -8  206.42    8.91
  -1  -3   8  206.25    8.29
   0   3  -8  178.85    8.36
   0   3  -8  189.34    8.82
   0  -3   8  216.99    8.22
   0  -3   8  197.93    7.92
  -1   3  -8   10.61    1.96
  -1   3  -8   12.01    2.15
   1  -3   8   11.31    1.69
   1  -3   8    7.45    1.44
  -2   3  -8   10.91    1.91
  -2   3  -8   15.17    2.44
   2  -3   8   13.29    2.04
   2  -3   8   12.11    1.76
  -3   3  -8   78.32    4.82
  -3   3  -8   75.71    4.67
   3  -3   8   74.44    4.38
   3  -3   8   79.06    4.29
  -4   3  -8   32.91    3.51
  -4   3  -8   38.79    3.98
   4  -3   8   43.01    3.69
   4  -3   8   42.05    3.85
  -5   3  -8    2.07    1.07
   5  -3   8    3.97    1.23
   5  -3   8    2.47    1.14
   5  -3   8    0.77    0.79
  -6   3  -8   20.75    2.98
   6  -3   8   17.23    2.45
   6  -3   8   23.57    2.94
   6  -3   8   20.58    2.88
  -7   3  -8    5.45    1.70
   7  -3   8    7.75    1.81
   7  -3   8    6.97    1.84
   7  -3   8   14.42    2.53
   8  -3   8    9.18    2.02
   8  -3   8   10.46    2.36
   8  -3   8   11.76    2.50
   5   2  -8   24.16    3.37
   5   2  -8   21.85    3.42
   5   2  -8   21.51    2.90
   4   2  -8    0.07    0.99
   4   2  -8   -0.21    0.68
   4   2  -8   -0.81    0.95
  -4  -2   8   -0.05    0.63
   3   2  -8   -0.53    0.75
   3   2  -8    0.83    1.18
  -3  -2   8    0.23    0.69
   2   2  -8  543.45   20.04
   2   2  -8  592.14   19.82
  -2  -2   8  561.92   18.90
  -2  -2   8  559.11   18.95
   1   2  -8   18.79    2.75
   1   2  -8   20.75    2.65
  -1  -2   8   24.15    2.39
  -1  -2   8   29.22    2.75
   0   2  -8   14.59    2.31
   0   2  -8   17.67    2.36
   0  -2   8   16.42    2.03
   0  -2   8   16.51    2.04
  -1   2  -8    1.10    0.82
  -1   2  -8    0.25    0.69
   1  -2   8    1.04    0.60
   1  -2   8   -0.16    0.52
  -2   2  -8    3.17    1.22
  -2   2  -8    3.32    1.20
   2  -2   8    2.73    0.97
   2  -2   8    3.88    1.02
  -3   2  -8   35.63    3.39
  -3   2  -8   26.43    3.12
   3  -2   8   30.37    2.79
   3  -2   8   35.12    2.68
  -4   2  -8  105.04    5.63
  -4   2  -8  106.00    5.62
   4  -2   8  111.19    5.32
   4  -2   8  107.67    5.45
  -5   2  -8  103.96    5.65
   5  -2   8  107.38    5.70
   5  -2   8  112.24    5.51
  -6   2  -8    3.52    1.28
   6  -2   8    1.98    1.09
   6  -2   8    3.44    1.24
   6  -2   8    4.30    1.30
   7  -2   8   33.04    3.74
   7  -2   8   43.78    4.13
   7  -2   8   37.56    3.68
   8  -2   8    0.37    0.88
   8  -2   8    3.03    1.39
   8  -2   8    0.23    0.82
   5   1  -8    3.12    1.27
   5   1  -8    1.37    1.14
   5   1  -8    1.25    1.35
  -5  -1   8    1.01    0.93
   4   1  -8    3.22    1.53
   4   1  -8    5.66    1.66
   4   1  -8    3.96    1.36
  -4  -1   8    3.63    1.23
   3   1  -8   28.17    3.45
   3   1  -8   33.40    3.54
  -3  -1   8   43.32    5.60
  -3  -1   8   28.78    2.94
   2   1  -8    3.60    1.24
   2   1  -8    2.88    1.30
  -2  -1   8    3.68    1.03
  -2  -1   8    3.44    1.11
   1   1  -8  999.45   32.13
   1   1  -8 1010.86   32.55
  -1  -1   8 1002.87   31.40
  -1  -1   8  979.48   31.42
   0   1  -8  200.62    8.57
   0   1  -8  218.53    9.07
   0  -1   8  211.58    8.15
   0  -1   8  214.79    8.22
  -1   1  -8    1.54    0.92
  -1   1  -8    0.66    0.67
   1  -1   8    2.12    0.74
   1  -1   8    1.70    0.79
  -2   1  -8   14.06    2.08
  -2   1  -8   15.70    2.11
   2  -1   8   15.66    1.96
   2  -1   8   15.81    1.92
  -3   1  -8    6.40    1.44
  -3   1  -8    7.40    1.53
   3  -1   8    9.12    1.47
   3  -1   8    8.16    1.51
  -4   1  -8    0.32    0.63
  -4   1  -8   -0.11    0.56
   4  -1   8    0.53    0.58
   4  -1   8   -0.05    0.58
  -5   1  -8   70.15    4.22
   5  -1   8   76.75    4.38
   5  -1   8   71.41    4.11
  -6   1  -8    1.01    0.88
   6  -1   8    0.97    0.92
   6  -1   8    0.81    0.78
   7  -1   8   74.12    4.74
   7  -1   8   71.59    4.54
   7  -1   8   65.28    4.28
   8  -1   8   83.08    5.40
   8  -1   8   77.23    5.04
   8  -1   8   82.64    5.07
   9  -1   8   23.32    3.61
   9  -1   8   28.27    3.57
   9  -1   8   29.28    3.53
   6   0  -8    2.83    1.29
   6   0  -8   -0.24    1.02
   5   0  -8   38.07    3.67
   5   0  -8   43.27    4.53
   5   0  -8   37.84    4.13
  -5   0   8   38.27    3.75
   4   0  -8    3.88    1.37
   4   0  -8    1.16    0.89
   4   0  -8    3.92    1.37
  -4   0   8    2.09    1.03
   3   0  -8   40.12    3.38
   3   0  -8   33.46    3.62
   3   0  -8   41.24    3.95
  -3   0   8   43.17    3.62
  -3   0   8   36.35    3.26
   2   0  -8    4.09    1.26
   2   0  -8    4.81    1.49
  -2   0   8    3.10    0.96
  -2   0   8    3.86    1.19
   1   0  -8   78.76    4.51
   1   0  -8   84.70    4.88
  -1   0   8   85.58    4.30
  -1   0   8   87.77    4.39
   0   0  -8  184.23    8.03
   0   0  -8  183.95    7.75
   0   0   8  187.43    7.34
   0   0   8  192.25    7.44
  -1   0  -8  264.44   10.72
  -1   0  -8  287.22   10.60
   1   0   8  290.77   10.16
   1   0   8  282.44   10.19
  -2   0  -8    2.57    0.98
  -2   0  -8    3.00    0.92
   2   0   8    2.28    0.83
   2   0   8    4.44    1.04
  -3   0  -8   18.83    2.16
  -3   0  -8   16.09    2.11
   3   0   8   20.24    2.17
   3   0   8   16.10    1.84
  -4   0  -8    5.07    1.19
  -4   0  -8    6.86    1.68
   4   0   8    5.37    1.17
   4   0   8    6.73    1.24
  -5   0  -8  319.67   11.84
   5   0   8  329.61   11.99
   5   0   8  325.66   11.73
   6   0   8    2.48    1.09
   6   0   8    1.25    0.84
   7   0   8    8.70    1.79
   7   0   8   11.33    1.99
   7   0   8    7.29    1.66
   8   0   8    0.09    0.81
   8   0   8    0.13    0.83
   8   0   8    0.14    0.77
   9   0   8   58.33    4.88
   9   0   8   47.53    4.80
   9   0   8   47.58    4.60
   6  -1  -8   71.78    4.77
   6  -1  -8   77.79    5.32
  -6   1   8   76.35    4.91
   5  -1  -8   21.70    2.97
   5  -1  -8   21.60    2.75
  -5   1   8   19.48    2.60
   4  -1  -8   11.71    2.09
   4  -1  -8   11.64    2.32
   4  -1  -8   15.15    2.15
  -4   1   8   11.54    1.97
  -4   1   8   18.46    2.55
   3  -1  -8   13.67    2.27
   3  -1  -8   17.56    2.18
   3  -1  -8   17.26    2.36
  -3   1   8   18.14    2.32
  -3   1   8   17.68    2.23
   2  -1  -8  201.97    8.24
   2  -1  -8  181.56    7.42
   2  -1  -8  179.16    8.30
  -2   1   8  191.15    7.82
  -2   1   8  200.45    7.81
   1  -1  -8  120.62    6.08
   1  -1  -8  124.47    5.85
  -1   1   8  126.80    5.53
  -1   1   8  121.93    5.50
   0  -1  -8   79.34    4.23
   0  -1  -8   82.49    4.53
   0   1   8   75.68    3.93
   0   1   8   83.51    4.09
  -1  -1  -8   13.57    1.79
  -1  -1  -8   14.28    2.00
   1   1   8   17.99    1.93
   1   1   8   14.05    1.68
  -2  -1  -8   34.43    2.47
  -2  -1  -8   31.98    2.88
   2   1   8   38.21    2.40
   2   1   8   36.76    2.39
   2   1   8   31.88    2.97
  -3  -1  -8  135.77    5.71
   3   1   8  131.75    5.54
   3   1   8  119.72    5.93
   3   1   8  129.22    5.44
  -4  -1  -8   49.61    2.95
   4   1   8   44.99    2.84
   4   1   8   46.67    2.84
   5   1   8  133.79    5.67
   5   1   8  124.28    5.74
   6   1   8   24.34    2.55
   6   1   8   24.85    2.70
   7   1   8   23.58    2.85
   7   1   8   17.98    2.33
   7   1   8   21.38    2.51
   8   1   8    1.31    1.03
   8   1   8    2.21    1.02
   8   1   8    1.12    0.92
   9   1   8    1.97    1.12
   9   1   8    1.26    1.17
   9   1   8    2.20    1.29
   6  -2  -8   10.63    2.04
   6  -2  -8    7.51    2.03
  -6   2   8   11.06    2.21
   5  -2  -8   20.55    2.63
   5  -2  -8   16.46    2.61
  -5   2   8   18.18    2.76
   4  -2  -8  129.73    6.50
   4  -2  -8  126.59    5.98
  -4   2   8  120.01    6.22
  -4   2   8  127.11    6.24
   3  -2  -8    8.89    1.50
   3  -2  -8   10.11    1.85
  -3   2   8   11.30    1.78
  -3   2   8    9.67    1.73
   2  -2  -8    8.04    1.62
   2  -2  -8    9.03    1.46
   2  -2  -8   10.76    1.88
  -2   2   8   13.06    1.83
  -2   2   8   10.14    1.80
   1  -2  -8    3.60    0.84
   1  -2  -8    2.55    1.01
   1  -2  -8    4.28    1.16
  -1   2   8    1.69    0.76
  -1   2   8    3.65    1.07
   0  -2  -8    3.05    0.94
   0  -2  -8    1.75    0.83
   0   2   8    2.59    0.86
   0   2   8    3.76    0.99
  -1  -2  -8    0.00    0.42
  -1  -2  -8   -0.04    0.46
   1   2   8    0.00    0.44
   1   2   8    0.59    0.57
   1   2   8    0.03    0.49
  -2  -2  -8  234.39    8.50
  -2  -2  -8  223.94    8.58
   2   2   8  219.79    8.90
   2   2   8  231.38    8.39
   2   2   8  232.88    8.35
  -3  -2  -8   67.68    3.42
  -3  -2  -8   67.23    2.92
   3   2   8   61.31    3.77
   3   2   8   67.71    3.38
   3   2   8   71.82    3.48
  -4  -2  -8  541.68   18.94
   4   2   8  558.37   17.73
   4   2   8  534.41   17.75
   5   2   8  194.38    7.49
   5   2   8  195.79    7.65
   6   2   8    5.23    1.18
   6   2   8    8.87    1.62
   7   2   8    4.90    1.33
   7   2   8    5.02    1.19
   7   2   8    6.10    1.37
   8   2   8    5.05    1.50
   8   2   8    2.57    1.04
   8   2   8    3.73    1.15
   9   2   8    4.74    1.53
   9   2   8    9.06    1.95
   9   2   8    7.08    1.67
   5  -3  -8    3.48    1.42
   5  -3  -8    2.00    0.99
  -5   3   8    2.24    1.15
  -5   3   8    0.30    1.02
   4  -3  -8   18.05    2.22
   4  -3  -8   18.30    2.53
  -4   3   8   21.28    2.78
  -4   3   8   22.47    2.82
   3  -3  -8    6.47    1.33
   3  -3  -8   10.52    1.96
  -3   3   8   11.50    1.95
  -3   3   8    9.30    1.85
   2  -3  -8   23.52    2.17
   2  -3  -8   19.61    2.35
  -2   3   8   22.99    2.61
  -2   3   8   29.92    3.01
   1  -3  -8    3.86    0.87
   1  -3  -8    1.61    0.87
  -1   3   8    2.84    1.02
  -1   3   8    3.78    1.05
   0  -3  -8   16.19    1.52
   0  -3  -8   16.93    1.99
   0   3   8   14.15    1.77
   0   3   8   19.85    2.16
  -1  -3  -8   15.88    1.78
   1   3   8   14.47    1.68
   1   3   8   13.66    1.62
  -2  -3  -8    8.29    1.18
   2   3   8    7.08    1.39
   2   3   8    9.16    1.28
   2   3   8    9.47    1.37
  -3  -3  -8  126.82    4.45
   3   3   8  118.61    5.98
   3   3   8  125.53    5.10
   3   3   8  123.04    5.12
   4   3   8  838.31   26.57
   4   3   8  860.77   26.46
   5   3   8  352.22   12.19
   5   3   8  354.16   12.06
   6   3   8   37.23    2.63
   6   3   8   36.81    2.49
   7   3   8   31.99    2.90
   7   3   8   28.29    2.90
   8   3   8    0.18    0.76
   8   3   8    1.24    0.91
   8   3   8    1.13    0.70
   5  -4  -8   21.22    2.62
  -5   4   8   20.19    2.89
  -5   4   8   21.76    2.91
   4  -4  -8   35.35    3.17
  -4   4   8   35.76    3.64
  -4   4   8   30.05    3.27
   3  -4  -8   21.30    2.23
   3  -4  -8   20.23    2.51
  -3   4   8   24.15    2.74
  -3   4   8   28.16    3.03
   2  -4  -8   36.58    2.32
   2  -4  -8   39.66    2.84
  -2   4   8   33.58    3.18
  -2   4   8   32.61    3.08
   1  -4  -8  186.34    7.75
   1  -4  -8  205.46    7.20
  -1   4   8  194.70    7.91
  -1   4   8  207.95    8.06
   0  -4  -8   40.54    2.05
   0  -4  -8   39.10    3.60
   0   4   8   41.10    2.68
   0   4   8   40.02    2.67
  -1  -4  -8   46.95    2.04
   1   4   8   44.77    2.71
   1   4   8   46.04    2.74
  -2  -4  -8   23.55    1.16
   2   4   8   24.25    1.85
   2   4   8   21.89    1.97
   3   4   8   41.50    2.48
   3   4   8   46.58    2.58
   4   4   8   78.11    3.70
   4   4   8   90.26    3.90
   5   4   8   40.09    2.43
   5   4   8   42.84    2.55
   6   4   8    0.45    0.59
   6   4   8    1.49    0.65
   7   4   8   -0.44    0.46
   7   4   8    0.59    0.68
   8   4   8    1.13    0.95
   8   4   8    0.84    0.74
   8   4   8    1.47    0.83
   5  -5  -8   37.48    3.48
  -5   5   8   27.72    3.42
  -5   5   8   31.14    3.66
   4  -5  -8    4.82    1.19
  -4   5   8    7.66    1.80
  -4   5   8    3.48    1.44
   3  -5  -8    3.25    0.90
  -3   5   8    2.87    1.17
  -3   5   8    3.28    1.21
   2  -5  -8   24.23    2.07
  -2   5   8   18.82    2.40
  -2   5   8   21.80    2.49
   1  -5  -8   42.66    2.23
  -1   5   8   38.65    3.32
  -1   5   8   44.24    2.97
   0  -5  -8   55.41    2.36
   0   5   8   53.16    3.17
   0   5   8   53.51    3.22
   1   5   8  158.47    6.41
   1   5   8  164.00    6.46
   2   5   8    6.91    1.17
   2   5   8    5.15    0.99
   3   5   8   31.03    2.01
   3   5   8   31.39    2.01
   4   5   8  288.21    9.69
   4   5   8  278.59    9.69
   5   5   8   14.53    1.61
   5   5   8   11.35    1.36
   6   5   8    7.82    1.15
   6   5   8    6.26    1.16
   7   5   8   -0.36    0.46
   7   5   8    0.51    0.66
   8   5   8    5.84    1.46
   8   5   8    6.76    1.38
   8   5   8    4.35    1.17
  -4   6   8   49.32    4.63
  -4   6   8   64.91    4.46
  -3   6   8    5.52    1.55
  -3   6   8    8.72    1.78
  -2   6   8   60.24    3.85
  -2   6   8   53.64    3.71
  -1   6   8    0.47    0.73
  -1   6   8    0.30    0.69
   0   6   8   19.73    2.17
   0   6   8   19.65    2.13
   1   6   8    0.10    0.50
   1   6   8    0.29    0.53
   2   6   8   24.54    1.89
   2   6   8   27.13    1.94
   3   6   8   26.18    1.83
   3   6   8   26.79    1.82
   4   6   8   27.75    1.83
   4   6   8   28.48    1.81
   5   6   8   76.38    3.44
   5   6   8   72.91    3.32
   6   6   8    4.56    0.95
   6   6   8    4.38    0.87
   7   6   8    2.66    0.81
   7   6   8    2.65    0.87
  -3   7   8   36.77    3.73
  -3   7   8   38.94    3.87
  -2   7   8   27.47    3.05
  -2   7   8   26.66    3.02
  -1   7   8    2.04    1.00
  -1   7   8    4.21    1.22
   0   7   8   12.53    1.84
   0   7   8   13.57    1.85
   1   7   8   -0.23    0.50
   1   7   8    0.86    0.59
   2   7   8   71.71    3.54
   2   7   8   70.37    3.49
   3   7   8   30.80    2.01
   3   7   8   31.74    2.00
   4   7   8    5.78    0.96
   4   7   8    4.38    0.84
   5   7   8    1.00    0.49
   5   7   8    1.96    0.66
   6   7   8   30.40    1.99
   6   7   8   29.24    1.86
  -2   8   8   72.22    4.54
  -2   8   8   67.50    4.41
  -1   8   8   22.62    2.63
  -1   8   8   19.24    2.48
   0   8   8    7.99    1.53
   0   8   8    5.96    1.33
   1   8   8   -0.63    0.48
   1   8   8    0.81    0.65
   2   8   8   -0.47    0.44
   2   8   8    0.51    0.49
   3   8   8    2.76    0.76
   3   8   8    1.81    0.69
   4   8   8   41.25    2.25
   4   8   8   43.82    2.29
   5   8   8   13.52    1.31
   5   8   8   14.82    1.42
  -1   9   8    1.73    1.11
   0   9   8    1.90    1.01
   0   9   8    1.77    0.91
   1   9   8    3.49    1.08
   1   9   8    3.58    1.09
   2   9   8   24.88    2.34
   2   9   8   23.88    2.21
   3   9   8    5.68    1.11
   3   9   8    7.79    1.19
   4   9   8    3.19    0.71
   4   9   8    3.35    0.77
   1   6  -9   38.65    4.42
   1   6  -9   34.20    4.39
   0   6  -9   75.10    5.38
   0   6  -9   65.35    6.04
  -1   6  -9   82.10    5.64
  -1   6  -9   78.95    5.81
  -2   6  -9   12.58    2.62
  -2   6  -9   14.51    2.93
  -3   6  -9    3.59    1.71
  -3   6  -9    3.34    1.75
  -4   6  -9   60.71    5.81
   4  -6   9   64.40    4.88
   2   5  -9    1.25    1.27
   2   5  -9    0.35    1.24
   1   5  -9    0.41    1.02
   1   5  -9    1.99    1.22
   0   5  -9   43.69    4.65
   0   5  -9   40.90    4.24
  -1   5  -9   45.50    4.57
  -1   5  -9   42.93    4.59
   1  -5   9   51.30    3.72
  -2   5  -9   78.73    5.33
  -2   5  -9   75.24    5.53
   2  -5   9   81.93    5.05
  -3   5  -9    2.11    1.28
  -3   5  -9    3.25    1.63
   3  -5   9    4.36    1.43
  -4   5  -9   34.09    4.19
   4  -5   9   38.30    4.01
   4  -5   9   26.54    3.46
  -5   5  -9   65.87    5.05
   5  -5   9   63.12    4.77
   5  -5   9   65.70    4.70
  -6   5  -9   70.63    5.36
   6  -5   9   68.22    4.97
   6  -5   9   69.70    5.20
   3   4  -9    7.35    2.11
   3   4  -9    9.41    2.49
   2   4  -9   -0.13    0.99
   2   4  -9    2.30    1.25
   1   4  -9   58.29    4.42
   1   4  -9   52.47    5.03
  -1  -4   9   59.97    3.91
   0   4  -9  356.26   13.83
   0   4  -9  341.67   14.17
   0  -4   9  336.87   12.95
  -1   4  -9    5.35    1.75
  -1   4  -9    4.21    1.65
   1  -4   9    4.47    1.29
  -2   4  -9   31.65    3.79
  -2   4  -9   31.19    3.60
   2  -4   9   31.37    3.32
  -3   4  -9    1.12    0.97
  -3   4  -9    0.73    1.07
   3  -4   9    1.35    0.88
  -4   4  -9   41.43    4.26
   4  -4   9   42.00    4.22
   4  -4   9   47.48    6.32
  -5   4  -9   12.21    2.33
   5  -4   9    8.74    2.02
   5  -4   9   10.20    2.19
  -6   4  -9   16.93    2.89
   6  -4   9   26.54    3.46
   6  -4   9   18.34    2.95
   7  -4   9    0.94    1.27
   7  -4   9    0.70    1.09
   4   3  -9   28.99    3.76
   4   3  -9   25.55    3.23
   4   3  -9   35.21    4.42
   3   3  -9    2.44    1.32
   3   3  -9    5.46    1.90
   2   3  -9   14.74    2.62
   2   3  -9    6.65    1.91
  -2  -3   9   10.00    1.81
   1   3  -9   57.69    4.23
   1   3  -9   46.97    4.74
  -1  -3   9   56.69    3.70
   0   3  -9  596.47   20.85
   0   3  -9  559.89   21.07
   0  -3   9  603.23   20.09
  -1   3  -9   99.24    5.70
  -1   3  -9   97.83    5.94
   1  -3   9  100.78    5.25
   1  -3   9   94.38    5.00
  -2   3  -9   11.88    2.23
  -2   3  -9   10.34    2.07
   2  -3   9   12.87    1.96
   2  -3   9    8.71    1.74
  -3   3  -9  126.23    6.61
  -3   3  -9  118.45    6.66
   3  -3   9  127.66    6.13
   3  -3   9  129.98    6.39
  -4   3  -9   87.19    5.40
   4  -3   9   89.87    5.08
   4  -3   9   95.41    5.39
  -5   3  -9   23.54    3.24
   5  -3   9   27.46    3.41
   5  -3   9   28.90    3.33
  -6   3  -9   24.18    3.18
   6  -3   9   28.22    3.41
   6  -3   9   28.43    3.54
   6  -3   9   26.04    3.24
   7  -3   9    2.86    1.50
   7  -3   9   -0.58    0.75
   7  -3   9    0.03    0.99
   4   2  -9   15.02    2.85
   4   2  -9   13.88    2.30
   4   2  -9   16.18    2.74
   3   2  -9   35.76    4.00
   3   2  -9   45.69    4.76
  -3  -2   9   35.92    3.44
   2   2  -9   50.60    4.89
   2   2  -9   58.48    4.27
  -2  -2   9   60.72    3.81
   1   2  -9   11.32    2.33
   1   2  -9    4.26    1.46
  -1  -2   9    9.74    1.83
  -1  -2   9    7.05    1.43
   0   2  -9   12.04    2.15
   0   2  -9    9.88    2.08
   0  -2   9    8.70    1.62
   0  -2   9   10.70    1.80
  -1   2  -9    9.19    2.07
  -1   2  -9   10.24    1.92
   1  -2   9   12.92    1.91
   1  -2   9   11.95    1.91
  -2   2  -9    2.38    1.10
  -2   2  -9    1.05    1.00
   2  -2   9    4.57    1.16
   2  -2   9    2.29    0.96
  -3   2  -9   -0.83    0.55
  -3   2  -9    0.21    0.77
   3  -2   9   -0.32    0.44
   3  -2   9   -0.56    0.53
  -4   2  -9   50.59    4.46
   4  -2   9   43.50    3.13
   4  -2   9   28.73    3.21
  -5   2  -9   -0.04    0.75
   5  -2   9   -0.65    0.45
   5  -2   9   -0.15    0.68
  -6   2  -9  212.20    9.67
   6  -2   9  203.62    8.98
   6  -2   9  204.42    9.32
   6  -2   9  206.78    9.18
   7  -2   9   64.79    4.69
   7  -2   9   59.62    4.42
   7  -2   9   60.76    4.32
   8  -2   9    0.11    1.15
   8  -2   9    2.01    1.22
   8  -2   9    1.82    1.30
   4   1  -9    4.84    1.75
   4   1  -9    4.77    1.46
   4   1  -9    2.10    1.40
  -4  -1   9    3.23    1.27
   3   1  -9    0.59    1.15
   3   1  -9   -0.22    0.64
   3   1  -9    0.27    0.87
  -3  -1   9   -0.43    0.61
   2   1  -9    5.08    1.53
   2   1  -9    3.05    1.50
  -2  -1   9    2.79    1.08
  -2  -1   9    2.79    1.07
   1   1  -9  472.05   17.18
   1   1  -9  458.76   16.72
  -1  -1   9  447.26   16.00
  -1  -1   9  465.47   15.99
   0   1  -9   49.42    3.57
   0   1  -9   46.99    4.35
   0  -1   9   45.42    3.11
   0  -1   9   45.75    3.08
  -1   1  -9    0.23    0.69
  -1   1  -9    0.57    0.78
   1  -1   9    0.09    0.44
   1  -1   9    0.44    0.63
  -2   1  -9   17.62    2.53
  -2   1  -9   13.53    2.14
   2  -1   9   18.71    2.30
   2  -1   9   20.33    2.34
  -3   1  -9    5.14    2.34
  -3   1  -9    3.90    1.27
   3  -1   9    7.15    1.38
   3  -1   9    3.62    1.11
  -4   1  -9   12.11    2.11
   4  -1   9   11.24    1.83
   4  -1   9   13.08    1.84
  -5   1  -9  237.26    9.59
   5  -1   9  235.24    9.27
   5  -1   9  211.11    9.35
   6  -1   9  150.60    6.99
   6  -1   9  142.62    7.18
   7  -1   9   69.94    4.82
   7  -1   9   75.07    4.72
   7  -1   9   76.47    4.85
   8  -1   9    3.84    1.50
   8  -1   9    6.37    1.77
   8  -1   9    3.65    1.60
   5   0  -9   72.73    5.17
   5   0  -9   63.38    4.48
  -5   0   9   75.93    4.76
   4   0  -9    6.19    1.76
   4   0  -9    6.19    1.49
  -4   0   9    6.13    1.48
   3   0  -9    0.64    0.85
   3   0  -9    1.26    1.29
   3   0  -9    1.16    1.08
  -3   0   9    1.20    0.90
   2   0  -9   79.63    5.11
   2   0  -9   72.63    4.62
  -2   0   9   80.38    4.44
  -2   0   9   66.89    4.11
   1   0  -9    3.02    1.37
   1   0  -9    2.85    1.12
  -1   0   9    2.17    0.89
  -1   0   9    3.75    1.16
   0   0  -9    1.72    0.96
   0   0  -9    3.04    1.28
   0   0   9    5.59    1.30
   0   0   9    1.71    0.82
  -1   0  -9    8.67    1.71
  -1   0  -9    9.22    1.85
   1   0   9    7.43    1.43
   1   0   9    9.02    1.49
  -2   0  -9   20.55    2.45
  -2   0  -9   21.78    2.66
   2   0   9   21.30    2.39
   2   0   9   18.12    2.07
  -3   0  -9    1.46    0.84
   3   0   9    1.62    0.76
   3   0   9    2.53    0.88
  -4   0  -9    0.25    0.66
   4   0   9   -0.50    0.44
   4   0   9    0.27    0.61
   5   0   9  445.02   16.04
   5   0   9  464.09   15.90
   6   0   9  180.81    7.79
   6   0   9  176.50    8.00
   7   0   9    7.56    1.77
   7   0   9    5.99    1.50
   7   0   9    5.05    1.30
   8   0   9   16.36    2.80
   8   0   9   15.96    2.40
   8   0   9   15.39    2.58
   5  -1  -9    0.73    0.83
   5  -1  -9    0.63    1.19
  -5   1   9    0.98    1.03
   4  -1  -9    3.09    1.43
   4  -1  -9    4.02    1.24
  -4   1   9    3.42    1.27
   3  -1  -9   14.54    2.30
   3  -1  -9   13.36    2.05
  -3   1   9   10.28    1.82
  -3   1   9    8.49    1.71
   2  -1  -9    5.17    1.47
   2  -1  -9    5.13    1.21
  -2   1   9    6.45    1.38
  -2   1   9    2.65    0.95
   1  -1  -9   20.94    2.58
  -1   1   9   13.92    1.90
  -1   1   9   16.76    2.10
   0  -1  -9    1.68    1.35
   0  -1  -9    2.69    1.06
   0   1   9    2.96    1.03
   0   1   9    3.00    1.00
  -1  -1  -9  565.63   19.10
   1   1   9  562.54   18.66
   1   1   9  561.88   18.69
  -2  -1  -9  240.44    9.20
   2   1   9  231.30    8.81
   2   1   9  226.53    8.81
  -3  -1  -9   15.60    2.07
   3   1   9   17.56    1.96
   3   1   9   16.86    2.00
  -4  -1  -9   -0.04    0.92
   4   1   9    0.25    0.54
   4   1   9   -0.24    0.41
   5   1   9  322.18   11.51
   5   1   9  308.79   11.67
   6   1   9  343.81   12.24
   6   1   9  314.91   12.34
   7   1   9    0.18    0.68
   7   1   9    0.02    0.61
   8   1   9   -0.41    0.87
   8   1   9    0.90    0.92
   8   1   9    1.88    1.03
   5  -2  -9    0.11    0.75
   5  -2  -9   -0.82    0.89
  -5   2   9   -0.09    0.87
   4  -2  -9   64.41    4.56
   4  -2  -9   68.36    4.14
  -4   2   9   62.69    4.25
  -4   2   9   64.77    4.39
   3  -2  -9    1.15    0.92
   3  -2  -9    4.00    1.11
  -3   2   9    4.54    1.40
  -3   2   9    4.05    1.30
   2  -2  -9   48.64    3.02
   2  -2  -9   43.25    3.97
  -2   2   9   40.78    3.11
  -2   2   9   42.23    3.10
   1  -2  -9   13.85    2.07
   1  -2  -9   13.05    1.67
  -1   2   9   10.91    1.76
  -1   2   9   18.26    2.24
   0  -2  -9   55.67    3.60
   0   2   9   60.03    3.48
   0   2   9   60.14    3.50
  -1  -2  -9   81.56    4.23
   1   2   9   72.72    3.95
   1   2   9   72.46    3.91
  -2  -2  -9   31.70    2.44
   2   2   9   38.10    2.54
   2   2   9   33.03    2.38
   3   2   9   16.52    1.94
   3   2   9   20.44    2.16
   4   2   9   78.34    4.06
   4   2   9   86.69    4.28
   5   2   9   16.52    2.04
   5   2   9   19.72    2.31
   6   2   9    0.14    0.56
   6   2   9   -0.29    0.53
   7   2   9    0.39    0.67
   7   2   9    0.14    0.64
   8   2   9    1.35    0.98
   8   2   9    1.13    0.87
   8   2   9    0.30    0.83
   4  -3  -9   -0.02    0.66
   4  -3  -9    0.88    1.00
  -4   3   9    0.53    0.92
  -4   3   9    0.60    1.01
   3  -3  -9   17.52    2.22
   3  -3  -9   15.79    2.44
  -3   3   9   10.27    2.04
  -3   3   9   20.21    2.73
   2  -3  -9   27.60    2.53
   2  -3  -9   27.22    3.05
  -2   3   9   29.41    3.10
  -2   3   9   25.57    2.88
   1  -3  -9    2.35    1.05
   1  -3  -9    3.64    0.92
  -1   3   9    5.14    1.29
  -1   3   9    6.59    1.42
   0  -3  -9   78.81    4.26
   0  -3  -9   81.19    3.62
   0   3   9   79.52    4.15
   0   3   9   79.77    4.22
   1   3   9    0.90    0.65
   1   3   9    1.15    0.66
   2   3   9   42.88    2.75
   2   3   9   44.24    2.80
   3   3   9  332.25   11.55
   3   3   9  329.23   11.62
   4   3   9   20.54    2.04
   4   3   9   21.36    2.19
   5   3   9   73.15    3.84
   5   3   9   68.50    3.69
   6   3   9    4.28    1.15
   6   3   9    6.37    1.30
   7   3   9   38.18    3.49
   7   3   9   36.55    3.24
   8   3   9   -0.74    0.61
   8   3   9    0.41    0.74
   8   3   9   -0.09    0.72
   4  -4  -9   24.42    2.75
  -4   4   9   22.60    2.99
  -4   4   9   18.46    2.74
   3  -4  -9    7.12    1.34
  -3   4   9    6.14    1.57
  -3   4   9   10.59    2.00
   2  -4  -9    1.10    0.68
  -2   4   9   -0.88    0.51
  -2   4   9    1.53    0.87
   1  -4  -9    7.93    1.22
  -1   4   9    3.13    1.20
  -1   4   9    3.93    1.20
   0  -4  -9   18.14    1.64
   0   4   9   17.16    2.10
   0   4   9   18.98    2.25
  -1  -4  -9   10.20    1.10
   1   4   9    9.07    1.43
   1   4   9   10.15    1.55
   2   4   9   -0.61    0.42
   2   4   9   -0.12    0.49
   3   4   9   48.73    2.80
   3   4   9   43.96    2.73
   4   4   9   25.79    2.29
   4   4   9   26.93    2.41
   5   4   9   47.31    2.86
   5   4   9   50.60    2.99
   6   4   9  133.31    5.87
   6   4   9  130.43    5.67
   7   4   9    2.37    0.92
   7   4   9    1.83    0.98
   8   4   9   16.56    2.40
   8   4   9   19.84    2.56
   8   4   9   18.48    2.34
  -4   5   9    1.67    1.19
  -4   5   9    2.00    1.27
  -3   5   9   -0.60    0.67
  -3   5   9    0.76    0.88
  -2   5   9    2.75    1.16
  -2   5   9    4.94    1.35
  -1   5   9    1.96    0.92
  -1   5   9    3.56    1.13
   0   5   9  120.85    5.73
   0   5   9  131.10    5.83
   1   5   9   15.56    1.89
   1   5   9   11.99    1.70
   2   5   9    0.09    0.44
   2   5   9    0.07    0.46
   3   5   9  126.72    5.29
   3   5   9  118.70    5.16
   4   5   9   -0.22    0.41
   4   5   9   -0.54    0.29
   5   5   9   43.75    2.64
   5   5   9   48.50    2.83
   6   5   9    1.28    0.63
   6   5   9    0.32    0.57
   7   5   9    0.29    0.50
   7   5   9   -0.21    0.50
  -3   6   9    1.72    1.14
  -3   6   9    0.52    0.94
  -2   6   9    0.78    0.89
  -2   6   9    0.53    0.85
  -1   6   9   35.28    3.28
  -1   6   9   37.85    3.49
   0   6   9    8.26    1.57
   0   6   9    7.08    1.46
   1   6   9    2.88    0.90
   1   6   9    1.83    0.82
   2   6   9    6.34    1.19
   2   6   9    8.59    1.41
   3   6   9    5.64    1.11
   3   6   9    4.40    0.95
   4   6   9    0.39    0.45
   4   6   9    0.05    0.44
   5   6   9   23.42    2.18
   5   6   9   21.88    2.01
   6   6   9   34.66    2.27
   6   6   9   27.26    2.51
   7   6   9   14.77    1.99
   7   6   9   13.61    1.77
  -2   7   9    2.90    1.23
  -2   7   9    4.72    1.46
  -1   7   9   12.96    2.00
  -1   7   9   13.91    2.14
   0   7   9    7.27    1.50
   0   7   9    5.63    1.27
   1   7   9   24.78    2.46
   1   7   9   27.38    2.65
   2   7   9    1.21    0.68
   2   7   9    0.07    0.57
   3   7   9   -0.47    0.42
   3   7   9   -0.04    0.46
   4   7   9    0.92    0.60
   4   7   9    1.23    0.60
   5   7   9    0.70    0.58
   5   7   9    0.01    0.48
   6   7   9   23.32    2.08
   6   7   9   25.31    2.30
  -1   8   9    0.86    0.93
  -1   8   9   -0.63    0.73
   0   8   9    0.32    0.70
   0   8   9   -0.51    0.62
   1   8   9   16.06    2.09
   1   8   9   14.32    1.97
   2   8   9   22.70    2.31
   2   8   9   25.62    2.45
   3   8   9    4.70    1.06
   3   8   9    2.69    0.83
   4   8   9    6.32    1.12
   4   8   9    5.40    1.01
   0   5 -10   51.26    5.38
   0   5 -10   50.70    5.08
  -1   5 -10  308.36   13.20
  -1   5 -10  260.50   12.22
  -2   5 -10    5.37    2.06
  -2   5 -10    0.67    1.21
   2  -5  10    1.95    1.17
  -3   5 -10   51.18    5.20
   3  -5  10   37.63    4.21
  -4   5 -10   -0.28    1.05
   4  -5  10    0.38    1.00
   4  -5  10   -0.11    1.02
   2   4 -10   41.87    4.85
   2   4 -10   37.53    4.31
   1   4 -10   -1.35    1.14
   1   4 -10    2.10    1.36
   0   4 -10    0.63    1.28
   0   4 -10    1.86    1.24
   0  -4  10    2.70    1.23
  -1   4 -10    8.57    2.35
  -1   4 -10   19.63    3.16
   1  -4  10   12.52    2.14
  -2   4 -10   16.56    2.88
   2  -4  10   16.90    2.69
  -3   4 -10   13.79    2.63
   3  -4  10    8.98    2.07
  -4   4 -10   17.56    3.03
   4  -4  10   12.72    2.46
  -5   4 -10   -1.00    0.84
   5  -4  10   -0.22    0.95
   5  -4  10    0.67    1.04
  -6   4 -10    1.63    1.33
   6  -4  10   -0.22    0.88
   6  -4  10   -0.22    1.00
   2   3 -10    7.63    2.17
   2   3 -10   12.50    2.85
   1   3 -10    0.86    1.35
   1   3 -10    1.33    1.17
  -1  -3  10    2.37    1.05
   0   3 -10  117.60    6.54
   0   3 -10  111.61    6.80
   0  -3  10  102.86    5.72
  -1   3 -10   11.39    2.53
  -1   3 -10    5.70    1.72
   1  -3  10   12.17    2.09
  -2   3 -10   -0.83    0.85
   2  -3  10   -0.24    0.65
   2  -3  10   -0.27    0.59
  -3   3 -10   45.92    4.51
   3  -3  10   35.22    3.48
   3  -3  10   44.17    4.13
  -4   3 -10   40.26    4.36
   4  -3  10   46.79    4.14
   4  -3  10   44.24    4.23
  -5   3 -10   29.15    3.71
   5  -3  10   25.95    3.12
   5  -3  10   29.49    3.56
   6  -3  10   18.07    3.00
   6  -3  10   19.99    3.03
   6  -3  10   10.64    2.21
   3   2 -10    3.07    1.49
  -3  -2  10    1.83    1.06
   2   2 -10   23.15    3.22
   2   2 -10   32.80    4.63
  -2  -2  10   29.61    3.25
   1   2 -10   23.90    3.33
   1   2 -10   21.62    3.16
  -1  -2  10   23.17    2.80
   0   2 -10    1.69    1.10
   0   2 -10    0.79    1.05
   0  -2  10    0.41    0.77
   0  -2  10    0.72    0.85
  -1   2 -10    8.35    1.93
   1  -2  10   10.79    1.82
   1  -2  10    7.91    1.65
  -2   2 -10    3.42    1.35
   2  -2  10    2.29    1.10
   2  -2  10    5.00    1.38
  -3   2 -10   23.59    3.09
   3  -2  10   16.30    2.33
   3  -2  10   20.31    2.66
  -4   2 -10  107.52    6.03
   4  -2  10   96.67    5.60
   4  -2  10  100.47    5.45
  -5   2 -10    9.14    2.01
   5  -2  10    8.42    1.81
   5  -2  10    7.44    1.85
   6  -2  10  114.80    6.74
   6  -2  10  139.44    6.90
   7  -2  10  236.60   10.16
   7  -2  10  208.61   10.20
   7  -2  10  223.35   10.20
   3   1 -10    8.05    1.93
   3   1 -10   11.22    1.97
  -3  -1  10   11.18    2.05
   2   1 -10   40.02    4.13
  -2  -1  10   46.00    3.44
   1   1 -10    5.56    1.54
  -1  -1  10    7.49    1.63
  -1  -1  10    7.75    1.63
   0   1 -10   43.53    4.13
   0  -1  10   44.47    3.20
   0  -1  10   42.31    3.24
  -1   1 -10    0.99    0.99
   1  -1  10    1.01    0.70
   1  -1  10    1.05    0.81
  -2   1 -10   46.29    4.15
   2  -1  10   45.71    3.30
   2  -1  10   43.67    3.15
  -3   1 -10    1.87    1.08
   3  -1  10    2.92    1.07
   3  -1  10    4.04    1.29
  -4   1 -10   17.20    2.51
   4  -1  10   18.31    2.49
   4  -1  10   18.57    2.35
   5  -1  10    0.76    0.92
   5  -1  10    1.39    0.98
   6  -1  10  118.69    6.46
   6  -1  10  115.98    6.15
   7  -1  10   63.45    4.51
   7  -1  10   62.42    4.37
   7  -1  10   55.38    5.19
   4   0 -10    4.32    1.50
   4   0 -10    3.20    1.54
  -4   0  10    4.63    1.52
   3   0 -10   25.64    3.29
   3   0 -10   18.12    2.52
  -3   0  10   24.42    3.06
   2   0 -10   11.45    2.21
  -2   0  10   14.91    2.35
  -2   0  10   13.64    2.11
   1   0 -10    6.45    1.69
  -1   0  10    6.61    1.50
  -1   0  10    6.09    1.34
   0   0 -10   69.84    4.58
   0   0  10   81.30    4.42
   0   0  10   74.77    4.38
  -1   0 -10  253.97   10.46
   1   0  10  257.54    9.91
   1   0  10  253.57    9.96
  -2   0 -10   24.46    2.89
   2   0  10   23.32    2.63
   2   0  10   20.49    2.40
  -3   0 -10   46.51    3.46
   3   0  10   53.04    3.35
   3   0  10   42.13    3.18
   4   0  10   -0.08    0.61
   4   0  10    0.15    0.57
   5   0  10    2.13    0.97
   5   0  10    1.04    0.96
   6   0  10  167.99    7.73
   6   0  10  173.41    8.06
   7   0  10    3.88    1.36
   7   0  10    4.46    1.53
   8   0  10    0.83    1.13
   8   0  10    0.34    0.98
   8   0  10   -0.05    0.81
   4  -1 -10    1.96    1.04
   4  -1 -10    1.17    1.21
  -4   1  10    1.17    1.05
   3  -1 -10   37.02    4.06
   3  -1 -10   32.13    3.28
  -3   1  10   35.78    3.60
   2  -1 -10   34.03    3.12
   2  -1 -10   26.84    3.21
  -2   1  10   32.71    3.29
  -2   1  10   29.86    3.26
   1  -1 -10   36.76    3.77
  -1   1  10   35.62    3.41
  -1   1  10   36.99    3.52
   0  -1 -10    0.44    0.85
   0   1  10    0.87    0.75
   0   1  10    1.23    0.86
  -1  -1 -10    4.86    1.40
   1   1  10    4.11    1.21
   1   1  10    3.40    1.14
  -2  -1 -10  133.71    6.47
   2   1  10  152.05    6.36
   2   1  10  131.39    6.18
   3   1  10  161.37    6.96
   3   1  10  152.14    6.73
   4   1  10   -0.10    0.57
   4   1  10    0.03    0.63
   5   1  10    9.74    1.70
   5   1  10    6.27    1.51
   6   1  10   80.85    4.68
   6   1  10   88.92    5.02
   7   1  10    2.03    1.09
   7   1  10    0.75    0.99
   8   1  10   45.79    4.46
   8   1  10   49.44    4.79
   8   1  10   49.02    4.42
   4  -2 -10    8.68    1.76
   4  -2 -10    7.40    2.01
  -4   2  10    5.35    1.63
   3  -2 -10   28.55    3.37
   3  -2 -10   30.35    3.05
  -3   2  10   30.31    3.31
  -3   2  10   25.33    3.06
   2  -2 -10   -0.06    0.62
   2  -2 -10   -0.12    0.74
  -2   2  10    0.46    0.69
  -2   2  10    0.00    0.72
   1  -2 -10   57.28    3.34
   1  -2 -10   54.17    3.89
  -1   2  10   59.47    3.76
  -1   2  10   58.99    3.80
   0  -2 -10   44.58    3.37
   0   2  10   53.96    3.41
   0   2  10   47.79    3.31
   1   2  10   17.59    2.17
   1   2  10   11.82    1.78
   2   2  10  124.99    5.68
   2   2  10  115.02    5.52
   3   2  10   99.36    4.86
   3   2  10  102.27    5.04
   4   2  10   73.75    4.05
   4   2  10   67.25    3.86
   5   2  10   21.00    2.49
   5   2  10   23.73    2.60
   6   2  10   13.47    2.15
   6   2  10   10.94    1.83
   7   2  10   16.29    2.38
   7   2  10   13.58    2.32
   8   2  10   42.11    3.98
   8   2  10   35.30    3.72
   8   2  10   34.55    3.82
   3  -3 -10    3.62    1.21
  -3   3  10    2.60    1.31
  -3   3  10    4.42    1.48
   2  -3 -10    6.72    1.34
  -2   3  10    5.04    1.44
  -2   3  10    4.39    1.36
   1  -3 -10   47.18    2.87
  -1   3  10   44.13    3.29
  -1   3  10   42.12    3.72
   0  -3 -10   46.08    2.70
   0   3  10   50.90    3.34
   0   3  10   49.44    3.30
   1   3  10  170.52    7.31
   1   3  10  176.64    7.32
   2   3  10   64.80    3.71
   2   3  10   64.99    3.71
   3   3  10  123.07    5.66
   3   3  10  134.87    5.87
   4   3  10   61.25    3.64
   4   3  10   62.89    3.58
   5   3  10  172.08    7.25
   5   3  10  178.21    7.41
   6   3  10   25.00    2.73
   6   3  10   22.08    2.46
   7   3  10    2.07    0.92
   7   3  10    1.70    0.98
  -3   4  10   16.68    2.63
  -3   4  10   13.27    2.29
  -2   4  10   -0.54    0.70
  -2   4  10   -0.10    0.73
  -1   4  10   -0.88    0.49
  -1   4  10   -0.02    0.65
   0   4  10    1.01    0.77
   0   4  10    2.05    0.97
   1   4  10  110.81    5.28
   1   4  10  107.45    5.21
   2   4  10    7.08    1.40
   2   4  10    8.16    1.45
   3   4  10   21.97    2.37
   3   4  10   24.66    2.44
   4   4  10   84.22    4.11
   4   4  10   72.73    4.04
   5   4  10   17.55    2.03
   5   4  10   18.00    2.19
   6   4  10   11.37    1.87
   6   4  10    8.87    1.53
   7   4  10   35.14    3.18
   7   4  10   40.79    3.69
  -3   5  10    3.55    1.49
  -3   5  10    4.76    1.59
  -2   5  10   -0.56    0.75
  -2   5  10    0.14    0.65
  -1   5  10   26.04    2.95
  -1   5  10   25.22    2.93
   0   5  10   -0.04    0.60
   0   5  10    0.21    0.60
   1   5  10   35.30    2.70
   1   5  10   34.82    3.03
   2   5  10    1.38    0.75
   2   5  10    1.10    0.73
   3   5  10    2.32    0.86
   3   5  10    0.92    0.74
   4   5  10   36.86    2.55
   4   5  10   34.97    2.48
   5   5  10   31.73    2.42
   5   5  10   30.70    2.66
   6   5  10   52.41    3.24
   6   5  10   57.85    3.49
   7   5  10  216.45    8.36
   7   5  10  195.80    8.45
  -2   6  10    0.87    1.00
  -2   6  10    3.07    1.34
  -1   6  10    0.86    0.76
  -1   6  10    1.06    0.82
   0   6  10    3.90    1.19
   0   6  10    2.70    1.16
   1   6  10    5.72    1.39
   1   6  10    4.47    1.22
   2   6  10   59.57    3.48
   2   6  10   55.02    3.35
   3   6  10    9.76    1.57
   3   6  10    7.39    1.35
   4   6  10    3.93    1.00
   4   6  10    3.13    0.96
   5   6  10    4.30    1.08
   5   6  10    2.24    0.82
   6   6  10    6.05    1.22
   6   6  10    3.95    1.08
  -1   7  10    5.02    1.42
  -1   7  10    6.22    1.57
   0   7  10   -0.75    0.48
   0   7  10   -0.16    0.68
   1   7  10  107.29    5.32
   1   7  10  102.47    5.18
   2   7  10    3.00    0.96
   2   7  10    4.57    1.14
   3   7  10   49.39    3.00
   3   7  10   49.52    3.04
   4   7  10    0.29    0.56
   4   7  10    1.30    0.74
   5   7  10    1.17    0.67
   5   7  10    0.64    0.65
   2   8  10   13.41    1.87
   2   8  10   14.52    2.02
  -1   4 -11    0.83    1.29
   1  -4  11    0.26    0.96
  -2   4 -11   17.31    2.99
   2  -4  11   16.30    2.68
  -3   4 -11   82.68    5.92
   3  -4  11   90.62    5.76
  -4   4 -11    4.41    1.75
   4  -4  11    3.46    1.57
   1   3 -11    1.93    1.31
  -1  -3  11    0.07    0.92
   0   3 -11    5.07    1.82
   0  -3  11   13.87    2.38
  -1   3 -11    4.46    1.66
   1  -3  11    6.24    1.64
  -2   3 -11   45.64    4.64
   2  -3  11   44.72    4.35
  -3   3 -11   48.98    4.86
   3  -3  11   47.14    4.61
  -4   3 -11   15.56    2.79
   4  -3  11   20.72    3.19
   5  -3  11   10.94    2.30
   2   2 -11    5.83    2.00
  -2  -2  11    4.86    1.59
   1   2 -11    0.43    1.12
  -1  -2  11    5.24    1.52
   0   2 -11    0.23    1.05
   0  -2  11    0.27    0.74
  -1   2 -11   62.20    4.74
   1  -2  11   65.70    4.38
  -2   2 -11   84.83    5.54
   2  -2  11   88.43    5.24
   2  -2  11   83.45    4.96
  -3   2 -11  101.66    6.02
   3  -2  11   91.13    5.45
   3  -2  11   89.51    5.22
  -4   2 -11   -0.57    0.86
   4  -2  11    0.71    0.85
   4  -2  11    1.14    1.06
   5  -2  11    4.68    1.53
   5  -2  11    5.79    1.81
   6  -2  11   15.16    2.65
   6  -2  11   23.46    3.41
   2   1 -11    8.94    2.14
  -2  -1  11   10.25    2.07
   1   1 -11    2.15    1.35
  -1  -1  11    3.69    1.31
   0   1 -11    2.75    1.32
   0  -1  11    2.41    1.14
   0  -1  11    2.05    0.99
  -1   1 -11    0.71    0.98
   1  -1  11    0.73    0.82
   1  -1  11    1.63    1.01
  -2   1 -11   25.79    3.24
   2  -1  11   28.29    3.07
   2  -1  11   27.19    3.19
  -3   1 -11   87.54    5.50
   3  -1  11   94.52    5.22
   3  -1  11  101.41    5.49
   4  -1  11    5.39    1.51
   4  -1  11    6.68    1.76
   5  -1  11   23.89    3.16
   5  -1  11   31.35    3.32
   6  -1  11   10.71    2.16
   6  -1  11    6.95    2.00
   2   0 -11    7.01    1.54
   2   0 -11    7.20    1.87
  -2   0  11    7.05    1.73
   1   0 -11    3.76    1.47
  -1   0  11    2.74    1.14
  -1   0  11    1.29    0.99
   0   0 -11    2.20    1.19
   0   0  11    1.43    0.91
   0   0  11    1.98    1.07
  -1   0 -11    1.13    1.00
   1   0  11    0.02    0.68
   1   0  11   -0.04    0.66
  -2   0 -11   18.77    2.76
   2   0  11   19.66    2.61
   2   0  11   18.68    2.51
   3   0  11    4.10    1.30
   3   0  11    3.18    1.18
   4   0  11    3.27    1.22
   4   0  11    1.46    0.93
   5   0  11    8.50    1.87
   5   0  11    7.41    1.66
   6   0  11   16.58    2.48
   6   0  11   18.24    2.81
   7   0  11   28.28    3.72
   7   0  11   27.84    3.43
   2  -1 -11   97.33    5.16
   2  -1 -11  100.45    6.06
  -2   1  11   90.51    5.46
  -2   1  11   99.68    5.65
   1  -1 -11   20.59    2.99
  -1   1  11   15.23    2.33
  -1   1  11   15.08    2.41
   0  -1 -11   26.75    3.65
   0   1  11   27.46    2.95
   0   1  11   25.61    2.91
   1   1  11   -0.07    0.68
   1   1  11    1.13    0.76
   2   1  11  124.74    5.99
   2   1  11  124.59    6.15
   3   1  11    8.00    1.69
   3   1  11    8.50    1.66
   4   1  11    0.13    0.71
   4   1  11    0.79    0.77
   5   1  11   24.68    2.87
   5   1  11   27.09    3.15
   6   1  11    5.63    1.56
   6   1  11    6.93    1.78
   7   1  11    2.66    1.33
   7   1  11    6.12    1.62
   2  -2 -11  105.25    5.48
  -2   2  11  110.46    5.97
  -2   2  11  113.75    6.05
   1  -2 -11    0.71    0.73
  -1   2  11    0.95    0.94
  -1   2  11    1.04    0.87
   0   2  11    8.48    1.76
   0   2  11    5.94    1.53
   1   2  11   23.86    2.73
   1   2  11   21.11    2.54
   2   2  11    0.13    0.60
   2   2  11    0.12    0.56
   3   2  11    0.89    0.78
   3   2  11    1.17    0.77
   4   2  11   11.46    1.91
   4   2  11    8.81    1.73
   5   2  11    5.59    1.36
   5   2  11    5.96    1.53
   6   2  11   -0.12    0.76
   6   2  11    1.72    0.95
   7   2  11    2.73    1.29
   7   2  11   -0.33    0.75
  -2   3  11   21.23    2.99
  -2   3  11   24.98    3.12
  -1   3  11   20.40    2.71
  -1   3  11   22.62    2.76
   0   3  11    3.20    1.16
   0   3  11    5.05    1.39
   1   3  11   14.61    2.12
   1   3  11   10.97    1.91
   2   3  11    6.50    1.47
   2   3  11    4.76    1.23
   3   3  11   17.69    2.26
   3   3  11   14.97    2.10
   4   3  11    0.94    0.76
   4   3  11    0.63    0.78
   5   3  11   11.19    1.91
   5   3  11    8.54    1.63
   6   3  11    2.38    1.07
   6   3  11    4.00    1.22
  -2   4  11   74.75    4.73
  -2   4  11   60.00    4.31
  -1   4  11    0.00    0.76
  -1   4  11   -0.20    0.72
   0   4  11   10.86    1.89
   0   4  11    9.45    1.67
   1   4  11   14.21    2.15
   1   4  11   11.41    1.90
   2   4  11   -0.23    0.57
   2   4  11   -0.21    0.59
   3   4  11    0.98    0.73
   3   4  11    0.37    0.64
   4   4  11  131.06    6.11
   4   4  11  126.98    5.90
   5   4  11    1.69    0.80
   5   4  11    3.47    1.18
   6   4  11   94.21    5.00
   6   4  11  100.07    5.25
  -1   5  11   20.89    2.79
  -1   5  11   18.17    2.59
   0   5  11    4.25    1.33
   0   5  11    2.05    1.04
   1   5  11   30.32    3.11
   1   5  11   24.32    2.72
   2   5  11   58.22    3.62
   2   5  11   55.72    3.62
   3   5  11   13.21    1.87
   3   5  11   17.88    2.24
   4   5  11   22.46    2.53
   4   5  11   20.73    2.37
   5   5  11    3.24    1.05
   5   5  11    3.29    1.06
   0   6  11    0.70    0.83
   0   6  11   -0.55    0.69
   1   6  11    1.49    0.95
   1   6  11    1.46    0.96
   2   6  11   25.22    2.68
   2   6  11   28.55    2.87
   3   6  11    1.04    0.81
   3   6  11    1.51    0.89
   4   6  11   13.12    1.93
   4   6  11   14.28    1.94
  -1   2 -12    1.37    1.31
   1  -2  12    0.93    1.08
  -2   2 -12    0.79    1.12
   2  -2  12   -0.35    0.87
   3  -2  12   25.76    3.43
   4  -2  12   12.97    2.48
   4  -2  12   15.12    2.52
   0   1 -12    0.52    1.04
   0  -1  12    0.79    0.97
  -1   1 -12   10.15    2.38
   1  -1  12   16.10    2.57
   2  -1  12   23.19    3.09
   2  -1  12   27.22    3.32
   3  -1  12  101.81    5.82
   3  -1  12  110.58    6.16
   4  -1  12   67.76    4.56
   4  -1  12   72.99    4.92
   5  -1  12    7.26    1.82
   5  -1  12    8.79    2.07
   0   0  12   13.75    2.26
   0   0  12   14.32    2.30
   1   0  12   11.21    2.17
   1   0  12    8.83    1.91
   2   0  12   37.42    3.76
   2   0  12   44.05    4.20
   3   0  12   32.57    3.53
   3   0  12   28.69    3.43
   4   0  12    3.11    1.30
   4   0  12    5.07    1.55
   5   0  12    0.73    1.00
   5   0  12    0.18    0.82
   1  -1 -12   24.13    2.79
  -1   1  12   20.57    2.88
  -1   1  12   27.79    3.33
   0   1  12   -0.06    0.85
   0   1  12    2.23    1.15
   1   1  12   -0.57    0.61
   1   1  12    0.07    0.69
   2   1  12   -0.05    0.71
   2   1  12    1.00    0.99
   3   1  12    2.47    1.10
   3   1  12    2.96    1.23
   4   1  12   24.53    3.02
   4   1  12   22.79    2.84
   5   1  12    6.05    1.58
   5   1  12    6.55    1.78
  -1   2  12  110.86    6.10
  -1   2  12  103.69    5.98
   0   2  12   65.41    4.40
   0   2  12   63.94    4.31
   1   2  12   25.16    3.05
   1   2  12   24.02    3.03
   2   2  12   31.53    3.32
   2   2  12   25.30    2.88
   3   2  12   11.68    2.05
   3   2  12   11.36    1.90
   4   2  12   26.49    3.01
   4   2  12   24.47    2.97
   5   2  12   -0.33    0.73
   5   2  12   -0.60    0.62
   0   3  12   21.44    2.86
   0   3  12   22.96    3.01
   1   3  12    1.16    0.91
   1   3  12    1.72    1.01
   2   3  12    5.32    1.46
   2   3  12    4.90    1.36
   3   3  12   83.00    4.89
   3   3  12   87.51    4.83
   4   3  12    0.37    0.67
   4   3  12    0.92    0.94
   5   3  12   56.12    3.89
   5   3  12   60.36    4.03
   0   4  12    6.69    1.73
   0   4  12    7.70    1.73
   1   4  12    0.42    0.80
   1   4  12    1.77    1.01
   2   4  12   10.65    1.88
   2   4  12    8.89    1.79
   3   4  12   37.28    3.48
   3   4  12   32.85    3.30
   4   4  12   29.61    3.24
   4   4  12   29.78    3.04
   2   5  12    7.30    1.64
   2   5  12    7.28    1.65
   3   5  12   14.08    2.17
   3   5  12   17.17    2.33


 _exptl_absorpt_process_details 'SADABS 2014/4'
 _exptl_absorpt_correction_type   multiscan
 _exptl_absorpt_correction_T_max  0.9485
 _exptl_absorpt_correction_T_min  0.8864
 _exptl_special_details
)
 The following wavelength and cell were deduced by SADABS from the
 direction cosines etc. They are given here for emergency use only:
 CELL 0.71093    8.064    8.876   10.283   82.582   75.522   88.050
)

_computing_structure_solution     'SHELXT 2014/4 (Sheldrick, 2014)'
;
_shelx_hkl_checksum              26791
loop_
_space_group_symop_operation_xyz
'x, y, z'
'-x, -y, -z'
loop_
_atom_site_label
_atom_site_type_symbol
_atom_site_fract_x
_atom_site_fract_y
_atom_site_fract_z
_atom_site_U_iso_or_equiv
_atom_site_adp_type
_atom_site_occupancy
_atom_site_site_symmetry_order
_atom_site_calc_flag
_atom_site_refinement_flags_posn
_atom_site_refinement_flags_adp
C1 C 0.18297(15) 0.16882(14) 0.87658(12) 0.0179(3) Uani 1 1 d . .
H1 H 0.1433 0.2164 0.9622 0.022 Uiso 1 1 calc R U
C2 C 0.02688(15) 0.15230(13) 0.81978(12) 0.0168(3) Uani 1 1 d . .
H2 H -0.0483 0.0734 0.8836 0.020 Uiso 1 1 calc R U
O4 O 0.07459(10) 0.09549(9) 0.69042(8) 0.0172(2) Uani 1 1 d . .
C4 C 0.22800(14) 0.14416(13) 0.60252(11) 0.0145(2) Uani 1 1 d . .
C5 C 0.25643(14) 0.09823(12) 0.47360(11) 0.0150(2) Uani 1 1 d . .
H5 H 0.1712 0.0425 0.4509 0.018 Uiso 1 1 calc R U
C6 C 0.40890(14) 0.13426(13) 0.37958(11) 0.0144(2) Uani 1 1 d . .
C7 C 0.53466(14) 0.21880(13) 0.41265(12) 0.0158(2) Uani 1 1 d . .
C8 C 0.50272(14) 0.26449(13) 0.53979(12) 0.0167(2) Uani 1 1 d . .
H8 H 0.5869 0.3221 0.5620 0.020 Uiso 1 1 calc R U
C9 C 0.34860(14) 0.22794(13) 0.63756(12) 0.0158(2) Uani 1 1 d . .
C10 C 0.31464(15) 0.27448(14) 0.77809(12) 0.0190(3) Uani 1 1 d . .
H10A H 0.2715 0.3804 0.7770 0.023 Uiso 1 1 calc R U
H10B H 0.4226 0.2702 0.8079 0.023 Uiso 1 1 calc R U
C11 C -0.07973(14) 0.29593(13) 0.81477(12) 0.0168(3) Uani 1 1 d . .
C12 C -0.16916(15) 0.34437(14) 0.93708(12) 0.0211(3) Uani 1 1 d . .
H12 H -0.1579 0.2897 1.0202 0.025 Uiso 1 1 calc R U
C13 C -0.27411(16) 0.47136(15) 0.93831(13) 0.0241(3) Uani 1 1 d . .
H13 H -0.3333 0.5040 1.0221 0.029 Uiso 1 1 calc R U
C14 C -0.29305(16) 0.55113(14) 0.81733(14) 0.0233(3) Uani 1 1 d . .
H14 H -0.3661 0.6375 0.8183 0.028 Uiso 1 1 calc R U
C15 C -0.20509(16) 0.50421(14) 0.69550(13) 0.0213(3) Uani 1 1 d . .
H15 H -0.2173 0.5588 0.6126 0.026 Uiso 1 1 calc R U
C16 C -0.09867(15) 0.37710(13) 0.69414(12) 0.0184(3) Uani 1 1 d . .
H16 H -0.0385 0.3456 0.6101 0.022 Uiso 1 1 calc R U
C17 C 0.32293(15) 0.01680(15) 0.21129(12) 0.0221(3) Uani 1 1 d . .
H17A H 0.2960 -0.0803 0.2693 0.033 Uiso 1 1 calc R U
H17B H 0.3653 -0.0020 0.1167 0.033 Uiso 1 1 calc R U
H17C H 0.2193 0.0797 0.2205 0.033 Uiso 1 1 calc R U
C3 C 0.82162(16) 0.30951(16) 0.34549(13) 0.0261(3) Uani 1 1 d . .
H3A H 0.7885 0.4081 0.3779 0.039 Uiso 1 1 calc R U
H3B H 0.9186 0.3233 0.2656 0.039 Uiso 1 1 calc R U
H3C H 0.8548 0.2403 0.4170 0.039 Uiso 1 1 calc R U
O1 O 0.25082(11) 0.02288(10) 0.90983(8) 0.0223(2) Uani 1 1 d . .
H1A H 0.3089 -0.0092 0.8389 0.033 Uiso 1 1 calc R U
O2 O 0.45164(10) 0.09415(9) 0.25118(8) 0.01686(19) Uani 1 1 d . .
O3 O 0.68069(10) 0.24688(10) 0.31060(8) 0.0218(2) Uani 1 1 d . .
loop_
_atom_site_aniso_label
_atom_site_aniso_U_11
_atom_site_aniso_U_22
_atom_site_aniso_U_33
_atom_site_aniso_U_23
_atom_site_aniso_U_13
_atom_site_aniso_U_12
C1 0.0189(6) 0.0218(6) 0.0130(6) -0.0036(5) -0.0036(4) 0.0042(5)
C2 0.0172(6) 0.0196(6) 0.0121(6) -0.0029(4) -0.0003(4) -0.0004(4)
O4 0.0154(4) 0.0202(4) 0.0145(4) -0.0051(3) 0.0008(3) -0.0028(3)
C4 0.0139(5) 0.0138(5) 0.0145(6) -0.0003(4) -0.0020(4) 0.0011(4)
C5 0.0149(5) 0.0142(5) 0.0167(6) -0.0020(4) -0.0054(4) 0.0000(4)
C6 0.0163(5) 0.0153(5) 0.0118(5) -0.0019(4) -0.0040(4) 0.0028(4)
C7 0.0138(5) 0.0171(6) 0.0148(6) 0.0013(4) -0.0024(4) -0.0003(4)
C8 0.0160(6) 0.0172(6) 0.0177(6) -0.0016(5) -0.0060(5) -0.0024(4)
C9 0.0169(6) 0.0161(6) 0.0146(6) -0.0016(4) -0.0048(4) 0.0009(4)
C10 0.0185(6) 0.0229(6) 0.0169(6) -0.0049(5) -0.0052(5) -0.0010(5)
C11 0.0147(5) 0.0177(6) 0.0182(6) -0.0031(5) -0.0040(4) -0.0016(4)
C12 0.0217(6) 0.0250(6) 0.0167(6) -0.0034(5) -0.0046(5) 0.0023(5)
C13 0.0244(6) 0.0263(7) 0.0222(7) -0.0097(5) -0.0038(5) 0.0039(5)
C14 0.0215(6) 0.0174(6) 0.0317(7) -0.0046(5) -0.0074(5) 0.0033(5)
C15 0.0209(6) 0.0198(6) 0.0232(6) 0.0027(5) -0.0075(5) -0.0034(5)
C16 0.0174(6) 0.0205(6) 0.0166(6) -0.0021(5) -0.0026(4) -0.0030(5)
C17 0.0204(6) 0.0308(7) 0.0179(6) -0.0093(5) -0.0062(5) -0.0025(5)
C3 0.0172(6) 0.0359(8) 0.0241(7) -0.0028(6) -0.0025(5) -0.0096(5)
O1 0.0234(5) 0.0264(5) 0.0141(4) -0.0003(4) -0.0012(3) 0.0083(4)
O2 0.0154(4) 0.0223(4) 0.0133(4) -0.0052(3) -0.0027(3) -0.0012(3)
O3 0.0151(4) 0.0336(5) 0.0158(4) -0.0037(4) -0.0007(3) -0.0070(4)
loop_
_atom_type_symbol
_atom_type_description
_atom_type_scat_dispersion_real
_atom_type_scat_dispersion_imag
_atom_type_scat_source
C C 0.0033 0.0016 'International Tables Vol C Tables 4.2.6.8 and 6.1.1.4'
H H 0.0000 0.0000 'International Tables Vol C Tables 4.2.6.8 and 6.1.1.4'
O O 0.0106 0.0060 'International Tables Vol C Tables 4.2.6.8 and 6.1.1.4'
loop_
_geom_angle_atom_site_label_1
_geom_angle_atom_site_label_2
_geom_angle_atom_site_label_3
_geom_angle
O1 C1 C10 113.00(10)
O1 C1 C2 109.92(10)
C10 C1 C2 110.45(10)
O1 C1 H1 107.8
C10 C1 H1 107.8
C2 C1 H1 107.8
O4 C2 C11 111.71(9)
O4 C2 C1 111.53(9)
C11 C2 C1 113.41(9)
O4 C2 H2 106.6
C11 C2 H2 106.6
C1 C2 H2 106.6
C4 O4 C2 117.92(8)
O4 C4 C9 123.92(10)
O4 C4 C5 114.60(9)
C9 C4 C5 121.45(10)
C6 C5 C4 119.60(10)
C6 C5 H5 120.2
C4 C5 H5 120.2
O2 C6 C5 124.78(10)
O2 C6 C7 115.00(10)
C5 C6 C7 120.22(10)
O3 C7 C8 126.32(10)
O3 C7 C6 114.58(10)
C8 C7 C6 119.10(10)
C7 C8 C9 121.60(10)
C7 C8 H8 119.2
C9 C8 H8 119.2
C4 C9 C8 118.02(10)
C4 C9 C10 120.13(10)
C8 C9 C10 121.83(10)
C9 C10 C1 110.05(9)
C9 C10 H10A 109.7
C1 C10 H10A 109.7
C9 C10 H10B 109.7
C1 C10 H10B 109.7
H10A C10 H10B 108.2
C16 C11 C12 118.77(11)
C16 C11 C2 122.91(10)
C12 C11 C2 118.24(11)
C13 C12 C11 120.61(12)
C13 C12 H12 119.7
C11 C12 H12 119.7
C12 C13 C14 120.19(12)
C12 C13 H13 119.9
C14 C13 H13 119.9
C15 C14 C13 119.71(12)
C15 C14 H14 120.1
C13 C14 H14 120.1
C14 C15 C16 120.13(12)
C14 C15 H15 119.9
C16 C15 H15 119.9
C11 C16 C15 120.57(11)
C11 C16 H16 119.7
C15 C16 H16 119.7
O2 C17 H17A 109.5
O2 C17 H17B 109.5
H17A C17 H17B 109.5
O2 C17 H17C 109.5
H17A C17 H17C 109.5
H17B C17 H17C 109.5
O3 C3 H3A 109.5
O3 C3 H3B 109.5
H3A C3 H3B 109.5
O3 C3 H3C 109.5
H3A C3 H3C 109.5
H3B C3 H3C 109.5
C1 O1 H1A 109.5
C6 O2 C17 116.50(9)
C7 O3 C3 116.64(9)
loop_
_geom_bond_atom_site_label_1
_geom_bond_atom_site_label_2
_geom_bond_distance
C1 O1 1.4225(14)
C1 C10 1.5217(17)
C1 C2 1.5313(16)
C1 H1 1.0000
C2 O4 1.4394(13)
C2 C11 1.5151(16)
C2 H2 1.0000
O4 C4 1.3816(13)
C4 C9 1.3849(16)
C4 C5 1.3977(16)
C5 C6 1.3784(16)
C5 H5 0.9500
C6 O2 1.3679(13)
C6 C7 1.4116(16)
C7 O3 1.3723(14)
C7 C8 1.3777(16)
C8 C9 1.4062(16)
C8 H8 0.9500
C9 C10 1.5094(16)
C10 H10A 0.9900
C10 H10B 0.9900
C11 C16 1.3914(17)
C11 C12 1.3961(16)
C12 C13 1.3851(18)
C12 H12 0.9500
C13 C14 1.3895(19)
C13 H13 0.9500
C14 C15 1.3834(18)
C14 H14 0.9500
C15 C16 1.3928(17)
C15 H15 0.9500
C16 H16 0.9500
C17 O2 1.4305(14)
C17 H17A 0.9800
C17 H17B 0.9800
C17 H17C 0.9800
C3 O3 1.4224(14)
C3 H3A 0.9800
C3 H3B 0.9800
C3 H3C 0.9800
O1 H1A 0.8400
