#------------------------------------------------------------------------------
#$Date: 2019-11-08 02:20:58 +0200 (Fri, 08 Nov 2019) $
#$Revision: 224732 $
#$URL: file:///home/coder/svn-repositories/cod/cif/4/03/47/4034702.cif $
#------------------------------------------------------------------------------
#
# This file is available in the Crystallography Open Database (COD),
# http://www.crystallography.net/
#
# All data on this site have been placed in the public domain by the
# contributors.
#
data_4034702
loop_
_publ_author_name
'Hiscock, Lana K.'
'Yao, Chengzhang'
'Skene, William G.'
'Dawe, Louise N.'
'Maly, Kenneth Edward'
_publ_section_title
;
 Synthesis of Emissive Heteroacene Derivatives via Nucleophilic Aromatic
 Substitution.
;
_journal_name_full               'The Journal of organic chemistry'
_journal_paper_doi               10.1021/acs.joc.9b02523
_journal_year                    2019
_chemical_formula_moiety         'C24 H18 N4 S2'
_chemical_formula_sum            'C24 H18 N4 S2'
_chemical_formula_weight         426.54
_space_group_crystal_system      triclinic
_space_group_IT_number           2
_space_group_name_Hall           '-P 1'
_space_group_name_H-M_alt        'P -1'
_atom_sites_solution_hydrogens   geom
_atom_sites_solution_primary     dual
_audit_creation_date             2019-09-25
_audit_creation_method
;
Olex2 1.2
(compiled 2018.05.29 svn.r3508 for OlexSys, GUI svn.r5506)
;
_cell_angle_alpha                80.705(4)
_cell_angle_beta                 79.917(5)
_cell_angle_gamma                89.967(5)
_cell_formula_units_Z            1
_cell_length_a                   5.1447(3)
_cell_length_b                   9.3119(5)
_cell_length_c                   10.5693(5)
_cell_measurement_reflns_used    8187
_cell_measurement_temperature    110(2)
_cell_measurement_theta_max      40.9750
_cell_measurement_theta_min      3.9760
_cell_volume                     491.78(5)
_computing_cell_refinement       'CrysAlisPro 1.171.39.46 (Rigaku OD, 2018)'
_computing_data_collection       'Bruker Apex3'
_computing_data_reduction        'CrysAlisPro 1.171.39.46 (Rigaku OD, 2018)'
_computing_molecular_graphics    'Olex2 (Dolomanov et al., 2009)'
_computing_publication_material  'Olex2 (Dolomanov et al., 2009)'
_computing_structure_refinement  'ShelXL (Sheldrick, 2015)'
_computing_structure_solution    'ShelXT (Sheldrick, 2015)'
_diffrn_ambient_temperature      110.15
_diffrn_detector                 'CCD plate'
_diffrn_measured_fraction_theta_full 0.996
_diffrn_measured_fraction_theta_max 0.996
_diffrn_measurement_details
;
List of Runs (angles in degrees, time in seconds):

  # Type    Start    End  Width  t~exp~   \w     \q     \k     \f   Frames
--------------------------------------------------------------------------
  1  \f   -256.13 113.38   0.50   39.99  22.01 -30.00-146.94    --   739
  2  \f   -361.06   7.94   0.50   40.01 -49.28 -45.00  26.20    --   738
  3  \f   -354.64   8.86   0.50   39.99 -83.59 -47.50  90.47    --   727
  4  \w     58.82 136.32   0.50   40.00    --   45.00-164.31  57.35  155
  5  \w     16.24 132.24   0.50   40.00    --   37.50  28.85  41.49  232
  6  \w    -11.33  34.67   0.50   40.00    --   22.50 -41.99 -82.50   92
  7  \w    -54.11  -5.11   0.50   40.00    --  -10.00  77.98 142.51   98
  8  \f   -118.94 250.56   0.50   40.00  -1.17 -52.50 -30.17    --   739
  9  \f      4.34 199.84   0.50   40.00 -65.79 -50.00 -30.17    --   391
 10  \f   -308.05   9.45   0.50   39.99 -89.64 -47.50 -61.99    --   635
;
_diffrn_measurement_device       'Bruker Apex II Diffractometer'
_diffrn_measurement_device_type  'Bruker Apex II Diffractometer'
_diffrn_measurement_method       '\w and \f scans'
_diffrn_orient_matrix_type
'CrysAlisPro convention (1999,Acta A55,543-557)'
_diffrn_orient_matrix_UB_11      -0.0208963000
_diffrn_orient_matrix_UB_12      0.0735236000
_diffrn_orient_matrix_UB_13      0.0080644000
_diffrn_orient_matrix_UB_21      0.0421190000
_diffrn_orient_matrix_UB_22      0.0225961000
_diffrn_orient_matrix_UB_23      -0.0678985000
_diffrn_orient_matrix_UB_31      -0.1319602000
_diffrn_orient_matrix_UB_32      -0.0067791000
_diffrn_orient_matrix_UB_33      -0.0099582000
_diffrn_radiation_monochromator  graphite
_diffrn_radiation_probe          x-ray
_diffrn_radiation_type           MoK\a
_diffrn_radiation_wavelength     0.71073
_diffrn_reflns_av_R_equivalents  0.0794
_diffrn_reflns_av_unetI/netI     0.0438
_diffrn_reflns_Laue_measured_fraction_full 0.996
_diffrn_reflns_Laue_measured_fraction_max 0.996
_diffrn_reflns_limit_h_max       6
_diffrn_reflns_limit_h_min       -6
_diffrn_reflns_limit_k_max       11
_diffrn_reflns_limit_k_min       -11
_diffrn_reflns_limit_l_max       12
_diffrn_reflns_limit_l_min       -12
_diffrn_reflns_number            10008
_diffrn_reflns_point_group_measured_fraction_full 0.996
_diffrn_reflns_point_group_measured_fraction_max 0.996
_diffrn_reflns_theta_full        25.242
_diffrn_reflns_theta_max         25.680
_diffrn_reflns_theta_min         3.970
_diffrn_source                   'fine-focus sealed X-ray tube'
_diffrn_source_type              'Enhance (Mo) X-ray Source'
_exptl_absorpt_coefficient_mu    0.291
_exptl_absorpt_correction_T_max  1.00000
_exptl_absorpt_correction_T_min  0.78614
_exptl_absorpt_correction_type   multi-scan
_exptl_absorpt_process_details
;
CrysAlisPro 1.171.39.46 (Rigaku Oxford Diffraction, 2018)
Empirical absorption correction using spherical harmonics,
 implemented in SCALE3 ABSPACK scaling algorithm.
;
_exptl_crystal_colour            red
_exptl_crystal_density_diffrn    1.440
_exptl_crystal_description       plate
_exptl_crystal_F_000             222
_exptl_crystal_size_max          0.440
_exptl_crystal_size_mid          0.081
_exptl_crystal_size_min          0.040
_refine_diff_density_max         0.633
_refine_diff_density_min         -0.750
_refine_diff_density_rms         0.117
_refine_ls_extinction_method     none
_refine_ls_goodness_of_fit_ref   1.177
_refine_ls_hydrogen_treatment    constr
_refine_ls_matrix_type           full
_refine_ls_number_parameters     137
_refine_ls_number_reflns         1864
_refine_ls_number_restraints     0
_refine_ls_restrained_S_all      1.177
_refine_ls_R_factor_all          0.0773
_refine_ls_R_factor_gt           0.0708
_refine_ls_shift/su_max          0.000
_refine_ls_shift/su_mean         0.000
_refine_ls_structure_factor_coef Fsqd
_refine_ls_weighting_details
'w=1/[\s^2^(Fo^2^)+(0.1055P)^2^+1.1002P] where P=(Fo^2^+2Fc^2^)/3'
_refine_ls_weighting_scheme      calc
_refine_ls_wR_factor_gt          0.1907
_refine_ls_wR_factor_ref         0.1964
_reflns_Friedel_coverage         0.000
_reflns_number_gt                1715
_reflns_number_total             1864
_reflns_threshold_expression     'I > 2\s(I)'
_cod_data_source_file            jo9b02523_si_003.cif
_cod_data_source_block           compound_7
_cod_database_code               4034702
_shelx_shelxl_version_number     2016/6
_shelx_space_group_comment
;
The symmetry employed for this shelxl refinement is uniquely defined
by the following loop, which should always be used as a source of
symmetry information in preference to the above space-group names.
They are only intended as comments.
;
_olex2_refinement_description
;
1. Fixed Uiso
 At 1.2 times of:
  All C(H) groups, All C(H,H) groups
 At 1.5 times of:
  All C(H,H,H) groups
2.a Secondary CH2 refined with riding coordinates:
 C11(H11A,H11B)
2.b Aromatic/amide H refined with riding coordinates:
 C4(H4), C5(H5), C6(H6), C7(H7)
2.c Idealised Me refined as rotating group:
 C12(H12A,H12B,H12C)
;
_shelx_res_file
;
TITL b19129_crystal2_a.res in P-1
    compound_7.res
    created by SHELXL-2016/6 at 10:04:12 on 25-Sep-2019
REM Old TITL b19129_crystal2 in P-1
REM SHELXT solution in P-1
REM R1 0.114, Rweak 0.012, Alpha 0.046, Orientation as input
REM Formula found by SHELXT: C12 N2 S
CELL 0.71073 5.1447 9.3119 10.5693 80.705 79.917 89.967
ZERR 1 0.0003 0.0005 0.0005 0.004 0.005 0.005
LATT 1
SFAC C H N S
UNIT 24 18 4 2

L.S. 4
PLAN  20
TEMP -163
BOND $H
list 4
fmap 2 53
acta
SHEL 14 0.82
OMIT 0 1 3
OMIT 0 1 1
REM <olex2.extras>
REM <HklSrc "%.\\Compound_7.hkl">
REM </olex2.extras>

WGHT    0.105500    1.100200
FVAR       1.35133
S1    4    0.331804    0.223247    0.571924    11.00000    0.00892    0.01110 =
         0.01848   -0.00019   -0.00200    0.00235
N1    3   -0.144376    0.311274    0.739194    11.00000    0.01554    0.01014 =
         0.01507   -0.00267   -0.00243    0.00084
N2    3    0.658962    0.419103    0.267655    11.00000    0.01388    0.01805 =
         0.02144   -0.00562   -0.00173    0.00233
C1    1    0.218122    0.469555    0.412556    11.00000    0.00793    0.00854 =
         0.01532   -0.00447   -0.00343    0.00006
C2    1    0.138645    0.374217    0.529592    11.00000    0.00945    0.00904 =
         0.01653   -0.00426   -0.00591   -0.00051
C3    1    0.075344    0.102101    0.662082    11.00000    0.01100    0.01036 =
         0.01580   -0.00020   -0.00611   -0.00073
C4    1    0.089650   -0.046783    0.658428    11.00000    0.01930    0.01198 =
         0.01981   -0.00394   -0.00659    0.00084
AFIX  43
H4    2    0.231883   -0.083702    0.603839    11.00000   -1.20000
AFIX   0
C5    1   -0.107041   -0.140499    0.735750    11.00000    0.02054    0.00960 =
         0.02461   -0.00109   -0.00928    0.00051
AFIX  43
H5    2   -0.096719   -0.242385    0.735882    11.00000   -1.20000
AFIX   0
C6    1   -0.316726   -0.086222    0.812132    11.00000    0.01892    0.01175 =
         0.02182    0.00162   -0.00673   -0.00392
AFIX  43
H6    2   -0.450995   -0.151072    0.863884    11.00000   -1.20000
AFIX   0
C7    1   -0.334298    0.063661    0.814386    11.00000    0.01320    0.01572 =
         0.01931   -0.00129   -0.00296   -0.00086
AFIX  43
H7    2   -0.480916    0.100572    0.866161    11.00000   -1.20000
AFIX   0
C8    1   -0.133858    0.158142    0.739667    11.00000    0.01719    0.00963 =
         0.01481   -0.00136   -0.00655   -0.00081
C9    1   -0.077239    0.403720    0.620717    11.00000    0.01050    0.00969 =
         0.01456   -0.00347   -0.00533   -0.00006
C10   1    0.460451    0.440865    0.330296    11.00000    0.01415    0.00872 =
         0.01506   -0.00312   -0.00600   -0.00040
C11   1   -0.224478    0.365475    0.863172    11.00000    0.01291    0.01270 =
         0.01741   -0.00414   -0.00038    0.00046
AFIX  23
H11A  2   -0.412852    0.339110    0.897682    11.00000   -1.20000
H11B  2   -0.205237    0.472972    0.847653    11.00000   -1.20000
AFIX   0
C12   1   -0.058912    0.302312    0.963068    11.00000    0.01740    0.02524 =
         0.01873   -0.00416   -0.00624    0.00342
AFIX 137
H12A  2   -0.114426    0.342010    1.043671    11.00000   -1.50000
H12B  2    0.127742    0.327981    0.928971    11.00000   -1.50000
H12C  2   -0.083062    0.196128    0.981114    11.00000   -1.50000
AFIX   0
HKLF 4




REM  b19129_crystal2_a.res in P-1
REM R1 =  0.0708 for    1715 Fo > 4sig(Fo)  and  0.0773 for all    1864 data
REM    137 parameters refined using      0 restraints

END

WGHT      0.1055      1.1002

REM Highest difference peak  0.633,  deepest hole -0.750,  1-sigma level  0.117
Q1    1   0.4012  0.2919  0.4858  11.00000  0.05    0.63
Q2    1   0.2764  0.2600  0.6594  11.00000  0.05    0.62
Q3    1   0.2404  0.1419  0.5806  11.00000  0.05    0.61
Q4    1   0.4333  0.3164  0.5853  11.00000  0.05    0.58
Q5    1   0.2630  0.1565  0.6308  11.00000  0.05    0.57
Q6    1  -0.1129  0.3627  0.6748  11.00000  0.05    0.55
Q7    1   0.3738  0.1847  0.4906  11.00000  0.05    0.51
Q8    1  -0.1743  0.3363  0.7982  11.00000  0.05    0.50
Q9    1   0.2015  0.4384  0.4831  11.00000  0.05    0.46
Q10   1   0.2193  0.1208  0.4786  11.00000  0.05    0.44
Q11   1   0.1660  0.4188  0.4601  11.00000  0.05    0.43
Q12   1   0.1824  0.5335  0.3975  11.00000  0.05    0.42
Q13   1  -0.1531 -0.1381  0.8257  11.00000  0.05    0.42
Q14   1   0.3107  0.1602  0.5156  11.00000  0.05    0.42
Q15   1  -0.0187  0.4005  0.5468  11.00000  0.05    0.41
Q16   1  -0.2368 -0.2448  0.5943  11.00000  0.05    0.41
Q17   1   0.4690  0.1808  0.7008  11.00000  0.05    0.40
Q18   1   0.4719  0.3431  0.6543  11.00000  0.05    0.38
Q19   1   0.0604  0.4022  0.5966  11.00000  0.05    0.35
Q20   1   0.0113  0.0219  0.6347  11.00000  0.05    0.34
;
_shelx_res_checksum              1576
_shelx_hkl_file
;
   0   0  -2 1485.79   12.84
   0   0  -3  251.95    8.31
   0   0   3  224.24    8.22
   0   0   4    9.91    5.66
   0   0   4    1.44    4.14
   0   0  -4    7.42    6.01
   0   0  -5  212.98    7.35
   0   0   5  201.95    8.84
   0   0   5  170.47    7.05
   0   0   5  205.59    7.87
   0   0  -5  197.45    8.43
   0   0  -5  180.44    8.46
   0   0  -6  329.49    9.76
   0   0   6  350.12   10.85
   0   0  -6  377.22    9.13
   0   0   6  332.83    8.88
   0   0   6  359.17    9.62
   0   0   6  340.70    9.44
   0   0  -6  376.34   10.56
   0   0   7  605.96   12.42
   0   0  -7  628.21   13.27
   0   0  -7  635.67   13.76
   0   0   7  618.82   12.80
   0   0  -7  632.41   11.72
   0   0  -7  598.14   12.28
   0   0   7  590.73   13.89
   0   0  -8   52.36    7.31
   0   0   8   37.80    7.80
   0   0   8   44.21    8.73
   0   0   8   42.67    7.90
   0   0   8   35.60    7.82
   0   0  -8   38.09    8.91
   0   0  -8   29.12    8.25
   0   0  -8   40.68    8.45
   0   0   9   -1.36    7.76
   0   0   9  -10.07    8.70
   0   0  -9    9.07    7.49
   0   0  -9   -1.94    9.50
   0   0   9   22.15    8.16
   0   0  -9    2.23    9.25
   0   0  -9    1.62    8.67
   0   0  10  272.35   12.68
   0   0 -10  266.82   13.87
   0   0 -10  277.49   13.54
   0   0 -10  275.05   11.61
   0   0  10  264.49   12.53
   0   0  10  279.73   13.31
   0   0  10  306.80   13.44
   0   0  11   13.11   10.19
   0   0 -11   35.94    9.34
   0   0 -11   -6.05   11.37
   0   0  11   -2.05    9.70
   0   0 -11   14.68   10.72
   0   0  11   20.53   10.32
   0   0  11   22.24   11.62
   0   0  12  229.92   15.39
   0   0 -12  220.71   15.14
   0   0 -12  213.53   12.40
   0   0  12  201.51   13.42
   0   0 -12  216.64   15.58
   0   0  12  205.71   14.13
   0   0  12  213.98   14.13
   0   0 -13  608.44   20.93
   0   0 -13  564.41   21.19
   0   0  13  540.74   19.47
   0   0 -13  516.07   16.42
   0   0  13  552.94   18.63
   0   0  13  615.22   20.49
   0   0  13  651.05   21.97
   0   0  14   21.95   12.63
   0   0  14   16.58   13.62
   0   0 -14    9.43   14.82
   0   0  14   40.82   15.61
   0   0  14   22.53   14.51
   0   0 -14   28.03   11.45
   0   0  14   22.26   13.18
   0   0 -15   77.19   17.16
   0   0  15   65.01   15.00
   0   0  15   87.84   13.83
   0   0 -15   68.90   12.41
   0   0  16   17.03   13.01
   0   0 -16   11.67   16.98
   0   0  16   15.21   15.67
   0   0  16    7.21   14.51
   0   0  17   43.86   14.79
   0   0  17   69.83   17.37
   0   0  17   25.02   15.93
   0   0 -17   54.89   19.24
   0   0  18   45.09   18.18
   0   0  18   11.32   16.92
   0   1  18   71.80   17.78
   0   1  18   75.29   18.39
   0   1  17   97.69   17.99
   0   1  17   95.10   17.13
   0  -1 -17   90.85   19.68
   0   1  17   99.13   15.85
   0   1  16   19.42   13.55
   0   1  16   12.94   15.16
   0   1  16   28.18   14.64
   0  -1 -16   24.94   17.45
   0  -1 -15   32.68   16.55
   0   1  15    5.38   14.29
   0   1  15   11.90   12.73
   0   1  15    2.34   13.71
   0  -1 -14   18.26   11.03
   0   1  14   25.18   14.59
   0  -1 -14   14.28   14.76
   0   1  14   -1.26   11.82
   0   1  14   14.22   12.92
   0   1  14   -8.28   13.18
   0  -1 -13  113.83   15.21
   0   1  13  136.13   14.13
   0   1  13  115.98   13.59
   0  -1 -13  125.14   11.71
   0   1  13  104.44   12.96
   0   1  13  152.02   15.40
   0  -1 -13  141.78   14.85
   0   1  12  171.35   13.25
   0   1  12  202.50   14.53
   0  -1 -12  182.57   14.66
   0   1  12  181.93   13.24
   0  -1 -12  172.40   14.20
   0   1  12  165.33   13.33
   0  -1 -12  139.72   11.27
   0   1  11   -2.03   11.19
   0   1  11   17.55    9.90
   0   1  11    1.45   10.05
   0  -1 -11   -6.20    8.63
   0   1  11    2.40   10.07
   0  -1 -11   -4.52   11.39
   0  -1 -11    3.04   10.67
   0   1  10  136.68   10.97
   0   1  10  124.60   10.59
   0  -1 -10  148.00    9.81
   0  -1 -10  143.62   12.21
   0  -1 -10  109.77   11.90
   0   1  10  120.69   10.80
   0   1  10  162.24   11.78
   0  -1  -9   92.80   10.22
   0  -1  -9   91.01   10.59
   0   1   9  118.87   10.27
   0   1   9   86.47    9.69
   0  -1  -9   97.11    8.48
   0   1   9  103.54    9.28
   0  -1  -9   90.11   10.67
   0   1   9  110.31    9.62
   0   1   8   18.57    7.42
   0   1   8   19.25    7.51
   0  -1  -8   13.67    8.47
   0   1   8   22.64    8.06
   0   1   8   16.91    7.31
   0  -1  -8    7.20    6.46
   0  -1  -8   18.09    8.02
   0  -1  -8   30.10    9.35
   0  -1  -7  117.38    6.94
   0   1   7  116.59    8.01
   0   1   7   91.35    7.50
   0   1   7  107.03    7.79
   0  -1  -7  127.66    9.53
   0   1   7  120.00    8.77
   0  -1  -7  106.83    8.69
   0  -1  -7   94.97    8.53
   0   1   6   24.79    6.15
   0   1   6   43.14    7.31
   0  -1  -6   30.99    5.55
   0  -1  -6   22.93    7.05
   0   1   6   34.86    6.05
   0   1   6   40.58    5.00
   0  -1  -5 1460.30   15.58
   0  -1  -5 1568.20   13.78
   0   1   4  286.86    8.68
   0   1   3  122.37   13.72
   0   1   1  745.99   16.73
   0   1  -2  118.67    5.49
   0  -1   2  133.99    5.82
   0  -1   3 1762.00   24.07
   0  -1   3 2206.87   17.24
   0   1  -4  584.96    9.47
   0  -1   4  327.79   13.07
   0  -1   4  356.88    9.41
   0  -1   4  447.43   12.11
   0   1  -4  536.31   10.73
   0  -1   5  285.31   10.56
   0   1  -5  313.96    8.62
   0   1  -5  307.77    9.46
   0  -1   5  266.71    8.53
   0  -1   5  310.46    8.73
   0  -1   5  226.33   10.46
   0   1  -5  255.35    8.53
   0  -1   6  565.22   11.20
   0   1  -6  555.93   10.59
   0  -1   6  521.36   13.13
   0  -1   6  487.85   10.69
   0   1  -6  511.95   10.96
   0  -1   6  449.29   11.62
   0   1  -6  491.33   11.82
   0  -1   6  451.68   12.80
   0   1  -7   82.35    7.83
   0   1  -7   86.46    8.68
   0  -1   7  100.40    8.90
   0  -1   7   77.70    7.71
   0  -1   7   79.08    7.88
   0  -1   7   85.07    8.76
   0   1  -7  101.68    8.40
   0   1  -7   72.51    6.95
   0  -1   7   86.57    7.91
   0   1  -8  536.23   13.14
   0   1  -8  519.76   13.81
   0  -1   8  541.27   13.41
   0   1  -8  525.58   14.44
   0  -1   8  489.04   13.55
   0   1  -8  486.32   12.18
   0  -1   8  505.26   12.87
   0  -1   8  517.41   14.77
   0  -1   9   24.11    8.63
   0   1  -9   22.64    9.26
   0  -1   9   26.23    9.63
   0   1  -9   30.38   10.20
   0   1  -9   24.50    7.96
   0  -1   9   33.21    8.75
   0  -1   9   25.21    8.79
   0  -1  10  170.87   11.81
   0  -1  10  156.79   11.63
   0   1 -10  149.19   13.10
   0  -1  10  170.97   12.58
   0   1 -10  143.05   10.17
   0  -1  10  151.98   11.15
   0   1 -10  189.41   12.63
   0  -1  11  305.63   13.95
   0  -1  11  323.65   14.59
   0   1 -11  317.04   16.12
   0  -1  11  358.72   15.32
   0  -1  11  375.19   15.98
   0  -1  11  367.77   16.21
   0   1 -11  335.77   13.14
   0   1 -11  296.57   15.11
   0   1 -12   29.49   10.53
   0   1 -12   11.52   12.56
   0  -1  12   -0.07   10.64
   0  -1  12   -7.41   10.99
   0  -1  12   19.22   12.79
   0  -1  12   31.22   13.02
   0   1 -12   19.53   12.91
   0  -1  12    7.35   11.31
   0  -1  13   17.52   13.62
   0  -1  13   40.39   12.87
   0  -1  13    6.25   11.48
   0  -1  13   54.84   14.15
   0   1 -13   51.61   14.32
   0  -1  13   40.64   13.41
   0   1 -13   41.64   13.89
   0   1 -13   50.97   11.12
   0  -1  14   31.16   12.39
   0   1 -14  -12.70   11.40
   0  -1  14   23.23   15.29
   0   1 -14   -5.09   14.93
   0  -1  14    3.94   13.44
   0  -1  14   40.59   13.71
   0   1 -15   39.13   16.37
   0  -1  15   37.43   14.45
   0  -1  15   20.50   14.94
   0  -1  15    0.66   12.41
   0  -1  16   46.80   14.11
   0  -1  16   29.59   14.86
   0  -1  16   35.76   16.17
   0   1 -16   62.28   18.13
   0  -1  17   42.49   17.09
   0   1 -17   34.21   19.75
   0  -1  17   37.26   14.59
   0  -1  17   44.89   15.85
   0  -1  18   47.80   17.51
   0  -1  18   94.14   19.12
   0   2  19   59.51   19.55
   0   2  18   35.59   16.93
   0   2  18   42.00   18.07
   0   2  17    8.09   14.07
   0   2  17   16.47   15.70
   0   2  17   16.75   15.85
   0  -2 -17   43.46   19.48
   0   2  16   79.36   15.51
   0   2  16   12.72   13.76
   0   2  16  110.47   16.60
   0  -2 -16   44.57   18.17
   0  -2 -15  162.77   18.53
   0   2  15  159.80   15.17
   0   2  15  166.85   16.75
   0   2  15  112.10   15.47
   0   2  14   96.86   14.73
   0  -2 -14   73.04   11.34
   0   2  14  120.71   13.92
   0   2  14  101.07   14.59
   0   2  14  139.31   15.98
   0  -2 -14  125.91   16.26
   0   2  13  110.25   13.23
   0   2  13  109.85   14.66
   0   2  13   73.82   13.08
   0  -2 -13  112.41   14.67
   0   2  13  111.93   13.53
   0  -2 -13   95.63   11.45
   0  -2 -13   93.60   14.78
   0  -2 -12   44.70   12.63
   0   2  12   35.17   11.46
   0   2  12   56.99   11.33
   0   2  12   66.44   12.99
   0  -2 -12   48.96   10.16
   0  -2 -12   54.69   12.79
   0   2  12   48.11   11.86
   0   2  11  119.43   11.31
   0   2  11  130.74   11.94
   0   2  11  139.23   12.02
   0  -2 -11  133.59   12.67
   0  -2 -11  117.55    9.98
   0  -2 -11  107.25   13.25
   0  -2 -10  421.87   16.42
   0  -2 -10  358.28   11.87
   0   2  10  450.34   15.12
   0  -2 -10  387.07   15.13
   0   2  10  382.92   13.68
   0   2  10  374.74   13.92
   0   2  10  380.03   13.76
   0  -2 -10  415.98   15.30
   0   2   9  441.22   13.68
   0   2   9  370.16   12.78
   0   2   9  380.41   12.53
   0  -2  -9  401.07   11.27
   0  -2  -9  364.03   13.68
   0  -2  -9  413.07   14.06
   0  -2  -9  434.19   15.42
   0   2   9  408.12   12.75
   0   2   8   42.46    8.68
   0   2   8   19.69    7.33
   0  -2  -8   22.47    6.54
   0   2   8   22.69    7.76
   0  -2  -8   21.92    8.30
   0   2   8   30.61    7.77
   0  -2  -8   25.81    8.45
   0  -2  -7  474.08   10.17
   0   2   7  487.29   13.45
   0   2   7  460.14   10.95
   0  -2  -7  433.73   12.80
   0  -2  -7  471.43   12.25
   0   2   7  456.43   11.84
   0  -2  -6 1005.63   12.85
   0   2   6 1043.98   18.29
   0   2   6  976.81   13.07
   0  -2  -6 1050.13   15.26
   0   2   6  994.53   14.29
   0  -2  -5    2.23    6.53
   0   2   5    0.96    6.69
   0   2   5   -0.60    5.65
   0  -2  -5   16.94    4.90
   0   2   5   -1.73    4.09
   0   2   4  258.52    7.91
   0  -2  -4  406.73    9.68
   0   2   3   12.55    4.16
   0   2   2 1738.31   28.55
   0   2   2 3764.20   17.66
   0   2   1   47.34    4.82
   0   2   1   90.52    3.99
   0   2   0   28.10    4.28
   0  -2   1    3.00    5.39
   0  -2   2   28.85    6.27
   0  -2   3  190.19   10.00
   0  -2   3  357.04    8.36
   0  -2   4  831.02   11.31
   0   2  -4  883.63   12.34
   0   2  -4  750.12   12.91
   0  -2   4  870.51   15.35
   0  -2   4  765.74   12.03
   0  -2   4  856.55   11.62
   0  -2   5   43.90    7.10
   0   2  -5   36.20    7.29
   0   2  -5   34.05    6.11
   0  -2   5   23.43    6.72
   0  -2   5   25.14    6.15
   0  -2   5   39.24    6.52
   0  -2   5   22.82    6.46
   0  -2   5   22.94    7.04
   0  -2   6 1114.27   16.95
   0  -2   6 1170.97   19.01
   0  -2   6 1146.72   15.50
   0  -2   6 1331.21   16.53
   0  -2   6 1085.37   19.81
   0  -2   6 1133.41   19.09
   0   2  -6 1063.19   16.97
   0  -2   6 1131.34   18.02
   0   2  -6 1191.34   17.37
   0   2  -6 1292.79   15.78
   0  -2   7  642.06   15.62
   0  -2   7  642.92   14.56
   0  -2   7  639.38   13.22
   0   2  -7  639.60   12.89
   0  -2   7  653.79   13.76
   0   2  -7  672.13   14.53
   0   2  -7  619.82   14.57
   0  -2   7  635.67   15.44
   0  -2   8   13.89    8.13
   0  -2   8   18.18    8.22
   0   2  -8   26.21    9.07
   0  -2   8    7.94    9.09
   0  -2   8   20.77    9.30
   0   2  -8   23.27    9.49
   0  -2   8    7.78    7.99
   0  -2   8   41.51    9.69
   0   2  -8   17.68    7.61
   0  -2   9  149.55   10.68
   0  -2   9  155.72   12.16
   0   2  -9  151.62   11.71
   0  -2   9  147.04   11.89
   0  -2   9  119.70   10.40
   0   2  -9  138.60   10.04
   0  -2   9  138.51   11.89
   0   2  -9  155.85   12.19
   0  -2   9  131.20   11.12
   0  -2  10   14.69    9.75
   0  -2  10   43.47   11.04
   0  -2  10   -3.12    9.58
   0  -2  10   49.14   10.93
   0  -2  10   20.18    9.57
   0   2 -10   13.14   11.22
   0   2 -10   23.61   10.70
   0   2 -10    8.32    8.56
   0   2 -11  208.79   12.48
   0  -2  11  215.50   13.60
   0   2 -11  211.07   14.66
   0  -2  11  233.93   13.27
   0   2 -11  246.12   14.92
   0  -2  11  246.37   15.08
   0  -2  11  268.67   14.57
   0   2 -12   61.17   13.28
   0  -2  12   50.94   12.32
   0  -2  12   53.30   12.24
   0  -2  12   72.71   11.82
   0   2 -12   51.71   13.60
   0   2 -12   34.54   11.16
   0  -2  12   82.86   14.23
   0  -2  13   -6.57   12.43
   0   2 -13   10.34   13.30
   0  -2  13   17.13   13.74
   0   2 -13    3.80   13.95
   0   2 -13    6.34   10.95
   0  -2  13    0.04   11.62
   0  -2  13   12.28   13.15
   0  -2  14   53.53   15.92
   0   2 -14   22.67   11.80
   0  -2  14   24.19   12.46
   0  -2  14   45.99   14.45
   0  -2  14   45.97   13.65
   0   2 -14   32.36   15.38
   0  -2  15   66.88   16.06
   0  -2  15   58.78   13.41
   0   2 -15   71.62   17.63
   0  -2  15   36.33   14.16
   0  -2  16   20.42   16.11
   0  -2  16   33.46   13.73
   0   2 -16   -2.58   17.98
   0  -2  16   43.72   15.49
   0  -2  17   25.53   14.19
   0  -2  17   26.70   15.74
   0  -2  18   17.43   18.40
   0   3  19   56.60   19.52
   0   3  18   54.04   17.94
   0   3  18   35.05   17.66
   0   3  18    4.90   14.99
   0   3  17   21.61   14.31
   0   3  17   22.57   15.88
   0   3  17   26.98   16.54
   0  -3 -17   24.35   18.99
   0  -3 -16  -27.02   17.03
   0   3  16   23.75   14.65
   0   3  16   10.17   14.90
   0   3  16   21.10   13.74
   0   3  15   26.64   14.43
   0  -3 -15   12.34   15.49
   0   3  15   23.22   14.13
   0   3  15   30.51   13.63
   0   3  14   -2.97   13.97
   0   3  14  -19.45   13.47
   0  -3 -14    8.62   10.75
   0   3  14   26.36   12.84
   0  -3 -14   30.66   15.34
   0   3  14   18.65   13.18
   0  -3 -13   31.14   13.50
   0   3  13   34.12   12.39
   0   3  13   40.28   12.31
   0  -3 -13   29.02   10.53
   0  -3 -13   21.62   13.50
   0   3  13   21.34   12.06
   0   3  13   35.28   13.41
   0   3  12  714.09   19.04
   0  -3 -12  708.87   20.99
   0  -3 -12  719.24   21.17
   0   3  12  695.91   19.16
   0  -3 -12  660.92   16.12
   0   3  11  355.65   14.40
   0   3  11  377.65   14.93
   0  -3 -11  352.94   15.98
   0   3  11  340.52   14.31
   0  -3 -11  342.87   12.38
   0  -3 -11  344.21   16.00
   0   3  10  318.91   14.05
   0  -3 -10  311.07   11.16
   0  -3 -10  360.07   15.20
   0  -3 -10  373.82   16.61
   0   3  10  340.81   13.18
   0   3  10  329.88   13.22
   0  -3 -10  357.77   15.02
   0   3  10  384.56   14.82
   0   3   9   80.50    9.10
   0   3   9   82.22    9.52
   0  -3  -9   87.20   10.99
   0  -3  -9   97.55   10.80
   0  -3  -9  107.96    8.29
   0   3   9  102.82    9.98
   0   3   9   78.63   10.62
   0  -3  -8   63.60    7.09
   0   3   8   40.92    8.17
   0   3   8   64.89    8.15
   0  -3  -8   64.07    9.50
   0   3   8   49.02    8.29
   0   3   8   58.43    9.41
   0  -3  -8   59.04    9.40
   0   3   7  153.27    8.22
   0  -3  -7  188.74   10.57
   0   3   7  150.64   10.25
   0   3   7  194.01    8.63
   0  -3  -7  185.26    7.58
   0  -3  -7  166.52    9.91
   0   3   7  177.38    9.20
   0   3   6  710.71   16.71
   0   3   6  654.25   14.00
   0   3   6  743.64   13.05
   0  -3  -6  755.94   13.93
   0   3   6  694.35   11.91
   0   3   6  706.80   12.32
   0   3   5 2071.16   18.75
   0  -3  -5 1948.49   19.64
   0   3   5 1739.75   18.89
   0  -3  -5 1956.59   17.12
   0   3   5 1767.12   24.36
   0   3   5 1883.40   16.58
   0  -3  -4   51.92    5.84
   0   3   4   33.79    5.45
   0  -3  -4   44.56    7.15
   0   3   4   32.46    7.80
   0   3   3   65.28    5.10
   0  -3  -3   79.67    7.52
   0   3   3   80.10    6.25
   0  -3  -2 1497.70   11.94
   0   3   2 1524.69   16.31
   0  -3  -1    1.92    4.53
   0   3   1    2.74    3.53
   0  -3   0   14.05    5.29
   0   3   0    9.37    4.81
   0  -3   1 3442.21   29.04
   0  -3   2  360.87   12.47
   0  -3   2  446.66   11.49
   0  -3   3   11.62    6.02
   0  -3   3   17.45    6.30
   0   3  -3   14.04    6.80
   0  -3   3   23.22    6.78
   0   3  -3   26.31    6.13
   0  -3   4   15.26    6.53
   0  -3   4   17.35    6.24
   0  -3   4   20.01    6.21
   0   3  -4    9.62    6.91
   0  -3   4   13.91    6.59
   0  -3   4   21.38    5.90
   0   3  -4   17.30    6.18
   0  -3   5  422.18   11.78
   0   3  -5  434.35   10.72
   0  -3   5  443.12   10.64
   0  -3   5  388.84   10.92
   0   3  -5  462.88   11.73
   0  -3   5  424.39   13.46
   0  -3   5  453.25   10.54
   0  -3   5  428.20   12.55
   0  -3   6  150.50    8.45
   0  -3   6  130.86    9.67
   0  -3   6  118.10    9.36
   0   3  -6  114.67    9.41
   0   3  -6  131.52    8.22
   0  -3   6  118.38    8.22
   0  -3   6  102.52    7.73
   0  -3   6  136.10    8.80
   0   3  -6  131.07    9.24
   0   3  -7  220.29   11.53
   0   3  -7  238.36   10.36
   0   3  -7  240.30   11.26
   0  -3   7  236.25   10.34
   0  -3   7  235.81   11.06
   0  -3   7  263.69   12.48
   0  -3   7  228.49   10.24
   0  -3   7  235.30   11.87
   0   3  -8  425.51   13.16
   0  -3   8  440.06   14.69
   0  -3   8  460.15   14.08
   0   3  -8  431.09   14.21
   0  -3   8  415.68   13.24
   0  -3   8  378.83   12.99
   0   3  -8  412.54   14.66
   0  -3   8  466.55   15.59
   0  -3   9  288.53   13.97
   0  -3   9  281.17   13.30
   0   3  -9  266.32   14.08
   0  -3   9  279.63   12.72
   0   3  -9  247.85   13.66
   0  -3   9  272.88   12.69
   0   3  -9  287.16   12.10
   0   3 -10  127.24   13.21
   0  -3  10  164.42   13.19
   0   3 -10  125.79   10.96
   0  -3  10  159.50   12.15
   0  -3  10  151.76   11.92
   0   3 -10  138.60   13.11
   0  -3  10  141.93   12.42
   0  -3  10  155.50   14.13
   0   3 -11  190.55   15.47
   0  -3  11  210.52   14.14
   0   3 -11  238.95   13.42
   0  -3  11  229.67   13.95
   0  -3  11  206.99   13.42
   0  -3  11  271.46   15.59
   0   3 -11  237.84   15.54
   0  -3  12   -6.52   11.75
   0   3 -12    0.96   13.29
   0  -3  12   26.41   13.10
   0  -3  12   16.68   11.76
   0  -3  12    4.94   10.81
   0   3 -12   35.28   13.30
   0   3 -12   10.75   11.05
   0  -3  13   77.67   14.44
   0  -3  13   86.07   15.91
   0  -3  13   68.85   12.36
   0  -3  13   79.97   13.96
   0   3 -13   48.59   15.70
   0   3 -13   95.32   16.32
   0   3 -13   57.41   12.42
   0  -3  14  149.69   16.69
   0  -3  14  124.27   14.91
   0  -3  14  177.88   18.61
   0  -3  14   85.07   13.26
   0   3 -14  100.01   17.10
   0   3 -14   85.09   13.36
   0  -3  15   44.18   15.91
   0   3 -15   66.38   18.32
   0  -3  15   79.14   15.59
   0  -3  15   49.99   13.83
   0   3 -16   32.34   18.96
   0  -3  16   23.73   13.21
   0  -3  16   12.49   15.96
   0  -3  16   45.43   15.73
   0  -3  17   48.63   18.09
   0  -3  17   28.78   16.78
   0   4  18   56.31   18.44
   0   4  18   25.43   17.43
   0  -4 -17   -6.61   18.77
   0   4  17   25.46   16.56
   0   4  17   19.56   14.66
   0   4  17   40.45   15.94
   0  -4 -16   53.87   17.89
   0   4  16   50.55   15.40
   0   4  16   46.25   14.18
   0   4  16   17.78   15.46
   0   4  15  164.19   16.78
   0   4  15  178.39   15.81
   0   4  15  167.33   16.33
   0  -4 -15  195.85   18.89
   0  -4 -14  -10.79   14.45
   0   4  14   -8.94   12.69
   0   4  14   17.86   12.72
   0  -4 -14   11.54   10.89
   0   4  14   -5.72   13.26
   0  -4 -13    8.63    9.80
   0   4  13   17.55   12.29
   0  -4 -13   18.12   13.64
   0   4  13   18.35   12.06
   0   4  13   40.78   13.76
   0   4  13   23.44   12.61
   0  -4 -13   11.04   13.23
   0  -4 -12   50.31   13.03
   0   4  12   88.57   13.35
   0  -4 -12   69.14    9.94
   0   4  12   73.86   12.42
   0   4  12   40.13   11.74
   0   4  12   65.88   11.67
   0  -4 -12   45.14   13.27
   0   4  11   41.89   10.35
   0   4  11   78.16   11.64
   0  -4 -11   65.68    9.13
   0  -4 -11   66.74   12.73
   0  -4 -11   52.54   12.15
   0   4  11   72.56   11.84
   0   4  11   63.12   11.10
   0   4  10   23.19   10.90
   0   4  10    0.03    9.10
   0  -4 -10    0.64   10.53
   0   4  10    1.66    9.51
   0  -4 -10   21.02    7.95
   0  -4 -10   -3.91   11.06
   0   4  10   -5.15    9.66
   0  -4  -9  393.33   14.55
   0   4   9  382.70   12.66
   0   4   9  408.11   13.15
   0  -4  -9  421.62   11.46
   0  -4  -9  445.59   15.29
   0   4   9  444.52   14.09
   0   4   9  426.62   15.24
   0   4   8  328.46   11.11
   0   4   8  342.46   13.87
   0  -4  -8  349.54   10.11
   0  -4  -8  348.91   13.17
   0   4   8  318.55   12.34
   0   4   8  336.61   11.53
   0  -4  -7  211.18   10.78
   0   4   7  189.53    9.13
   0   4   7  167.55    9.12
   0   4   7  173.02   11.04
   0  -4  -7  167.55   11.31
   0  -4  -7  218.83   10.88
   0   4   7  179.58    9.83
   0  -4  -7  186.90    7.83
   0  -4  -6  355.78   11.37
   0   4   6  359.18   10.24
   0   4   6  335.16   11.12
   0  -4  -6  387.20    9.25
   0   4   6  342.63    9.86
   0   4   6  394.43   13.13
   0  -4  -5  784.70   14.56
   0   4   5  774.96   13.75
   0  -4  -5  727.79   12.65
   0   4   5  746.06   14.46
   0   4   5  755.55   12.06
   0   4   5  825.63   15.01
   0   4   5  860.45   17.93
   0   4   4  242.83    9.30
   0   4   4  225.38    8.15
   0   4   4  209.99   11.35
   0   4   4  264.22    8.55
   0  -4  -4  266.17    8.38
   0   4   4  230.95    9.58
   0  -4  -4  245.28   10.07
   0   4   3  445.90   14.27
   0   4   3  486.72   11.52
   0  -4  -3  474.23   10.72
   0  -4  -3  439.83    8.23
   0   4   3  515.47    9.95
   0   4   2 2028.78   25.63
   0  -4  -2 2130.06   22.94
   0  -4  -2 2310.74   17.88
   0   4   2 2421.81   19.17
   0   4   2 2158.33   15.09
   0  -4  -1   40.62    5.73
   0   4   1   27.92    5.58
   0   4   1   18.09    7.01
   0  -4  -1   35.14    7.77
   0   4   0  574.68   10.44
   0  -4   0  593.17   11.81
   0  -4   1 1181.20   19.18
   0  -4   1 1074.46   19.30
   0   4  -1 1119.98   16.63
   0  -4   1 1207.43   12.86
   0  -4   2  183.61   10.07
   0   4  -2  197.54    9.13
   0   4  -2  173.69    9.72
   0  -4   2  169.40   10.16
   0   4  -3  703.86   13.47
   0   4  -3  590.34   14.08
   0  -4   3  573.68   12.60
   0  -4   3  648.52   10.99
   0  -4   3  699.06   16.10
   0  -4   4  699.79   17.69
   0  -4   4  950.37   13.48
   0   4  -4  832.58   16.16
   0   4  -4  813.06   16.07
   0   4  -4  996.96   16.05
   0  -4   4 1062.36   15.76
   0  -4   4  937.01   16.83
   0  -4   4 1038.97   19.80
   0  -4   4 1029.36   15.02
   0  -4   5  287.96   10.16
   0  -4   5  268.70   12.06
   0  -4   5  269.43    9.34
   0   4  -5  290.52   11.12
   0   4  -5  248.44   10.97
   0  -4   5  296.82    9.91
   0   4  -5  279.93   10.38
   0  -4   5  249.66   11.55
   0  -4   5  280.24   10.84
   0  -4   6  166.92   10.02
   0  -4   6  184.51   10.98
   0   4  -6  146.56   10.34
   0  -4   6  187.34   11.29
   0   4  -6  159.73   10.56
   0  -4   6  162.82    9.39
   0   4  -6  192.66    9.76
   0  -4   6  147.05    9.28
   0   4  -7   90.50    9.32
   0  -4   7   85.13   10.40
   0  -4   7  107.48   11.09
   0   4  -7   99.30   10.54
   0  -4   7   84.64    9.30
   0  -4   7   71.98    9.52
   0   4  -7   73.85   10.56
   0  -4   7   74.44    8.86
   0   4  -8  526.97   14.54
   0  -4   8  493.34   14.27
   0  -4   8  561.11   17.00
   0   4  -8  519.79   16.46
   0  -4   8  539.08   15.64
   0  -4   8  505.94   14.59
   0   4  -8  531.53   16.20
   0  -4   9   20.72   10.23
   0   4  -9   26.66    9.44
   0  -4   9   15.05    9.40
   0  -4   9   24.51    9.74
   0   4  -9  -12.02   10.71
   0  -4   9    6.71   11.29
   0   4  -9   19.23   11.49
   0  -4   9   12.54   11.12
   0  -4  10   94.18   14.18
   0  -4  10   93.46   12.09
   0   4 -10   76.68   10.88
   0   4 -10   97.04   13.81
   0  -4  10   73.99   11.03
   0  -4  10   68.98   11.31
   0  -4  10  100.66   13.49
   0   4 -10   67.29   12.76
   0   4 -11  123.19   15.12
   0  -4  11  138.08   15.79
   0  -4  11  164.30   15.39
   0  -4  11  148.79   14.02
   0  -4  11  145.37   12.54
   0   4 -11  130.59   12.61
   0   4 -11  157.99   14.92
   0  -4  11  125.83   13.28
   0  -4  12  101.98   14.17
   0   4 -12  102.63   12.62
   0  -4  12  116.47   16.17
   0  -4  12  110.70   13.08
   0  -4  12   84.70   13.55
   0   4 -12   68.25   14.44
   0   4 -12  125.61   15.52
   0  -4  13  178.90   15.47
   0   4 -13  233.84   18.67
   0  -4  13  162.54   14.30
   0   4 -13  168.62   14.14
   0  -4  13  201.10   17.07
   0  -4  13  232.82   18.64
   0   4 -13  188.55   18.19
   0  -4  14  183.19   16.52
   0   4 -14  204.02   15.14
   0   4 -14  170.08   18.79
   0  -4  14  199.30   14.81
   0   4 -15  116.99   19.36
   0  -4  15   76.63   13.53
   0  -4  15   96.33   17.58
   0  -4  15   88.20   15.76
   0  -4  16   55.50   13.94
   0  -4  16   61.19   15.94
   0  -4  16   36.30   17.26
   0  -4  17   77.38   19.52
   0  -4  17   51.17   17.52
   0   5  18   56.45   17.77
   0   5  18   62.68   18.77
   0   5  17   11.52   15.64
   0  -5 -17   43.37   20.22
   0   5  17   31.45   15.28
   0   5  17   46.19   16.86
   0   5  16   14.58   15.01
   0   5  16   22.65   14.07
   0   5  16    5.48   15.16
   0  -5 -16    8.91   17.62
   0  -5 -15   55.77   17.73
   0   5  15    9.44   13.60
   0   5  15   15.00   13.57
   0   5  15   45.47   14.85
   0   5  14  279.50   16.84
   0   5  14  319.08   18.34
   0  -5 -14  254.43   13.25
   0  -5 -14  272.43   19.41
   0   5  14  290.90   17.23
   0  -5 -13   32.36   13.93
   0   5  13   10.57   12.22
   0   5  13   18.75   13.25
   0   5  13   27.51   12.08
   0   5  13   24.78   13.75
   0  -5 -13   17.63   10.16
   0   5  12   29.42   11.68
   0   5  12   34.38   13.42
   0  -5 -12   43.16   13.88
   0   5  12   57.64   12.60
   0  -5 -12   45.35    9.91
   0  -5 -12   31.83   13.60
   0   5  12   33.48   11.91
   0   5  11    8.37   10.58
   0  -5 -11    7.12    8.35
   0  -5 -11   22.03   12.90
   0  -5 -11    9.64   11.92
   0   5  11   11.49   12.52
   0   5  11    3.32   10.17
   0   5  11   18.29   10.67
   0   5  10   25.54   11.55
   0  -5 -10    3.29    7.61
   0  -5 -10   24.94   12.13
   0   5  10   -1.74    9.46
   0  -5 -10    0.37   11.15
   0   5  10    8.44    9.25
   0   5  10    1.57    9.83
   0  -5  -9  140.78   12.62
   0   5   9  124.53   12.38
   0   5   9  102.23   10.05
   0  -5  -9   71.81    7.97
   0   5   9   94.95   10.68
   0   5   9   86.57   10.06
   0  -5  -9   94.70   11.73
   0   5   8   80.63    8.89
   0  -5  -8   75.65   10.55
   0   5   8   82.05    9.84
   0  -5  -8   88.09    7.63
   0   5   8   74.87   10.90
   0   5   8   83.73    9.12
   0  -5  -8  104.85   11.72
   0   5   7  187.41    9.58
   0  -5  -7  178.95   12.77
   0  -5  -7  191.09   11.30
   0   5   7  185.22   11.81
   0  -5  -7  202.45    8.32
   0   5   7  200.03   10.65
   0   5   7  162.87    8.54
   0   5   7  224.90   10.01
   0   5   6   71.43    8.51
   0  -5  -6  116.92    7.41
   0   5   6   88.73    8.12
   0   5   6   87.32   10.02
   0  -5  -6   99.10   11.05
   0  -5  -6  105.39   10.01
   0   5   6   71.19    7.18
   0   5   6   71.18    7.91
   0  -5  -5  104.86    9.54
   0   5   5  123.46   10.48
   0  -5  -5  109.58    7.36
   0   5   5  117.56    7.79
   0   5   5  108.15    8.63
   0   5   5   96.99    8.34
   0   5   5  125.93    7.60
   0   5   4  974.78   14.47
   0  -5  -4  826.88   11.82
   0  -5  -4  879.79   14.44
   0   5   4  921.10   20.36
   0  -5  -4  872.90   16.35
   0   5   4  958.59   15.08
   0   5   4  823.83   16.31
   0   5   4  743.85   15.78
   0   5   4  980.12   15.99
   0   5   3   21.76    4.94
   0   5   3   35.27    7.28
   0  -5  -3   26.78    5.70
   0  -5  -3   24.12    8.06
   0   5   3   28.10    5.91
   0   5   3   31.52    8.21
   0   5   3   22.69    7.23
   0   5   2  655.94   13.31
   0  -5  -2  602.52   11.14
   0  -5  -2  565.20   14.86
   0   5   2  606.57   13.18
   0   5   2  484.68   16.37
   0   5   2  501.11   15.82
   0   5   2  528.92    9.44
   0   5   1 2283.27   25.54
   0   5   1 2554.50   23.63
   0  -5  -1 2560.68   28.60
   0   5   1 2313.12   21.07
   0  -5  -1 2506.67   22.85
   0   5   0   29.48    8.20
   0   5   0   17.31    6.42
   0  -5   0   30.87    8.41
   0  -5   0   24.67    6.61
   0   5   0   22.08    7.17
   0   5  -1   90.42    8.53
   0   5  -1   71.26    8.00
   0  -5   1   70.72    8.40
   0  -5   1   91.75    9.44
   0  -5   1   82.93    6.49
   0   5  -1   91.46    9.44
   0   5  -2  176.99    9.84
   0  -5   2  181.35   11.02
   0   5  -2  173.22   10.86
   0  -5   2  199.43    7.80
   0   5  -2  188.86    9.44
   0  -5   2  205.71   11.01
   0   5  -3  203.18    9.65
   0  -5   3  185.22   10.11
   0   5  -3  197.88   10.48
   0  -5   3  213.47   11.10
   0  -5   3  218.47    8.20
   0  -5   3  171.27   10.88
   0   5  -3  181.57   10.54
   0  -5   3  199.66    9.18
   0  -5   4  142.75    9.50
   0  -5   4  149.49    8.52
   0  -5   4  144.65    8.08
   0   5  -4  147.41    9.28
   0  -5   4  129.37   10.32
   0   5  -4  137.79   10.05
   0   5  -4  170.67   10.82
   0  -5   4  133.54   10.71
   0  -5   5   88.06    9.26
   0   5  -5   75.98    8.88
   0  -5   5   65.30   10.19
   0  -5   5   81.07    7.97
   0   5  -5   94.46   10.34
   0   5  -5   76.55    9.77
   0  -5   5   69.16    9.66
   0  -5   5   77.58    8.31
   0   5  -6  278.53   12.83
   0   5  -6  254.17   11.59
   0  -5   6  262.65   11.23
   0  -5   6  244.95   10.62
   0  -5   6  271.98   13.09
   0  -5   6  278.27   12.26
   0  -5   6  279.61   13.54
   0  -5   7  180.68   12.80
   0   5  -7  186.20   11.46
   0   5  -7  177.58   12.96
   0  -5   7  225.45   13.52
   0  -5   7  176.02   10.47
   0  -5   7  182.45   12.09
   0   5  -7  198.84   12.54
   0  -5   7  197.70   11.28
   0   5  -8   56.11   10.32
   0  -5   8   57.90    9.94
   0  -5   8   71.30   12.02
   0  -5   8   44.04    9.39
   0  -5   8   59.67   10.88
   0  -5   8   89.24   13.20
   0   5  -8   50.77   11.63
   0   5  -8   52.92   11.27
   0  -5   9  339.60   15.81
   0  -5   9  388.88   17.47
   0   5  -9  317.97   16.67
   0   5  -9  371.27   16.20
   0  -5   9  351.07   14.65
   0  -5   9  324.11   13.69
   0  -5   9  414.24   18.09
   0   5  -9  347.68   14.50
   0   5 -10   28.69   12.93
   0   5 -10   21.08   12.88
   0  -5  10    9.93   10.13
   0  -5  10   38.42   12.03
   0  -5  10   39.59   13.86
   0   5 -10   20.41   10.79
   0  -5  10   -2.20   10.62
   0  -5  10   -4.23   12.72
   0  -5  11   -0.47   14.11
   0   5 -11   30.71   11.65
   0   5 -11   21.18   13.60
   0  -5  11    3.30   11.69
   0  -5  11    9.63   12.86
   0  -5  11   24.32   10.79
   0   5 -11  -11.80   13.48
   0  -5  11    1.89   13.51
   0  -5  12  101.06   15.08
   0  -5  12   66.40   11.92
   0   5 -12   64.55   15.58
   0   5 -12   82.28   12.84
   0  -5  12   85.02   13.69
   0  -5  12   96.77   17.26
   0  -5  12   80.38   15.77
   0   5 -12   99.00   16.71
   0  -5  13  100.77   15.85
   0   5 -13  147.09   18.03
   0  -5  13  145.73   18.34
   0   5 -13  132.57   17.93
   0   5 -13  124.90   13.99
   0  -5  13  114.02   15.21
   0  -5  13   96.79   13.08
   0  -5  14   17.22   14.06
   0   5 -14   29.42   12.68
   0  -5  14    3.21   15.32
   0  -5  14    9.40   12.47
   0   5 -14   40.29   18.17
   0   5 -15   17.76   18.96
   0  -5  15   48.59   13.31
   0  -5  15   10.62   14.54
   0  -5  15    5.97   16.38
   0  -5  16   79.23   18.91
   0  -5  16  109.75   15.06
   0  -5  16   76.27   17.10
   0  -5  17   62.34   19.92
   0   6  18   71.17   18.82
   0   6  18   78.97   18.86
   0   6  17   69.53   16.04
   0   6  17   95.61   17.75
   0   6  17   62.31   17.74
   0  -6 -17   79.29   20.84
   0   6  16   47.48   15.76
   0   6  16   29.49   15.41
   0  -6 -16   34.96   18.27
   0   6  16   64.93   16.67
   0   6  15   17.50   14.75
   0   6  15   47.12   14.25
   0   6  15   54.02   14.87
   0  -6 -15   39.79   17.26
   0   6  14   42.76   13.90
   0   6  14    9.88   13.74
   0   6  14   43.92   13.50
   0  -6 -14   16.62   15.35
   0   6  13    8.83   12.41
   0   6  13   19.92   13.44
   0   6  13   20.26   12.47
   0  -6 -13   11.66    9.80
   0   6  12    6.37   13.77
   0   6  12   23.84   12.13
   0  -6 -12   30.73   13.95
   0  -6 -12   -4.73    9.25
   0   6  12   13.27   11.67
   0  -6 -12   15.95   12.91
   0   6  12   -2.14   11.38
   0   6  11   60.91   13.48
   0  -6 -11   39.04   13.56
   0   6  11   30.10   11.04
   0  -6 -11   37.79    8.98
   0   6  11   32.79   11.05
   0  -6 -11   46.09   12.98
   0   6  11   21.45   11.81
   0   6  11   41.19    9.40
   0   6  10   28.97    9.86
   0   6  10    4.59    7.94
   0  -6 -10    6.06   11.66
   0  -6 -10   27.63   12.71
   0  -6 -10    8.11    7.97
   0   6  10   37.83   11.97
   0   6  10   16.65    9.92
   0   6  10    9.82   10.53
   0   6   9  413.97   15.39
   0  -6  -9  369.36   11.60
   0   6   9  337.83   16.01
   0  -6  -9  450.00   17.66
   0   6   9  361.11   13.78
   0   6   9  369.10   13.62
   0   6   9  337.24   12.92
   0  -6  -9  391.82   15.91
   0  -6  -8  539.45   16.57
   0   6   8  574.87   16.33
   0   6   8  520.94   14.34
   0   6   8  583.88   17.68
   0  -6  -8  567.30   12.69
   0   6   8  508.46   14.13
   0  -6  -8  645.17   18.79
   0   6   8  578.62   14.69
   0  -6  -7  -10.86   11.05
   0   6   7   15.27    8.58
   0   6   7    2.17   10.08
   0  -6  -7   23.93   10.28
   0   6   7   21.06    8.16
   0  -6  -7   -0.72    6.69
   0   6   7   17.91    8.38
   0   6   7   -0.71    7.13
   0   6   6  525.06   14.18
   0  -6  -6  515.18   17.95
   0  -6  -6  557.59   15.92
   0   6   6  553.85   15.23
   0   6   6  517.66   18.24
   0   6   6  566.99   13.14
   0  -6  -6  480.38   11.34
   0   6   6  653.96   14.85
   0  -6  -6  644.58   12.89
   0  -6  -5   10.10    8.95
   0  -6  -5   38.04   10.24
   0   6   5   18.15    7.78
   0   6   5    2.81    7.55
   0  -6  -5   28.24    6.56
   0   6   5   11.09    9.19
   0   6   5   13.70    7.72
   0   6   5    4.31    6.30
   0  -6  -5   23.87    6.20
   0  -6  -4  356.41   11.18
   0   6   4  338.84    9.42
   0  -6  -4  359.85   13.01
   0   6   4  382.00   13.19
   0   6   4  372.54   15.72
   0  -6  -4  361.00   10.06
   0   6   4  360.22   13.18
   0   6   3  572.86   16.78
   0  -6  -3  628.39   17.25
   0  -6  -3  654.56   12.05
   0   6   3  729.13   19.71
   0  -6  -3  653.05   16.63
   0   6   3  628.59   11.13
   0   6   3  648.71   17.35
   0   6   3  753.68   15.46
   0   6   2  118.67   11.00
   0  -6  -2  140.93   10.82
   0   6   2  125.69   10.74
   0   6   2  140.09    9.75
   0   6   2  146.92   11.31
   0  -6  -2  151.86    8.34
   0   6   1  961.12   20.70
   0   6   1 1051.48   20.37
   0   6   1  992.82   23.66
   0  -6  -1 1134.16   18.31
   0   6   1 1038.22   18.82
   0  -6  -1 1119.01   22.48
   0  -6   0  384.44   13.75
   0   6   0  427.43   12.99
   0  -6   0  448.37   17.01
   0   6   0  384.47   14.36
   0   6   0  432.62   13.12
   0  -6   0  419.09   14.01
   0   6  -1   11.79    8.59
   0   6  -1   12.21    8.46
   0   6  -1   21.29    7.23
   0  -6   1   26.97    7.89
   0   6  -1   22.47    8.06
   0  -6   1   11.29    7.47
   0  -6   1   18.65    8.81
   0  -6   2  173.46   10.84
   0  -6   2  208.51   10.35
   0  -6   2  209.57   12.66
   0   6  -2  185.86   10.28
   0  -6   2  185.40   12.13
   0  -6   2  212.49    8.40
   0   6  -2  217.53   11.87
   0   6  -2  201.68   11.24
   0   6  -2  171.79   12.36
   0   6  -3  577.84   14.58
   0  -6   3  535.31   17.69
   0  -6   3  583.39   12.11
   0  -6   3  536.79   16.12
   0   6  -3  519.57   16.06
   0  -6   3  542.56   14.32
   0   6  -3  511.94   15.35
   0   6  -3  524.97   17.20
   0  -6   4 1766.96   30.29
   0  -6   4 1874.06   23.72
   0   6  -4 1872.68   26.11
   0  -6   4 1746.94   26.33
   0  -6   4 1872.80   20.69
   0   6  -4 1894.07   26.60
   0   6  -4 1825.40   24.49
   0  -6   5  433.65   15.34
   0   6  -5  467.18   15.70
   0   6  -5  414.28   15.31
   0  -6   5  422.54   12.12
   0   6  -5  488.32   14.12
   0  -6   5  420.26   13.36
   0  -6   5  420.31   16.78
   0  -6   5  483.88   15.00
   0  -6   6    8.47    9.49
   0  -6   6   13.57   10.46
   0   6  -6   39.72   11.62
   0   6  -6   20.15   10.39
   0  -6   6   23.13    8.66
   0  -6   6   19.45    8.31
   0   6  -6   16.41    9.00
   0  -6   6   28.41   10.46
   0  -6   7   21.55    9.05
   0   6  -7   18.71   10.93
   0  -6   7   24.50   10.88
   0  -6   7    7.03    9.94
   0  -6   7    9.03    8.94
   0  -6   7    4.87   10.95
   0   6  -7   21.80   12.11
   0   6  -7    2.33    9.35
   0  -6   8   64.71   10.35
   0  -6   8   77.77   13.35
   0  -6   8   48.81   12.31
   0  -6   8   54.44   11.54
   0   6  -8   58.28   13.16
   0   6  -8   61.35   10.81
   0  -6   8   62.49   10.19
   0   6  -8   89.43   12.96
   0   6  -9   21.61   13.15
   0   6  -9   43.25   12.84
   0   6  -9   42.12   11.05
   0  -6   9   35.13   13.84
   0  -6   9   49.08   12.04
   0  -6   9   29.61    9.90
   0  -6   9   13.16   10.59
   0  -6   9   27.77   13.09
   0  -6  10   73.59   11.19
   0  -6  10   86.92   12.74
   0   6 -10  101.71   14.77
   0  -6  10   89.00   13.64
   0  -6  10   93.73   15.74
   0   6 -10   76.00   14.80
   0  -6  10   85.16   14.55
   0   6 -10   87.57   12.25
   0  -6  11   16.09   13.97
   0   6 -11    6.96   14.98
   0  -6  11   -3.16   14.85
   0   6 -11  -12.94   14.61
   0  -6  11   24.59   14.62
   0   6 -11   10.83   11.56
   0  -6  11   13.14   12.19
   0  -6  11  -10.85   10.82
   0  -6  12   -9.29   15.58
   0  -6  12   -4.90   11.01
   0  -6  12    9.60   12.80
   0   6 -12    7.32   16.06
   0   6 -12   17.44   12.34
   0  -6  12  -14.56   13.84
   0   6 -12   -5.40   15.57
   0  -6  12    7.59   15.92
   0  -6  13    8.24   13.58
   0  -6  13   34.43   12.06
   0  -6  13   37.52   15.70
   0  -6  13   62.07   17.56
   0   6 -13   35.09   13.13
   0   6 -13   41.33   17.19
   0   6 -13   43.67   17.31
   0  -6  14   27.27   14.54
   0   6 -14   28.93   18.72
   0  -6  14   11.47   12.32
   0  -6  14   21.59   16.23
   0  -6  15   19.17   15.57
   0  -6  15   29.89   18.50
   0  -6  15   28.43   13.04
   0  -6  16    9.49   16.34
   0  -6  16   59.45   19.43
   0   7  18   46.61   18.17
   0   7  17   61.95   16.67
   0   7  17   40.67   17.07
   0   7  17   60.04   17.79
   0   7  16   -0.20   14.75
   0   7  16   51.29   16.49
   0  -7 -16   57.77   19.39
   0   7  16   -5.96   15.28
   0   7  15    9.05   13.94
   0   7  15   -1.75   13.93
   0  -7 -15   24.51   17.44
   0   7  15   29.83   15.41
   0   7  14   79.96   14.77
   0  -7 -14   71.42   16.76
   0   7  14   73.15   14.52
   0   7  14   82.99   15.56
   0  -7 -13   23.76   10.30
   0  -7 -13   30.59   15.68
   0   7  13   10.62   12.63
   0   7  13   23.91   13.02
   0   7  13   12.67   13.74
   0  -7 -12   29.00   14.15
   0   7  12   28.61   14.95
   0   7  12   24.40   12.31
   0   7  12   11.28   13.11
   0   7  12   12.98   11.74
   0  -7 -12   10.17    9.62
   0  -7 -11   91.11   14.59
   0   7  11  142.33   14.21
   0   7  11  110.90   12.55
   0  -7 -11  113.27   15.58
   0  -7 -11   83.59    9.69
   0   7  11   78.19   14.49
   0   7  11   75.29   12.72
   0  -7 -10  370.89   18.39
   0   7  10  306.71   14.30
   0   7  10  291.26   15.23
   0   7  10  359.58   17.41
   0   7  10  296.46   14.58
   0  -7 -10  280.43   16.00
   0  -7 -10  259.79   11.30
   0  -7  -9   55.86    8.62
   0   7   9   92.81   10.64
   0  -7  -9   77.26    8.85
   0   7   9   69.71   10.88
   0   7   9   73.50   10.80
   0   7   9   96.04   12.20
   0  -7  -9   85.81   12.66
   0  -7  -9  100.68   14.55
   0   7   9   88.69   13.03
   0  -7  -8  979.71   21.49
   0   7   8  977.52   18.48
   0  -7  -8  963.51   16.01
   0  -7  -8 1056.60   25.18
   0   7   8 1009.01   19.90
   0   7   8  958.67   21.07
   0   7   8  994.73   19.99
   0   7   8  976.39   23.55
   0   7   7  202.94   14.88
   0   7   7  193.57   12.60
   0   7   7  216.36   11.19
   0  -7  -7  214.30   13.48
   0  -7  -7  212.99   16.02
   0  -7  -7  223.97   10.21
   0   7   7  225.10   11.91
   0   7   7  191.39   10.81
   0  -7  -7  172.47    9.82
   0   7   6    5.84    8.32
   0   7   6   -1.56    7.26
   0   7   6   28.00   10.98
   0  -7  -6   33.86   11.69
   0  -7  -6    9.10   10.40
   0   7   6   39.28    8.89
   0  -7  -6    3.18   11.77
   0  -7  -6    8.71    7.35
   0  -7  -6   21.26    7.47
   0  -7  -5   18.38    7.42
   0   7   5   17.82   10.36
   0   7   5    8.84    5.62
   0   7   5   20.75    8.84
   0  -7  -5   37.05   11.23
   0  -7  -5   36.67   10.20
   0   7   5   18.79    8.77
   0   7   5   20.29    8.63
   0  -7  -5   23.84    7.27
   0   7   4  691.04   22.59
   0  -7  -4  748.42   21.29
   0  -7  -4  697.97   14.20
   0  -7  -4  649.88   18.27
   0   7   4  640.10   12.67
   0   7   4  674.51   18.01
   0   7   4  708.12   18.08
   0  -7  -4  725.14   15.37
   0   7   3   30.83    8.86
   0  -7  -3   12.01    7.09
   0   7   3   15.84    9.25
   0   7   3   19.93   10.20
   0   7   3   19.44    8.72
   0  -7  -3    4.33    9.10
   0  -7  -3   29.73    9.73
   0   7   2   -1.00    8.87
   0  -7  -2    8.17    9.56
   0  -7  -2   -2.42    6.88
   0   7   2   25.09    9.36
   0   7   2   16.63    8.79
   0  -7  -2   10.29    8.70
   0   7   2   15.30    9.64
   0   7   1   98.30   10.97
   0  -7  -1  106.71   12.05
   0   7   1   92.88    9.98
   0   7   1   87.77   10.75
   0  -7  -1  103.59   10.45
   0  -7  -1  104.13    9.38
   0   7   1   96.65   11.92
   0  -7   0  154.92   13.62
   0   7   0  182.67   12.49
   0  -7   0  187.04   12.15
   0   7   0  144.83   10.61
   0  -7   0  158.87   11.90
   0   7   0  157.18   11.28
   0   7   0  172.33   13.30
   0   7  -1  190.02   14.55
   0   7  -1  198.31   12.16
   0  -7   1  229.94   13.21
   0   7  -1  291.72   12.74
   0  -7   1  242.44   13.67
   0   7  -1  236.77   13.46
   0  -7   1  247.76   15.83
   0   7  -2 2013.49   32.16
   0   7  -2 2088.64   27.44
   0  -7   2 2156.94   30.41
   0   7  -2 1799.72   30.28
   0  -7   2 2106.21   33.50
   0  -7   2 2212.11   35.79
   0   7  -2 1952.86   28.21
   0   7  -3 2072.11   29.42
   0   7  -3 2117.75   28.83
   0  -7   3 2106.96   29.03
   0  -7   3 2396.60   23.43
   0   7  -3 2175.21   32.81
   0   7  -3 2211.63   31.45
   0  -7   3 2312.24   31.76
   0  -7   3 2544.58   36.59
   0  -7   3 2230.78   34.57
   0  -7   4  126.24   11.67
   0  -7   4  162.41   13.65
   0  -7   4  159.00   12.42
   0   7  -4  143.99   12.73
   0  -7   4  141.25   10.77
   0   7  -4  152.45   11.46
   0  -7   4  144.93    9.53
   0   7  -4  153.68   12.59
   0   7  -4  170.22   13.71
   0  -7   5  822.18   22.38
   0  -7   5  834.26   18.06
   0  -7   5  764.08   15.61
   0   7  -5  780.13   20.68
   0  -7   5  814.03   19.88
   0  -7   5  852.69   21.62
   0   7  -5  911.55   20.64
   0   7  -5  773.00   18.62
   0   7  -6   23.16   11.32
   0   7  -6   25.11    9.87
   0  -7   6    8.10    9.36
   0  -7   6   23.04   11.00
   0  -7   6   26.78   11.45
   0   7  -6    6.34   12.18
   0  -7   6   21.91    8.66
   0  -7   6   11.98   10.16
   0  -7   7   18.28   12.05
   0   7  -7   16.95   13.03
   0   7  -7   15.86    9.92
   0  -7   7   21.61    9.83
   0  -7   7   38.66   12.87
   0  -7   7   34.15   11.61
   0  -7   7   25.27    9.14
   0   7  -7   27.55   12.42
   0  -7   8  147.67   15.59
   0   7  -8  158.39   15.55
   0  -7   8  134.21   12.21
   0   7  -8  173.51   15.28
   0  -7   8  189.06   15.48
   0  -7   8  120.96   11.28
   0   7  -8  163.99   12.88
   0  -7   8  179.64   14.08
   0   7  -9  264.38   17.43
   0  -7   9  279.46   19.33
   0   7  -9  251.43   14.44
   0  -7   9  203.56   12.69
   0  -7   9  235.99   15.90
   0  -7   9  203.95   13.98
   0  -7   9  282.07   17.36
   0   7  -9  230.16   17.43
   0  -7  10   69.60   15.28
   0   7 -10   63.33   15.52
   0   7 -10   47.15   15.83
   0   7 -10   61.49   12.45
   0  -7  10   40.84   10.93
   0  -7  10   15.06   13.83
   0  -7  10   31.63   12.16
   0  -7  10   51.16   15.77
   0  -7  11   43.86   16.70
   0   7 -11   22.39   16.42
   0  -7  11    3.10   16.13
   0   7 -11   27.52   15.71
   0  -7  11   -7.44   14.38
   0  -7  11    5.46   10.70
   0   7 -11   16.82   12.42
   0  -7  11    4.72   12.14
   0  -7  12   26.45   13.09
   0   7 -12   74.37   18.55
   0  -7  12   69.99   18.57
   0   7 -12   74.30   17.98
   0   7 -12   51.07   13.43
   0  -7  12   56.77   12.14
   0  -7  12   86.15   17.53
   0  -7  12   23.71   15.72
   0  -7  13  -10.89   11.68
   0   7 -13   21.87   13.41
   0  -7  13   28.37   13.78
   0  -7  13    9.58   16.01
   0   7 -13   27.62   18.85
   0   7 -14   86.72   21.66
   0  -7  14   52.12   17.84
   0  -7  14   89.84   13.82
   0  -7  14   64.68   15.28
   0  -7  15   89.47   17.43
   0  -7  15  137.05   20.20
   0   8  18   11.75   18.45
   0   8  17   23.29   18.07
   0   8  17   29.09   17.09
   0   8  16   14.66   15.63
   0  -8 -16  -16.25   18.81
   0   8  16   21.64   15.64
   0   8  16   17.68   16.64
   0   8  15   63.11   15.56
   0   8  15   57.07   15.20
   0   8  15   46.19   16.74
   0   8  14  101.72   15.14
   0   8  14   65.83   14.50
   0  -8 -14  124.64   18.77
   0   8  14  102.89   16.63
   0   8  13  189.04   17.25
   0   8  13  144.87   15.61
   0  -8 -13  146.73   17.72
   0   8  13  180.08   15.49
   0  -8 -12  181.39   17.50
   0   8  12  170.36   14.76
   0   8  12  184.23   15.03
   0   8  12  204.01   16.59
   0   8  11  134.63   14.84
   0   8  11  102.61   12.69
   0   8  11   85.38   13.21
   0  -8 -11  126.62   15.93
   0  -8 -11  104.99   10.40
   0   8  11  149.35   15.90
   0  -8 -10  136.70   10.56
   0   8  10  216.29   15.05
   0   8  10  151.62   13.67
   0   8  10  168.23   15.52
   0  -8 -10  131.75   15.08
   0  -8 -10  180.42   17.21
   0  -8 -10  109.94   10.83
   0   8  10  117.05   12.60
   0  -8  -9   26.83    8.96
   0   8   9   61.70   12.01
   0   8   9   82.23   13.81
   0  -8  -9   35.56   14.66
   0   8   9   46.32   11.11
   0  -8  -9   47.60    8.71
   0  -8  -9   29.87   12.74
   0   8   9   47.00   10.92
   0  -8  -8   40.60    8.61
   0   8   8   17.80   11.25
   0  -8  -8   66.52   14.86
   0  -8  -8   39.08   12.65
   0   8   8   37.42   10.54
   0   8   8   49.42   12.92
   0  -8  -8   22.61    8.45
   0   8   8   39.37   10.45
   0   8   7   12.49   10.26
   0   8   7   10.53    9.57
   0   8   7  -15.65   12.34
   0   8   7   -4.48   10.47
   0  -8  -7   34.27    8.41
   0   8   7   16.19    8.01
   0  -8  -7   21.01   12.02
   0  -8  -7   31.45   13.27
   0  -8  -7   25.84    8.82
   0  -8  -6  143.49   10.04
   0   8   6  139.46   12.44
   0   8   6  115.25    8.03
   0  -8  -6  187.20   15.18
   0  -8  -6  139.07   13.57
   0   8   6  142.72   12.03
   0   8   6  172.78   11.26
   0  -8  -6  128.14   10.03
   0   8   6  153.80   14.76
   0   8   5  102.87   10.93
   0  -8  -5   87.11   12.21
   0   8   5   58.78   10.67
   0  -8  -5   76.78    9.16
   0   8   5  100.97   13.37
   0  -8  -5   87.28   13.64
   0  -8  -5   83.70    9.02
   0   8   5  108.11   11.30
   0   8   5   89.27    7.51
   0  -8  -4   22.95   10.74
   0   8   4   30.54   11.52
   0  -8  -4   -5.66   11.50
   0   8   4   11.18    9.84
   0  -8  -4    5.39    7.58
   0  -8  -4    0.32    7.63
   0   8   4   19.68    9.57
   0   8   4   -2.71    9.27
   0   8   3  483.55   16.10
   0   8   3  357.53   17.29
   0  -8  -3  460.16   17.51
   0  -8  -3  396.73   17.44
   0  -8  -3  464.65   14.29
   0   8   3  408.74   19.21
   0   8   3  377.38   17.92
   0   8   2  677.23   19.00
   0   8   2  421.71   21.10
   0   8   2  474.18   19.98
   0   8   2  443.89   19.35
   0  -8  -2  575.83   19.78
   0  -8  -2  570.23   16.58
   0  -8  -2  528.67   18.94
   0   8   1  194.60   15.02
   0   8   1  249.98   14.47
   0  -8  -1  239.26   16.45
   0  -8  -1  263.23   13.58
   0   8   1  230.93   13.67
   0  -8  -1  232.28   14.70
   0   8   1  182.94   16.25
   0   8   0   46.00    9.58
   0   8   0   31.21   10.02
   0  -8   0   41.91   10.61
   0   8   0   43.72   11.33
   0  -8   0   29.22   11.92
   0   8   0   38.10   11.91
   0  -8   0   43.84   10.74
   0   8  -1   17.97   11.12
   0  -8   1   15.25   11.74
   0  -8   1   -5.82    9.64
   0  -8   1    2.83   10.08
   0   8  -1    9.70    9.80
   0   8  -2   14.44   11.43
   0   8  -2    4.58   10.42
   0  -8   2    1.99   11.35
   0  -8   2    8.01    9.80
   0   8  -2   35.37   11.29
   0  -8   2   19.35   10.45
   0   8  -3   -8.32   10.74
   0   8  -3   42.63   11.29
   0   8  -3   24.79    9.46
   0  -8   3    3.72    7.74
   0  -8   3   -0.43   11.04
   0   8  -3   25.79   11.82
   0  -8   3   -0.16    9.98
   0  -8   3   -6.17   10.54
   0  -8   4  108.06   12.75
   0  -8   4  106.47    9.56
   0  -8   4   68.74   10.56
   0  -8   4  136.13   12.87
   0   8  -4  114.30   13.07
   0   8  -4  107.05   14.01
   0  -8   4  120.65   13.70
   0   8  -4  124.45   11.40
   0   8  -4   99.80   12.90
   0   8  -5   35.13   12.21
   0  -8   5   34.26   11.13
   0  -8   5   26.31    8.66
   0   8  -5   31.44   12.09
   0   8  -5   39.38   10.20
   0   8  -5   -2.88   12.21
   0  -8   5   36.65   11.75
   0  -8   5   16.91    9.66
   0  -8   5   30.96   12.34
   0  -8   6  288.85   16.46
   0  -8   6  359.06   15.14
   0   8  -6  395.89   17.64
   0  -8   6  385.52   17.63
   0   8  -6  383.30   17.99
   0   8  -6  336.27   18.46
   0  -8   6  344.04   17.76
   0  -8   6  320.75   12.80
   0   8  -6  367.69   15.32
   0   8  -7  105.73   15.96
   0   8  -7  106.09   15.02
   0  -8   7  109.37   14.99
   0  -8   7   89.05   10.65
   0  -8   7   91.03   12.01
   0   8  -7  102.15   12.71
   0  -8   7  101.95   13.54
   0  -8   7   86.57   14.42
   0   8  -7   87.88   14.62
   0  -8   8    5.08   11.45
   0   8  -8    7.65   14.80
   0  -8   8    8.26    9.97
   0  -8   8    3.41   12.39
   0   8  -8    1.22   13.31
   0  -8   8   44.12   14.15
   0  -8   8   22.05   14.63
   0   8  -8   -0.03   11.47
   0   8  -9    5.43   15.17
   0  -8   9   13.05   14.74
   0  -8   9   29.12   12.61
   0   8  -9   16.92   15.41
   0  -8   9   -0.05   13.23
   0   8  -9    4.29   11.88
   0  -8   9   19.18   16.25
   0  -8   9    7.53   10.42
   0  -8  10  152.63   18.94
   0  -8  10  136.87   12.89
   0   8 -10  168.60   18.77
   0  -8  10  165.72   16.63
   0  -8  10  174.05   17.71
   0  -8  10  134.28   14.64
   0   8 -10  149.63   18.19
   0   8 -10  127.74   13.95
   0  -8  11  176.27   13.69
   0  -8  11  303.45   22.63
   0  -8  11  199.70   16.22
   0  -8  11  216.65   18.48
   0   8 -11  267.42   21.31
   0  -8  11  312.84   21.34
   0   8 -11  262.38   20.90
   0   8 -11  235.00   15.72
   0  -8  12   31.90   18.64
   0  -8  12   17.48   16.18
   0   8 -12   -5.10   18.36
   0   8 -12   46.10   18.36
   0  -8  12   25.93   11.76
   0   8 -12   35.88   13.77
   0  -8  12   19.67   14.05
   0  -8  13   18.65   12.29
   0  -8  13   17.97   14.59
   0   8 -13   25.84   20.22
   0  -8  13   36.49   17.06
   0  -8  14   71.39   18.72
   0  -8  14   49.77   16.25
   0  -8  14   29.73   13.04
   0  -8  15   32.02   19.45
   0   9  17   37.01   18.18
   0   9  16   10.13   15.55
   0   9  16   15.58   16.22
   0   9  15   32.13   15.40
   0   9  15   45.21   16.46
   0   9  15   37.60   15.84
   0  -9 -15    1.58   18.61
   0   9  14   73.50   16.39
   0   9  14   70.89   15.13
   0  -9 -14   77.44   18.61
   0   9  14   59.78   15.17
   0   9  13  115.58   14.94
   0   9  13  135.95   15.69
   0   9  13  162.80   17.61
   0  -9 -13  124.47   18.34
   0   9  12   43.39   13.44
   0   9  12   26.66   14.80
   0   9  12   51.34   13.14
   0  -9 -12   80.35   17.06
   0  -9 -11   27.79    9.97
   0   9  11   27.08   12.28
   0  -9 -11   33.66   15.27
   0   9  11   31.01   14.34
   0   9  11   61.68   13.47
   0  -9 -10   27.42   14.22
   0   9  10   23.87   11.89
   0   9  10   16.52   14.29
   0   9  10   13.85   13.45
   0  -9 -10    2.30    9.39
   0   9  10   17.79   12.29
   0   9   9  188.53   14.35
   0  -9  -9  150.84   16.13
   0   9   9  235.51   17.06
   0  -9  -9  202.64   18.66
   0   9   9  155.39   13.25
   0   9   9  198.18   15.16
   0  -9  -9  154.64   10.49
   0  -9  -9  119.76   12.01
   0   9   8  433.05   16.54
   0  -9  -8  473.60   21.78
   0  -9  -8  426.58   18.88
   0   9   8  421.17   17.76
   0   9   8  404.23   15.28
   0  -9  -8  439.57   13.20
   0   9   8  410.07   20.51
   0  -9  -7  389.68   19.71
   0   9   7  385.20   15.81
   0  -9  -7  351.14   20.32
   0  -9  -7  326.08   13.75
   0  -9  -7  344.52   12.91
   0   9   7  303.30   16.34
   0  -9  -7  398.59   18.01
   0   9   7  377.51   19.44
   0   9   7  357.19   14.60
   0   9   6  475.34   17.47
   0   9   6  495.43   21.91
   0   9   6  438.17   17.98
   0   9   6  420.30   15.30
   0  -9  -6  419.34   13.96
   0  -9  -6  448.79   18.97
   0  -9  -6  458.76   14.56
   0   9   5   13.88   12.51
   0   9   5   11.89   10.64
   0  -9  -5   13.23   12.23
   0  -9  -5   33.35    9.31
   0  -9  -5   -0.51   13.87
   0   9   5  -12.30   10.06
   0  -9  -5    4.64    8.36
   0   9   5    1.76   10.22
   0  -9  -4  116.43   10.63
   0  -9  -4  183.65   14.70
   0   9   4  156.38   16.21
   0   9   4  138.21   13.90
   0   9   4  186.97   12.87
   0  -9  -4  158.69   15.63
   0   9   4  105.29   13.56
   0  -9  -4  134.74   11.64
   0   9   3    1.55   11.21
   0   9   3    2.76   12.44
   0  -9  -3   19.15   12.54
   0  -9  -3   20.90   12.14
   0   9   3    4.50   10.61
   0   9   3   15.95   11.02
   0  -9  -3  -12.54    9.06
   0   9   2  259.05   18.35
   0   9   2  276.65   17.98
   0   9   2  280.85   16.48
   0   9   2  274.41   18.01
   0  -9  -2  332.94   15.52
   0  -9  -2  338.30   18.44
   0  -9  -2  296.92   17.27
   0   9   1  205.53   17.84
   0   9   1  270.05   16.18
   0   9   1  248.23   17.17
   0  -9  -1  215.35   18.10
   0  -9  -1  244.43   16.83
   0   9   1  243.23   16.70
   0   9   0   81.26   14.47
   0   9   0  117.64   14.02
   0  -9   0   93.52   13.26
   0   9   0   93.62   12.40
   0  -9   0  108.80   15.86
   0   9   0   87.42   12.89
   0   9  -1   91.79   13.61
   0   9  -1  102.50   12.53
   0  -9   1   79.83   12.87
   0   9  -1   80.46   14.29
   0  -9   1   91.40   12.53
   0   9  -1   76.14   11.57
   0  -9   1   80.94   15.42
   0   9  -2   12.54    9.68
   0   9  -2   42.74   13.39
   0  -9   2   -8.57   11.12
   0  -9   2   15.73   11.62
   0   9  -2    4.97   11.69
   0   9  -2   -0.17   10.75
   0  -9   2   -6.45   12.95
   0  -9   3   20.93   13.14
   0   9  -3   32.99   13.54
   0   9  -3   58.89   12.48
   0  -9   3   33.86   11.88
   0   9  -3   34.51   12.75
   0  -9   3   51.86   12.71
   0   9  -3   18.09   10.58
   0   9  -4   11.95   12.18
   0  -9   4   50.52   11.65
   0  -9   4   34.09   13.61
   0   9  -4   18.09   10.51
   0   9  -4   19.51   13.35
   0   9  -4   37.07   13.31
   0   9  -5   68.21   14.06
   0  -9   5   86.42   13.28
   0  -9   5   48.56   13.81
   0  -9   5   80.71   11.97
   0  -9   5   56.47   12.74
   0  -9   5   64.40   10.22
   0   9  -5   55.22   14.87
   0   9  -5   73.49   13.96
   0   9  -5   93.93   11.99
   0  -9   6  -16.95   13.69
   0   9  -6   25.65   14.75
   0   9  -6    2.09   11.14
   0   9  -6   38.28   14.10
   0  -9   6   10.98   12.69
   0  -9   6   35.51   11.73
   0  -9   6    6.60    9.66
   0  -9   6    0.48   12.69
   0   9  -6   17.99   14.09
   0   9  -7   72.27   15.25
   0  -9   7   58.69   15.14
   0  -9   7   74.71   13.81
   0  -9   7   36.40   10.15
   0   9  -7   46.50   15.11
   0   9  -7   59.87   12.19
   0   9  -7   54.05   16.08
   0  -9   7   19.19   12.07
   0  -9   7   72.87   15.07
   0  -9   8  126.33   16.05
   0   9  -8   75.87   16.94
   0  -9   8   92.46   13.80
   0   9  -8   89.60   17.51
   0   9  -8  117.36   16.84
   0  -9   8   97.07   16.76
   0  -9   8   57.20   11.06
   0  -9   8   77.03   16.01
   0   9  -8   81.25   12.74
   0  -9   9  173.34   19.33
   0  -9   9  146.12   16.70
   0  -9   9  199.66   18.98
   0  -9   9  114.92   12.08
   0   9  -9  154.11   18.57
   0  -9   9  115.98   14.96
   0   9  -9  114.84   13.60
   0   9  -9  141.69   19.19
   0   9  -9  173.18   18.94
   0  -9  10   17.87   10.85
   0   9 -10   -2.88   13.00
   0   9 -10   -4.64   17.79
   0   9 -10   17.17   17.46
   0   9 -10    2.65   17.55
   0  -9  10   23.23   17.14
   0  -9  10   16.22   13.51
   0  -9  10    3.58   15.22
   0  -9  10   16.72   17.98
   0  -9  11  123.79   20.19
   0  -9  11   94.53   12.61
   0   9 -11  124.89   20.19
   0   9 -11   84.22   14.31
   0  -9  11   98.46   17.48
   0   9 -11  137.06   20.70
   0   9 -11   77.38   19.58
   0  -9  11   92.69   15.43
   0  -9  12   90.34   13.16
   0  -9  12   95.98   16.26
   0  -9  12  140.94   19.12
   0   9 -12  134.11   22.38
   0   9 -12  107.71   21.04
   0   9 -12  108.70   14.99
   0  -9  13   28.45   16.05
   0  -9  13   23.01   12.79
   0  -9  13   53.62   19.10
   0  -9  14   82.76   20.18
   0  10  16   61.79   17.75
   0  10  16   89.92   19.19
   0  10  15   52.71   17.90
   0  10  15   21.94   16.11
   0  10  15   18.55   15.54
   0 -10 -15   26.86   19.63
   0  10  14   32.30   15.41
   0 -10 -14    8.52   18.39
   0  10  14   14.35   16.37
   0  10  14   48.74   15.11
   0  10  13   40.81   14.73
   0  10  13   23.75   15.63
   0  10  13    1.01   13.67
   0 -10 -13   37.64   17.82
   0  10  12    1.84   13.60
   0  10  12   22.40   13.08
   0 -10 -12    5.07   16.32
   0  10  12   11.95   15.23
   0  10  11   52.13   13.07
   0 -10 -11   27.93   15.76
   0  10  11   63.99   14.10
   0  10  11   85.28   15.61
   0  10  10  205.64   17.22
   0 -10 -10  159.33   11.24
   0  10  10  180.44   15.31
   0 -10 -10  183.94   17.85
   0  10  10  167.89   14.49
   0 -10  -9  371.49   13.27
   0  10   9  422.44   17.80
   0  10   9  498.27   20.35
   0  10   9  432.24   17.10
   0 -10  -9  409.56   20.39
   0  10   9  457.39   21.34
   0 -10  -8   79.62   10.32
   0  10   8   96.61   13.78
   0  10   8   86.02   12.35
   0  10   8   93.12   16.38
   0 -10  -8   53.99   14.99
   0 -10  -8   71.71   10.81
   0  10   8   92.88   14.12
   0 -10  -8  112.53   18.07
   0 -10  -7   65.62   16.71
   0  10   7   55.34   12.91
   0 -10  -7   45.73   10.15
   0 -10  -7   52.13   15.07
   0 -10  -7   52.46   10.20
   0  10   7   71.50   12.73
   0  10   7   53.81   11.66
   0  10   7   85.86   15.51
   0 -10  -7   59.64   16.85
   0 -10  -6  -12.91   14.76
   0  10   6  -15.71   10.90
   0  10   6   10.97   11.69
   0 -10  -6  -10.69    9.17
   0 -10  -6   29.59   13.86
   0  10   6   10.07   11.76
   0  10   6   12.42   14.38
   0 -10  -6    8.98    9.71
   0 -10  -5  248.02   13.80
   0 -10  -5  228.32   12.33
   0  10   5  245.78   19.20
   0  10   5  240.68   16.53
   0  10   5  249.30   16.18
   0 -10  -5  255.29   16.80
   0  10   5  254.78   14.83
   0 -10  -5  283.78   19.66
   0  10   4  246.26   19.46
   0 -10  -4  257.21   14.44
   0 -10  -4  197.43   16.70
   0  10   4  203.68   16.69
   0  10   4  197.84   16.50
   0 -10  -4  209.24   12.79
   0 -10  -4  209.97   18.59
   0 -10  -3  426.81   17.32
   0  10   3  363.82   20.96
   0 -10  -3  395.77   20.60
   0  10   3  441.35   22.61
   0 -10  -3  374.43   20.70
   0  10   3  318.51   20.66
   0  10   3  435.93   18.89
   0 -10  -2   80.82   12.59
   0  10   2   86.21   13.54
   0  10   2   53.09   13.93
   0 -10  -2   51.88   13.18
   0  10   2   60.04   13.44
   0 -10  -2   70.28   14.64
   0  10   2   57.41   15.16
   0 -10  -1    6.03   12.12
   0  10   1   18.82   12.35
   0 -10  -1   25.85   11.56
   0  10   1    6.03   12.31
   0 -10  -1    2.34   13.53
   0  10   1   20.77   13.15
   0  10   1   10.31   12.62
   0 -10   0    0.95   12.15
   0  10   0   -7.75   11.21
   0  10   0    8.38   12.18
   0  10   0   37.94   13.08
   0 -10   0   18.80   12.04
   0 -10   0    5.31   13.71
   0  10  -1   -0.68   13.56
   0 -10   1   -3.68   12.12
   0  10  -1    0.88   11.37
   0 -10   1   30.34   12.38
   0  10  -1   -5.54   12.67
   0  10  -1   10.51   12.00
   0 -10   1   36.14   14.20
   0 -10   2  340.35   19.63
   0 -10   2  359.40   18.71
   0  10  -2  307.18   17.37
   0  10  -2  321.64   18.81
   0  10  -2  330.02   16.62
   0  10  -2  321.35   20.54
   0  10  -3  233.80   17.45
   0 -10   3  159.56   15.91
   0  10  -3  234.59   16.22
   0  10  -3  199.97   14.70
   0 -10   3  185.84   16.75
   0 -10   3  264.25   19.92
   0  10  -3  214.41   18.23
   0 -10   4  262.91   19.50
   0 -10   4  198.41   15.93
   0  10  -4  178.96   14.13
   0  10  -4  165.05   17.08
   0  10  -4  263.85   19.58
   0  10  -4  218.74   16.40
   0 -10   4  240.02   17.44
   0  10  -5   33.73   15.75
   0  10  -5   22.25   14.24
   0  10  -5   30.33   14.65
   0 -10   5   15.93   13.37
   0  10  -5  -18.50   11.43
   0 -10   5    1.12   12.97
   0 -10   5   65.49   15.84
   0 -10   6   43.08   14.61
   0 -10   6   12.77   14.22
   0  10  -6   25.71   12.37
   0 -10   6   25.61   15.90
   0  10  -6   73.04   17.42
   0  10  -6   57.94   15.86
   0  10  -6   11.82   15.70
   0  10  -7   17.27   16.81
   0 -10   7   15.98   15.49
   0  10  -7   33.93   16.13
   0 -10   7   26.86   13.22
   0 -10   7   14.49   15.05
   0 -10   7   15.67   10.46
   0  10  -7   24.47   12.55
   0 -10   7   22.08   14.97
   0  10  -7    9.02   16.01
   0  10  -8   36.72   12.97
   0  10  -8   59.37   17.93
   0 -10   8   42.11   11.50
   0 -10   8   95.57   16.76
   0  10  -8   70.34   17.62
   0  10  -8   43.97   16.73
   0 -10   8   81.64   17.90
   0 -10   8   26.34   13.44
   0 -10   8   50.37   17.20
   0 -10   9   72.03   12.30
   0  10  -9  153.95   19.61
   0 -10   9  159.31   20.04
   0 -10   9  156.55   18.67
   0 -10   9  135.64   16.16
   0 -10   9  133.13   20.08
   0  10  -9  150.67   20.00
   0  10  -9  133.19   20.40
   0  10  -9   99.71   14.65
   0  10 -10   99.28   20.62
   0 -10  10   99.52   16.10
   0 -10  10  129.46   18.79
   0  10 -10  118.99   14.74
   0 -10  10  143.72   20.81
   0 -10  10   80.61   12.70
   0  10 -10   84.36   19.29
   0  10 -10   63.13   19.04
   0 -10  11   78.53   20.93
   0  10 -11  116.67   21.12
   0  10 -11   61.81   19.92
   0 -10  11   82.21   13.11
   0 -10  11   71.58   16.13
   0  10 -11   86.17   15.18
   0  10 -11   98.99   21.77
   0 -10  11  106.89   19.52
   0 -10  12   92.91   19.77
   0 -10  12   90.30   16.83
   0 -10  12   52.72   13.05
   0 -10  13   45.34   20.10
   0  11  16   68.28   19.07
   0  11  15   34.15   16.43
   0  11  15   33.15   17.66
   0  11  14   36.66   15.48
   0  11  14   52.33   16.34
   0 -11 -14   59.03   20.53
   0  11  14   71.41   17.96
   0  11  13  108.64   16.93
   0 -11 -13   65.60   19.43
   0  11  13  103.64   18.06
   0  11  13   75.05   15.13
   0 -11 -12   15.07   17.83
   0  11  12   10.79   13.58
   0  11  12   30.98   14.31
   0  11  12   27.18   16.17
   0 -11 -11  110.96   18.00
   0  11  11  130.14   17.15
   0  11  11   45.76   13.94
   0  11  11   48.82   14.72
   0  11  10   57.85   15.84
   0  11  10   49.77   13.24
   0  11  10   76.91   14.37
   0 -11 -10   85.27   17.20
   0  11   9   48.31   15.51
   0 -11  -9   84.42   16.69
   0  11   9   93.66   14.64
   0 -11  -9   54.75   10.19
   0  11   9   86.64   13.24
   0 -11  -8    9.40    9.51
   0  11   8    5.75   13.86
   0 -11  -8   25.46   11.28
   0 -11  -8   24.39   15.57
   0  11   8   38.18   13.62
   0  11   8   26.26   11.70
   0  11   8   15.87   15.82
   0 -11  -7   70.32   18.56
   0  11   7   38.88   15.86
   0  11   7   50.02   12.29
   0 -11  -7   18.28   10.24
   0 -11  -7   33.38   17.23
   0  11   7  -19.49   13.47
   0 -11  -7   35.82   15.40
   0 -11  -7   72.66   12.20
   0  11   7   16.70   12.87
   0  11   6  252.89   21.40
   0 -11  -6  255.57   13.60
   0 -11  -6  290.85   15.61
   0  11   6  268.18   18.27
   0  11   6  300.88   17.60
   0 -11  -6  296.21   19.37
   0  11   6  264.84   15.40
   0 -11  -5   70.91   17.10
   0 -11  -5   38.03   10.00
   0 -11  -5   44.59   12.00
   0  11   5   12.97   12.99
   0  11   5   33.85   16.11
   0  11   5   19.89   13.10
   0 -11  -5   65.44   15.34
   0  11   5   34.11   12.26
   0  11   4   11.72   13.38
   0 -11  -4   43.29   15.82
   0  11   4    2.48   12.80
   0  11   4   18.47   11.87
   0 -11  -4   28.95   11.74
   0 -11  -4   37.87   15.01
   0  11   4  -10.91   15.34
   0 -11  -4   15.45   10.17
   0 -11  -3   30.95   12.01
   0  11   3   27.54   15.23
   0 -11  -3   41.55   15.14
   0  11   3   17.89   13.24
   0  11   3   24.34   13.16
   0  11   3   -0.72   13.82
   0 -11  -2   54.55   15.52
   0 -11  -2   43.17   15.58
   0  11   2   58.42   14.84
   0  11   2   55.82   14.65
   0  11   2   67.34   16.43
   0 -11  -2   88.40   14.14
   0  11   2   74.07   14.17
   0 -11  -1  280.01   18.48
   0 -11  -1  248.61   21.10
   0  11   1  342.24   19.01
   0  11   1  196.30   19.99
   0 -11  -1  263.94   19.56
   0  11   1  254.53   20.06
   0  11   1  269.11   19.42
   0  11   0  202.15   18.19
   0  11   0  243.25   19.07
   0 -11   0  193.65   20.47
   0 -11   0  206.42   18.22
   0  11   0  171.52   19.23
   0  11   0  261.42   17.42
   0 -11   0  232.24   18.02
   0 -11   1   50.61   14.09
   0  11  -1   25.90   12.94
   0  11  -1   29.73   14.26
   0  11  -1   62.44   14.14
   0  11  -1   53.00   15.98
   0 -11   1   49.64   16.63
   0 -11   1   40.33   13.86
   0  11  -2   27.54   15.05
   0  11  -2   59.15   13.96
   0 -11   2   60.81   14.74
   0  11  -2   50.72   17.45
   0 -11   2   82.74   15.00
   0 -11   2   65.68   17.21
   0  11  -2   61.83   13.38
   0 -11   3  117.34   15.95
   0 -11   3  147.85   16.17
   0  11  -3  119.09   15.93
   0  11  -3   85.01   13.61
   0  11  -3   91.88   16.40
   0 -11   3  131.36   18.92
   0  11  -3   97.21   17.82
   0  11  -4   70.60   17.63
   0  11  -4   57.40   16.49
   0 -11   4   93.23   18.62
   0 -11   4   66.48   15.59
   0  11  -4   56.31   15.52
   0 -11   4   89.28   15.17
   0  11  -4   71.88   13.78
   0 -11   5   70.56   15.66
   0  11  -5   61.39   16.89
   0  11  -5   44.69   15.55
   0  11  -5   47.60   12.92
   0 -11   5   65.60   15.45
   0 -11   5   93.46   18.67
   0  11  -5  101.52   18.63
   0  11  -6  366.95   21.06
   0  11  -6  366.97   17.52
   0 -11   6  408.32   21.16
   0  11  -6  338.30   22.13
   0 -11   6  417.58   24.20
   0  11  -6  379.07   22.09
   0 -11   6  395.51   21.27
   0 -11   7  237.74   19.67
   0  11  -7  211.46   20.37
   0  11  -7  185.38   19.39
   0  11  -7  233.74   21.76
   0 -11   7  248.08   22.01
   0  11  -7  205.68   15.81
   0 -11   7  226.50   19.16
   0 -11   8   37.77   19.63
   0  11  -8   33.03   18.98
   0 -11   8   43.00   18.11
   0  11  -8   24.27   17.88
   0  11  -8    7.16   17.07
   0 -11   8   11.70   16.52
   0  11  -8    8.10   13.44
   0  11  -9   23.72   15.22
   0  11  -9   46.89   19.29
   0  11  -9   39.42   19.88
   0  11  -9   66.36   19.41
   0 -11   9   22.75   17.29
   0 -11   9   40.61   19.70
   0  11 -10   39.35   19.97
   0 -11  10   63.48   18.88
   0  11 -10   31.93   15.00
   0 -11  10   32.54   21.04
   0 -11  10   51.44   15.80
   0  11 -10  -19.80   19.18
   0  11 -10   28.11   20.48
   0 -11  11   76.98   19.98
   0 -11  11   12.71   16.01
   0 -11  12   35.11   19.98
   0  12  15   51.09   19.15
   0  12  14   64.38   19.08
   0  12  14   48.26   16.48
   0  12  14   42.33   16.95
   0  12  13   -3.00   15.70
   0  12  13   19.52   17.24
   0  12  13   45.37   15.15
   0 -12 -13   45.06   20.50
   0 -12 -12   76.28   19.75
   0  12  12   48.18   14.60
   0  12  12   93.98   16.66
   0 -12 -11   89.22   18.52
   0  12  11  123.85   18.05
   0  12  11  157.44   16.81
   0  12  11  127.09   15.28
   0 -12 -10   53.03   18.31
   0  12  10   15.35   14.35
   0  12  10   15.80   15.59
   0  12  10   20.11   13.32
   0  12   9   46.69   13.38
   0  12   9   43.06   14.60
   0 -12  -9   30.05   17.33
   0  12   9   18.51   15.47
   0 -12  -8   -9.58   16.68
   0 -12  -8   13.14    9.88
   0  12   8   17.69   15.19
   0  12   8   19.10   14.24
   0  12   8   26.17   12.74
   0 -12  -7   25.90   16.88
   0  12   7   71.65   15.66
   0  12   7   15.75   14.20
   0 -12  -7   25.97   10.53
   0  12   7   51.23   12.64
   0 -12  -7   44.10   12.39
   0  12   7   58.48   17.67
   0 -12  -6   61.37   16.34
   0 -12  -6   31.64   18.32
   0  12   6   24.61   16.44
   0 -12  -6   11.15   11.84
   0  12   6   17.19   14.52
   0  12   6    7.21   12.40
   0 -12  -6    8.12   10.36
   0  12   6   41.74   14.15
   0  12   5   82.22   15.96
   0  12   5  134.96   14.61
   0 -12  -5  131.23   20.52
   0 -12  -5  108.71   13.78
   0 -12  -5  105.15   17.49
   0  12   5  108.69   19.28
   0  12   5  100.39   16.26
   0 -12  -5  112.95   11.89
   0 -12  -4  199.60   16.94
   0 -12  -4  145.48   13.44
   0  12   4  139.71   17.69
   0  12   4  179.36   15.83
   0 -12  -4  188.70   19.02
   0  12   4  169.86   18.81
   0  12   4  161.11   20.55
   0  12   3   41.15   17.06
   0 -12  -3   69.33   16.79
   0  12   3   36.08   13.58
   0 -12  -3   19.36   16.04
   0  12   3   20.55   14.65
   0 -12  -3   -2.14   14.01
   0  12   3   -4.68   14.80
   0 -12  -3   38.32   11.13
   0 -12  -2   28.08   16.87
   0 -12  -2   62.82   14.71
   0  12   2   40.83   14.76
   0 -12  -2   46.22   16.25
   0  12   2   21.52   14.84
   0  12   2   45.80   17.42
   0  12   2   -1.68   15.56
   0  12   1  -17.50   15.69
   0 -12  -1    3.24   16.00
   0 -12  -1   53.62   15.29
   0  12   1   11.81   14.96
   0  12   1   46.34   13.92
   0 -12  -1   -3.50   14.20
   0  12   1   18.65   16.43
   0 -12   0   88.87   16.30
   0  12   0   64.99   16.91
   0  12   0   53.16   17.13
   0  12   0   70.45   16.76
   0 -12   0   63.33   18.57
   0 -12   0  112.38   17.04
   0  12   0   54.41   15.02
   0  12  -1  289.79   19.84
   0 -12   1  269.88   23.80
   0  12  -1  243.40   21.40
   0  12  -1  249.45   20.42
   0 -12   1  274.03   20.55
   0 -12   1  315.70   21.65
   0  12  -2  292.54   21.38
   0 -12   2  244.10   19.14
   0  12  -2  247.04   18.47
   0  12  -2  274.32   19.28
   0 -12   2  275.48   21.22
   0  12  -2  249.97   21.66
   0 -12   3   61.87   18.80
   0 -12   3   19.70   16.24
   0  12  -3   28.35   17.57
   0  12  -3   42.60   15.05
   0  12  -3   15.53   16.49
   0  12  -3   29.63   14.21
   0 -12   3   68.38   15.79
   0 -12   4   23.62   15.03
   0  12  -4   29.85   16.88
   0  12  -4   52.56   14.34
   0  12  -4   58.64   18.94
   0 -12   4   59.23   16.95
   0  12  -4   64.81   16.77
   0 -12   4   34.66   19.25
   0 -12   5  118.18   18.42
   0 -12   5  151.48   21.12
   0  12  -5   65.13   17.27
   0 -12   5   79.57   16.79
   0  12  -5  128.00   15.33
   0  12  -5  115.85   19.98
   0  12  -5  101.15   18.75
   0  12  -6   32.49   17.40
   0 -12   6   67.95   17.18
   0  12  -6    7.48   14.42
   0  12  -6   34.62   18.95
   0 -12   6   24.18   16.32
   0  12  -6   27.73   17.75
   0 -12   6    0.40   19.46
   0 -12   7   38.18   17.62
   0  12  -7   45.94   19.69
   0  12  -7   54.94   18.59
   0  12  -7   49.31   15.34
   0  12  -7   65.94   19.78
   0 -12   7   17.54   20.21
   0 -12   8   59.73   21.71
   0  12  -8   75.73   19.76
   0 -12   8   87.27   18.74
   0  12  -8  108.50   21.29
   0  12  -8  109.11   20.76
   0  12  -8   98.26   16.08
   0  12  -9  116.64   16.53
   0  12  -9  109.79   21.96
   0  12  -9   82.93   20.02
   0 -12   9  135.48   23.99
   0 -12   9   96.90   19.46
   0  12  -9  137.86   22.63
   0 -12  10   44.37   19.51
   0  12 -10   43.88   22.29
   0 -12  11   34.20   20.15
   0  13  14    9.90   18.57
   0  13  13   23.72   16.93
   0  13  13   50.97   18.67
   0  13  12   11.95   15.29
   0  13  12   22.00   16.32
   0 -13 -12   12.74   20.44
   0  13  12   48.22   18.55
   0  13  11    7.59   13.95
   0 -13 -11   15.58   18.76
   0  13  11  -15.47   16.96
   0  13  10   47.55   15.27
   0  13  10   17.65   16.91
   0  13  10   27.14   14.16
   0 -13 -10   38.79   18.95
   0  13   9   19.10   13.50
   0  13   9   68.97   15.60
   0  13   9   25.85   16.31
   0 -13  -9    5.65   18.26
   0  13   8  125.85   18.46
   0 -13  -8  124.98   20.46
   0  13   8   96.66   14.50
   0  13   8  121.61   16.50
   0  13   7   27.68   16.09
   0  13   7   64.92   13.92
   0  13   7   48.98   15.42
   0  13   6   47.88   16.70
   0 -13  -6   48.30   11.43
   0 -13  -6   83.35   18.72
   0  13   6   93.50   14.01
   0  13   6   71.75   16.43
   0  13   5   15.54   15.09
   0  13   5   17.28   14.78
   0 -13  -5    6.03   17.17
   0  13   5    9.45   13.00
   0 -13  -5   21.83   13.47
   0 -13  -5   12.84   10.82
   0  13   4  514.42   29.93
   0 -13  -4  580.13   24.97
   0 -13  -4  493.58   26.42
   0  13   4  535.01   21.60
   0  13   4  393.50   24.85
   0 -13  -4  457.32   18.29
   0  13   4  433.11   25.09
   0  13   3  201.34   21.62
   0 -13  -3  199.42   15.61
   0  13   3  240.66   21.22
   0 -13  -3  312.47   21.06
   0  13   3  309.62   24.67
   0  13   3  270.79   18.95
   0 -13  -3  230.43   22.20
   0 -13  -3  274.23   25.01
   0  13   2   28.01   16.50
   0 -13  -2   40.83   15.36
   0 -13  -2   43.81   18.40
   0  13   2   20.16   17.74
   0 -13  -2   -6.20   17.61
   0  13   2   56.10   15.44
   0  13   2   43.77   14.33
   0 -13  -1   50.41   15.67
   0 -13  -1   39.52   18.03
   0  13   1   -7.73   17.05
   0 -13  -1   24.49   18.19
   0  13   1   56.87   18.66
   0  13   1   46.10   15.55
   0  13   1   78.77   17.04
   0  13   0  246.09   22.28
   0  13   0  274.92   19.94
   0  13   0  313.39   23.13
   0 -13   0  357.82   24.01
   0 -13   0  342.00   22.47
   0 -13   0  266.89   24.87
   0  13  -1  100.73   16.90
   0 -13   1   88.62   19.22
   0 -13   1   95.20   20.66
   0  13  -1   96.88   18.49
   0 -13   1   88.98   18.00
   0  13  -1   87.68   18.42
   0  13  -1   69.92   18.30
   0  13  -2   85.07   16.27
   0 -13   2  129.88   21.40
   0 -13   2  130.50   18.10
   0  13  -2  143.33   19.80
   0  13  -2  112.78   18.78
   0  13  -2  136.26   19.44
   0 -13   2  169.80   20.06
   0  13  -3   20.74   18.09
   0  13  -3   35.91   16.95
   0  13  -3   40.04   15.72
   0 -13   3   26.60   16.54
   0  13  -3   47.98   18.77
   0 -13   3   26.01   17.76
   0 -13   3   -7.55   19.41
   0 -13   4  184.59   20.23
   0  13  -4  133.00   20.36
   0 -13   4  130.24   18.15
   0  13  -4  187.99   20.79
   0  13  -4  171.32   17.56
   0  13  -4  117.54   18.01
   0 -13   4  232.76   23.55
   0 -13   5  295.79   25.13
   0  13  -5  178.55   20.27
   0 -13   5  314.24   22.47
   0  13  -5  237.28   18.61
   0  13  -5  235.08   23.34
   0  13  -5  220.87   21.87
   0 -13   6  307.52   22.35
   0  13  -6  231.95   22.03
   0  13  -6  269.85   22.92
   0 -13   6  345.12   27.10
   0  13  -6  237.54   19.40
   0  13  -6  277.72   24.65
   0  13  -7  191.00   18.71
   0  13  -7  209.08   23.89
   0  13  -7  225.22   22.97
   0  13  -7  191.31   22.22
   0 -13   7  235.33   22.02
   0 -13   7  238.75   26.01
   0  13  -8   67.22   21.64
   0  13  -8   58.45   17.15
   0 -13   8   63.09   19.35
   0  13  -8    8.91   21.86
   0  13  -9  149.87   24.47
   0 -13   9  113.31   21.89
   0  13  -9  126.08   23.25
   0  14  13   72.16   20.54
   0  14  12   23.54   19.35
   0  14  12    5.50   17.41
   0  14  11   35.95   16.82
   0  14  11   49.86   15.43
   0  14  11   29.63   18.41
   0  14  10    2.17   15.81
   0  14  10    9.64   17.63
   0  14  10   20.93   14.90
   0 -14 -10   19.62   20.93
   0  14   9   57.37   16.22
   0  14   9   78.30   18.00
   0 -14  -9   44.18   20.36
   0  14   9   62.32   15.22
   0  14   8    0.81   13.69
   0  14   8   48.52   17.13
   0 -14  -8    3.81   19.26
   0  14   8    4.07   15.53
   0  14   7   69.06   16.66
   0  14   7   61.22   17.24
   0 -14  -7   63.00   20.39
   0  14   7   43.06   13.91
   0  14   6  184.85   20.64
   0 -14  -6  206.98   22.83
   0  14   6  200.99   16.37
   0  14   5  207.60   17.07
   0  14   5  168.71   20.35
   0  14   5  189.35   20.33
   0 -14  -5  219.53   23.17
   0 -14  -4   31.65   15.94
   0  14   4   32.27   16.67
   0 -14  -3    8.65   11.57
   0  14   3   26.89   14.91
   0 -14  -3   38.09   16.48
   0  14   3   17.41   16.57
   0  14   3   46.48   17.93
   0 -14  -3   44.48   18.26
   0  14   2   43.29   17.81
   0 -14  -2   64.42   17.44
   0  14   2   91.63   16.30
   0 -14  -2   60.95   20.43
   0 -14  -2   52.64   12.31
   0  14   2   69.79   17.43
   0 -14  -1  104.93   19.84
   0 -14  -1  110.46   18.99
   0  14   1   63.74   18.85
   0  14   1  133.73   18.81
   0  14   1   80.33   16.00
   0  14   0   74.55   17.65
   0 -14   0   55.38   20.67
   0  14   0   10.82   18.06
   0  14   0   82.30   16.64
   0 -14   0   58.89   17.02
   0 -14   1   86.58   18.29
   0  14  -1  109.17   17.23
   0 -14   1  148.27   20.89
   0  14  -1   84.57   19.55
   0  14  -1   51.98   20.29
   0 -14   1   97.15   21.72
   0  14  -1   92.93   19.08
   0  14  -2   55.99   18.83
   0  14  -2   84.90   16.88
   0 -14   2   79.19   20.29
   0  14  -2   81.03   21.01
   0 -14   2   94.44   22.43
   0  14  -2   70.67   19.37
   0 -14   3  167.98   22.09
   0  14  -3  150.08   21.75
   0  14  -3  144.00   21.32
   0  14  -3  184.08   18.59
   0  14  -3  148.57   21.70
   0 -14   3  162.49   24.03
   0  14  -4   69.41   20.17
   0  14  -4   50.20   16.89
   0 -14   4   50.14   19.64
   0  14  -4   47.93   22.17
   0 -14   4   37.91   22.18
   0  14  -5  150.91   18.82
   0  14  -5  136.66   22.33
   0 -14   5  187.54   25.72
   0  14  -5   97.46   21.96
   0  14  -6   54.57   21.13
   0  14  -6   48.67   17.61
   0  14  -6  102.66   22.90
   0  14  -7  100.52   23.87
   0  14  -7  142.53   23.40
   0  14  -8   93.85   22.83
   0  15  11   69.04   20.04
   0  15  10  332.53   24.20
   0  15  10  256.99   21.18
   0  15   9  133.27   20.98
   0  15   9  118.41   17.21
   0  15   9  180.37   19.43
   0  15   8   24.66   18.26
   0  15   8   34.33   15.05
   0  15   8   -2.60   16.54
   0  15   7   41.72   17.28
   0 -15  -7   31.67   21.34
   0  15   7   30.79   14.72
   0  15   7   22.37   17.71
   0  15   6   58.69   17.00
   0  15   6   74.57   17.84
   0  15   6   28.18   14.45
   0 -15  -6   34.40   21.73
   0  15   5   26.61   14.47
   0  15   5    2.75   16.84
   0 -15  -5  -12.91   20.02
   0  15   5   43.34   17.24
   0  15   4   60.68   18.32
   0  15   4   30.76   17.96
   0 -15  -4   17.56   19.96
   0  15   4    9.29   14.79
   0  15   3  126.64   17.30
   0  15   3  115.73   18.77
   0 -15  -3   97.76   22.33
   0  15   3   76.30   19.76
   0  15   2  140.26   17.02
   0  15   2  107.13   18.74
   0 -15  -2   93.03   21.84
   0  15   2  117.37   19.99
   0  15   1   46.79   18.19
   0 -15  -1   -2.11   20.42
   0  15   1   42.71   19.69
   0  15   1   22.46   15.93
   0  15   0  176.82   17.89
   0 -15   0  220.47   24.35
   0  15   0  159.34   20.04
   0 -15   1   30.14   22.57
   0  15  -1   22.72   16.43
   0  15  -1   26.70   19.73
   0  15  -1   25.33   18.28
   0 -15   2   65.42   23.69
   0  15  -2   56.31   20.19
   0  15  -2   84.46   18.53
   0  15  -2   68.66   21.22
   0  15  -3   97.32   21.66
   0  15  -3  119.29   18.77
   0  15  -3  136.48   22.44
   0  15  -4   23.99   20.91
   0  15  -4   20.09   17.52
   0  15  -4   12.17   21.24
   0  15  -5   89.26   22.62
   0  15  -5   86.31   23.09
   0  15  -6   33.00   22.61
   0  16   9   22.76   20.01
   0  16   8   60.73   20.38
   0  16   7   89.11   19.99
   0  16   7   41.47   18.57
   0  16   6  181.33   21.35
   0  16   6  182.36   21.90
   0  16   5  135.33   17.53
   0  16   5  165.17   21.22
   0  16   4   92.01   19.68
   0  16   4   78.77   18.89
   0  16   4  102.37   16.55
   0  16   3   71.97   19.64
   0  16   3   25.83   15.56
   0  16   3   38.51   18.55
   0  16   2   29.97   18.75
   0  16   2   48.48   19.25
   0  16   2   28.86   16.02
   0  16   1   16.52   18.56
   0  16   1   52.20   20.29
   0  16   0   61.71   19.81
   0  16   0  125.56   22.91
   0  16  -1  174.63   22.27
   0  16  -1  185.06   23.87
   0  16  -2   50.16   20.61
   0  16  -2   52.69   21.75
   0  16  -3   47.20   22.81
   0  17   4   82.62   20.28
   0  17   3   22.90   20.63
   1 -16   3  145.87   24.18
   1 -16   2   37.69   22.35
   1 -16   1   -0.08   22.07
   1 -16   0   25.78   22.99
   1 -16  -1   39.66   24.05
  -1  16   1   97.30   19.12
  -1  16   1   54.03   20.60
   1 -16  -1   47.93   14.25
  -1  16   2   35.88   18.15
  -1  16   2   54.12   14.09
  -1  16   2   65.37   19.75
  -1  16   3   16.55   18.18
   1 -16  -3   64.83   24.48
  -1  16   3   65.45   18.25
  -1  16   3   78.91   13.72
   1 -16  -4   26.75   25.12
  -1  16   4   54.30   19.20
  -1  16   4   66.05   17.85
  -1  16   4   34.02   14.18
  -1  16   5   52.09   18.27
  -1  16   5   22.65   13.94
  -1  16   6   40.90   18.04
  -1  16   6  115.41   19.83
  -1  16   7   59.90   19.11
  -1  16   7   61.01   20.28
  -1  16   8   80.24   21.30
   1 -15   6  172.95   23.93
   1 -15   5  195.09   23.69
   1 -15   4   74.10   21.20
   1 -15   3   80.57   21.46
  -1  15  -2   76.54   22.17
  -1  15  -2   49.54   18.77
   1 -15   2  109.23   21.30
  -1  15  -1  141.06   24.03
  -1  15  -1   51.39   14.50
  -1  15  -1   80.86   21.05
   1 -15   1  128.20   23.21
  -1  15  -1   37.58   18.99
   1 -15   0  128.34   22.55
  -1  15   0  113.85   23.77
  -1  15   0   54.46   19.85
   1 -15   0   75.35   22.08
  -1  15   0   54.92   18.89
  -1  15   0   47.59   14.68
   1 -15  -1   58.79   21.97
   1 -15  -1   35.40   22.38
  -1  15   1   77.30   14.22
  -1  15   1   24.32   21.55
  -1  15   1   41.32   18.15
  -1  15   1   13.84   18.90
  -1  15   2   31.37   17.21
  -1  15   2   51.58   22.02
  -1  15   2   32.29   13.15
  -1  15   2   41.27   19.04
   1 -15  -2   54.95   13.71
   1 -15  -2   75.13   21.92
   1 -15  -2   42.31   20.84
  -1  15   3   43.95   17.47
   1 -15  -3   46.13   20.35
  -1  15   3   46.39   18.56
   1 -15  -3    8.61   13.35
  -1  15   3   10.58   21.18
  -1  15   3   41.16   13.86
   1 -15  -4   69.27   22.49
  -1  15   4  143.93   24.89
  -1  15   4   32.66   18.42
   1 -15  -4  111.70   25.62
   1 -15  -4   81.03   15.27
  -1  15   4  109.08   15.09
  -1  15   4  105.89   19.41
  -1  15   5   23.70   13.65
  -1  15   5   79.23   17.71
   1 -15  -5  104.44   14.70
  -1  15   5   95.58   23.55
   1 -15  -5   40.94   23.89
  -1  15   5   53.98   18.78
   1 -15  -5  125.05   23.09
   1 -15  -6   55.33   14.02
  -1  15   6   75.65   18.66
  -1  15   6   41.71   13.81
  -1  15   6   73.38   16.94
   1 -15  -6   55.15   23.38
   1 -15  -6   38.98   24.84
  -1  15   6   68.25   22.95
   1 -15  -6   99.61   22.72
   1 -15  -7   70.02   22.14
   1 -15  -7  113.61   24.75
  -1  15   7   91.39   17.46
  -1  15   7  112.42   19.72
   1 -15  -7  110.63   25.23
  -1  15   7   72.90   14.71
  -1  15   8   75.79   14.81
  -1  15   8  105.93   17.82
  -1  15   8   90.92   19.41
  -1  15   9   -5.18   18.74
  -1  15   9   28.19   16.72
  -1  15  10  -18.67   16.99
  -1  15  10   14.98   19.23
  -1  15  11  109.20   21.49
   1 -14   8   53.05   21.26
   1 -14   7  115.57   21.68
   1 -14   6   26.17   19.63
  -1  14  -5  108.72   20.95
   1 -14   5  163.56   21.63
   1 -14   4  127.36   20.62
  -1  14  -4   97.47   21.07
   1 -14   3   60.62   19.66
  -1  14  -3   66.65   18.78
  -1  14  -3   75.47   20.61
  -1  14  -3   31.54   19.94
  -1  14  -3   21.38   13.57
   1 -14   2   20.68   19.77
  -1  14  -2   39.50   13.71
  -1  14  -2   70.47   19.67
   1 -14   2   40.66   21.23
  -1  14  -2   23.15   19.39
  -1  14  -2   42.61   17.38
  -1  14  -1   60.78   14.40
   1 -14   1   62.41   21.59
  -1  14  -1  104.62   21.06
  -1  14  -1   42.58   17.99
   1 -14   1   58.80   19.71
  -1  14  -1   61.13   19.76
  -1  14   0   23.55   18.59
  -1  14   0   17.48   12.95
  -1  14   0   24.24   19.75
  -1  14   0   31.47   16.19
   1 -14   0   39.49   19.25
   1 -14   0  -13.51   17.90
   1 -14   0   77.41   19.33
  -1  14   1   18.19   17.50
  -1  14   1   23.63   19.57
   1 -14  -1   17.98   20.09
   1 -14  -1   43.31   17.97
  -1  14   1   10.03   16.20
  -1  14   1   -0.89   12.85
   1 -14  -2  215.31   24.66
  -1  14   2   77.25   16.05
  -1  14   2  152.62   21.42
  -1  14   2   95.15   19.66
   1 -14  -2  177.87   25.57
  -1  14   2  194.79   24.47
   1 -14  -2  126.57   21.43
  -1  14   3  340.49   28.59
  -1  14   3  228.34   23.25
   1 -14  -3  287.53   28.94
   1 -14  -3  211.37   18.76
  -1  14   3  224.93   23.88
  -1  14   3  238.02   17.94
   1 -14  -3  308.71   25.61
  -1  14   4  217.81   25.67
  -1  14   4  140.09   19.43
  -1  14   4  112.45   20.19
  -1  14   4  190.20   15.57
   1 -14  -4  248.03   27.09
   1 -14  -4  124.86   16.34
   1 -14  -4  247.62   21.74
   1 -14  -4  199.08   22.82
   1 -14  -5   48.75   19.73
  -1  14   5  102.34   13.91
  -1  14   5   58.37   21.22
   1 -14  -5  115.37   23.64
  -1  14   5   45.49   17.88
   1 -14  -5   58.19   13.70
  -1  14   5   69.45   16.95
   1 -14  -5   75.63   16.98
   1 -14  -6   47.37   13.04
  -1  14   6   21.63   15.48
   1 -14  -6    9.31   14.73
   1 -14  -6   44.89   20.77
   1 -14  -6   69.17   22.34
  -1  14   6   56.68   20.46
  -1  14   6   46.48   17.16
  -1  14   6   26.73   13.05
   1 -14  -7  103.16   14.48
  -1  14   7  169.96   18.29
  -1  14   7  134.39   22.71
  -1  14   7  114.80   19.02
   1 -14  -7  105.83   24.86
   1 -14  -7  118.25   21.60
   1 -14  -7  104.49   23.53
  -1  14   7  137.68   14.70
  -1  14   8  204.42   20.67
   1 -14  -8  177.92   25.59
   1 -14  -8  190.23   15.35
  -1  14   8  228.78   18.90
  -1  14   8  266.39   25.89
  -1  14   8  194.69   15.70
   1 -14  -8  186.31   22.53
  -1  14   9  156.80   20.24
   1 -14  -9   89.40   21.22
  -1  14   9  117.87   15.07
  -1  14   9  109.45   17.00
  -1  14  10   39.08   16.49
  -1  14  10   23.14   18.08
  -1  14  10   36.30   14.06
   1 -14 -10   27.85   21.01
  -1  14  11   18.33   16.11
  -1  14  11   40.02   15.15
  -1  14  12   61.12   19.83
   1 -13   9  125.34   21.24
   1 -13   8   43.76   19.01
   1 -13   7   21.46   18.07
  -1  13  -7   -2.16   18.54
  -1  13  -6   30.76   18.02
   1 -13   6   10.67   17.44
   1 -13   5   46.36   17.67
  -1  13  -5   32.56   17.56
  -1  13  -5   61.55   19.33
  -1  13  -5   62.46   14.61
  -1  13  -4   36.02   18.57
   1 -13   4   21.09   17.09
  -1  13  -4    4.48   17.35
   1 -13   4   30.81   19.62
   1 -13   4    9.43   17.23
  -1  13  -4   32.21   14.11
  -1  13  -4  -12.86   16.29
   1 -13   3  131.01   22.15
  -1  13  -3   46.65   18.21
  -1  13  -3   89.35   14.61
  -1  13  -3  122.57   18.59
   1 -13   3  129.69   19.65
  -1  13  -3  115.41   20.42
   1 -13   3   94.69   19.04
   1 -13   2   69.68   19.85
  -1  13  -2   49.45   18.60
  -1  13  -2   43.25   17.91
   1 -13   2   66.69   18.17
   1 -13   2   72.78   18.65
  -1  13  -2   65.63   14.01
  -1  13  -2   49.96   17.71
  -1  13  -1   55.02   18.30
   1 -13   1   48.14   19.10
  -1  13  -1    6.20   17.76
  -1  13  -1   43.01   16.08
  -1  13  -1    4.85   12.61
   1 -13   1    2.35   16.80
   1 -13   1   43.79   17.34
   1 -13   0   -5.33   16.46
  -1  13   0   16.76   15.65
  -1  13   0    5.06   16.70
  -1  13   0   38.22   12.78
   1 -13   0   15.91   17.91
  -1  13   0   24.40   17.66
  -1  13   1  666.79   33.94
   1 -13  -1  670.32   33.35
   1 -13  -1  772.96   32.20
   1 -13  -1  670.57   33.52
  -1  13   1  376.25   28.21
  -1  13   1  427.61   24.60
  -1  13   1  512.75   30.30
  -1  13   2   39.26   19.54
  -1  13   2   84.57   14.30
   1 -13  -2   80.12   20.63
  -1  13   2   62.32   18.12
  -1  13   2   93.59   17.44
   1 -13  -2  112.66   17.88
   1 -13  -2   52.82   18.84
  -1  13   3  131.39   20.11
   1 -13  -3  205.73   22.27
   1 -13  -3  196.52   19.64
  -1  13   3  136.91   23.36
   1 -13  -3  189.51   24.27
  -1  13   3  127.08   15.00
  -1  13   3  131.94   19.00
   1 -13  -4   68.13   16.11
  -1  13   4   49.57   16.05
  -1  13   4   64.01   20.63
   1 -13  -4  114.76   21.84
   1 -13  -4   48.31   18.62
   1 -13  -4   82.46   13.48
  -1  13   4   82.61   17.40
  -1  13   4   38.26   12.93
  -1  13   5   23.38   12.00
   1 -13  -5   30.48   17.93
  -1  13   5   26.84   15.63
   1 -13  -5   45.63   14.67
  -1  13   5   11.57   14.04
   1 -13  -5   13.42   20.27
  -1  13   5    8.55   18.93
   1 -13  -5    0.56   12.17
   1 -13  -6  143.97   22.72
  -1  13   6  113.51   21.42
   1 -13  -6   87.68   19.82
   1 -13  -6  122.95   16.85
  -1  13   6  137.60   18.40
  -1  13   6  123.52   13.75
   1 -13  -6   98.24   13.49
  -1  13   6   89.57   16.13
   1 -13  -7  124.12   24.24
   1 -13  -7  137.80   23.66
  -1  13   7  104.68   13.66
   1 -13  -7  133.67   16.11
   1 -13  -7   88.34   19.83
  -1  13   7  120.37   17.51
   1 -13  -7  100.54   14.18
  -1  13   7  106.99   15.94
  -1  13   7   91.36   20.23
   1 -13  -8   99.15   13.57
   1 -13  -8  211.23   17.57
  -1  13   8  157.73   21.96
  -1  13   8  168.00   18.73
  -1  13   8  130.63   16.46
  -1  13   8  141.92   14.23
   1 -13  -8  112.56   20.07
   1 -13  -8  129.03   23.34
  -1  13   9   55.28   13.63
  -1  13   9   17.15   14.76
  -1  13   9   42.91   17.01
   1 -13  -9   70.30   23.02
   1 -13  -9   23.64   12.36
  -1  13   9   34.63   19.61
   1 -13  -9   26.90   19.11
   1 -13  -9   33.37   15.30
  -1  13  10  131.99   19.33
  -1  13  10  118.61   21.89
   1 -13 -10   78.87   12.92
   1 -13 -10  102.66   20.19
   1 -13 -10  167.25   24.65
  -1  13  10   72.22   16.19
  -1  13  10   95.51   14.57
   1 -13 -11   46.56   20.47
  -1  13  11   29.90   16.02
  -1  13  11   91.77   18.61
  -1  13  11   57.74   14.76
  -1  13  12   26.26   16.26
  -1  13  12   76.43   19.37
  -1  13  12   72.26   15.56
  -1  13  13   43.13   19.52
  -1  13  13   36.48   17.24
  -1  13  14  114.85   21.25
   1 -12  11   90.63   20.69
   1 -12  10   28.18   18.71
  -1  12  -9   23.37   19.39
   1 -12   9   25.60   17.66
   1 -12   8  168.76   20.11
  -1  12  -8  139.13   19.94
   1 -12   7  433.71   23.52
  -1  12  -7  379.14   22.70
   1 -12   6   99.21   18.74
   1 -12   6   46.18   17.17
  -1  12  -6   85.89   14.45
  -1  12  -6   88.93   20.02
  -1  12  -6  104.69   18.23
   1 -12   5   32.50   16.90
  -1  12  -5    0.30   13.12
  -1  12  -5   -9.74   17.16
   1 -12   5   25.75   18.79
   1 -12   5   14.73   15.90
  -1  12  -5    2.88   15.65
  -1  12  -4   92.15   18.32
   1 -12   4  103.59   20.05
   1 -12   4  111.41   18.11
   1 -12   4   93.08   17.72
  -1  12  -4   70.29   14.28
  -1  12  -4   67.40   16.48
  -1  12  -4  108.76   18.81
   1 -12   3  -11.61   17.28
  -1  12  -3   57.02   16.46
  -1  12  -3   12.35   13.02
  -1  12  -3   -3.41   15.76
  -1  12  -3   52.39   15.42
   1 -12   3   34.58   15.73
   1 -12   3   67.82   16.45
   1 -12   2   -4.49   16.06
  -1  12  -2   10.55   16.04
   1 -12   2   10.73   17.40
  -1  12  -2    6.09   14.85
  -1  12  -2   43.12   12.93
  -1  12  -2   10.87   15.30
   1 -12   1    7.69   16.37
   1 -12   1   22.83   15.92
   1 -12   1   32.66   15.48
  -1  12  -1    5.03   15.86
  -1  12  -1   10.11   14.91
  -1  12  -1    5.73   15.93
  -1  12   0   12.43   15.00
   1 -12   0   35.07   17.91
  -1  12   0   30.00   12.89
   1 -12   0   21.95   16.89
   1 -12   0   49.89   16.48
  -1  12   0   26.65   16.79
  -1  12   0   28.03   16.25
  -1  12   1  221.60   21.41
   1 -12  -1  144.70   20.15
   1 -12  -1  222.46   20.48
  -1  12   1  125.87   16.11
  -1  12   1  230.93   21.04
  -1  12   1  139.03   18.48
   1 -12  -1  120.46   20.99
  -1  12   2  269.93   23.09
   1 -12  -2  368.26   25.32
  -1  12   2  351.34   26.76
   1 -12  -2  388.44   26.47
   1 -12  -2  461.91   23.82
  -1  12   2  323.98   19.51
  -1  12   2  198.37   22.05
  -1  12   3  105.04   17.89
   1 -12  -3  152.44   16.72
   1 -12  -3  153.19   18.87
  -1  12   3  101.75   13.69
  -1  12   3  135.31   20.37
  -1  12   3  109.76   16.89
   1 -12  -3   93.94   20.86
  -1  12   4   17.85   17.92
   1 -12  -4   71.91   20.12
  -1  12   4   26.71   14.02
   1 -12  -4   68.25   16.89
  -1  12   4   27.51   11.90
   1 -12  -4   54.05   14.16
  -1  12   4   44.74   15.52
  -1  12   5   -3.57   13.84
  -1  12   5   13.70   13.58
   1 -12  -5   57.05   18.99
   1 -12  -5   70.82   16.41
  -1  12   5   13.61   11.09
  -1  12   5   36.83   16.94
   1 -12  -5   17.02   13.35
   1 -12  -5    6.06   11.64
  -1  12   6   36.38   13.38
  -1  12   6   21.80   11.25
   1 -12  -6   43.42   16.90
   1 -12  -6   41.81   18.54
  -1  12   6   17.84   14.85
   1 -12  -6    9.45   12.93
   1 -12  -6   17.59   11.77
  -1  12   6   72.93   18.11
   1 -12  -7   73.84   14.24
   1 -12  -7   39.85   12.50
   1 -12  -7  -22.84   19.32
  -1  12   7   34.33   15.20
   1 -12  -7    4.18   16.37
  -1  12   7   -0.05   12.99
  -1  12   7    5.85   16.79
  -1  12   7    5.33   11.55
   1 -12  -7   36.78   19.11
  -1  12   8   32.20   12.13
  -1  12   8   32.64   15.44
   1 -12  -8   34.88   13.52
   1 -12  -8   29.86   12.76
  -1  12   8   20.28   13.72
   1 -12  -8   53.91   17.26
   1 -12  -8   31.42   20.30
  -1  12   8   25.68   17.83
   1 -12  -9  155.82   24.36
  -1  12   9  135.40   20.06
  -1  12   9  130.06   15.45
   1 -12  -9  168.54   20.02
  -1  12   9  114.61   13.80
   1 -12  -9  143.35   13.53
  -1  12   9  153.11   17.84
   1 -12 -10   56.32   14.44
   1 -12 -10   42.75   17.52
  -1  12  10   49.70   15.02
  -1  12  10   67.20   13.45
   1 -12 -10   70.78   12.58
   1 -12 -10   87.33   22.60
  -1  12  10   68.49   17.02
  -1  12  10   72.77   19.19
  -1  12  11   46.98   15.15
   1 -12 -11   21.76   18.50
   1 -12 -11   66.52   21.40
  -1  12  11   38.83   13.62
  -1  12  11    2.41   18.69
  -1  12  11   43.32   16.52
   1 -12 -11   36.14   12.12
  -1  12  12   22.59   17.66
   1 -12 -12   57.72   20.01
  -1  12  12   78.09   14.86
  -1  12  12   40.66   15.64
  -1  12  13   75.89   18.72
  -1  12  13   38.42   16.06
  -1  12  13   67.93   15.17
  -1  12  14  127.75   20.63
  -1  12  14   50.98   17.34
  -1  12  15   38.47   20.13
   1 -11  12   49.37   19.73
   1 -11  11   25.79   18.22
   1 -11  11   28.31   13.74
   1 -11  11   10.48   16.61
  -1  11 -10   41.02   19.57
   1 -11  10   45.07   13.46
   1 -11  10   59.92   16.77
   1 -11  10   46.21   18.16
   1 -11   9  127.76   14.28
   1 -11   9   89.63   15.85
   1 -11   9  126.58   18.54
  -1  11  -8  167.69   19.82
   1 -11   8  126.18   13.44
   1 -11   8  135.38   19.82
   1 -11   8  126.38   18.02
  -1  11  -7   36.60   17.21
  -1  11  -7   23.96   16.53
   1 -11   7   55.55   16.16
   1 -11   7   34.45   11.89
   1 -11   7   62.69   17.46
  -1  11  -7   54.27   14.21
  -1  11  -6   79.44   14.41
  -1  11  -6   84.24   17.73
   1 -11   6   79.05   16.74
   1 -11   6   71.45   19.22
  -1  11  -6   64.40   16.27
   1 -11   6   55.95   16.13
  -1  11  -6   66.01   17.90
   1 -11   5   37.98   17.85
  -1  11  -5   48.20   16.52
  -1  11  -5   21.35   14.95
   1 -11   5   47.51   15.43
  -1  11  -5   18.60   16.43
  -1  11  -5   28.95   12.96
   1 -11   4  121.88   17.15
  -1  11  -4   99.54   13.88
   1 -11   4  138.68   19.02
  -1  11  -4  124.28   17.10
   1 -11   4  109.08   17.67
  -1  11  -4  133.36   18.17
  -1  11  -4  108.56   16.09
  -1  11  -3  501.32   23.22
  -1  11  -3  496.01   20.03
   1 -11   3  556.99   25.58
  -1  11  -3  410.15   23.51
  -1  11  -3  441.08   20.61
   1 -11   3  514.98   26.19
  -1  11  -2   87.12   16.82
  -1  11  -2  130.27   15.89
  -1  11  -2  121.95   14.94
   1 -11   2  136.83   19.06
   1 -11   2  140.15   17.67
   1 -11   2   95.69   18.52
  -1  11  -2   98.99   17.41
  -1  11  -1  205.15   19.41
   1 -11   1  301.66   22.02
  -1  11  -1  255.42   17.71
   1 -11   1  265.74   20.69
  -1  11  -1  234.72   19.07
  -1  11  -1  208.73   20.28
   1 -11   1  252.42   23.27
   1 -11   0   77.04   17.37
  -1  11   0   70.60   15.72
  -1  11   0   37.30   14.51
  -1  11   0   45.18   15.52
  -1  11   0   62.05   13.10
   1 -11   0   63.78   15.52
   1 -11   0   83.41   15.68
  -1  11   1   34.92   14.59
  -1  11   1   64.15   15.69
   1 -11  -1   61.05   16.34
  -1  11   1   22.30   12.03
   1 -11  -1   51.15   14.73
  -1  11   1   12.99   13.25
   1 -11  -1   37.54   13.85
   1 -11  -2   75.11   16.08
  -1  11   2   33.22   14.34
  -1  11   2   28.15   11.97
  -1  11   2   55.74   16.22
  -1  11   2    2.41   13.20
   1 -11  -2   82.98   14.38
   1 -11  -2   67.06   15.60
  -1  11   3   27.79   13.74
  -1  11   3   41.32   12.81
  -1  11   3   34.04   15.59
   1 -11  -3   45.25   14.67
   1 -11  -3   27.73   15.88
  -1  11   3   32.21   11.27
   1 -11  -3   36.26   12.73
  -1  11   4  103.97   12.32
  -1  11   4   99.64   15.02
   1 -11  -4  135.13   14.24
   1 -11  -4  104.63   16.47
  -1  11   4  139.06   18.73
   1 -11  -4  103.21   18.72
  -1  11   4  131.43   15.82
  -1  11   5   29.27   12.71
   1 -11  -5   20.82   11.42
  -1  11   5   32.11   10.64
   1 -11  -5   33.71   12.71
  -1  11   5   74.07   16.56
   1 -11  -5   24.78   17.14
  -1  11   5   27.12   13.12
   1 -11  -5   45.09   15.49
   1 -11  -6   66.61   12.06
  -1  11   6   85.89   13.94
  -1  11   6   80.89   11.51
   1 -11  -6   89.38   17.99
   1 -11  -6  113.44   13.74
  -1  11   6   80.42   14.66
  -1  11   6  117.61   18.17
   1 -11  -6   68.43   16.39
  -1  11   7  210.29   13.65
  -1  11   7  240.29   18.04
   1 -11  -7  307.27   21.95
  -1  11   7  243.42   16.15
  -1  11   7  317.34   21.46
   1 -11  -7  224.18   14.45
   1 -11  -7  257.88   22.46
   1 -11  -7  254.23   19.30
   1 -11  -7  252.53   15.49
   1 -11  -8   21.88   15.80
  -1  11   8   51.52   11.81
  -1  11   8   34.95   14.43
   1 -11  -8   10.26   11.78
   1 -11  -8   26.67   18.98
  -1  11   8   19.24   16.79
  -1  11   8   33.02   13.08
   1 -11  -8   29.61   11.98
   1 -11  -9   -6.83   15.08
  -1  11   9   28.05   13.41
  -1  11   9   20.52   16.97
   1 -11  -9    2.79   11.34
   1 -11  -9   37.97   19.40
  -1  11   9   44.52   15.39
  -1  11   9   21.42   11.95
   1 -11  -9   12.33   12.34
  -1  11  10  106.17   15.12
  -1  11  10  170.69   17.37
   1 -11 -10  103.08   17.63
   1 -11 -10  148.28   21.36
  -1  11  10  122.04   13.75
  -1  11  10  180.86   19.67
   1 -11 -10  125.67   12.89
   1 -11 -10  108.49   14.36
   1 -11 -11   55.58   12.25
   1 -11 -11   63.58   20.61
   1 -11 -11    5.90   16.56
  -1  11  11   63.88   18.26
  -1  11  11   59.11   14.43
  -1  11  11   24.05   12.75
   1 -11 -11   43.40   14.19
  -1  11  11  -14.08   15.41
  -1  11  12  101.66   20.13
  -1  11  12   91.36   17.29
  -1  11  12   85.81   15.50
   1 -11 -12   67.55   19.06
   1 -11 -12  109.54   20.99
  -1  11  12   85.35   14.41
   1 -11 -12   45.99   12.51
  -1  11  13   99.36   18.44
   1 -11 -13   69.31   19.82
  -1  11  13   86.49   14.86
  -1  11  13   72.07   16.17
  -1  11  14   33.27   14.91
  -1  11  14   60.73   16.34
  -1  11  14   49.27   18.01
  -1  11  15   50.94   18.07
  -1  11  15   49.03   19.18
   1 -10  13   76.54   19.99
   1 -10  12   39.24   13.45
   1 -10  12   29.08   17.68
   1 -10  12   33.14   16.37
  -1  10 -11  108.64   20.39
   1 -10  11   87.40   18.74
   1 -10  11   91.17   16.44
   1 -10  11   60.59   13.30
   1 -10  10   17.57   15.92
  -1  10 -10   17.43   17.66
   1 -10  10   -2.10   13.93
   1 -10  10   23.47   12.12
   1 -10   9   27.89   15.89
   1 -10   9   21.63   11.58
   1 -10   9   23.81   17.44
  -1  10  -9   21.58   16.79
   1 -10   9   11.02   13.19
   1 -10   8   40.89   15.60
  -1  10  -8   29.61   16.73
   1 -10   8   10.02   11.30
   1 -10   8   39.14   16.28
   1 -10   8   27.49   13.51
  -1  10  -8   55.97   17.63
  -1  10  -8   44.66   13.01
  -1  10  -7   44.86   15.78
   1 -10   7   32.54   14.36
  -1  10  -7   21.44   16.84
   1 -10   7   46.47   15.98
  -1  10  -7   31.04   16.58
   1 -10   7   55.25   17.51
  -1  10  -7   25.90   12.28
   1 -10   7   13.86   13.02
   1 -10   7   30.34   11.19
  -1  10  -6  120.04   13.06
   1 -10   6   82.36   17.12
   1 -10   6  142.04   16.53
  -1  10  -6   92.65   16.01
   1 -10   6   88.26   13.60
  -1  10  -6   91.42   16.67
   1 -10   6   77.68   11.90
   1 -10   6  107.84   16.32
  -1  10  -6  125.04   16.53
  -1  10  -5  196.36   17.63
   1 -10   5  228.81   18.71
   1 -10   5  248.59   17.16
   1 -10   5  299.20   20.43
   1 -10   5  204.01   13.45
  -1  10  -5  204.97   14.80
  -1  10  -5  271.74   17.53
  -1  10  -5  215.92   17.77
   1 -10   4  421.21   21.13
  -1  10  -4  411.02   20.32
   1 -10   4  384.98   22.20
  -1  10  -4  357.00   18.80
  -1  10  -4  505.85   21.41
  -1  10  -4  404.74   17.48
   1 -10   4  460.92   24.74
  -1  10  -3   60.09   13.81
  -1  10  -3   92.93   15.34
   1 -10   3   98.85   14.39
   1 -10   3   98.14   16.46
  -1  10  -3   88.85   13.38
   1 -10   3  118.91   16.92
  -1  10  -3  102.52   14.94
  -1  10  -2   18.06   12.41
  -1  10  -2   12.69   13.11
  -1  10  -2  -11.72   12.92
   1 -10   2   36.94   13.16
   1 -10   2    1.24   13.15
  -1  10  -2   15.55   11.10
   1 -10   2   36.07   14.91
  -1  10  -1    4.39   10.77
   1 -10   1    5.77   12.61
  -1  10  -1    0.11   12.39
   1 -10   1   59.66   12.94
   1 -10   1   16.08   14.18
  -1  10  -1   11.09   12.63
  -1  10  -1   19.80   12.56
  -1  10   0   84.25   14.76
  -1  10   0   92.84   15.57
  -1  10   0   69.62   13.96
   1 -10   0  106.98   17.15
   1 -10   0  148.63   16.08
  -1  10   0   92.23   14.93
   1 -10   0  100.31   15.81
   1 -10  -1   64.29   14.78
  -1  10   1   68.51   12.42
  -1  10   1   54.76   14.34
   1 -10  -1   89.67   15.83
  -1  10   1   36.28   13.63
  -1  10   1   77.42   15.35
   1 -10  -1   90.83   13.24
   1 -10  -2  157.81   14.09
   1 -10  -2  125.19   16.93
  -1  10   2  108.91   12.75
  -1  10   2   93.80   15.66
  -1  10   2  102.18   14.04
   1 -10  -2  123.53   15.85
  -1  10   2  145.32   17.86
  -1  10   3   17.60   11.39
   1 -10  -3   47.46   13.52
   1 -10  -3   32.93   14.66
  -1  10   3   26.56   11.94
  -1  10   3   16.68    9.77
   1 -10  -3   -0.15   10.60
  -1  10   3   36.83   14.71
  -1  10   4   43.88   14.26
   1 -10  -4   -2.39   10.91
  -1  10   4   37.88    9.45
   1 -10  -4   -1.01   13.24
  -1  10   4   17.18   11.26
  -1  10   4    2.42   10.68
   1 -10  -4   33.29   14.66
  -1  10   5   28.76   10.03
  -1  10   5   32.97   11.33
   1 -10  -5    4.71   10.43
   1 -10  -5   25.87   13.92
   1 -10  -5  -15.04   10.48
  -1  10   5   18.47   14.24
   1 -10  -5   -6.42   14.92
  -1  10   5   -1.38   11.33
  -1  10   6  128.54   17.72
  -1  10   6  149.95   13.23
   1 -10  -6  132.68   12.88
  -1  10   6  152.05   14.64
   1 -10  -6  180.25   17.02
  -1  10   6  116.60   10.69
  -1  10   6  143.65   11.66
   1 -10  -6  141.18   17.81
   1 -10  -6  157.80   13.01
   1 -10  -7   55.47   11.67
   1 -10  -7   51.94   16.51
   1 -10  -7   21.76   11.02
   1 -10  -7   42.08   14.88
  -1  10   7   50.99   12.17
  -1  10   7   54.69   11.10
  -1  10   7   65.38   12.99
   1 -10  -7   69.36   17.19
  -1  10   7   67.82   15.49
   1 -10  -8  117.52   16.10
   1 -10  -8  146.88   12.86
   1 -10  -8  211.33   19.72
  -1  10   8  152.32   14.17
  -1  10   8  177.26   17.91
  -1  10   8  130.98   12.39
   1 -10  -8   88.39   13.13
  -1  10   8  156.23   15.18
  -1  10   9  118.02   14.10
   1 -10  -9  159.77   20.10
  -1  10   9  112.52   12.60
   1 -10  -9  120.29   12.66
  -1  10   9  155.92   17.85
  -1  10   9  147.13   16.08
   1 -10  -9  112.88   15.97
   1 -10  -9   89.33   13.75
   1 -10 -10   64.48   11.78
   1 -10 -10   64.87   16.69
  -1  10  10   62.46   12.15
   1 -10 -10   51.20   13.20
  -1  10  10   77.22   13.57
   1 -10 -10  111.66   19.95
  -1  10  10   62.03   16.63
  -1  10  10   60.56   15.16
  -1  10  11   -5.51   11.78
  -1  10  11   13.33   14.88
   1 -10 -11   10.78   12.86
   1 -10 -11    6.67   15.74
  -1  10  11   -0.72   13.05
   1 -10 -11   39.86   11.69
  -1  10  11   10.58   16.23
   1 -10 -11    3.86   18.31
   1 -10 -12   -8.01   18.44
   1 -10 -12    0.78   11.63
  -1  10  12   25.09   13.97
  -1  10  12   20.06   18.14
   1 -10 -12   13.73   17.17
  -1  10  12   -3.32   15.12
  -1  10  12   10.99   12.64
  -1  10  13    8.35   16.27
  -1  10  13    0.96   14.78
   1 -10 -13   26.24   18.15
  -1  10  13  -16.59   13.16
  -1  10  13   28.43   19.17
   1 -10 -13   12.16   12.27
   1 -10 -13   54.38   19.78
  -1  10  14   69.29   15.98
  -1  10  14   60.87   17.86
   1 -10 -14   27.21   19.73
  -1  10  14   46.91   14.61
  -1  10  15   91.28   17.10
  -1  10  15  104.30   16.41
  -1  10  16   70.31   18.45
  -1  10  16   84.16   19.71
   1  -9  14   69.55   19.00
   1  -9  13   47.85   17.79
   1  -9  13   27.48   16.07
   1  -9  13   13.88   13.38
   1  -9  12  153.75   19.15
   1  -9  12  124.80   16.87
   1  -9  12   81.28   13.89
  -1   9 -12  136.44   21.05
   1  -9  11   41.52   12.74
   1  -9  11   61.43   14.75
  -1   9 -11   41.60   18.69
   1  -9  11   56.51   16.28
   1  -9  10   83.52   16.36
   1  -9  10   66.29   14.76
  -1   9 -10   81.18   17.75
   1  -9  10   58.49   12.71
   1  -9  10  112.35   19.10
   1  -9   9  144.92   15.38
   1  -9   9  131.08   13.34
  -1   9  -9  151.73   13.21
  -1   9  -9  147.23   18.19
   1  -9   9  140.14   18.13
   1  -9   9  153.72   16.83
  -1   9  -9  177.83   19.04
   1  -9   8  194.02   13.75
  -1   9  -8  228.40   17.99
   1  -9   8  271.52   18.63
   1  -9   8  306.19   19.97
  -1   9  -8  260.77   14.21
   1  -9   8  231.09   16.06
  -1   9  -8  248.89   19.64
   1  -9   8  266.31   18.23
  -1   9  -7   45.34   14.75
   1  -9   7   56.95   15.09
  -1   9  -7   61.19   15.85
   1  -9   7   47.15   10.94
  -1   9  -7   15.16   13.90
  -1   9  -7   32.92   10.97
   1  -9   7   47.73   15.71
   1  -9   7   23.94   13.84
   1  -9   7   46.98   12.56
   1  -9   6   25.17   12.68
  -1   9  -6   49.99   14.20
  -1   9  -6   35.05   13.97
   1  -9   6   16.38   10.26
  -1   9  -6   25.79   13.78
  -1   9  -6   25.52   10.62
   1  -9   6   45.77   14.55
   1  -9   6    7.55   13.22
   1  -9   6   25.23   12.08
  -1   9  -5   73.94   11.29
   1  -9   5  110.55   14.20
  -1   9  -5  124.71   15.29
   1  -9   5  105.82   15.65
   1  -9   5   79.52   10.45
  -1   9  -5  101.82   14.22
   1  -9   5   89.64   15.16
  -1   9  -5  108.84   14.48
   1  -9   5   68.77   11.97
   1  -9   4   21.66    9.86
   1  -9   4   51.56   14.21
   1  -9   4   -2.79   11.21
  -1   9  -4   30.30   10.58
  -1   9  -4   31.83   12.77
   1  -9   4   33.51   14.43
  -1   9  -4   20.78   13.22
  -1   9  -4   54.30   13.01
  -1   9  -3   86.78   14.36
  -1   9  -3   55.36   13.24
   1  -9   3  122.69   15.69
   1  -9   3   83.64   13.03
  -1   9  -3   66.63   12.97
   1  -9   3   44.79   14.70
  -1   9  -3   67.07   11.38
   1  -9   3   96.20   10.78
   1  -9   2  252.44   17.25
  -1   9  -2  223.18   15.63
  -1   9  -2  251.62   16.62
   1  -9   2  252.89   18.40
  -1   9  -2  213.33   15.49
  -1   9  -2  214.76   17.50
  -1   9  -1  454.79   21.46
   1  -9   1  459.73   23.66
   1  -9   1  485.31   22.24
  -1   9  -1  426.14   20.49
  -1   9  -1  481.51   19.10
   1  -9   1  407.13   24.33
  -1   9   0   20.77   12.17
   1  -9   0   43.28   12.07
   1  -9   0   20.53   11.97
  -1   9   0   36.21   12.27
  -1   9   0   41.43   11.08
  -1   9   0    7.96   12.33
   1  -9   0   28.38   13.20
   1  -9  -1  331.99   16.77
  -1   9   1  193.55   17.81
   1  -9  -1  271.75   17.41
  -1   9   1  237.84   17.45
   1  -9  -1  222.93   18.89
  -1   9   1  234.74   15.71
  -1   9   1  117.87   16.76
  -1   9   2   90.18   11.08
   1  -9  -2   89.31   13.68
   1  -9  -2   92.65   11.79
  -1   9   2   67.50   12.35
   1  -9  -2   98.64   13.99
  -1   9   2   84.90   13.63
  -1   9   2   86.39   15.04
  -1   9   3   35.04   11.93
   1  -9  -3    9.93   13.44
  -1   9   3   47.05    9.55
   1  -9  -3   54.14   12.50
  -1   9   3   37.12   13.75
   1  -9  -3   35.60   10.75
  -1   9   3   30.15   10.81
   1  -9  -4  345.92   14.66
   1  -9  -4  330.05   20.14
   1  -9  -4  318.10   17.17
  -1   9   4  295.65   17.04
  -1   9   4  307.74   16.85
  -1   9   4  355.20   21.01
  -1   9   4  318.22   13.12
   1  -9  -5  115.78   11.98
  -1   9   5  158.09   16.68
  -1   9   5  149.10   13.36
   1  -9  -5  131.97   14.47
   1  -9  -5  152.79   16.75
  -1   9   5  104.92    9.76
  -1   9   5  113.57   12.86
   1  -9  -5  120.41   11.38
  -1   9   5  158.97   10.59
  -1   9   6   78.04   12.62
  -1   9   6   82.12   11.50
  -1   9   6   72.06    8.69
  -1   9   6  114.37   10.71
   1  -9  -6  111.54   16.13
   1  -9  -6  119.24   11.52
  -1   9   6  124.99   15.52
   1  -9  -6   94.79   14.17
   1  -9  -6   70.52   10.99
   1  -9  -6  106.10   17.11
  -1   9   7   34.00   10.47
  -1   9   7   60.88   12.18
   1  -9  -7   51.97   10.49
   1  -9  -7   29.32   10.81
   1  -9  -7   59.10   15.74
  -1   9   7   25.19    8.35
   1  -9  -7   50.94   13.59
  -1   9   7   25.10   10.05
  -1   9   7   32.43   14.04
   1  -9  -7   30.47   15.23
  -1   9   8   60.02   10.74
   1  -9  -8   72.01   14.06
  -1   9   8   53.26   11.14
  -1   9   8   88.19   12.98
  -1   9   8   95.62   15.53
   1  -9  -8  133.51   17.53
   1  -9  -8   70.93   11.77
   1  -9  -8   34.80   11.33
  -1   9   8   47.74    9.80
  -1   9   9   32.73   10.67
   1  -9  -9   29.38   10.95
  -1   9   9   52.82   12.20
  -1   9   9   74.55   13.58
   1  -9  -9   66.99   16.75
   1  -9  -9   41.29   11.20
  -1   9   9   53.65   11.83
   1  -9  -9   35.94   13.81
  -1   9   9   28.37   14.12
  -1   9  10   16.24   13.21
   1  -9 -10   -0.69   10.27
   1  -9 -10    7.72   10.61
   1  -9 -10   11.77   14.49
   1  -9 -10   13.09   16.36
  -1   9  10   18.51   11.37
  -1   9  10   11.40   14.94
  -1   9  10   14.91   12.10
  -1   9  11  242.40   16.20
   1  -9 -11  171.48   14.19
   1  -9 -11  215.29   18.65
  -1   9  11  253.21   19.22
   1  -9 -11  225.94   13.88
  -1   9  11  216.10   14.63
  -1   9  11  303.05   18.22
   1  -9 -11  255.80   21.05
  -1   9  12  173.19   17.30
  -1   9  12  129.94   13.95
   1  -9 -12  224.49   20.94
  -1   9  12  209.82   19.72
   1  -9 -12  101.74   13.63
   1  -9 -12  168.48   18.32
   1  -9 -12  144.75   13.38
  -1   9  12  170.41   16.03
   1  -9 -13   21.55   16.65
  -1   9  13   12.64   13.55
  -1   9  13   38.54   15.50
   1  -9 -13   17.03   12.07
  -1   9  13   30.17   18.15
  -1   9  13   17.70   13.24
   1  -9 -13   11.56   17.78
  -1   9  14   32.43   19.64
   1  -9 -14   37.36   12.66
  -1   9  14   20.31   13.74
  -1   9  14    0.73   16.02
   1  -9 -14   32.80   18.33
   1  -9 -14   35.21   19.23
  -1   9  14   31.92   15.23
  -1   9  15   37.72   15.23
  -1   9  15   32.70   17.51
  -1   9  15   17.57   15.33
   1  -9 -15   68.29   20.78
  -1   9  16   42.37   18.42
  -1   9  16   67.28   17.50
  -1   9  16   39.00   15.59
  -1   9  17   53.14   19.83
   1  -8  15   22.07   18.46
   1  -8  14   95.45   15.06
   1  -8  14   57.24   16.24
  -1   8 -13  332.82   23.96
   1  -8  13  350.83   21.31
   1  -8  13  262.95   18.56
   1  -8  13  283.45   17.11
   1  -8  12   39.09   15.80
   1  -8  12   62.64   19.24
   1  -8  12   39.98   12.69
  -1   8 -12   20.66   18.06
   1  -8  12   38.09   14.28
   1  -8  11   15.18   16.85
   1  -8  11    4.96   11.92
   1  -8  11   34.66   15.09
  -1   8 -11   22.08   17.24
   1  -8  11    4.38   12.95
   1  -8  10   41.63   14.32
   1  -8  10    5.73   12.52
  -1   8 -10    9.72   16.07
   1  -8  10   13.15   16.15
   1  -8  10   18.49   11.37
  -1   8 -10    7.14   16.22
   1  -8   9   12.80   11.10
  -1   8  -9    9.14   14.73
   1  -8   9   22.71   13.28
  -1   8  -9   15.53   10.25
   1  -8   9   12.51   14.57
  -1   8  -9   11.82   15.36
   1  -8   9   26.35   12.43
   1  -8   9   27.29   14.67
   1  -8   8   25.06   12.54
  -1   8  -8   28.84   14.51
   1  -8   8   20.94   10.97
  -1   8  -8   16.64   13.56
  -1   8  -8   55.00   14.14
   1  -8   8   28.37   11.76
   1  -8   8   18.41   13.67
   1  -8   8   29.86   13.91
  -1   8  -8   21.07   10.01
   1  -8   7   37.32   12.33
  -1   8  -7    4.63   12.89
  -1   8  -7    5.13   13.06
  -1   8  -7   22.80   13.77
  -1   8  -7   -0.72    9.52
   1  -8   7   32.61   13.15
   1  -8   7  -13.90    9.97
   1  -8   7   22.21   10.85
   1  -8   7   37.93   13.27
   1  -8   6  497.51   19.80
   1  -8   6  565.07   20.17
  -1   8  -6  555.16   15.05
   1  -8   6  536.52   19.47
   1  -8   6  488.20   17.24
  -1   8  -6  530.99   19.59
   1  -8   6  517.37   15.60
  -1   8  -6  562.41   19.65
  -1   8  -6  491.41   18.68
  -1   8  -5  486.56   18.73
   1  -8   5  467.43   20.29
  -1   8  -5  530.96   18.62
   1  -8   5  565.08   19.27
  -1   8  -5  538.55   14.85
   1  -8   5  513.32   17.05
  -1   8  -5  539.22   18.90
   1  -8   5  542.50   15.46
   1  -8   5  490.93   21.06
  -1   8  -4   31.15   12.20
  -1   8  -4   20.15    8.94
   1  -8   4    0.52   11.81
  -1   8  -4   63.03   12.18
  -1   8  -4   30.15   12.19
   1  -8   4   24.40    9.06
   1  -8   4   18.71    9.83
   1  -8   4   48.90   12.79
   1  -8   4   41.64   10.74
   1  -8   3  110.75   15.28
   1  -8   3  145.11   10.53
  -1   8  -3  113.22   11.34
   1  -8   3  159.94   13.91
  -1   8  -3  136.83   13.69
  -1   8  -3  121.59   14.07
  -1   8  -3  126.95   13.08
   1  -8   2   40.23   11.08
  -1   8  -2   23.48   10.87
  -1   8  -2   40.17   12.07
  -1   8  -2   21.63   10.68
   1  -8   2   21.07   11.42
   1  -8   2   46.48    9.08
  -1   8  -2   43.39    9.85
   1  -8   2   51.97   12.74
   1  -8   1  193.83   16.24
   1  -8   1  180.39   17.24
   1  -8   1  225.24   15.60
  -1   8  -1  187.76   13.86
  -1   8  -1  163.17   14.21
  -1   8  -1  166.10   14.90
  -1   8   0  298.87   19.59
  -1   8   0  343.79   19.95
   1  -8   0  383.41   20.53
   1  -8   0  400.81   22.49
   1  -8   0  503.67   19.83
  -1   8   0  462.29   18.72
  -1   8   0  326.39   20.53
  -1   8   1  150.09   15.02
   1  -8  -1  148.58   15.02
  -1   8   1  173.30   13.94
  -1   8   1  103.88   14.80
   1  -8  -1  219.10   13.79
   1  -8  -1  157.80   16.49
   1  -8  -2  151.05   13.68
  -1   8   2  125.80   13.59
   1  -8  -2  114.02   13.23
   1  -8  -2  176.07   12.16
  -1   8   2   74.66   14.33
  -1   8   2   87.46   12.51
  -1   8   2  133.83   11.25
  -1   8   3   -2.72   11.57
  -1   8   3    5.99    8.61
   1  -8  -3   28.75   11.70
  -1   8   3   33.50   10.13
   1  -8  -3   36.28    8.70
   1  -8  -3   23.22   11.07
  -1   8   3   -8.81    8.03
  -1   8   4   -3.65    6.93
   1  -8  -4   24.57   12.68
   1  -8  -4    9.80   11.13
  -1   8   4   19.70    7.99
  -1   8   4    9.94    9.35
  -1   8   4   34.35    9.17
  -1   8   4   11.07   11.75
   1  -8  -4    3.25    8.66
   1  -8  -5  149.51   13.24
   1  -8  -5  113.78   11.20
  -1   8   5  107.74   11.79
   1  -8  -5  147.88   15.29
  -1   8   5  147.12    9.96
   1  -8  -5  123.89   10.67
  -1   8   5  142.78   11.68
  -1   8   5   99.17    8.07
  -1   8   5  124.80   14.93
   1  -8  -6  380.94   18.66
   1  -8  -6  303.73   15.77
   1  -8  -6  323.26   13.97
  -1   8   6  301.41   15.07
  -1   8   6  261.76   12.19
   1  -8  -6  363.97   19.40
   1  -8  -6  313.83   13.32
  -1   8   6  332.08   19.05
  -1   8   6  335.08   13.75
  -1   8   6  328.31   12.13
  -1   8   7  963.51   21.81
  -1   8   7  972.27   21.57
   1  -8  -7  880.67   19.32
  -1   8   7  933.50   25.89
   1  -8  -7  939.43   22.34
   1  -8  -7  938.71   25.84
  -1   8   7  843.56   17.36
  -1   8   7  933.74   18.96
  -1   8   8  483.69   16.17
   1  -8  -8  517.69   18.50
   1  -8  -8  496.40   16.06
  -1   8   8  525.91   20.61
  -1   8   8  453.14   14.51
  -1   8   8  528.68   18.17
  -1   8   8  552.89   18.11
  -1   8   9   21.56   13.81
  -1   8   9   14.23   10.51
   1  -8  -9    9.99   14.90
  -1   8   9    3.47   11.26
  -1   8   9    4.35    9.90
   1  -8  -9   25.04    9.78
  -1   8   9   18.04   10.62
   1  -8  -9   -8.02   10.10
   1  -8  -9   15.13   13.20
  -1   8  10   56.46   12.46
   1  -8 -10   40.03   10.68
  -1   8  10   36.44   11.11
   1  -8 -10   46.45   10.83
  -1   8  10   35.49   11.54
  -1   8  10   75.72   13.39
   1  -8 -10   40.92   15.02
  -1   8  10   49.80   14.54
   1  -8 -10   41.61   13.73
   1  -8 -11   34.89   15.13
  -1   8  11   57.91   15.71
  -1   8  11    7.71   13.01
   1  -8 -11   51.59   15.92
  -1   8  11   26.85   12.32
  -1   8  11   24.88   12.47
   1  -8 -11   22.97   10.50
  -1   8  11   17.15   11.49
   1  -8 -11    1.99   10.32
   1  -8 -12  102.17   18.66
  -1   8  12   85.90   15.37
   1  -8 -12   58.99   11.99
  -1   8  12   68.77   12.77
  -1   8  12  120.84   17.65
   1  -8 -12  123.76   17.04
   1  -8 -12   82.77   12.60
  -1   8  12   84.34   13.78
  -1   8  13   41.49   12.70
   1  -8 -13   35.85   11.79
  -1   8  13   27.91   15.15
  -1   8  13   54.47   14.18
  -1   8  13   -2.12   16.66
   1  -8 -13   50.40   17.63
   1  -8 -13   59.30   16.89
  -1   8  14   42.43   14.66
  -1   8  14   18.32   17.78
   1  -8 -14   -2.97   17.23
   1  -8 -14   36.07   12.59
  -1   8  14   24.89   15.30
  -1   8  14   26.50   13.36
   1  -8 -14   22.56   18.07
  -1   8  15   49.53   14.72
  -1   8  15   61.21   16.13
   1  -8 -15   58.49   13.44
  -1   8  15   23.31   16.65
   1  -8 -15   59.56   19.57
  -1   8  16   10.61   15.87
  -1   8  16   33.07   14.91
  -1   8  16    3.10   17.14
  -1   8  17   48.13   19.13
  -1   8  17   48.15   17.67
   1  -7  16   88.48   20.12
   1  -7  15   82.49   18.36
   1  -7  15   79.72   16.42
   1  -7  14   -5.42   13.00
   1  -7  14    5.12   14.21
   1  -7  14   44.27   17.08
  -1   7 -14    4.54   19.44
  -1   7 -13   16.22   17.74
   1  -7  13   15.31   13.21
   1  -7  13   28.09   16.09
   1  -7  13   45.84   18.26
   1  -7  13   27.25   12.99
  -1   7 -12   93.15   18.20
   1  -7  12   89.82   16.05
   1  -7  12  118.52   18.97
   1  -7  12   96.42   14.38
   1  -7  12   64.96   13.33
   1  -7  11   85.42   13.11
  -1   7 -11   97.33   17.13
   1  -7  11   89.32   15.39
   1  -7  11  120.03   18.01
   1  -7  11   76.29   13.35
   1  -7  10   52.60   12.30
  -1   7 -10   40.65   15.19
   1  -7  10   35.28   15.76
   1  -7  10   54.65   13.86
   1  -7  10   51.31   11.84
  -1   7 -10   22.79   10.29
  -1   7  -9   70.34   15.28
   1  -7   9   54.48   11.46
   1  -7   9  112.78   14.91
  -1   7  -9   63.99   10.29
   1  -7   9   58.02   13.09
   1  -7   9   66.94   14.76
   1  -7   9   72.46   12.04
  -1   7  -9   90.06   14.98
  -1   7  -8   41.68   13.85
   1  -7   8   84.03   13.68
   1  -7   8   70.19   13.57
  -1   7  -8   62.07   13.88
   1  -7   8   34.17   11.93
   1  -7   8   39.15   10.54
  -1   7  -8   46.37   12.91
   1  -7   8   47.66   10.85
  -1   7  -8   37.69    9.26
   1  -7   7  207.51   12.17
  -1   7  -7  277.26   15.84
  -1   7  -7  232.18   14.77
   1  -7   7  294.73   16.52
  -1   7  -7  227.07   11.46
  -1   7  -7  224.68   15.68
   1  -7   7  177.14   12.56
   1  -7   7  228.95   14.89
   1  -7   7  239.51   14.51
  -1   7  -6   31.42   11.27
   1  -7   6   -5.46   11.10
   1  -7   6   -8.66   10.24
   1  -7   6    2.34    9.14
   1  -7   6   -5.76   10.87
  -1   7  -6   15.49   12.00
  -1   7  -6   21.68    8.68
  -1   7  -6    6.77   11.64
   1  -7   6    2.26    9.20
  -1   7  -5  333.04   15.91
  -1   7  -5  336.94   15.58
   1  -7   5  395.37   13.07
  -1   7  -5  367.10   12.69
   1  -7   5  357.02   16.29
   1  -7   5  389.05   17.14
  -1   7  -5  357.03   16.11
   1  -7   5  347.90   17.39
   1  -7   5  347.78   13.80
   1  -7   4   19.20   10.88
   1  -7   4   -8.12   10.30
  -1   7  -4    4.60    7.69
  -1   7  -4    5.81    9.95
  -1   7  -4   17.93   10.44
  -1   7  -4   21.38   10.57
   1  -7   4    4.84    8.12
   1  -7   4   29.33    9.39
   1  -7   4    2.29    8.55
  -1   7  -3   98.09    9.73
  -1   7  -3  114.75   12.52
   1  -7   3  145.45    9.88
   1  -7   3  152.91   13.74
  -1   7  -3  120.14   11.87
   1  -7   3  123.77   12.19
   1  -7   3   92.49   13.50
  -1   7  -3  108.27   12.30
   1  -7   3  115.31   11.32
   1  -7   2  232.13   19.77
   1  -7   2  566.96   19.86
   1  -7   2  395.33   17.45
  -1   7  -2  388.65   15.73
  -1   7  -2  361.33   17.78
  -1   7  -2  367.79   16.80
   1  -7   2  472.53   13.31
  -1   7  -2  439.50   15.49
   1  -7   1   27.58    7.49
   1  -7   1    5.32    9.03
  -1   7  -1   -4.29    8.87
  -1   7  -1   -9.70    8.83
  -1   7  -1   -7.04    9.57
  -1   7  -1    8.94    8.23
   1  -7   1   -8.49   10.17
   1  -7   0    5.24    8.82
  -1   7   0    7.80    9.13
  -1   7   0   25.14    9.22
   1  -7   0    7.43    9.79
  -1   7   0   13.84    8.69
   1  -7   0   -3.76    8.06
   1  -7  -1   18.11   10.35
  -1   7   1   19.42    8.21
   1  -7  -1   19.87    8.11
  -1   7   1    6.83    9.33
  -1   7   1   15.46    9.77
  -1   7   1   18.72    8.87
   1  -7  -1   18.20    9.75
   1  -7  -2  151.91   12.62
  -1   7   2  148.55    9.90
  -1   7   2   81.44   11.03
  -1   7   2  105.53   12.21
  -1   7   2  105.50   13.47
   1  -7  -2  137.41   12.62
   1  -7  -2  137.51    9.94
  -1   7   3   35.36    8.79
  -1   7   3   49.87    9.32
  -1   7   3   31.99    7.71
   1  -7  -3   24.44   10.08
   1  -7  -3   43.64    8.17
  -1   7   3   41.33    6.97
  -1   7   3   40.00   11.00
   1  -7  -3   51.69   11.20
  -1   7   4   55.07   12.75
  -1   7   4  107.20   10.55
  -1   7   4  104.48    8.38
   1  -7  -4  101.44    9.31
  -1   7   4   89.54    7.92
   1  -7  -4   84.79   12.78
   1  -7  -4   79.68   10.84
  -1   7   4   75.84    9.92
   1  -7  -5 2114.68   23.55
  -1   7   5 2090.50   29.76
  -1   7   5 2054.36   28.22
  -1   7   5 1905.68   37.15
   1  -7  -5 2310.64   33.55
   1  -7  -5 2127.42   26.62
  -1   7   5 2167.75   22.41
  -1   7   5 2161.86   27.02
   1  -7  -5 1970.27   28.83
   1  -7  -6  803.66   22.94
  -1   7   6  731.77   18.51
  -1   7   6  631.33   16.09
  -1   7   6  655.53   18.47
  -1   7   6  722.65   22.68
   1  -7  -6  638.84   14.93
   1  -7  -6  705.12   18.52
   1  -7  -6  808.11   22.19
  -1   7   6  651.67   14.36
   1  -7  -6  686.01   16.71
   1  -7  -7   10.20    7.90
  -1   7   7    4.99    8.56
  -1   7   7   19.07    9.99
  -1   7   7   33.07    9.92
   1  -7  -7    4.60   10.74
   1  -7  -7   19.34    9.34
  -1   7   7   10.81    8.21
  -1   7   7   19.59   12.11
  -1   7   8  108.48   10.17
   1  -7  -8  144.45   11.31
   1  -7  -8  118.54   14.96
  -1   7   8  165.24   12.60
   1  -7  -8  127.40   12.74
  -1   7   8  133.28   12.23
   1  -7  -8   87.41    9.82
  -1   7   8   86.12   10.60
  -1   7   8  126.34   14.16
   1  -7  -9  169.09   16.08
  -1   7   9  155.86   12.92
  -1   7   9  120.37   14.37
   1  -7  -9  110.27   10.65
  -1   7   9  115.33   11.01
  -1   7   9  106.67   11.33
   1  -7  -9  134.64   14.02
  -1   7   9  123.22   12.49
  -1   7  10  300.87   14.00
  -1   7  10  329.93   18.34
  -1   7  10  326.44   16.23
  -1   7  10  255.41   14.81
   1  -7 -10  302.95   13.51
   1  -7 -10  296.45   16.78
  -1   7  10  312.38   14.43
  -1   7  11  232.77   15.45
  -1   7  11  226.27   13.97
  -1   7  11  217.99   14.98
   1  -7 -11  230.40   17.98
  -1   7  11  198.33   14.17
   1  -7 -11  189.49   12.78
   1  -7 -11  253.28   17.42
  -1   7  11  280.53   18.23
  -1   7  12    5.67   11.47
  -1   7  12   18.13   12.28
   1  -7 -12   15.95   10.92
   1  -7 -12   10.26   14.22
  -1   7  12   27.76   15.63
  -1   7  12   29.70   13.78
   1  -7 -12   12.16   16.07
  -1   7  13   11.30   11.99
   1  -7 -13    8.99   11.33
  -1   7  13   11.89   16.00
  -1   7  13   31.13   13.28
  -1   7  13    7.18   14.26
   1  -7 -13   28.16   15.91
   1  -7 -13   32.06   16.99
  -1   7  14   25.58   13.73
   1  -7 -14   35.14   12.41
  -1   7  14   24.31   12.98
  -1   7  14   31.87   17.03
  -1   7  14   42.85   15.37
   1  -7 -14   -4.47   16.73
   1  -7 -14   24.68   17.62
  -1   7  15   46.81   14.13
  -1   7  15   75.96   16.44
  -1   7  15   30.68   15.12
   1  -7 -15   41.80   13.33
   1  -7 -15   49.00   19.15
  -1   7  15   98.72   19.35
   1  -7 -15   44.50   18.07
  -1   7  16   46.31   14.74
  -1   7  16   44.43   17.36
   1  -7 -16   11.46   19.80
  -1   7  16   40.42   16.30
  -1   7  17   49.75   18.80
  -1   7  17   37.26   16.80
   1  -6  16   34.51   18.10
   1  -6  16   24.19   16.35
  -1   6 -15   34.67   20.10
   1  -6  15   48.81   15.64
   1  -6  15   66.46   17.70
   1  -6  15   88.73   15.15
   1  -6  14   14.45   14.56
   1  -6  14    7.26   15.41
   1  -6  14   43.47   13.92
  -1   6 -14   28.60   18.03
   1  -6  13   82.99   17.99
   1  -6  13  100.99   16.33
   1  -6  13   63.65   14.35
  -1   6 -13   72.00   17.36
   1  -6  13   79.56   13.46
   1  -6  12   72.12   15.18
   1  -6  12   82.29   13.45
   1  -6  12   80.85   17.07
  -1   6 -12  102.23   16.59
   1  -6  12   84.87   13.85
   1  -6  11   46.78   15.41
   1  -6  11    0.70   11.25
   1  -6  11   40.00   12.71
  -1   6 -11   24.26   14.16
   1  -6  11   40.05   13.78
  -1   6 -11   28.63   10.02
  -1   6 -10   -2.95    9.43
   1  -6  10  -15.75   12.04
   1  -6  10   21.93   11.61
   1  -6  10   21.52   14.86
  -1   6 -10   32.61   13.81
   1  -6  10   10.50   13.24
   1  -6  10   21.13   11.35
  -1   6  -9   49.19   13.33
  -1   6  -9   48.28   13.03
   1  -6   9   41.27   11.98
   1  -6   9   47.68   11.16
  -1   6  -9   45.89    9.30
   1  -6   9   61.64   12.85
   1  -6   9   32.75   10.51
   1  -6   9   43.12   13.62
   1  -6   8  436.94   17.47
   1  -6   8  408.57   17.37
  -1   6  -8  415.09   16.74
   1  -6   8  396.31   14.58
   1  -6   8  369.79   14.74
   1  -6   8  394.46   16.23
  -1   6  -8  387.85   12.97
  -1   6  -8  349.41   16.76
  -1   6  -7 1585.16   25.42
   1  -6   7 1483.46   26.06
   1  -6   7 1466.70   21.80
  -1   6  -7 1487.13   25.82
   1  -6   7 1492.94   25.22
   1  -6   7 1570.73   23.01
  -1   6  -7 1470.84   20.16
   1  -6   7 1541.13   27.56
  -1   6  -6   62.30   10.67
  -1   6  -6   47.65    8.09
   1  -6   6   81.30   11.45
   1  -6   6   62.25   10.31
   1  -6   6   60.69    9.19
  -1   6  -6   64.01   11.91
  -1   6  -6   75.47   11.45
   1  -6   6   38.66    9.44
   1  -6   6   55.42   11.09
  -1   6  -5  245.63   12.69
   1  -6   5  206.48   13.33
  -1   6  -5  229.88   10.02
   1  -6   5  249.01   14.25
   1  -6   5  227.83   10.78
  -1   6  -5  240.69   13.48
   1  -6   5  182.45   12.33
  -1   6  -5  201.50   13.16
   1  -6   5  214.56   11.43
   1  -6   4  552.93   22.06
  -1   6  -4  717.05   18.94
  -1   6  -4  780.37   18.20
   1  -6   4  673.20   19.10
   1  -6   4  795.53   20.62
  -1   6  -4  765.62   15.10
   1  -6   4  837.55   17.64
   1  -6   4  893.19   15.50
  -1   6  -4  618.85   17.96
  -1   6  -3   25.62    7.49
  -1   6  -3   42.46    8.98
  -1   6  -3   11.55    6.86
   1  -6   3   22.04    8.79
   1  -6   3    1.69    9.23
  -1   6  -3    9.76    8.94
   1  -6   3    9.13    8.44
   1  -6   3   47.76    7.40
  -1   6  -3   22.52    9.16
   1  -6   3   35.74    8.17
   1  -6   2   85.71   10.10
  -1   6  -2   87.54   10.64
  -1   6  -2   58.11   10.24
  -1   6  -2  127.66    9.51
  -1   6  -2   92.96   10.16
   1  -6   2  128.13   11.92
   1  -6   2  115.12    9.77
   1  -6   2   53.83   11.09
  -1   6  -2  100.75    8.74
   1  -6   2  112.13    8.51
   1  -6   1  100.67   10.23
  -1   6  -1   90.80    9.71
  -1   6  -1  107.20   10.04
   1  -6   1   72.54   11.50
   1  -6   1   70.96   10.08
   1  -6   1  125.03    8.53
  -1   6  -1   77.70   10.31
   1  -6   0  275.46   17.95
  -1   6   0  305.24   15.86
  -1   6   1  120.55    9.60
   1  -6  -1   99.28   10.84
  -1   6   1   81.22   11.02
   1  -6  -1   72.93   11.17
   1  -6  -1  161.66    9.39
  -1   6   1   30.02   10.43
  -1   6   2    3.13    7.50
  -1   6   2   -3.96    5.54
   1  -6  -2    4.15    8.15
  -1   6   2    1.56    6.25
  -1   6   2   -3.25    8.77
   1  -6  -2   21.01    8.27
   1  -6  -2    8.89    6.20
  -1   6   2    7.48    6.85
   1  -6  -3  171.98    8.91
   1  -6  -3  136.77   10.69
   1  -6  -3  142.94   12.39
  -1   6   3  136.03   10.18
  -1   6   3  147.03   12.89
  -1   6   3  165.15    8.35
  -1   6   3  116.19    8.19
  -1   6   3  163.47   10.67
  -1   6   4  477.00   15.78
   1  -6  -4  525.66   15.84
   1  -6  -4  647.92   18.96
  -1   6   4  562.36   19.95
  -1   6   4  551.36   14.96
  -1   6   4  565.03   12.03
   1  -6  -4  571.26   12.63
  -1   6   4  512.74   16.34
  -1   6   5  431.31   14.90
   1  -6  -5  423.92   11.39
  -1   6   5  440.55   12.72
  -1   6   5  450.20   11.25
   1  -6  -5  425.08   15.12
   1  -6  -5  473.66   13.56
   1  -6  -5  525.37   17.39
  -1   6   5  482.51   18.44
   1  -6  -5  418.19   17.86
  -1   6   5  464.41   15.23
  -1   6   6 1750.14   20.32
  -1   6   6 1808.90   25.30
   1  -6  -6 1845.36   30.01
  -1   6   6 1910.97   27.89
  -1   6   6 1767.61   22.32
  -1   6   6 1842.02   31.72
   1  -6  -6 1834.50   24.27
  -1   6   7    4.60   10.55
  -1   6   7   24.74    9.09
  -1   6   7   10.21    7.83
  -1   6   7   12.99    8.28
  -1   6   7    8.52    8.69
   1  -6  -7   14.24   10.04
   1  -6  -7   29.94   11.75
   1  -6  -7    3.92    8.88
  -1   6   8    5.88    9.53
  -1   6   8   14.96    8.62
  -1   6   8   19.27    8.80
   1  -6  -8   -0.15    8.92
   1  -6  -8    2.39   10.43
   1  -6  -8   11.53   12.04
  -1   6   8   -4.85    8.17
  -1   6   8    1.48   10.65
  -1   6   9   60.57   10.10
  -1   6   9   97.49   11.39
  -1   6   9   87.47   10.50
   1  -6  -9  124.21   14.31
   1  -6  -9   90.15    9.97
   1  -6  -9   84.70   12.34
  -1   6   9   84.67   13.23
  -1   6   9   90.75   10.22
  -1   6  10  170.34   15.28
  -1   6  10  168.25   13.33
  -1   6  10  171.09   12.53
   1  -6 -10  151.00   11.41
  -1   6  10  141.93   11.53
   1  -6 -10  159.73   14.25
  -1   6  10  169.17   12.63
   1  -6 -11   44.29   14.66
  -1   6  11   19.65   10.79
  -1   6  11    9.19   10.49
  -1   6  11   53.06   13.69
  -1   6  11   46.80   12.24
  -1   6  11   31.08   10.43
   1  -6 -11   40.84   10.64
   1  -6 -11   44.99   13.60
  -1   6  12   35.43   14.83
  -1   6  12   23.75   12.63
   1  -6 -12   12.16   14.43
  -1   6  12   37.82   11.67
  -1   6  12   14.94   11.98
   1  -6 -12   13.37   10.48
   1  -6 -12   26.86   13.92
   1  -6 -13  192.09   18.64
   1  -6 -13  173.44   17.58
  -1   6  13  150.59   13.97
   1  -6 -13  112.39   12.89
  -1   6  13  138.72   14.95
  -1   6  13  170.18   16.31
  -1   6  13  173.01   17.69
   1  -6 -14   28.63   16.68
  -1   6  14   48.90   13.36
   1  -6 -14   20.55   11.97
   1  -6 -14   27.95   17.19
  -1   6  14   12.84   13.59
  -1   6  14   20.20   16.46
  -1   6  14   37.29   15.22
   1  -6 -15   27.46   17.62
   1  -6 -15   17.75   12.80
  -1   6  15   19.51   14.68
  -1   6  15    3.32   15.09
  -1   6  15   23.21   13.46
   1  -6 -15   -2.25   16.95
  -1   6  15   -6.83   16.57
  -1   6  16   90.03   14.81
  -1   6  16   50.00   17.27
  -1   6  16   31.93   15.69
   1  -6 -16   56.62   19.67
  -1   6  17   54.54   17.39
  -1   6  17   22.25   14.70
  -1   6  17   39.33   17.91
  -1   6  18  109.35   20.36
   1  -5  17   40.02   18.67
   1  -5  16   21.74   14.99
   1  -5  16   38.32   17.39
   1  -5  15    7.76   13.69
  -1   5 -15   16.62   18.18
   1  -5  15    2.68   15.78
   1  -5  15   -4.07   14.17
  -1   5 -14   32.83   17.48
   1  -5  14    4.89   13.38
   1  -5  14   31.46   13.58
   1  -5  14   27.13   15.20
   1  -5  13   48.10   13.53
   1  -5  13   42.53   16.41
  -1   5 -13   68.18   15.88
   1  -5  13   71.26   15.07
   1  -5  13   42.11   13.59
   1  -5  12  136.22   15.48
  -1   5 -12   79.81   15.47
   1  -5  12  148.12   18.02
   1  -5  12  106.79   14.05
   1  -5  12  106.55   14.04
   1  -5  11  158.52   13.89
   1  -5  11  163.01   14.09
   1  -5  11  201.93   17.00
   1  -5  11  202.49   15.34
  -1   5 -11  143.23   10.86
  -1   5 -11  157.48   15.38
  -1   5 -10   98.22   10.21
  -1   5 -10   75.12   13.13
   1  -5  10  126.99   15.06
   1  -5  10  100.96   12.24
   1  -5  10  116.91   12.59
   1  -5  10  139.25   14.12
   1  -5  10  132.05   13.24
   1  -5   9  103.57   13.52
  -1   5  -9  102.54    9.37
   1  -5   9   71.70   11.16
  -1   5  -9  100.41   13.16
   1  -5   9   76.25   11.74
  -1   5  -9   84.78   12.75
   1  -5   9   94.91   12.58
   1  -5   9   86.43   11.57
   1  -5   8  111.18   11.13
  -1   5  -8  111.05   11.87
   1  -5   8  128.48   12.80
   1  -5   8  121.21   12.36
   1  -5   8  133.08   11.84
   1  -5   8  119.33   10.90
  -1   5  -8  107.80   12.34
  -1   5  -8  108.64    9.21
  -1   5  -7   91.48    8.85
   1  -5   7   87.93    9.93
   1  -5   7  106.95   10.63
   1  -5   7  127.53   11.18
   1  -5   7   89.88    9.85
   1  -5   7  109.00   11.04
  -1   5  -7   97.24   11.60
  -1   5  -7   96.31   10.85
   1  -5   6  194.82   10.94
   1  -5   6  216.33   10.47
   1  -5   6  243.31   12.59
  -1   5  -6  221.44    9.48
   1  -5   6  200.61   11.72
  -1   5  -6  227.83   12.26
  -1   5  -6  211.12   11.95
   1  -5   6  189.49   12.54
  -1   5  -5 1364.40   22.42
   1  -5   5 1606.69   27.83
  -1   5  -5 1751.84   22.27
   1  -5   5 1410.80   26.35
  -1   5  -5 1380.03   23.38
   1  -5   5 1422.24   24.91
  -1   5  -5 1702.69   19.00
   1  -5   5 1871.74   19.96
   1  -5   5 1422.11   21.64
  -1   5  -4 2198.94   21.22
   1  -5   4 2105.46   29.55
   1  -5   4 1955.03   28.57
  -1   5  -4 2302.91   23.66
  -1   5  -4 1967.97   25.99
   1  -5   4 2288.08   22.40
  -1   5  -4 1954.91   26.99
   1  -5   4 2291.86   25.62
   1  -5   3   14.07    7.76
   1  -5   3    9.67    6.44
  -1   5  -3    8.09    6.64
  -1   5  -3   13.57    7.88
   1  -5   3   17.10    6.85
  -1   5  -3    4.92    7.95
  -1   5  -3    9.76    5.82
   1  -5   3   -5.24    6.87
   1  -5   3   -5.29    7.54
   1  -5   2   -1.45    5.94
   1  -5   2   12.79    6.54
   1  -5   2   12.73    5.30
  -1   5  -2  -11.13    7.27
   1  -5   2   -6.44    6.90
   1  -5   2    7.96    7.22
  -1   5  -2   -3.98    5.68
  -1   5  -2   -1.78    7.38
   1  -5   2    0.88    7.56
   1  -5   1  377.17   14.22
   1  -5   1  432.12   11.80
  -1   5  -1  263.91   14.04
   1  -5   1  355.62   16.15
  -1   5  -1  238.28   13.75
   1  -5   1  311.60   13.85
   1  -5   1  320.36   14.45
   1  -5   1  399.71   13.04
  -1   5   0   -6.84    6.12
   1  -5   0   18.72    5.77
   1  -5   0    4.42    7.81
   1  -5   0   -5.90    6.19
  -1   5   0    5.60    7.31
  -1   5   0   -2.17    6.86
   1  -5   0    5.68    4.91
  -1   5   1 1255.38   17.27
   1  -5  -1 1212.19   15.35
   1  -5  -1 1218.57   17.43
  -1   5   2  465.47   14.91
  -1   5   2  577.19   12.09
   1  -5  -2  716.94   13.29
  -1   5   2  338.29   18.68
   1  -5  -2  659.77   11.46
   1  -5  -2  506.04   15.22
  -1   5   2  492.60   11.86
   1  -5  -2  432.84   17.23
  -1   5   3  699.22   21.19
   1  -5  -3  862.27   13.78
   1  -5  -3  824.61   20.49
  -1   5   3  716.19   19.45
   1  -5  -3  714.20   16.06
  -1   5   3  867.76   12.83
  -1   5   3  759.04   17.01
   1  -5  -3  931.40   13.50
  -1   5   4  205.68   10.37
  -1   5   4  212.00    8.10
   1  -5  -4  234.30    7.99
  -1   5   4  199.08   12.93
  -1   5   4  179.48   11.28
   1  -5  -4  191.24   10.82
  -1   5   4  200.49    9.53
   1  -5  -4  225.02   12.42
   1  -5  -5  385.12   11.43
  -1   5   5  341.72   12.18
  -1   5   5  350.10   10.50
  -1   5   5  359.51    9.68
  -1   5   5  344.18   15.01
   1  -5  -5  392.10   14.54
  -1   5   5  319.98   13.27
   1  -5  -5  388.72   15.21
   1  -5  -5  320.59   12.25
  -1   5   6   -4.23    7.03
  -1   5   6   12.07    7.04
  -1   5   6    4.52    7.76
  -1   5   6    8.96    6.78
  -1   5   6    2.15    8.94
   1  -5  -6   -6.37    7.56
   1  -5  -6   17.15    8.45
   1  -5  -6  -11.85   10.16
  -1   5   7   37.22    7.69
  -1   5   7   19.45    7.66
   1  -5  -7   35.18    9.77
  -1   5   7   21.05    9.88
   1  -5  -7   26.08   10.94
  -1   5   7   22.60    7.72
   1  -5  -7   31.44    8.29
  -1   5   7   28.68    8.59
  -1   5   8   73.39   10.28
  -1   5   8   90.28    9.06
   1  -5  -8   73.64   10.63
  -1   5   8   56.94    8.71
  -1   5   8   54.52   11.30
  -1   5   8   68.33    9.12
   1  -5  -8   94.93   12.18
   1  -5  -8   77.42    9.34
  -1   5   9  120.72   12.81
  -1   5   9   91.98    9.75
  -1   5   9  113.67   11.27
   1  -5  -9   84.91   12.75
  -1   5   9  102.37   10.30
   1  -5  -9   91.78    9.83
   1  -5  -9   79.24   11.81
  -1   5  10   34.65   12.15
  -1   5  10   -4.64   10.52
   1  -5 -10   18.99   12.59
  -1   5  10   13.71    9.57
   1  -5 -10   -5.19   11.25
   1  -5 -10   12.13    9.11
  -1   5  10   24.25    9.90
  -1   5  11   39.69   13.48
  -1   5  11   69.17   12.25
  -1   5  11   52.80   11.01
   1  -5 -11   39.42   12.82
   1  -5 -11   23.99    9.98
   1  -5 -11   31.30   13.08
  -1   5  11   37.35   10.72
  -1   5  12  226.25   15.37
  -1   5  12  196.63   13.62
  -1   5  12  188.54   14.42
   1  -5 -12  202.21   13.07
   1  -5 -12  228.87   17.27
  -1   5  12  278.79   17.32
   1  -5 -12  246.69   17.16
  -1   5  13   29.26   12.90
   1  -5 -13   61.31   15.90
  -1   5  13    5.79   13.96
  -1   5  13   34.17   13.66
   1  -5 -13   59.49   15.32
  -1   5  13    4.29   11.75
   1  -5 -13   31.50   11.53
  -1   5  14  153.99   14.39
  -1   5  14  149.22   17.22
  -1   5  14  135.09   15.38
   1  -5 -14  125.14   13.69
  -1   5  14  147.02   16.43
   1  -5 -14  117.32   18.03
   1  -5 -14  126.88   17.97
  -1   5  15   47.79   15.56
  -1   5  15   51.64   14.69
  -1   5  15   50.44   17.09
   1  -5 -15   44.16   13.12
  -1   5  15   46.84   13.37
   1  -5 -15   28.07   17.38
   1  -5 -15   68.98   17.62
   1  -5 -16  158.89   21.23
  -1   5  16  128.83   15.51
   1  -5 -16  138.89   20.41
   1  -5 -16  140.41   15.38
  -1   5  16  109.88   16.77
  -1   5  17   34.59   17.76
  -1   5  17   59.61   15.00
  -1   5  17   82.31   17.26
  -1   5  18    2.39   17.94
   1  -4  17   77.16   18.51
   1  -4  17   66.88   16.81
  -1   4 -16    2.03   18.65
   1  -4  16  -10.04   16.22
   1  -4  16   30.49   15.64
   1  -4  16   21.18   15.02
   1  -4  15   21.93   14.50
   1  -4  15   27.46   15.92
   1  -4  15    8.07   14.24
  -1   4 -15   10.79   17.49
   1  -4  14   11.26   13.18
  -1   4 -14    2.45   15.59
   1  -4  14   28.48   14.55
   1  -4  14   10.42   13.10
  -1   4 -13   47.91   15.48
   1  -4  13   14.17   13.52
   1  -4  13   27.40   13.37
   1  -4  13   41.81   13.00
   1  -4  12   33.60   12.46
   1  -4  12   35.46   13.01
   1  -4  12   23.85   11.65
   1  -4  12    8.54   14.19
  -1   4 -12   15.79   13.79
   1  -4  11    1.17   11.30
   1  -4  11   24.05   13.58
  -1   4 -11   10.35   12.40
  -1   4 -11   11.22    8.73
   1  -4  11   11.00   11.48
   1  -4  11    0.77   11.22
   1  -4  10   60.85   11.61
   1  -4  10   66.80   11.61
   1  -4  10   60.90   11.39
   1  -4  10   84.22   12.99
  -1   4 -10   69.61    8.91
   1  -4  10   87.95   12.41
  -1   4 -10   53.17   12.30
  -1   4  -9  117.08   12.46
   1  -4   9  163.74   13.99
   1  -4   9  115.83   11.33
  -1   4  -9  126.37    9.41
   1  -4   9  155.16   12.74
   1  -4   9  139.35   11.33
  -1   4  -9  131.52   11.77
   1  -4   9  123.43   11.53
  -1   4  -8  113.19   10.79
  -1   4  -8   85.04   11.20
   1  -4   8  106.27   10.78
   1  -4   8   99.81   11.11
  -1   4  -8   92.87    8.52
   1  -4   8  102.52   10.43
   1  -4   8  104.89   10.43
   1  -4   8  122.66   11.72
   1  -4   7  395.52   13.79
  -1   4  -7  370.29   13.79
   1  -4   7  426.69   14.34
  -1   4  -7  366.38   13.65
   1  -4   7  410.26   14.67
  -1   4  -7  361.50   10.72
   1  -4   7  409.23   12.63
   1  -4   7  411.53   12.95
  -1   4  -7  424.98   14.01
  -1   4  -6  151.60   10.16
   1  -4   6  125.36   10.35
  -1   4  -6  152.40   10.20
   1  -4   6  151.68    9.28
  -1   4  -6  161.99    8.14
   1  -4   6  143.59    9.82
   1  -4   6  116.96   10.51
  -1   4  -6  151.60   10.04
   1  -4   6  132.77    8.97
   1  -4   5  661.39   15.81
  -1   4  -5  647.49   14.58
   1  -4   5  806.70   13.68
   1  -4   5  615.74   16.76
  -1   4  -5  738.77   15.02
  -1   4  -5  706.58   12.15
   1  -4   5  706.15   14.34
   1  -4   4   24.08    7.40
   1  -4   4   22.07    6.80
   1  -4   4   -0.44    6.04
  -1   4  -4   10.89    6.84
   1  -4   4   13.91    5.27
   1  -4   4   17.36    6.31
  -1   4  -4   -3.04    7.28
   1  -4   4    6.24    6.90
  -1   4  -4   -1.51    5.33
   1  -4   4    9.99    5.07
   1  -4   3   13.42    6.10
   1  -4   3    5.99    4.82
   1  -4   3    2.88    6.70
  -1   4  -3    9.80    5.13
  -1   4  -3    4.45    6.18
  -1   4  -3   21.14    7.26
   1  -4   3   16.07    6.44
   1  -4   3    6.31    4.72
   1  -4   3   24.67    6.88
   1  -4   3   21.16    6.17
   1  -4   2  307.35   12.94
  -1   4  -2  198.60   12.29
  -1   4  -2  369.19   10.84
   1  -4   2  250.08   11.70
   1  -4   2  121.00   11.98
  -1   4  -1 2576.70   32.77
  -1   4  -1 3172.77   32.40
   1  -4   1 3805.11   32.57
   1  -4   1 2628.22   36.21
   1  -4   0 2674.63   27.02
   1  -4   0 2303.53   25.25
  -1   4   1  142.01    7.34
  -1   4   1  188.35    7.05
  -1   4   1   81.93    9.39
   1  -4  -1  136.96    9.21
   1  -4  -1  195.56    7.83
   1  -4  -1   70.95    9.51
   1  -4  -1  167.52    7.17
   1  -4  -2  137.65    6.77
  -1   4   2  130.12    8.95
   1  -4  -2  108.66    8.66
  -1   4   2  110.15    6.24
   1  -4  -2  151.66    6.78
   1  -4  -3    5.68    5.13
  -1   4   3   10.60    5.22
   1  -4  -3   -3.75    6.82
  -1   4   3   -7.13    7.42
  -1   4   3    3.46    6.26
  -1   4   4  139.71    7.70
   1  -4  -4  122.86    8.74
   1  -4  -4  122.05    7.46
  -1   4   4  124.27    6.51
   1  -4  -4  148.37   10.26
   1  -4  -4  149.79   10.67
  -1   4   4  133.04   10.31
   1  -4  -5   35.59    7.65
  -1   4   5   24.98    8.61
   1  -4  -5   33.14    6.72
  -1   4   5   40.60    6.43
  -1   4   5   37.49    6.08
  -1   4   5   32.75    6.45
   1  -4  -5   56.76    9.26
  -1   4   6  359.04   11.70
  -1   4   6  382.24   10.06
   1  -4  -6  436.22   14.49
   1  -4  -6  410.88   11.30
   1  -4  -6  406.03   12.03
  -1   4   6  345.96   10.42
  -1   4   6  377.66   14.24
  -1   4   7   90.74    8.20
  -1   4   7  104.58   10.70
  -1   4   7  104.99    9.18
  -1   4   7  105.72    8.26
   1  -4  -7  111.57   10.93
   1  -4  -7   97.44    8.61
   1  -4  -7   92.99    9.63
  -1   4   8  126.64   11.71
  -1   4   8  137.80   10.19
   1  -4  -8  110.97   10.74
   1  -4  -8  139.69   11.94
   1  -4  -8  139.92    9.49
  -1   4   8  101.04    9.17
  -1   4   8   92.64    8.99
  -1   4   9   68.71   11.45
  -1   4   9   62.88    9.41
   1  -4  -9   32.06   10.63
  -1   4   9   57.35    9.13
  -1   4   9   44.41    9.68
   1  -4  -9   83.92   11.99
   1  -4  -9   50.39    8.98
   1  -4 -10    4.54   11.33
  -1   4  10   -3.12   11.48
  -1   4  10   12.74    9.90
  -1   4  10   11.56    9.24
   1  -4 -10   27.67    9.15
  -1   4  10   20.90    9.41
   1  -4 -10   18.16   11.46
   1  -4 -11  135.43   14.59
   1  -4 -11  116.22   11.29
  -1   4  11  130.98   12.62
  -1   4  11  140.56   14.29
  -1   4  11  109.25   11.73
   1  -4 -11  149.50   14.28
  -1   4  11  144.64   12.24
  -1   4  12  160.50   15.55
  -1   4  12  160.86   14.09
  -1   4  12  139.54   12.83
   1  -4 -12  149.81   15.56
  -1   4  12  151.39   13.68
   1  -4 -12  159.08   15.89
   1  -4 -12  152.74   12.80
   1  -4 -13  208.11   17.93
  -1   4  13  196.53   16.44
  -1   4  13  198.00   15.57
  -1   4  13  195.95   15.22
   1  -4 -13  190.68   13.75
  -1   4  13  160.34   13.68
   1  -4 -13  182.68   16.89
   1  -4 -14   18.25   15.92
  -1   4  14   48.33   15.65
  -1   4  14   50.41   12.61
   1  -4 -14   31.08   12.34
  -1   4  14   39.98   13.59
  -1   4  14   31.21   14.29
   1  -4 -14   16.32   15.61
  -1   4  15   46.66   12.78
   1  -4 -15   29.16   17.02
  -1   4  15   24.52   16.58
  -1   4  15   43.81   15.20
   1  -4 -15   37.34   17.05
  -1   4  15   59.98   14.40
   1  -4 -15   28.63   12.68
   1  -4 -16   83.09   19.50
   1  -4 -16   43.39   14.32
  -1   4  16   44.66   13.78
   1  -4 -16   54.43   18.08
  -1   4  16   86.67   16.64
  -1   4  16  104.67   20.03
  -1   4  16   42.34   15.46
  -1   4  17   46.65   17.18
  -1   4  17   41.47   14.53
   1  -4 -17   18.06   20.30
  -1   4  17   35.44   17.64
  -1   4  18   39.30   18.19
  -1   4  18   96.01   19.85
   1  -3  18   53.43   18.94
   1  -3  17   24.09   15.91
   1  -3  17   15.86   16.55
   1  -3  17   19.65   15.82
   1  -3  16   74.31   17.02
  -1   3 -16   61.29   18.84
   1  -3  16   66.99   16.20
   1  -3  16   73.17   15.68
   1  -3  15   25.73   14.25
   1  -3  15   41.15   15.41
   1  -3  15   38.68   14.19
  -1   3 -15   34.27   16.90
   1  -3  14  111.94   15.82
   1  -3  14  133.63   15.19
   1  -3  14  113.04   15.18
  -1   3 -14  102.32   16.35
   1  -3  13  102.99   14.89
  -1   3 -13  130.68   15.67
   1  -3  13   77.74   13.54
   1  -3  13  117.88   14.11
  -1   3 -12   46.88   13.14
   1  -3  12   48.74   12.42
   1  -3  12   52.64   12.46
   1  -3  12   67.93   12.57
  -1   3 -11   23.20   12.10
   1  -3  11   29.78   11.00
   1  -3  11   35.25   11.11
   1  -3  11   27.76   12.02
  -1   3 -11   21.33    8.24
   1  -3  11    4.05   11.98
   1  -3  11   14.59   11.07
   1  -3  10  122.91   11.89
  -1   3 -10  132.12   12.96
  -1   3 -10  124.34    9.25
   1  -3  10  153.78   12.01
   1  -3  10  158.98   12.00
   1  -3  10  146.78   13.52
   1  -3  10  157.90   12.51
   1  -3   9   58.54   10.89
  -1   3  -9   62.29   11.38
   1  -3   9   79.01   10.43
  -1   3  -9   67.15   10.44
   1  -3   9   52.59   10.01
  -1   3  -9   56.75    8.02
   1  -3   9   68.45   10.72
   1  -3   9   73.90    9.95
  -1   3  -8    0.81    9.38
  -1   3  -8   -5.11    6.67
   1  -3   8   34.87    8.83
   1  -3   8    1.04    8.64
   1  -3   8   20.33    8.55
   1  -3   8    5.53    8.79
  -1   3  -8    5.83    8.53
  -1   3  -8   16.73    8.87
   1  -3   8   15.23    9.58
  -1   3  -7  345.60    9.62
  -1   3  -7  325.13   12.04
   1  -3   7  379.96   11.63
   1  -3   7  326.80   12.00
   1  -3   7  342.99   11.05
   1  -3   7  366.96   12.54
  -1   3  -7  340.09   12.59
   1  -3   7  346.41   13.04
  -1   3  -7  315.87   11.96
   1  -3   6  584.86   14.97
  -1   3  -6  651.73   13.87
  -1   3  -6  692.88   11.22
   1  -3   6  650.57   14.37
   1  -3   6  668.29   12.88
   1  -3   6  599.02   14.95
   1  -3   6  617.27   13.46
  -1   3  -6  665.83   14.41
  -1   3  -5   17.34    6.84
   1  -3   5   20.03    6.34
   1  -3   5   21.67    6.66
   1  -3   5   21.27    5.40
  -1   3  -5   15.19    5.09
   1  -3   5    9.28    6.75
   1  -3   5    9.15    6.69
  -1   3  -5   18.53    6.61
   1  -3   5   21.60    6.31
   1  -3   5   12.12    5.54
   1  -3   4  227.37    9.04
   1  -3   4  133.78   13.64
  -1   3  -4  427.49    8.77
  -1   3  -4  421.71   10.73
   1  -3   4  485.90   12.13
   1  -3   4  417.59    9.76
  -1   3  -4  455.75   10.72
   1  -3   4  486.22   11.30
   1  -3   3  132.63   10.50
  -1   3  -3  113.06    8.26
   1  -3   2 1351.71   13.87
  -1   3  -2 1239.86   17.22
   1  -3   1  294.61    8.48
  -1   3   0   34.90    4.74
   1  -3   0   30.08    5.21
   1  -3   0   34.09    4.72
   1  -3  -1 1283.26   12.99
   1  -3  -1 1281.48   12.78
   1  -3  -2   29.22    5.31
  -1   3   2   29.77    6.56
   1  -3  -2   14.75    5.56
  -1   3   2   16.97    7.24
  -1   3   3  577.81   17.00
  -1   3   3  513.69   16.24
   1  -3  -4   48.30    5.80
   1  -3  -4   56.76    7.41
  -1   3   4   48.69    5.81
  -1   3   4   46.02    7.92
  -1   3   5  133.70    6.69
   1  -3  -5  169.81    8.01
  -1   3   5  119.67    7.03
   1  -3  -5  119.41    7.31
   1  -3  -5   98.58    6.82
   1  -3  -5  165.93   10.24
   1  -3  -5  112.03    8.24
  -1   3   5  124.73    9.61
   1  -3  -6  108.06    7.62
  -1   3   6   92.68    9.33
   1  -3  -6  104.99    8.73
  -1   3   6  130.57    8.09
  -1   3   6   98.93    7.14
   1  -3  -6  126.63    9.74
  -1   3   6   88.33    7.11
   1  -3  -7  259.42   12.13
  -1   3   7  241.15    9.51
   1  -3  -7  251.62    9.59
  -1   3   7  237.23   12.12
   1  -3  -7  239.26   10.93
  -1   3   7  234.97    9.37
  -1   3   7  251.36   10.60
   1  -3  -8    2.34    7.46
  -1   3   8   20.52    7.64
  -1   3   8   11.76    7.90
  -1   3   8    5.73    9.16
  -1   3   8   11.53    7.63
   1  -3  -8   -7.33    9.14
   1  -3  -8   -4.19    8.83
  -1   3   9    8.24   10.42
  -1   3   9    7.41    8.99
  -1   3   9   10.94    8.44
  -1   3   9   13.91    8.30
   1  -3  -9   30.43   10.42
   1  -3  -9    2.98    8.27
   1  -3  -9   18.12   10.60
  -1   3  10   89.24   10.11
  -1   3  10  105.03   12.32
  -1   3  10   94.70   10.24
  -1   3  10   92.17   10.92
   1  -3 -10   95.76   12.59
   1  -3 -10   93.17   10.22
   1  -3 -10  103.64   12.44
   1  -3 -11  106.21   13.75
  -1   3  11  121.08   11.64
  -1   3  11  132.54   13.63
  -1   3  11   96.71   11.31
  -1   3  11  129.95   12.44
   1  -3 -11  100.01   11.03
   1  -3 -11  115.49   13.94
  -1   3  12   -3.33   11.18
  -1   3  12   23.32   13.08
   1  -3 -12   -5.48   10.46
   1  -3 -12    6.96   13.38
  -1   3  12    8.19   10.76
  -1   3  12    9.82   11.05
   1  -3 -12    9.63   12.91
  -1   3  13   22.40   12.42
  -1   3  13   25.59   13.63
   1  -3 -13   12.12   11.34
   1  -3 -13    6.82   13.97
  -1   3  13   39.28   13.11
   1  -3 -13   -1.19   13.89
  -1   3  13   29.37   11.27
   1  -3 -14   85.97   16.51
   1  -3 -14   39.63   12.57
  -1   3  14   50.31   12.43
  -1   3  14   67.47   15.93
  -1   3  14   36.49   13.50
  -1   3  14   54.10   14.47
   1  -3 -14   48.59   16.22
   1  -3 -15   21.49   17.37
   1  -3 -15   20.57   16.81
   1  -3 -15   34.72   13.14
  -1   3  15   34.04   16.56
  -1   3  15   35.47   15.30
  -1   3  15   21.80   12.48
  -1   3  15   17.76   13.63
   1  -3 -16   36.16   13.72
  -1   3  16   23.60   15.45
   1  -3 -16   51.18   18.94
   1  -3 -16   24.33   17.78
  -1   3  16   54.85   18.79
  -1   3  16   62.97   13.93
  -1   3  16   44.49   16.40
  -1   3  17   96.48   15.06
   1  -3 -17   64.75   20.74
  -1   3  17   58.59   16.90
  -1   3  17  105.26   18.73
  -1   3  18   67.38   18.06
  -1   3  18   52.96   18.90
   1  -2  18   54.85   18.12
   1  -2  17   88.85   17.73
   1  -2  17   53.21   16.32
   1  -2  17   80.81   16.98
  -1   2 -16  165.12   20.19
   1  -2  16  201.04   18.31
   1  -2  16  168.10   17.34
   1  -2  16  155.63   17.19
  -1   2 -15   82.10   17.13
   1  -2  15   89.46   15.60
   1  -2  15   75.33   14.82
   1  -2  15   48.01   14.65
   1  -2  14  123.29   15.09
  -1   2 -14  132.89   16.20
   1  -2  14  161.70   15.94
   1  -2  14  123.08   15.46
   1  -2  13   -0.83   12.62
   1  -2  13   45.07   12.86
   1  -2  13   27.52   12.30
  -1   2 -13   11.57   12.91
   1  -2  12   11.71   11.33
   1  -2  12    4.45   11.60
   1  -2  12   13.53   11.25
  -1   2 -12   25.46   12.77
  -1   2 -11   17.70   11.45
   1  -2  11   27.02   10.89
  -1   2 -11   26.94    8.27
   1  -2  11    5.92   10.83
   1  -2  11   35.05   11.64
   1  -2  11   28.15   10.88
   1  -2  10  381.22   15.59
   1  -2  10  334.97   13.35
   1  -2  10  367.98   14.15
  -1   2 -10  326.88   14.94
   1  -2  10  383.64   14.25
  -1   2 -10  330.19   10.68
   1  -2  10  388.46   14.73
  -1   2  -9 1141.28   20.82
   1  -2   9 1240.07   20.19
  -1   2  -9 1269.85   20.63
   1  -2   9 1244.94   20.66
   1  -2   9 1249.73   19.80
   1  -2   9 1233.56   20.49
   1  -2   9 1391.09   22.78
  -1   2  -9 1167.82   15.81
  -1   2  -9 1308.26   22.64
  -1   2  -8   14.48    8.58
  -1   2  -8   17.17    6.30
  -1   2  -8   20.34    8.89
  -1   2  -8   21.79    8.42
   1  -2   8   46.34    8.30
   1  -2   8   14.41    8.44
   1  -2   8   37.29    8.70
   1  -2   8   12.81    8.74
  -1   2  -8   19.76    9.78
   1  -2   8   26.35    8.38
  -1   2  -7   80.40    8.65
   1  -2   7  108.86    9.11
   1  -2   7   77.92    8.09
  -1   2  -7   87.18    6.57
   1  -2   7   74.96    8.13
  -1   2  -7   98.37   10.30
   1  -2   7   97.45    8.50
  -1   2  -7   81.79    8.96
   1  -2   7   80.89    7.99
   1  -2   6  313.83    9.46
  -1   2  -6  319.30   10.58
  -1   2  -6  311.83   10.17
   1  -2   6  298.82    8.90
   1  -2   6  304.87   10.62
   1  -2   6  341.65   10.14
   1  -2   6  259.46   10.95
  -1   2  -6  305.67   11.40
   1  -2   6  278.31    9.49
   1  -2   6  337.71   10.62
  -1   2  -6  313.79    7.98
  -1   2  -5  275.96    9.33
   1  -2   5  340.65    9.29
  -1   2  -5  315.39    9.92
   1  -2   5  251.21    8.26
   1  -2   5  296.22   10.26
  -1   2  -5  314.59    7.20
   1  -2   5  253.86    8.65
  -1   2  -4  187.83    8.60
   1  -2   4  190.55   11.61
   1  -2   4  199.70    7.53
  -1   2  -3 1595.96   15.80
   1  -2   3 1587.44   14.16
   1  -2   2    5.01    3.41
   1  -2   2    9.52    7.50
   1  -2   2    1.98    5.54
   1  -2   1   24.53    3.94
   1  -2   1   11.66    3.58
   1  -2   0 1270.82   10.76
   1  -2   0 1263.36   11.61
   1  -2  -1 2478.13   14.27
   1  -2  -1 2403.11   14.38
   1  -2  -2    2.10    4.80
  -1   2   2   -0.84    4.75
   1  -2  -2   -0.90    4.48
   1  -2  -3 1324.70   14.65
   1  -2  -3 1406.13   15.44
   1  -2  -4 4737.89   27.70
  -1   2   4 4750.76   23.08
   1  -2  -4 4635.48   28.75
  -1   2   5   25.63    7.14
   1  -2  -5   11.57    6.21
   1  -2  -5   29.52    6.16
  -1   2   5    8.24    5.47
  -1   2   5   14.09    5.40
   1  -2  -5    9.02    6.54
  -1   2   6   78.74    8.57
  -1   2   6   75.23    6.91
   1  -2  -6   85.39    6.78
   1  -2  -6   82.54    8.69
  -1   2   6  106.12    7.07
   1  -2  -6   79.90    8.13
   1  -2  -7  541.79   13.97
  -1   2   7  527.06   14.65
  -1   2   7  511.79   11.97
  -1   2   7  492.89   11.64
  -1   2   7  561.28   12.44
   1  -2  -7  459.13   11.34
   1  -2  -7  477.00   12.98
  -1   2   8   11.96    9.14
   1  -2  -8   12.34    7.45
  -1   2   8   -7.55    7.64
  -1   2   8   10.75    7.63
   1  -2  -8   10.85    9.14
  -1   2   8   -9.41    7.27
   1  -2  -8    6.16    8.77
   1  -2  -9  473.25   15.76
   1  -2  -9  484.45   15.51
  -1   2   9  523.50   15.55
  -1   2   9  495.87   14.45
  -1   2   9  470.36   13.52
  -1   2   9  449.89   13.47
  -1   2  10  142.94   10.92
  -1   2  10  159.10   11.85
  -1   2  10  169.19   12.76
   1  -2 -10  135.86   10.81
   1  -2 -10  143.99   12.73
  -1   2  10  138.40   11.12
   1  -2 -10  154.52   13.27
  -1   2  11   86.50   10.48
   1  -2 -11   76.43   13.01
  -1   2  11   96.67   12.69
  -1   2  11   84.71   11.59
   1  -2 -11   83.37   11.01
  -1   2  11   74.67   11.05
   1  -2 -11  109.28   13.50
  -1   2  12   50.02   12.02
  -1   2  12   17.21   10.93
   1  -2 -12   34.28   12.78
   1  -2 -12   37.63   13.93
  -1   2  12    9.51   10.46
  -1   2  12   18.86   12.50
   1  -2 -12    5.97   10.67
   1  -2 -13   70.47   14.96
   1  -2 -13   69.96   14.53
   1  -2 -13   65.12   12.34
  -1   2  13   73.44   11.85
  -1   2  13   81.42   14.76
  -1   2  13   32.40   12.74
  -1   2  13   48.56   12.95
   1  -2 -14  212.28   18.25
  -1   2  14  248.53   17.08
  -1   2  14  223.03   18.28
   1  -2 -14  212.19   14.89
  -1   2  14  179.79   15.80
   1  -2 -14  219.93   18.46
  -1   2  14  181.59   14.49
   1  -2 -15   -2.74   17.15
  -1   2  15    2.32   12.25
  -1   2  15   14.44   14.66
  -1   2  15   22.87   16.57
   1  -2 -15   12.57   16.96
   1  -2 -15    6.38   12.93
  -1   2  15    9.14   13.50
  -1   2  16   50.29   16.23
  -1   2  16   27.54   18.57
   1  -2 -16   55.20   14.25
   1  -2 -16   13.24   18.09
  -1   2  16   29.94   13.22
  -1   2  16   -6.13   14.82
   1  -2 -16   40.68   17.74
   1  -2 -17   22.89   19.69
  -1   2  17   41.85   16.35
  -1   2  17   27.10   17.55
  -1   2  18   49.18   18.05
  -1   2  18   17.45   17.97
   1  -1  18   54.86   18.02
   1  -1  18   77.99   17.53
   1  -1  17   41.64   15.97
  -1   1 -17   52.62   19.40
   1  -1  17   56.75   16.68
   1  -1  17   76.15   16.84
  -1   1 -16   86.47   17.59
   1  -1  16  112.79   16.24
   1  -1  16   91.61   16.26
   1  -1  16  110.21   16.59
  -1   1 -15   83.19   16.36
   1  -1  15   49.88   14.64
   1  -1  15   52.66   14.52
   1  -1  15   36.03   14.17
  -1   1 -14  112.72   15.99
   1  -1  14  140.91   14.65
   1  -1  14  125.17   15.29
  -1   1 -13  285.03   17.42
   1  -1  13  293.12   15.89
   1  -1  13  289.46   16.27
  -1   1 -12  132.18   14.04
   1  -1  12  176.58   13.68
   1  -1  12  141.51   13.01
   1  -1  12  171.58   13.87
   1  -1  11  248.57   13.44
   1  -1  11  284.27   13.89
  -1   1 -11  214.87    9.71
   1  -1  11  267.28   14.02
   1  -1  11  287.43   13.72
  -1   1 -11  212.82   14.32
  -1   1 -10  353.30   14.98
   1  -1  10  363.04   13.61
   1  -1  10  366.94   13.77
   1  -1  10  368.57   13.95
  -1   1 -10  362.12   16.05
   1  -1  10  346.04   13.72
  -1   1 -10  324.39   10.14
   1  -1   9   40.30    9.19
  -1   1  -9   70.35    9.48
  -1   1  -9   60.00   10.22
   1  -1   9   45.74    8.85
   1  -1   9   52.97    9.32
   1  -1   9   56.37    9.09
  -1   1  -9   71.27   11.06
   1  -1   9   66.77    9.91
  -1   1  -9   56.78    7.02
  -1   1  -9   52.03    9.87
   1  -1   9   81.79    9.64
  -1   1  -8  344.30   12.15
  -1   1  -8  399.91   12.13
  -1   1  -8  352.52   13.20
  -1   1  -8  353.28    9.13
   1  -1   8  355.25   11.38
   1  -1   8  364.21   12.00
   1  -1   8  429.65   12.99
   1  -1   8  342.60   11.82
  -1   1  -8  430.83   14.02
   1  -1   8  401.25   11.72
   1  -1   8  333.00   11.81
  -1   1  -7   30.85    7.41
   1  -1   7   33.91    7.29
  -1   1  -7   34.00    7.63
   1  -1   7   33.31    6.01
   1  -1   7   45.81    7.05
   1  -1   7   23.23    7.03
   1  -1   7   26.82    7.16
  -1   1  -7   30.45    8.10
  -1   1  -7   30.29    5.46
   1  -1   7   40.20    7.10
   1  -1   7   39.61    7.54
   1  -1   6   64.14    6.89
   1  -1   6   52.20    5.49
  -1   1  -6   68.91    8.84
   1  -1   6   64.00    6.64
   1  -1   6   40.36    5.52
   1  -1   6   65.11    7.02
  -1   1  -6   52.74    6.95
   1  -1   6   51.30    6.80
   1  -1   6   71.04    6.63
  -1   1  -6   61.60    5.03
  -1   1  -6   62.49    7.27
   1  -1   6   57.73    7.09
  -1   1  -5  480.36   10.78
  -1   1  -5  505.71   10.69
   1  -1   5  357.70   15.06
   1  -1   5  390.54   12.03
  -1   1  -5  450.90   12.25
   1  -1   5  416.26    9.05
   1  -1   5  476.40    9.97
  -1   1  -4  405.72   11.96
  -1   1  -4  362.73    9.72
   1  -1   4  370.61   13.78
   1  -1   4  444.33    8.63
   1  -1   4  443.91    7.92
   1  -1   3 6040.82   21.80
   1  -1   3 5002.17   19.31
   1  -1   2 1000.95    6.78
   1  -1   2  841.60    6.33
  -1   1   0  216.40    7.00
   1  -1  -1 1594.64   10.08
   1  -1  -1  996.65    7.19
   1  -1  -2 1368.66   11.36
   1  -1  -2 1831.75   14.19
   1  -1  -3  621.81    9.44
   1  -1  -3  545.93    9.04
  -1   1   4   94.95    7.85
   1  -1  -4   76.76    5.21
  -1   1   4   92.76    5.99
  -1   1   5   71.57    7.95
   1  -1  -5   65.63    7.28
  -1   1   5   47.93    5.93
   1  -1  -5   77.36    5.98
   1  -1  -5   45.95    6.37
  -1   1   6   17.24    6.03
  -1   1   6   14.64    7.35
  -1   1   6   20.44    5.94
   1  -1  -6   36.00    6.01
   1  -1  -6   33.18    7.55
   1  -1  -6   22.03    7.33
   1  -1  -7  243.60   10.75
  -1   1   7  223.14   10.78
  -1   1   7  203.63    9.42
  -1   1   7  225.81    9.27
   1  -1  -7  190.17    8.97
  -1   1   7  206.63    8.94
   1  -1  -7  220.32   10.45
   1  -1  -8  648.42   15.84
  -1   1   8  646.64   15.66
  -1   1   8  582.54   13.75
  -1   1   8  601.35   13.37
   1  -1  -8  597.59   13.29
   1  -1  -8  680.26   14.27
  -1   1   8  632.73   14.18
   1  -1  -8  594.55   15.31
   1  -1  -9 1291.38   22.17
  -1   1   9 1276.98   21.02
   1  -1  -9 1307.50   22.00
  -1   1   9 1298.89   19.41
  -1   1   9 1346.22   22.21
   1  -1  -9 1326.65   19.60
   1  -1 -10  686.30   19.02
  -1   1  10  686.18   17.29
  -1   1  10  644.98   15.74
   1  -1 -10  674.81   16.29
   1  -1 -10  645.56   18.36
  -1   1  10  645.16   16.73
   1  -1 -11   24.39   12.05
   1  -1 -11   46.50   10.37
  -1   1  11   36.40   12.04
  -1   1  11   36.62   10.46
  -1   1  11   27.41   10.71
   1  -1 -11   42.89   12.11
  -1   1  11   33.36    9.61
  -1   1  12  295.19   14.94
   1  -1 -12  318.04   17.46
   1  -1 -12  328.78   16.98
  -1   1  12  328.70   16.97
   1  -1 -12  283.93   14.64
  -1   1  12  284.14   14.22
  -1   1  12  334.13   16.10
   1  -1 -13   34.53   14.72
   1  -1 -13   31.33   14.14
  -1   1  13   20.27   13.76
   1  -1 -13   27.72   11.78
  -1   1  13    7.63   10.84
  -1   1  13   19.77   12.47
  -1   1  13    5.33   12.80
  -1   1  14   28.26   15.55
   1  -1 -14   33.25   15.93
  -1   1  14   26.11   11.73
  -1   1  14    9.09   13.25
   1  -1 -14   12.92   12.99
   1  -1 -14   44.13   15.35
  -1   1  14   44.22   13.97
   1  -1 -15  100.33   17.98
   1  -1 -15   89.49   14.28
  -1   1  15  123.67   18.33
  -1   1  15   76.80   13.08
  -1   1  15  130.20   15.47
   1  -1 -15  128.15   18.66
  -1   1  15   92.08   16.12
  -1   1  16   44.97   18.66
  -1   1  16   24.94   13.37
   1  -1 -16    2.72   13.72
   1  -1 -16   15.13   18.46
  -1   1  16   37.42   16.45
  -1   1  16   38.34   18.27
   1  -1 -16  -11.64   17.52
  -1   1  16   18.14   15.11
  -1   1  17   11.46   15.71
  -1   1  17   37.89   17.82
   1  -1 -17   41.93   20.49
  -1   1  17   16.14   13.25
  -1   1  18   14.12   18.07
  -1   1  18   12.76   17.35
   1   0  18   16.43   16.83
   1   0  18   18.95   17.07
   1   0  18   53.14   17.51
  -1   0 -17   15.48   17.80
   1   0  17   48.61   16.51
   1   0  17    4.53   14.99
   1   0  17    9.64   15.37
  -1   0 -16  112.38   17.94
   1   0  16  182.39   18.22
   1   0  16  134.88   16.49
   1   0  16  191.53   17.45
   1   0  15  181.68   16.31
   1   0  15  164.80   16.27
   1   0  15  214.43   16.92
  -1   0 -15  169.62   17.77
  -1   0 -14   16.18   14.03
   1   0  14   43.23   13.55
   1   0  14   18.37   13.00
   1   0  14   14.81   12.71
   1   0  13   44.54   12.41
  -1   0 -13   29.79   13.85
   1   0  13   44.67   12.69
   1   0  13   37.02   12.26
  -1   0 -12   20.93   12.11
   1   0  12   12.56   10.85
   1   0  12   16.05   10.59
   1   0  12    5.41   11.12
   1   0  11   29.35   10.38
   1   0  11   50.09   10.60
  -1   0 -11   27.74    7.37
   1   0  11   65.06   11.40
   1   0  11   47.85   10.68
  -1   0 -11   46.70   11.64
   1   0  10   20.99    9.55
   1   0  10   -1.68    9.08
  -1   0 -10    6.48    6.60
   1   0  10    6.78    8.98
  -1   0 -10   23.64   12.03
  -1   0 -10   19.81    9.97
   1   0  10   -2.02    9.12
  -1   0  -9  303.59   12.12
  -1   0  -9  289.94   12.59
   1   0   9  308.10   11.66
   1   0   9  334.29   12.20
  -1   0  -9  338.73   14.42
  -1   0  -9  325.01   13.09
   1   0   9  330.50   12.47
   1   0   9  326.82   11.84
  -1   0  -9  284.97    8.68
  -1   0  -8   98.20    9.10
  -1   0  -8  122.37   10.07
   1   0   8  112.36    8.54
   1   0   8  110.21    8.69
   1   0   8   93.27    8.64
  -1   0  -8  125.08   10.55
  -1   0  -8  114.32    6.52
   1   0   7   13.37    6.69
  -1   0  -7   -2.45    6.96
   1   0   7    3.88    6.33
   1   0   7    3.33    6.42
   1   0   7    4.03    6.29
   1   0   7    1.80    5.01
  -1   0  -7    5.32    4.67
  -1   0  -7   11.06    7.04
  -1   0  -7    3.91    8.13
   1   0   7    3.56    5.23
   1   0   6  168.36    7.02
   1   0   6  190.09    8.20
   1   0   6  149.58    7.10
  -1   0  -6  163.00    9.32
  -1   0  -6  195.39    8.39
  -1   0  -6  194.65    5.71
   1   0   6  202.34    8.40
   1   0   6  174.28    8.14
   1   0   6  218.80    7.82
  -1   0  -6  181.37    8.39
   1   0   5   55.38    4.98
  -1   0  -5   56.66    7.20
   1   0   5   43.33    5.09
  -1   0  -5   43.78    6.33
  -1   0  -5   55.18    6.15
   1   0   5   64.58    6.28
   1   0   4  129.64    7.91
   1   0   4  263.04    6.72
   1   0   4  152.07   11.86
   1   0   4  220.86    6.24
  -1   0  -4  215.03    8.86
   1   0   3 4782.90   15.61
   1   0   3 4590.55   15.70
  -1   0  -2 2415.44   22.76
  -1   0  -1  667.94   16.73
   1   0   1 1824.55    7.19
  -1   0   0 2106.45   12.15
   1   0   0 2135.14   12.04
   1   0  -2 2152.45   12.69
   1   0  -2 1982.88   13.55
   1   0  -3    2.90    4.70
   1   0  -3   12.38    4.04
  -1   0   4  181.28    8.72
   1   0  -4  209.74    7.07
   1   0  -4  168.81    7.07
  -1   0   4  201.09    6.79
   1   0  -5  550.05   11.26
  -1   0   5  479.61    9.45
  -1   0   5  427.19   12.31
   1   0  -5  418.48   10.36
   1   0  -5  552.84    9.14
   1   0  -5  529.95   10.04
   1   0  -6  201.28    9.30
  -1   0   6  215.54    9.79
   1   0  -6  229.93    7.64
   1   0  -6  184.93    9.38
  -1   0   6  214.80    8.43
  -1   0   6  217.75    8.14
   1   0  -6  239.86    8.36
   1   0  -7  386.09   12.20
   1   0  -7  360.87   12.16
  -1   0   7  373.76   10.97
  -1   0   7  358.73   10.25
  -1   0   7  366.50   11.20
  -1   0   7  359.32   12.15
   1   0  -7  334.45   10.68
   1   0  -7  362.47    9.14
   1   0  -8  930.72   16.12
   1   0  -8  841.59   17.34
   1   0  -8  866.71   17.43
  -1   0   8  867.54   16.44
  -1   0   8  940.37   17.49
  -1   0   8  838.79   15.07
  -1   0   8  821.89   15.92
   1   0  -9    1.17    8.52
   1   0  -9   27.27   10.87
  -1   0   9    3.14    8.53
  -1   0   9  -10.81    8.66
  -1   0   9    7.97    9.90
  -1   0   9    8.72    8.10
   1   0  -9   -8.11    9.88
   1   0 -10  443.22   16.61
  -1   0  10  405.22   14.52
  -1   0  10  417.73   13.63
  -1   0  10  501.12   15.57
  -1   0  10  492.97   16.40
   1   0 -10  451.91   14.69
   1   0 -10  423.95   15.73
   1   0 -11  107.30   11.63
  -1   0  11  142.52   12.27
   1   0 -11  110.61   13.34
  -1   0  11  113.39   11.05
  -1   0  11  132.12   13.54
   1   0 -11  150.09   14.16
  -1   0  11  120.84   11.86
   1   0 -12   68.62   13.58
  -1   0  12   63.91   13.64
   1   0 -12   70.87   14.59
   1   0 -12   50.26   11.58
  -1   0  12   48.35   11.87
  -1   0  12   54.63   11.18
  -1   0  12   74.93   12.53
   1   0 -13   58.89   14.93
   1   0 -13   61.18   15.02
   1   0 -13   37.93   12.36
  -1   0  13   82.35   13.46
  -1   0  13   68.57   13.93
  -1   0  13   19.60   11.22
  -1   0  13   81.99   15.52
  -1   0  14  148.22   16.22
   1   0 -14   96.45   17.27
   1   0 -14  101.16   13.82
  -1   0  14  110.84   13.13
   1   0 -14  110.78   16.95
  -1   0  14  131.57   15.02
  -1   0  14  121.94   17.37
   1   0 -15   27.54   17.46
  -1   0  15   18.61   12.53
   1   0 -15  -10.89   12.92
  -1   0  15   32.13   15.66
  -1   0  15   26.22   16.80
  -1   0  15   46.84   17.40
   1   0 -15   16.93   16.56
  -1   0  15   58.27   14.91
  -1   0  16    7.08   12.80
   1   0 -16  -14.64   17.85
  -1   0  16   18.38   17.94
   1   0 -16   43.32   14.64
   1   0 -16   39.30   18.36
  -1   0  16   36.81   17.00
  -1   0  16   18.90   18.19
  -1   0  16  -12.06   14.95
  -1   0  17   16.36   17.09
  -1   0  17   11.66   13.19
  -1   0  17   30.72   16.23
  -1   0  18   55.88   19.32
   1   1  19   23.82   18.81
   1   1  18   30.85   17.11
   1   1  18   52.89   16.77
   1   1  18   38.27   16.86
   1   1  17   79.93   16.88
   1   1  17  136.49   17.44
   1   1  17  116.36   17.25
  -1  -1 -17  103.41   19.77
   1   1  16   24.38   14.53
  -1  -1 -16    0.45   16.09
   1   1  16   43.31   15.29
   1   1  16   14.16   14.31
  -1  -1 -15  150.95   17.59
   1   1  15  179.90   16.56
   1   1  15  196.74   16.98
   1   1  15  183.03   16.37
   1   1  14  107.71   14.59
  -1  -1 -14   69.72   15.02
   1   1  14   70.37   13.89
   1   1  14   78.57   13.36
  -1  -1 -13   23.18   12.83
   1   1  13   22.23   11.79
   1   1  13    8.64   11.62
   1   1  13    8.40   12.19
   1   1  12   28.29   11.11
   1   1  12   50.04   11.33
   1   1  12   41.85   10.97
  -1  -1 -12   28.45   12.24
  -1  -1 -11   10.12    7.09
  -1  -1 -11    3.32   12.64
   1   1  11    1.84    9.94
   1   1  11   25.78   10.59
   1   1  11    5.56    9.78
   1   1  11   18.56    9.63
  -1  -1 -11    5.76   10.80
  -1  -1 -10   23.55    9.60
   1   1  10    2.71    8.87
   1   1  10   22.26    9.23
   1   1  10    3.57    8.75
  -1  -1 -10   15.92   10.20
  -1  -1 -10   16.39    6.39
  -1  -1 -10   34.44   10.96
   1   1  10    1.35    8.79
   1   1   9  141.50    9.83
  -1  -1  -9  111.97    9.81
  -1  -1  -9  134.26   11.45
  -1  -1  -9  116.73    7.03
  -1  -1  -9  126.82   10.54
   1   1   9  132.20    9.64
  -1  -1  -9  123.39   10.42
   1   1   9  139.14    9.87
   1   1   9  139.83    9.66
  -1  -1  -8  605.05   14.61
   1   1   8  582.16   12.60
   1   1   8  613.64   13.81
   1   1   8  663.34   13.32
  -1  -1  -8  582.77    9.55
   1   1   8  656.06   13.28
  -1  -1  -8  628.37   16.05
  -1  -1  -8  602.88   14.05
   1   1   7  227.08    8.30
  -1  -1  -7  227.08    9.27
  -1  -1  -7  229.80   11.25
   1   1   7  231.31    9.02
   1   1   7  227.01    9.06
  -1  -1  -7  224.98    9.78
   1   1   7  231.89    8.82
   1   1   7  220.04    7.67
  -1  -1  -6  587.39    7.49
   1   1   6  490.42   10.44
   1   1   6  550.71   11.67
  -1  -1  -6  569.37   11.09
  -1  -1  -6  529.64   14.37
   1   1   6  579.69   10.42
   1   1   6  539.73   10.20
  -1  -1  -6  606.70   12.18
   1   1   5 3062.90   20.95
  -1  -1  -5 3166.56   20.92
  -1  -1  -5 3294.73   29.39
  -1  -1  -5 3190.13   20.31
   1   1   5 2954.67   21.22
   1   1   4 1734.35   12.79
  -1  -1  -4 1832.45   21.73
  -1  -1  -3 6916.87   36.12
   1   1   3 6700.11   17.99
  -1  -1  -2 9999.00   41.85
  -1  -1  -1 1995.33   19.93
  -1  -1   0    5.06    4.04
   1   1  -1  371.00    4.69
   1   1  -1  338.54    5.37
  -1  -1   2 1024.07   17.11
   1   1  -2 1221.52   11.33
  -1  -1   3  280.66    9.20
   1   1  -3  303.43    8.07
   1   1  -4  166.03    6.98
  -1  -1   4  163.19    8.81
  -1  -1   4  124.98    8.14
  -1  -1   4  171.55    6.66
   1   1  -4  152.99    4.61
   1   1  -4  188.01    8.36
   1   1  -4  139.92    7.25
  -1  -1   5  284.60   10.64
   1   1  -5  282.87    6.16
   1   1  -5  302.00    8.95
   1   1  -5  258.32    9.06
   1   1  -5  337.89   10.13
  -1  -1   5  318.13    8.37
   1   1  -5  293.11    9.93
  -1  -1   5  351.86    9.26
  -1  -1   6   37.67    6.59
  -1  -1   6   42.38    6.32
   1   1  -6   37.71    7.75
  -1  -1   6   39.30    7.60
   1   1  -6   31.43    5.11
   1   1  -6   51.27    6.99
   1   1  -6   44.76    7.37
   1   1  -7   63.02    9.11
   1   1  -7   64.68    7.95
   1   1  -7   74.17    9.02
  -1  -1   7   61.28    7.36
  -1  -1   7   68.43    8.73
  -1  -1   7   53.39    7.73
  -1  -1   7   78.23    8.13
   1   1  -8  512.38   14.59
   1   1  -8  552.37   13.66
  -1  -1   8  504.39   13.61
  -1  -1   8  531.50   13.66
  -1  -1   8  533.83   15.42
   1   1  -8  477.31   14.94
  -1  -1   8  467.85   12.31
   1   1  -9  331.28   12.75
   1   1  -9  299.42   13.54
   1   1  -9  326.27   14.59
  -1  -1   9  346.74   13.08
  -1  -1   9  347.03   14.40
  -1  -1   9  312.38   11.86
  -1  -1   9  327.08   12.87
   1   1 -10  349.97   13.97
  -1  -1  10  355.30   14.47
  -1  -1  10  368.04   15.59
   1   1 -10  353.74   15.27
  -1  -1  10  312.39   12.70
  -1  -1  10  311.99   13.68
   1   1 -10  317.97   15.89
   1   1 -11   11.46   11.72
   1   1 -11    2.53   11.94
  -1  -1  11   16.51    9.76
  -1  -1  11   30.16   12.65
  -1  -1  11    5.26   10.43
   1   1 -11   15.47   10.71
  -1  -1  11   16.21   10.72
   1   1 -12  159.43   15.35
   1   1 -12  118.00   12.85
  -1  -1  12  108.76   11.88
  -1  -1  12  128.12   13.49
  -1  -1  12  173.14   15.98
  -1  -1  12  119.83   13.24
   1   1 -12  158.60   15.77
   1   1 -13   13.46   14.03
  -1  -1  13   46.22   14.91
  -1  -1  13   47.00   13.70
  -1  -1  13   21.77   14.25
   1   1 -13   25.54   12.13
  -1  -1  13    1.35   11.09
   1   1 -13   24.90   14.73
  -1  -1  13  -10.61   12.34
  -1  -1  14   37.45   11.70
  -1  -1  14   12.63   15.90
   1   1 -14   25.21   15.81
  -1  -1  14   37.35   14.54
  -1  -1  14   44.28   16.28
   1   1 -14   -1.22   12.53
   1   1 -14    9.17   15.53
  -1  -1  14   23.56   13.57
  -1  -1  15  116.81   13.91
   1   1 -15  123.72   18.58
   1   1 -15   77.76   17.78
   1   1 -15  118.75   14.86
  -1  -1  15   96.09   16.48
  -1  -1  15  147.04   18.75
  -1  -1  15  112.18   15.66
   1   1 -16   59.48   18.98
  -1  -1  16   60.82   13.17
   1   1 -16   63.28   15.06
  -1  -1  16   42.90   18.81
  -1  -1  16   69.39   16.91
  -1  -1  16   97.76   16.19
   1   1 -16   86.21   19.56
  -1  -1  17   49.27   16.44
  -1  -1  17   44.97   13.35
  -1  -1  17   47.34   18.08
  -1  -1  18   60.82   19.72
   1   2  19   36.04   18.90
   1   2  18   46.22   17.37
   1   2  18   42.05   17.07
   1   2  18   43.96   17.04
   1   2  17    7.08   15.60
  -1  -2 -17   14.30   17.74
   1   2  17   15.58   15.53
   1   2  17   18.64   16.34
   1   2  16   35.34   15.23
   1   2  16   20.74   14.61
   1   2  16   27.21   14.85
  -1  -2 -16   14.04   16.50
   1   2  15   29.62   14.35
   1   2  15   37.69   14.33
   1   2  15   14.33   13.61
  -1  -2 -15   40.54   15.31
   1   2  14   26.36   13.39
   1   2  14   31.13   12.65
  -1  -2 -14   24.25   14.27
   1   2  14   33.27   12.73
   1   2  13   52.64   12.82
   1   2  13   55.76   12.26
   1   2  13   62.38   12.37
  -1  -2 -13   51.03   13.73
   1   2  12   22.18   10.73
   1   2  12    2.05   11.29
  -1  -2 -12   11.06   12.66
   1   2  12   18.97   10.69
   1   2  11    8.21    9.73
   1   2  11   13.17   10.12
  -1  -2 -11    3.83    6.46
  -1  -2 -11    7.04   10.83
   1   2  11   -2.42    9.43
  -1  -2 -10    6.26    6.32
   1   2  10    5.34    8.85
   1   2  10   11.17    8.71
  -1  -2 -10   17.67   12.28
  -1  -2 -10   15.13   10.24
   1   2  10    6.50    9.14
   1   2  10   -2.67    8.49
  -1  -2 -10    9.59    9.73
  -1  -2  -9  859.95   18.30
   1   2   9  844.02   15.83
   1   2   9  790.88   15.32
   1   2   9  855.89   16.01
   1   2   9  844.89   16.32
  -1  -2  -9  879.82   16.86
  -1  -2  -9  831.26   17.20
  -1  -2  -8  515.65   13.75
   1   2   8  524.11   12.78
  -1  -2  -8  504.37    9.09
   1   2   8  504.14   11.88
   1   2   8  502.93   12.00
   1   2   8  483.48   13.03
  -1  -2  -8  505.25   13.10
  -1  -2  -7  249.87   10.02
  -1  -2  -7  278.99   12.47
  -1  -2  -7  207.70    6.22
   1   2   7  217.37    9.47
   1   2   7  225.61    9.20
   1   2   7  259.83    8.76
   1   2   7  215.22    9.03
   1   2   7  257.65    8.22
   1   2   7  220.33    8.45
  -1  -2  -7  231.15    9.51
  -1  -2  -6   45.26    6.48
   1   2   6   41.54    5.16
  -1  -2  -6   35.81    4.04
   1   2   6   39.28    6.06
   1   2   6   37.16    6.28
   1   2   6   31.13    6.32
  -1  -2  -6   27.28    6.32
   1   2   6   51.27    5.93
  -1  -2  -5   30.53    5.80
  -1  -2  -5   42.10    6.20
   1   2   5   44.96    4.80
   1   2   5   32.58    4.90
   1   2   5   32.57    5.13
   1   2   4  509.30    8.41
  -1  -2  -4  482.47    9.28
   1   2   4  489.99    8.52
   1   2   3 3171.87   14.56
   1   2   3 2878.93   18.31
   1   2   2 6758.26   16.23
   1   2   2 6627.07   20.88
   1   2   1 6637.38   11.92
   1   2   1 6220.32   17.94
   1   2   0 1744.58   12.94
   1   2   0 1832.93   10.44
   1   2  -1   56.10    4.10
  -1  -2   1   55.79    5.52
   1   2  -1   42.43    4.61
   1   2  -2   58.50    4.86
  -1  -2   2   65.88    6.48
   1   2  -2   50.63    5.07
   1   2  -3 1314.63   15.20
  -1  -2   3 1422.18   19.06
  -1  -2   3 1262.07   17.09
  -1  -2   3 1330.86    7.07
  -1  -2   3 1218.40   17.15
   1   2  -3 1167.89   14.45
   1   2  -4 3331.67   23.23
   1   2  -4 3566.12   23.76
  -1  -2   4 3283.31   28.55
   1   2  -4 3192.29   22.65
  -1  -2   4 2959.18   28.02
   1   2  -4 2938.50   24.99
  -1  -2   4 3046.85   19.74
   1   2  -5  408.95   11.68
  -1  -2   5  403.57   12.38
   1   2  -5  457.74   11.62
  -1  -2   5  443.12    9.70
   1   2  -5  453.86   10.56
  -1  -2   5  444.93   10.26
   1   2  -5  371.36   10.92
  -1  -2   5  422.01   12.53
   1   2  -6   11.68    7.94
   1   2  -6    9.55    7.47
  -1  -2   6    1.87    6.67
  -1  -2   6   -5.68    6.53
   1   2  -6   17.68    6.69
  -1  -2   6   16.89    7.74
  -1  -2   6    8.69    7.51
  -1  -2   6   13.41    6.29
   1   2  -7   18.29    8.43
  -1  -2   7   13.12    6.91
  -1  -2   7   28.85    7.95
   1   2  -7    8.76    8.64
  -1  -2   7    2.32    8.55
   1   2  -7    6.64    7.68
  -1  -2   7    8.45    8.47
  -1  -2   7    4.76    7.36
   1   2  -8    3.50    9.39
   1   2  -8   -6.05    9.22
  -1  -2   8   20.44   10.02
  -1  -2   8    4.72    8.41
  -1  -2   8    2.65    7.95
   1   2  -8    5.45    8.74
  -1  -2   8   12.63    7.78
   1   2  -9    5.09   10.17
  -1  -2   9   16.80    8.63
   1   2  -9   23.28    9.47
  -1  -2   9   37.46    9.86
  -1  -2   9   25.67   10.82
   1   2  -9   46.45   11.06
  -1  -2   9    9.00    8.95
  -1  -2   9   49.00   11.31
   1   2 -10  173.83   13.79
  -1  -2  10  190.57   12.40
  -1  -2  10  193.20   13.25
  -1  -2  10  206.38   14.34
   1   2 -10  207.56   14.15
  -1  -2  10  192.32   11.21
  -1  -2  10  205.39   14.06
   1   2 -10  195.05   12.75
   1   2 -11   34.81   12.97
   1   2 -11   34.48   13.17
  -1  -2  11   29.72   11.73
  -1  -2  11   41.32   10.87
  -1  -2  11   26.19   12.62
   1   2 -11    9.70   10.74
  -1  -2  11   34.58   10.00
  -1  -2  11   26.83   12.76
  -1  -2  12   38.01   10.61
   1   2 -12   70.69   12.51
  -1  -2  12   71.25   14.18
  -1  -2  12   37.52   14.09
  -1  -2  12   86.03   13.37
   1   2 -12   54.12   14.46
   1   2 -12   47.34   13.72
  -1  -2  12   55.02   12.32
   1   2 -13   -8.44   14.69
   1   2 -13    2.94   14.48
  -1  -2  13    6.30   13.44
  -1  -2  13   21.90   14.49
  -1  -2  13   20.55   11.12
   1   2 -13   15.28   12.41
  -1  -2  13   21.41   12.22
   1   2 -14    3.37   15.84
  -1  -2  14   51.06   15.39
  -1  -2  14   16.79   13.39
  -1  -2  14   34.06   16.35
  -1  -2  14   33.48   11.95
   1   2 -14   42.06   13.59
   1   2 -14    9.75   15.89
   1   2 -15   15.13   17.10
  -1  -2  15   38.66   16.03
  -1  -2  15   50.31   12.30
  -1  -2  15   27.61   14.28
  -1  -2  15   74.88   18.28
   1   2 -15   39.34   14.27
   1   2 -15   16.58   17.40
   1   2 -16   33.41   18.17
   1   2 -16   96.15   20.94
  -1  -2  16  103.33   16.85
   1   2 -16  106.38   16.03
  -1  -2  16   69.91   17.48
  -1  -2  16   87.76   19.89
  -1  -2  16   52.35   12.92
  -1  -2  17  175.20   18.80
  -1  -2  17  216.12   21.15
  -1  -2  17  190.40   15.63
   1   3  19   41.92   19.12
   1   3  18   25.17   17.72
   1   3  18   25.88   16.87
   1   3  18    2.34   16.36
   1   3  17   40.92   16.21
  -1  -3 -17   90.58   19.35
   1   3  17   56.99   16.10
   1   3  17   50.62   16.30
  -1  -3 -16   70.57   17.26
   1   3  16   53.66   15.24
   1   3  16   39.27   15.93
   1   3  16   12.28   14.15
  -1  -3 -15   41.69   15.36
   1   3  15   34.61   13.93
   1   3  15    8.86   13.53
   1   3  15   43.23   14.42
   1   3  14   43.62   13.45
   1   3  14   73.95   13.82
  -1  -3 -14   30.02   14.15
   1   3  14   40.02   13.76
  -1  -3 -13   14.45   13.09
   1   3  13    4.74   11.49
   1   3  13  -14.24   11.80
   1   3  13   18.53   12.31
  -1  -3 -12   12.13   12.19
   1   3  12   22.77   11.24
   1   3  12   22.52   10.99
   1   3  12   15.98   10.76
   1   3  11   39.66   10.22
   1   3  11   32.93   10.25
  -1  -3 -11   23.67    6.51
   1   3  11   50.10   10.66
  -1  -3 -11   47.52   11.34
   1   3  10  130.74   10.84
   1   3  10  137.29   11.31
  -1  -3 -10  140.07   12.13
  -1  -3 -10  135.19   11.50
   1   3  10  129.37   10.37
   1   3  10  141.14   10.69
  -1  -3 -10  123.91    7.24
  -1  -3  -9   35.68    9.42
   1   3   9   46.12    8.89
   1   3   9   41.76    8.84
  -1  -3  -9   46.01   12.64
  -1  -3  -9   35.94    5.85
   1   3   9   25.47    8.26
   1   3   9   24.47    8.78
  -1  -3  -9   52.45   10.07
  -1  -3  -8  305.33   12.00
   1   3   8  296.87   10.86
   1   3   8  336.67   11.68
   1   3   8  313.24   11.51
   1   3   8  302.44   10.56
  -1  -3  -8  303.35   11.63
  -1  -3  -8  298.92    7.47
   1   3   7  325.77    9.69
   1   3   7  271.39   10.57
   1   3   7  288.39   10.47
  -1  -3  -7  293.77   10.67
   1   3   7  286.28    9.27
   1   3   7  313.26    8.41
  -1  -3  -7  264.82    6.43
  -1  -3  -7  283.69   10.31
   1   3   6  203.99    7.64
  -1  -3  -6  212.29    8.68
   1   3   6  218.97    9.80
  -1  -3  -6  205.03    5.31
   1   3   6  209.07    8.98
   1   3   6  225.33    7.94
  -1  -3  -6  220.77    8.79
   1   3   6  195.25    7.63
   1   3   6  207.04    7.02
  -1  -3  -5  111.70    7.22
  -1  -3  -5  123.19    7.50
   1   3   5  117.93    6.56
   1   3   5  102.72    5.40
   1   3   4  259.62    6.65
   1   3   4  271.81    7.49
  -1  -3  -4  294.99    7.75
  -1  -3  -3   51.78    4.12
   1   3   3   43.52    4.27
   1   3   3   45.25    3.67
   1   3   3   45.82    3.69
  -1  -3  -3   54.01    6.53
   1   3   2  528.80    7.59
   1   3   2  510.23    7.35
   1   3   1   -1.70    3.29
   1   3   1    6.15    4.11
   1   3   0 2004.70   15.25
   1   3   0 2000.46   15.88
   1   3  -1 1251.15   14.47
  -1  -3   1 1188.40   15.38
   1   3  -1 1215.82   13.25
   1   3  -2 2326.91   18.95
  -1  -3   2 2350.42   24.14
  -1  -3   3   16.50    4.69
  -1  -3   3   24.89    6.31
   1   3  -3   24.74    6.95
   1   3  -3   19.26    5.35
  -1  -3   3    4.49    6.34
   1   3  -3   14.26    5.94
  -1  -3   4  186.26    5.29
   1   3  -4  181.02    9.02
  -1  -3   4  161.08    7.56
   1   3  -4  202.83    8.93
  -1  -3   4  168.73    9.44
  -1  -3   4  207.25    9.36
   1   3  -4  183.89    8.30
  -1  -3   4  177.67    6.86
  -1  -3   5  108.37    5.64
   1   3  -5  113.61    8.77
   1   3  -5  105.08    8.82
  -1  -3   5  116.74    9.11
   1   3  -5   88.76    7.79
  -1  -3   5   93.13    9.00
  -1  -3   5  106.16    7.51
  -1  -3   5  106.77    6.81
  -1  -3   6   69.24    9.13
  -1  -3   6   77.75    8.17
   1   3  -6   71.03    8.51
  -1  -3   6   47.42    6.79
  -1  -3   6   81.44    9.05
   1   3  -6   77.22    9.01
  -1  -3   6   41.71    7.20
   1   3  -6   63.51    8.85
   1   3  -7  196.98   11.66
  -1  -3   7  201.57    9.41
  -1  -3   7  229.15   10.97
   1   3  -7  272.89   11.45
  -1  -3   7  257.62   12.20
   1   3  -7  241.94   12.10
  -1  -3   7  275.67   13.20
  -1  -3   7  227.24   10.57
   1   3  -8   12.27   10.19
   1   3  -8    9.32    9.76
  -1  -3   8    8.40    8.94
  -1  -3   8   15.56   10.16
   1   3  -8   -6.83    9.12
  -1  -3   8   -3.30   10.23
  -1  -3   8   16.97    7.72
  -1  -3   8    5.30    8.62
  -1  -3   9   53.86    9.18
   1   3  -9   52.75   11.23
  -1  -3   9   48.55   10.16
  -1  -3   9   91.06   12.12
   1   3  -9   63.20   11.87
   1   3  -9   58.08   10.67
  -1  -3   9   67.84   10.24
   1   3 -10   -2.60   11.80
   1   3 -10    9.91   12.09
  -1  -3  10   30.78   12.11
  -1  -3  10    8.08    9.96
  -1  -3  10   23.01   10.83
  -1  -3  10    3.50    8.99
   1   3 -10    1.46   10.45
   1   3 -11   23.34   13.34
   1   3 -11   -2.39   12.16
  -1  -3  11    4.12   10.63
  -1  -3  11   19.17   12.88
   1   3 -11   -1.38   11.33
  -1  -3  11    1.40   11.46
  -1  -3  11   29.28   10.31
   1   3 -12   18.26   14.31
  -1  -3  12   15.30   12.62
  -1  -3  12   18.77   14.28
  -1  -3  12   21.27   11.84
   1   3 -12   20.82   14.45
  -1  -3  12   22.01   10.44
   1   3 -12   21.05   12.52
   1   3 -13  131.27   17.28
   1   3 -13   98.94   16.46
  -1  -3  13  108.82   12.42
  -1  -3  13  103.52   15.59
  -1  -3  13  162.76   17.65
   1   3 -13  112.40   14.39
  -1  -3  13   95.11   13.59
   1   3 -14  125.05   18.38
  -1  -3  14  101.55   16.72
  -1  -3  14  118.80   18.27
   1   3 -14  103.10   15.08
   1   3 -14  114.93   17.87
  -1  -3  14   68.61   12.05
  -1  -3  14   49.69   13.83
   1   3 -15   88.71   19.26
   1   3 -15  112.63   18.92
  -1  -3  15   77.14   18.82
  -1  -3  15   55.20   14.94
  -1  -3  15   96.49   17.51
  -1  -3  15   53.70   12.45
   1   3 -15   76.55   15.27
   1   3 -16   18.42   15.20
   1   3 -16  -14.39   19.02
  -1  -3  16   48.70   17.83
  -1  -3  16   50.24   20.70
  -1  -3  16   42.89   12.82
  -1  -3  16   16.68   15.58
   1   3 -16   30.74   18.71
  -1  -3  17   61.81   17.55
  -1  -3  17    8.29   17.86
   1   4  19   70.75   19.35
   1   4  18   85.51   18.15
   1   4  18   88.72   18.69
   1   4  18  111.03   18.66
  -1  -4 -17  118.79   20.13
   1   4  17  111.24   17.64
   1   4  17  118.58   17.27
   1   4  17  138.96   17.73
   1   4  16   31.66   14.36
   1   4  16   51.34   15.01
   1   4  16   11.55   15.20
  -1  -4 -16   31.15   17.08
  -1  -4 -15   23.75   15.08
   1   4  15   20.97   14.23
   1   4  15   21.63   13.62
   1   4  15   14.76   14.05
   1   4  14   17.82   13.17
  -1  -4 -14    5.95   13.98
   1   4  14    8.42   13.14
   1   4  14    0.34   12.82
   1   4  13  252.17   15.65
   1   4  13  231.16   15.27
   1   4  13  222.49   15.20
  -1  -4 -13  252.57   16.64
   1   4  12  230.10   14.04
   1   4  12  216.80   14.01
   1   4  12  204.86   13.92
  -1  -4 -12  211.74   15.11
   1   4  11  321.98   14.03
   1   4  11  352.56   14.71
  -1  -4 -11  324.74   15.47
   1   4  11  332.74   14.04
   1   4  10  247.03   12.01
   1   4  10  289.78   13.00
  -1  -4 -10  223.23    8.12
   1   4  10  270.61   13.13
  -1  -4 -10  251.50   13.27
   1   4  10  254.70   12.35
  -1  -4 -10  289.76   14.58
   1   4   9   19.60    9.26
  -1  -4  -9   23.04    9.75
   1   4   9    8.43    8.67
   1   4   9   41.18    9.20
  -1  -4  -9   -2.96    8.89
   1   4   9   -1.82    8.07
  -1  -4  -9   -4.09    5.58
  -1  -4  -8   51.20    9.03
   1   4   8   45.37    8.47
  -1  -4  -8   33.45    8.69
  -1  -4  -8   43.51    5.41
   1   4   8   28.15    8.06
   1   4   8   38.63    7.87
   1   4   7    5.61    7.31
   1   4   7    1.99    4.70
   1   4   7    3.60    7.44
  -1  -4  -7    6.32    7.09
  -1  -4  -7    1.18    7.46
   1   4   7    2.13    6.76
  -1  -4  -7   -1.45    4.43
   1   4   7    6.91    6.77
   1   4   6   79.82    7.88
  -1  -4  -6   77.72    7.68
   1   4   6   73.20    6.44
   1   4   6   71.04    7.74
   1   4   6   69.99    7.11
  -1  -4  -6   61.79    4.45
   1   4   6   83.04    5.34
  -1  -4  -6   92.06    8.39
   1   4   6   75.52    7.23
  -1  -4  -5 1102.32   15.23
   1   4   5  888.57   10.58
   1   4   5 1000.64   17.48
  -1  -4  -5  982.29    8.89
   1   4   5 1071.52   14.76
  -1  -4  -5 1095.80   15.77
   1   4   5 1025.03   14.94
   1   4   5 1048.23   13.27
   1   4   5  996.41   15.44
   1   4   4 1090.38   14.65
  -1  -4  -4 1066.11   13.65
   1   4   4 1025.41   11.14
   1   4   4 1047.65   13.13
  -1  -4  -4 1062.99   15.01
   1   4   4 1050.08   13.54
  -1  -4  -3  110.14    6.40
   1   4   3  134.95    6.47
   1   4   3   94.75    5.67
   1   4   3   70.96    3.23
  -1  -4  -3  112.37    5.29
  -1  -4  -3  127.84    7.96
   1   4   2  376.74    8.73
  -1  -4  -2  400.05    7.62
  -1  -4  -2  404.49   10.56
  -1  -4  -2  387.49    8.59
   1   4   1  280.62    8.00
   1   4   1  268.12    7.36
  -1  -4  -1  299.62    9.81
   1   4   0    1.24    5.01
   1   4   0    0.73    4.16
  -1  -4   0   -4.73    6.16
   1   4  -1    7.19    5.64
  -1  -4   1   -1.78    6.33
   1   4  -1    9.35    4.32
  -1  -4   1    8.72    6.09
   1   4  -2   -0.17    5.55
  -1  -4   2   17.52    5.88
   1   4  -2   25.67    7.40
  -1  -4   2    8.95    5.89
  -1  -4   2   -1.55    6.50
   1   4  -2   -5.40    4.60
  -1  -4   2    5.41    4.36
  -1  -4   3  322.32   11.51
  -1  -4   3  321.67   10.63
   1   4  -3  245.42    9.23
   1   4  -3  323.88   11.02
  -1  -4   3  310.06    8.97
   1   4  -3  350.68   10.93
  -1  -4   3  296.99   11.45
   1   4  -3  297.78    9.24
  -1  -4   3  286.96    7.41
   1   4  -3  325.27   10.12
   1   4  -4  220.22   10.33
  -1  -4   4  211.03    9.88
   1   4  -4  221.44   10.31
  -1  -4   4  206.85    6.84
  -1  -4   4  221.63   10.19
  -1  -4   4  216.49   10.69
  -1  -4   4  213.52    7.54
   1   4  -4  212.38    9.49
  -1  -4   4  196.17    8.33
  -1  -4   5  136.68    9.36
   1   4  -5  138.00    9.70
   1   4  -5  116.95    9.61
  -1  -4   5  107.16    7.10
  -1  -4   5  135.71    9.22
  -1  -4   5  113.81    9.78
   1   4  -5  122.34    9.10
  -1  -4   5  108.40    8.06
  -1  -4   5  119.19    9.78
   1   4  -6   20.72    8.97
   1   4  -6   19.29    8.23
  -1  -4   6   21.78    6.87
   1   4  -6   33.94    9.08
  -1  -4   6   31.74    8.25
  -1  -4   6   25.92    9.02
  -1  -4   6   31.58    9.44
  -1  -4   6   14.79    7.61
   1   4  -7   86.64   11.19
  -1  -4   7   87.65    8.33
  -1  -4   7  132.84   11.79
   1   4  -7  104.78   11.13
  -1  -4   7  114.24   10.07
  -1  -4   7   78.95   10.78
  -1  -4   7   90.68    9.44
   1   4  -7   80.86   10.24
   1   4  -8  522.43   17.25
  -1  -4   8  547.33   15.89
  -1  -4   8  625.02   17.51
   1   4  -8  548.37   15.85
  -1  -4   8  641.92   19.42
  -1  -4   8  416.24   12.70
  -1  -4   8  485.45   14.75
   1   4  -8  564.26   17.01
  -1  -4   9   79.13   11.65
  -1  -4   9   80.49   12.55
  -1  -4   9   86.96   13.56
   1   4  -9   89.31   11.70
  -1  -4   9   73.22   10.41
   1   4  -9   71.40   12.53
  -1  -4   9   74.19    9.21
   1   4  -9   95.11   12.97
   1   4 -10   87.11   14.06
   1   4 -10   90.03   13.37
  -1  -4  10  106.66   12.90
  -1  -4  10   64.62   10.17
   1   4 -10   99.05   12.52
  -1  -4  10  133.22   14.15
  -1  -4  10  104.98   11.75
   1   4 -11   24.68   13.54
   1   4 -11   11.29   13.60
  -1  -4  11   18.47   12.08
  -1  -4  11   -2.97    9.61
   1   4 -11   27.86   12.12
  -1  -4  11    8.21   13.51
  -1  -4  11   37.23   11.86
   1   4 -12   24.49   15.01
  -1  -4  12   13.33   13.60
  -1  -4  12   55.52   15.23
   1   4 -12   78.72   15.87
   1   4 -12   49.86   13.33
  -1  -4  12   19.30   10.55
  -1  -4  12   36.97   12.81
   1   4 -13   17.03   16.51
   1   4 -13   23.18   15.79
  -1  -4  13   13.98   14.76
  -1  -4  13    6.45   10.77
  -1  -4  13   27.17   16.40
   1   4 -13   18.93   13.22
  -1  -4  13   41.54   13.34
   1   4 -14   16.66   16.99
   1   4 -14   12.12   17.45
  -1  -4  14   36.25   14.24
  -1  -4  14   14.57   15.88
  -1  -4  14   18.22   11.41
  -1  -4  14   31.83   18.00
   1   4 -14   13.84   13.91
   1   4 -15   66.89   18.26
   1   4 -15   22.09   19.01
  -1  -4  15   16.71   16.79
  -1  -4  15   80.93   20.20
   1   4 -15   45.88   15.43
  -1  -4  15   20.23   11.84
  -1  -4  15   42.67   15.31
   1   4 -16   34.55   15.62
  -1  -4  16   15.54   15.62
  -1  -4  16   28.33   12.08
  -1  -4  16   25.46   17.76
  -1  -4  17   42.62   19.86
   1   5  19   -8.04   17.84
   1   5  18   -1.96   17.25
   1   5  18   34.82   17.07
   1   5  18    0.97   16.32
  -1  -5 -17   64.63   19.55
   1   5  17   33.54   16.42
   1   5  17   14.43   16.71
   1   5  17   12.77   15.80
   1   5  16    7.54   14.91
   1   5  16  -18.68   14.60
   1   5  16    5.08   14.92
   1   5  15  -11.49   14.15
   1   5  15   24.28   14.40
  -1  -5 -15  -11.20   14.87
   1   5  15    9.78   13.73
   1   5  14  162.47   15.93
  -1  -5 -14  161.63   16.73
   1   5  14  151.05   15.16
   1   5  14  186.82   15.74
   1   5  13  410.82   17.97
   1   5  13  375.73   17.23
   1   5  13  406.49   17.58
   1   5  12   70.90   12.50
   1   5  12   34.90   11.65
  -1  -5 -12   29.57   12.57
   1   5  12   32.68   11.55
   1   5  11  142.70   12.27
   1   5  11  146.38   12.34
   1   5  11  147.06   12.38
  -1  -5 -11  126.44   13.29
  -1  -5 -10   81.53   11.71
   1   5  10   82.49   10.84
   1   5  10   83.28   10.82
  -1  -5 -10   58.93    6.87
   1   5  10   92.14   11.11
   1   5   9  342.09   12.94
   1   5   9  327.52   12.76
   1   5   9  357.36   13.82
  -1  -5  -9  319.95    8.27
  -1  -5  -9  378.73   15.08
   1   5   9  380.83   14.26
  -1  -5  -9  331.07   13.73
  -1  -5  -8  468.33   14.83
   1   5   8  470.20   14.55
   1   5   8  469.00   14.71
  -1  -5  -8  428.23    8.56
   1   5   8  464.88   13.14
  -1  -5  -8  464.34   14.30
   1   5   8  468.52   12.78
   1   5   7  747.15   16.87
  -1  -5  -7  774.99   16.17
   1   5   7  814.80   15.28
   1   5   7  759.28   16.57
   1   5   7  776.63   14.36
  -1  -5  -7  777.92   16.22
   1   5   6  457.55   12.11
  -1  -5  -6  362.25    8.40
   1   5   6  450.60   12.79
  -1  -5  -6  450.00   12.81
   1   5   6  488.42   11.23
   1   5   6  481.25   12.01
  -1  -5  -6  445.89   12.75
   1   5   6  377.34    9.11
  -1  -5  -6  407.39    7.31
   1   5   6  429.76   13.57
  -1  -5  -5  207.03    7.10
   1   5   5  277.04   10.08
   1   5   5  308.71    9.79
   1   5   5  239.42    8.82
   1   5   5  231.57    7.56
  -1  -5  -5  233.44   10.35
  -1  -5  -5  222.66    5.93
  -1  -5  -5  257.57    9.88
   1   5   5  271.33   11.40
   1   5   5  229.47    9.91
   1   5   5  214.15    9.98
  -1  -5  -4   55.90    6.92
  -1  -5  -4   67.91    8.02
   1   5   4   79.65    7.67
   1   5   4   53.63    5.78
  -1  -5  -4   60.53    5.45
   1   5   4   71.83    6.57
  -1  -5  -4   43.07    4.41
   1   5   4   76.50    8.43
   1   5   4   74.36    7.62
   1   5   4   65.79    7.51
   1   5   4   44.77    4.28
  -1  -5  -3  394.27   11.75
   1   5   3  372.63   11.81
   1   5   3  468.22   10.46
  -1  -5  -3  418.48   10.14
   1   5   3  395.62    9.35
   1   5   3  420.29   11.91
   1   5   3  434.43   12.61
  -1  -5  -3  407.56    8.58
   1   5   2  108.59    9.47
  -1  -5  -2  102.22    8.55
   1   5   2  121.43    8.79
   1   5   2   98.90    6.68
   1   5   2  103.00    6.21
   1   5   2   94.98    8.51
  -1  -5  -2  102.87    6.41
  -1  -5  -2  117.63    7.21
  -1  -5  -2   82.03    5.29
   1   5   1  800.50   12.37
  -1  -5  -1  827.43   15.76
  -1  -5  -1  826.20   13.69
   1   5   1  823.11   16.78
   1   5   1  826.49   13.51
   1   5   1  778.76   13.18
   1   5   0 1085.80   18.08
  -1  -5   0 1175.21   17.12
   1   5   0 1139.69   15.31
  -1  -5   0 1052.34   17.76
  -1  -5   0 1244.68   17.05
   1   5   0 1171.02   19.11
   1   5   0 1103.74   14.82
   1   5   0 1013.28   14.87
   1   5  -1   49.59    8.02
  -1  -5   1   54.16    7.06
  -1  -5   1   31.67    7.35
   1   5  -1   34.27    7.55
   1   5  -1   30.15    6.74
   1   5  -1   28.09    5.09
  -1  -5   1   48.22    7.33
   1   5  -1   17.67    6.04
   1   5  -2    2.73    5.72
   1   5  -2   13.89    7.67
  -1  -5   2    9.42    6.20
   1   5  -2   13.71    6.59
   1   5  -2   24.62    7.98
  -1  -5   2    3.16    7.12
  -1  -5   2   11.85    6.73
  -1  -5   2    1.03    5.86
  -1  -5   3   -5.68    6.97
   1   5  -3   12.48    7.88
   1   5  -3   15.49    8.58
  -1  -5   3    0.22    6.48
  -1  -5   3   -5.27    7.88
   1   5  -3   11.78    6.98
  -1  -5   3   10.48    5.18
  -1  -5   3    7.40    6.11
   1   5  -4   86.30    9.57
  -1  -5   4  126.81    9.48
   1   5  -4   63.45    9.66
  -1  -5   4  111.11    8.86
  -1  -5   4   69.91    9.59
   1   5  -4  102.73    8.87
  -1  -5   4   86.79    8.77
  -1  -5   4   74.75    7.63
  -1  -5   4   59.97    6.55
  -1  -5   5  397.99   10.46
  -1  -5   5  557.73   15.67
  -1  -5   5  449.74   12.14
   1   5  -5  470.86   14.94
  -1  -5   5  507.95   14.00
   1   5  -5  502.19   14.75
  -1  -5   5  479.04   15.88
   1   5  -5  477.67   13.73
   1   5  -6  555.33   15.33
  -1  -5   6  576.95   15.20
  -1  -5   6  568.75   17.60
  -1  -5   6  521.11   13.73
  -1  -5   6  643.72   17.99
  -1  -5   6  456.16   11.95
   1   5  -6  598.20   16.53
   1   5  -6  564.91   16.22
   1   5  -7  503.39   16.61
  -1  -5   7  506.32   16.10
  -1  -5   7  397.87   12.07
  -1  -5   7  479.69   14.34
  -1  -5   7  565.76   17.27
   1   5  -7  465.94   15.43
  -1  -5   7  559.87   18.15
   1   5  -7  501.91   16.46
  -1  -5   8    6.47    7.91
  -1  -5   8   18.61   10.32
   1   5  -8   14.40   11.13
  -1  -5   8   18.90   12.37
   1   5  -8   17.49   11.64
   1   5  -8   16.05   10.51
  -1  -5   8    0.25   11.52
  -1  -5   8   18.64    9.40
  -1  -5   9   16.21   10.11
  -1  -5   9   14.43   12.68
   1   5  -9   17.05   12.62
  -1  -5   9  -11.07   11.11
  -1  -5   9   14.53   12.33
   1   5  -9   24.57   12.21
  -1  -5   9   21.57    8.86
   1   5  -9   53.69   11.59
  -1  -5  10   76.39   14.98
   1   5 -10   67.21   13.75
   1   5 -10   63.45   14.15
  -1  -5  10   84.03   12.99
  -1  -5  10   55.84   10.16
  -1  -5  10   97.25   14.67
  -1  -5  10   66.14   12.10
   1   5 -10   74.48   12.92
   1   5 -11  209.48   15.54
  -1  -5  11  215.94   14.92
  -1  -5  11  217.87   16.42
   1   5 -11  182.73   16.66
  -1  -5  11  177.67   12.38
   1   5 -11  213.32   17.53
   1   5 -12  300.04   19.70
   1   5 -12  287.53   19.51
  -1  -5  12  309.85   18.87
  -1  -5  12  295.73   16.54
   1   5 -12  298.04   17.26
  -1  -5  12  267.15   13.64
   1   5 -13  105.27   17.99
  -1  -5  13  103.45   15.17
   1   5 -13  128.56   18.48
  -1  -5  13  111.59   17.01
  -1  -5  13  146.72   18.81
   1   5 -13  146.06   15.81
  -1  -5  13   97.10   11.78
   1   5 -14   45.67   18.34
  -1  -5  14   41.09   16.63
  -1  -5  14    2.39   17.95
   1   5 -14   30.59   14.74
  -1  -5  14   19.59   14.01
   1   5 -14   52.13   18.17
  -1  -5  14   21.62   11.32
   1   5 -15   55.60   19.42
  -1  -5  15    3.82   17.31
   1   5 -15   39.86   15.77
  -1  -5  15   58.78   20.31
  -1  -5  15   23.56   11.79
   1   5 -15   25.24   20.10
  -1  -5  15   30.44   15.49
   1   5 -16   21.41   20.51
  -1  -5  16   21.93   18.45
  -1  -5  16   19.71   16.09
   1   6  18   51.31   17.57
   1   6  18   65.61   17.97
  -1  -6 -17   48.42   19.14
   1   6  17   25.85   16.58
   1   6  17   12.90   15.70
   1   6  17   33.18   16.83
   1   6  16    5.22   15.20
  -1  -6 -16   15.68   17.77
   1   6  16   36.54   14.96
   1   6  16   23.60   15.83
   1   6  15   51.94   15.08
   1   6  15   20.51   14.00
   1   6  15   57.56   14.96
  -1  -6 -15   38.90   16.38
   1   6  14   35.44   13.40
   1   6  14   62.85   14.43
   1   6  14   89.83   15.26
  -1  -6 -14   58.32   15.21
   1   6  13  107.02   13.88
   1   6  13  120.51   14.49
   1   6  13   87.09   13.44
  -1  -6 -13   77.96   14.75
   1   6  12  108.28   13.39
   1   6  12   65.89   12.32
  -1  -6 -12   65.87   13.82
   1   6  12   78.68   12.58
   1   6  11  529.00   16.79
   1   6  11  534.65   17.23
  -1  -6 -11  520.70   18.65
   1   6  10  389.58   15.12
  -1  -6 -10  373.04   16.00
   1   6  10  382.82   14.54
   1   6  10  420.49   15.62
   1   6   9   81.00   11.54
   1   6   9   54.57   10.48
  -1  -6  -9   48.07   10.94
  -1  -6  -9   50.58    6.21
   1   6   9   35.28    9.89
   1   6   9   66.73   10.55
  -1  -6  -9   25.12   10.54
   1   6   8   72.20   10.42
  -1  -6  -8   38.85   10.32
   1   6   8   42.35    9.78
   1   6   8   53.31    9.71
  -1  -6  -8   49.20   10.47
   1   6   8   45.21    9.15
  -1  -6  -8   39.40    5.76
  -1  -6  -8   30.00    6.25
   1   6   7   49.14    9.51
  -1  -6  -7   31.43    9.19
   1   6   7   46.91    9.24
  -1  -6  -7   34.84    6.01
  -1  -6  -7   34.62    5.39
  -1  -6  -7   50.77   10.27
   1   6   7   34.16    7.02
   1   6   7   55.57    8.89
   1   6   7   41.99    9.51
   1   6   6  278.17   12.06
  -1  -6  -6  276.72    7.14
  -1  -6  -6  280.38    8.86
   1   6   6  295.75   13.50
   1   6   6  331.94   12.05
  -1  -6  -6  348.48   12.98
   1   6   6  294.93    9.29
  -1  -6  -6  335.61   13.26
   1   6   6  345.03   12.12
  -1  -6  -5  460.46   12.89
   1   6   5  473.35   14.74
   1   6   5  431.24   13.30
   1   6   5  509.86   13.14
  -1  -6  -5  403.48   13.47
  -1  -6  -5  405.75    9.55
   1   6   5  444.12   13.20
   1   6   5  337.46    7.77
  -1  -6  -5  371.05    7.95
   1   6   4   73.91    9.46
   1   6   4   58.27    8.78
   1   6   4   75.90    8.45
   1   6   4  109.11    7.83
   1   6   4   88.60    9.22
  -1  -6  -4   70.50    9.11
  -1  -6  -4   57.61    5.41
  -1  -6  -4   75.16    6.30
  -1  -6  -4   83.44    8.39
   1   6   3   16.17    6.20
  -1  -6  -3   19.60    5.98
   1   6   3   21.04    7.33
  -1  -6  -3   16.96    4.99
  -1  -6  -3   29.62    8.64
   1   6   3   19.18    8.38
   1   6   3   29.05    8.65
  -1  -6  -3   22.83    6.90
   1   6   3   27.24    8.33
  -1  -6  -2    1.45    4.76
   1   6   2    0.39    8.09
  -1  -6  -2   -0.43    8.37
  -1  -6  -2   11.00    6.92
   1   6   2   -0.05    6.46
   1   6   2    9.45    5.08
  -1  -6  -2   19.61    6.23
   1   6   2   11.57    8.98
   1   6   2   11.76    8.04
   1   6   1  207.94    8.82
   1   6   1  227.10   11.20
   1   6   1  215.05   12.52
  -1  -6  -1  239.06   11.99
   1   6   1  234.71    9.93
  -1  -6  -1  247.24   10.02
   1   6   1  240.75   10.77
   1   6   0  242.92   11.48
  -1  -6   0  248.40   10.43
   1   6   0  258.72   10.10
   1   6   0  210.70   10.30
  -1  -6   0  267.27   10.69
   1   6   0  212.25   12.12
  -1  -6   0  217.56   11.89
   1   6   0  204.20    9.02
   1   6  -1 1773.18   24.30
  -1  -6   1 1774.55   25.24
  -1  -6   1 1821.99   25.89
   1   6  -1 1872.99   21.49
   1   6  -1 1722.93   22.56
   1   6  -1 1851.99   26.47
  -1  -6   2 1964.30   27.44
   1   6  -2 1897.83   23.15
  -1  -6   2 1837.59   23.29
  -1  -6   2 1772.99   26.85
   1   6  -2 1983.82   23.90
  -1  -6   2 1777.31   24.57
   1   6  -2 1770.88   25.14
   1   6  -3   40.16    8.90
   1   6  -3   26.53    9.56
  -1  -6   3   63.10    9.22
  -1  -6   3   41.38    8.71
  -1  -6   3   47.80    7.91
  -1  -6   3   63.01    9.86
   1   6  -3   39.38    9.58
  -1  -6   3   80.51    8.94
  -1  -6   3   32.48    6.36
  -1  -6   4   39.57    9.07
   1   6  -4   61.01    9.39
   1   6  -4   55.28   10.54
  -1  -6   4   30.48    6.59
  -1  -6   4   48.61    9.99
   1   6  -4   34.14   10.00
  -1  -6   4   70.49    8.52
  -1  -6   4   41.79    9.32
  -1  -6   5  158.04   10.05
   1   6  -5  199.47   12.61
   1   6  -5  195.94   11.70
  -1  -6   5  185.92   11.71
   1   6  -5  202.60   13.04
  -1  -6   5  174.47   12.76
  -1  -6   5  183.83   12.13
  -1  -6   5  156.12    8.63
   1   6  -6   25.85   10.05
   1   6  -6   33.36   11.09
   1   6  -6   15.02   11.30
  -1  -6   6   37.95   10.18
  -1  -6   6   26.67    8.80
  -1  -6   6    8.14   10.83
  -1  -6   6    8.64   10.58
  -1  -6   6   17.79    7.53
   1   6  -7   37.39   11.86
   1   6  -7   17.60   12.42
  -1  -6   7   45.08   10.76
  -1  -6   7   40.97   12.05
   1   6  -7   15.53   10.35
  -1  -6   7   23.98   12.00
  -1  -6   7   -2.88    7.49
  -1  -6   7   12.65    9.12
   1   6  -8  115.55   13.72
   1   6  -8  137.68   12.99
   1   6  -8  114.24   14.10
  -1  -6   8  126.46   12.95
  -1  -6   8  107.54    9.78
  -1  -6   8  117.78   13.90
  -1  -6   8  150.96   14.74
  -1  -6   8  101.65   10.82
   1   6  -9   41.88   13.30
   1   6  -9   36.57   13.97
  -1  -6   9   25.46   12.07
  -1  -6   9   18.85   13.31
  -1  -6   9   32.90   14.28
  -1  -6   9   44.07    9.69
  -1  -6   9   35.13   10.89
   1   6  -9   20.45   11.83
   1   6 -10  279.22   18.35
  -1  -6  10  239.30   14.83
   1   6 -10  304.48   18.51
  -1  -6  10  264.30   12.78
  -1  -6  10  329.17   18.66
  -1  -6  10  334.19   20.09
  -1  -6  10  335.19   17.27
   1   6 -10  275.87   16.05
   1   6 -11  398.16   21.26
   1   6 -11  379.39   18.02
   1   6 -11  385.52   20.80
  -1  -6  11  413.88   19.78
  -1  -6  11  422.98   22.70
  -1  -6  11  344.07   14.33
  -1  -6  11  407.35   20.89
  -1  -6  11  349.02   17.03
   1   6 -12  175.79   18.85
   1   6 -12  211.89   16.64
  -1  -6  12  153.56   12.67
   1   6 -12  213.51   19.31
  -1  -6  12  200.52   19.57
  -1  -6  12  168.21   17.66
  -1  -6  12  179.64   15.29
   1   6 -13   44.84   17.49
   1   6 -13   47.81   18.64
  -1  -6  13   19.43   15.81
  -1  -6  13   21.81   11.01
  -1  -6  13   39.83   18.17
   1   6 -13    7.60   14.38
  -1  -6  13   28.14   13.87
   1   6 -14  140.14   20.80
   1   6 -14  116.58   21.40
  -1  -6  14  141.72   19.52
  -1  -6  14  162.24   21.73
  -1  -6  14  115.01   16.00
  -1  -6  14  114.74   13.03
   1   6 -14  145.90   17.05
   1   6 -15  125.53   21.31
  -1  -6  15  109.08   16.75
   1   6 -15  155.26   17.89
   1   6 -16   28.45   20.72
   1   7  18   49.78   18.63
   1   7  18   19.89   17.81
   1   7  17   59.50   17.23
   1   7  17   40.27   17.47
   1   7  17   28.00   16.12
   1   7  16   58.45   16.14
  -1  -7 -16   70.71   18.61
   1   7  16   75.96   17.15
   1   7  16  101.11   16.78
   1   7  15   80.37   15.93
   1   7  15   67.11   15.82
  -1  -7 -15   61.85   16.87
   1   7  15   80.35   15.59
   1   7  14    9.72   14.07
  -1  -7 -14   14.68   14.70
   1   7  14   27.14   14.59
   1   7  14   -1.23   13.02
   1   7  13  205.36   16.28
   1   7  13  168.01   15.40
   1   7  13  160.80   15.36
  -1  -7 -13  146.58   16.15
   1   7  12   18.87   12.27
   1   7  12   11.98   13.10
   1   7  12   12.47   12.01
  -1  -7 -12   12.08   13.37
   1   7  11  220.01   14.14
   1   7  11  275.27   15.60
  -1  -7 -11  237.72   16.11
   1   7  11  239.30   14.68
   1   7  10   71.21   12.28
   1   7  10  116.60   12.30
   1   7  10  111.07   12.40
  -1  -7 -10  118.19   13.96
   1   7   9   15.37    9.88
   1   7   9   27.50   10.79
  -1  -7  -9   18.78   11.30
   1   7   9   12.50   10.24
   1   7   8   -0.40    9.83
   1   7   8   19.16    9.78
  -1  -7  -8  -12.74    9.98
   1   7   8  -13.28    9.82
  -1  -7  -8   -2.95    5.50
   1   7   8   12.42   10.80
  -1  -7  -8   18.95   10.88
  -1  -7  -7   66.46   10.72
  -1  -7  -7   46.67    5.90
   1   7   7   47.55   10.34
   1   7   7   90.36   10.74
  -1  -7  -7   55.34    7.61
  -1  -7  -7   64.52   11.10
   1   7   7   62.42   10.44
   1   7   7   83.11   11.48
  -1  -7  -6  146.30   11.27
   1   7   6  123.59   11.01
  -1  -7  -6  160.98    6.80
   1   7   6  201.66   11.77
  -1  -7  -6  137.21    8.07
   1   7   6  180.99   11.68
   1   7   6  152.86   12.54
  -1  -7  -6  147.08   12.18
   1   7   5   21.86    9.02
   1   7   5   30.54    9.32
  -1  -7  -5   64.30   10.39
  -1  -7  -5   33.96    6.54
  -1  -7  -5   31.90   11.08
   1   7   5   54.36   10.09
   1   7   5   44.37   10.23
  -1  -7  -5   13.90    5.48
  -1  -7  -5   46.70    9.01
  -1  -7  -4  412.20   12.94
   1   7   4  442.89   13.63
  -1  -7  -4  393.41   15.62
  -1  -7  -4  310.63    9.45
  -1  -7  -4  356.46   14.20
  -1  -7  -4  380.63   10.64
   1   7   4  398.82   16.05
   1   7   4  330.15   13.59
   1   7   4  344.93   14.74
  -1  -7  -3  721.18   15.40
  -1  -7  -3  668.48   18.02
   1   7   3  689.77   19.57
   1   7   3  684.03   15.25
  -1  -7  -3  690.28   13.92
   1   7   3  656.65   17.90
   1   7   2  809.49   19.68
   1   7   2  829.98   16.26
   1   7   2  917.86   18.97
  -1  -7  -2  948.82   15.97
  -1  -7  -2  949.67   16.94
   1   7   2  954.19   22.76
  -1  -7  -2  933.53   20.22
  -1  -7  -1   82.56    8.49
   1   7   1   83.78   10.54
   1   7   1   97.43   10.06
  -1  -7  -1   70.03    9.61
  -1  -7  -1   90.56   11.08
   1   7   1   75.11    9.01
  -1  -7  -1   95.82    9.20
   1   7   1   67.29   11.48
   1   7   0  653.22   17.68
  -1  -7   0  573.82   15.67
   1   7   0  652.76   15.10
  -1  -7   0  729.30   16.85
  -1  -7   0  701.41   16.61
   1   7   0  628.49   16.08
  -1  -7   0  620.08   19.24
   1   7   0  614.75   19.17
  -1  -7   1   23.52    9.74
   1   7  -1    4.19   10.92
   1   7  -1   18.98    8.68
  -1  -7   1   23.48    8.83
   1   7  -1   20.10    8.78
  -1  -7   1   25.12    9.13
  -1  -7   1   16.35    8.24
  -1  -7   2  889.87   18.94
   1   7  -2  952.97   18.94
   1   7  -2  932.20   19.05
   1   7  -2  932.30   20.63
   1   7  -2  929.11   22.15
  -1  -7   2 1010.00   20.09
  -1  -7   2  980.55   21.90
   1   7  -3   93.10   10.44
  -1  -7   3   70.95   11.12
  -1  -7   3   56.22   10.17
  -1  -7   3   91.15   10.71
   1   7  -3  102.15   11.31
   1   7  -3   92.72   11.87
  -1  -7   3   87.26    9.11
   1   7  -4   46.73   11.34
   1   7  -4   55.64   10.74
  -1  -7   4   53.53   11.27
  -1  -7   4   77.73   10.44
  -1  -7   4   64.32   10.43
   1   7  -4   70.67   11.72
  -1  -7   4   41.13    7.46
  -1  -7   4   35.89    8.88
   1   7  -5  273.85   14.81
   1   7  -5  269.10   14.76
  -1  -7   5  274.68   14.13
  -1  -7   5  274.15   15.01
   1   7  -5  274.81   13.75
  -1  -7   5  244.49   12.29
  -1  -7   5  282.46   13.53
  -1  -7   6  231.79   14.85
  -1  -7   6  183.87   11.89
   1   7  -6  182.22   13.28
  -1  -7   6  196.86   13.26
   1   7  -6  209.81   14.82
  -1  -7   6  186.85   14.60
   1   7  -6  220.96   15.08
   1   7  -7   53.58   13.40
   1   7  -7   64.85   12.37
   1   7  -7   63.09   13.98
  -1  -7   7   68.52   12.98
  -1  -7   7   57.42   10.74
  -1  -7   7   50.65   12.83
  -1  -7   7   31.30    8.41
  -1  -7   8  189.65   16.68
   1   7  -8  160.80   15.30
   1   7  -8  149.99   16.24
  -1  -7   8  201.47   14.89
  -1  -7   8  148.53   15.29
   1   7  -8  141.94   13.94
  -1  -7   8  139.52   10.35
  -1  -7   8  135.66   12.28
   1   7  -9   17.18   12.33
   1   7  -9   25.10   15.50
  -1  -7   9   12.93   14.25
  -1  -7   9   16.20   12.80
  -1  -7   9    0.30    8.87
  -1  -7   9   -3.74   14.13
  -1  -7   9   14.97   11.40
   1   7  -9   -4.58   14.68
   1   7 -10   37.60   15.49
   1   7 -10   26.18   16.31
  -1  -7  10   24.32    9.89
  -1  -7  10    0.99   14.72
   1   7 -10   14.60   13.26
  -1  -7  10   -9.78   13.69
  -1  -7  10   32.24   16.73
  -1  -7  10   20.21   12.14
   1   7 -11    5.97   16.29
  -1  -7  11   20.11   17.48
   1   7 -11   35.11   16.98
  -1  -7  11   23.81   15.24
  -1  -7  11   -3.71    9.75
  -1  -7  11   25.41   16.36
   1   7 -11    0.89   13.53
  -1  -7  11   13.49   13.09
   1   7 -12   62.46   17.68
   1   7 -12   33.81   18.23
  -1  -7  12   64.62   16.71
  -1  -7  12   43.68   17.96
   1   7 -12   42.43   14.43
  -1  -7  12   29.40   10.76
  -1  -7  12   50.46   14.10
   1   7 -13   84.06   19.29
   1   7 -13  118.88   21.48
   1   7 -13  117.20   16.60
  -1  -7  13   99.22   15.72
  -1  -7  13  160.28   19.01
  -1  -7  13   89.54   20.02
  -1  -7  13   85.18   11.88
   1   7 -14   43.59   19.69
  -1  -7  14   44.76   16.16
   1   7 -14   26.38   15.49
   1   7 -15   32.44   20.88
   1   8  18   75.38   19.32
   1   8  17   46.84   17.98
   1   8  17   57.38   17.52
   1   8  17   33.09   17.36
   1   8  16   49.10   15.94
   1   8  16    9.78   16.79
   1   8  16   40.64   16.73
  -1  -8 -16    7.05   18.33
   1   8  15    1.79   14.40
  -1  -8 -15   32.75   17.47
   1   8  15   16.33   15.04
   1   8  15   41.23   15.91
   1   8  14    8.46   13.97
  -1  -8 -14   29.18   15.45
   1   8  14   35.31   14.54
   1   8  14    8.13   14.68
   1   8  13   72.32   14.25
   1   8  13   77.74   14.31
  -1  -8 -13  102.99   16.20
   1   8  13   73.92   15.16
   1   8  12  213.23   16.52
   1   8  12  249.64   15.95
   1   8  12  261.36   16.43
  -1  -8 -12  242.58   17.78
   1   8  11   27.39   12.56
   1   8  11   20.15   12.80
  -1  -8 -11   -1.56   13.01
   1   8  11   42.19   12.51
   1   8  10   19.17   12.06
   1   8  10    6.70   11.52
  -1  -8 -10   12.02   12.46
   1   8  10   11.18   11.11
   1   8   9   -4.86   11.35
   1   8   9    1.12   11.18
   1   8   9   -2.31   11.04
  -1  -8  -9  -11.41   12.42
   1   8   8   25.94   10.72
   1   8   8   17.59   10.68
  -1  -8  -8   20.45   12.12
   1   8   8  -11.40   10.76
   1   8   7   74.27   11.57
  -1  -8  -7   62.84   12.58
   1   8   7   58.08   11.13
   1   8   7   56.43   11.37
   1   8   7   62.58   12.41
  -1  -8  -7   60.09    6.25
  -1  -8  -6   69.12   11.53
   1   8   6   43.62   10.25
   1   8   6   51.55   11.57
  -1  -8  -6   38.94    7.56
  -1  -8  -6   48.61   11.94
  -1  -8  -6   30.81    6.09
   1   8   6   39.36   10.91
   1   8   6   64.67   12.23
  -1  -8  -5 1028.13   20.18
   1   8   5  809.46   20.66
  -1  -8  -5  927.85   16.61
  -1  -8  -5  853.93   21.02
   1   8   5  992.60   21.85
  -1  -8  -5  798.99   13.28
   1   8   5  904.79   23.75
   1   8   5 1093.98   20.54
  -1  -8  -4  499.34   17.00
  -1  -8  -4  528.06   15.45
  -1  -8  -4  490.77   18.35
  -1  -8  -4  362.71   10.99
   1   8   4  427.30   17.49
  -1  -8  -4  478.83   13.19
   1   8   4  471.14   16.89
   1   8   4  589.89   16.43
   1   8   4  478.15   18.78
   1   8   3  103.38   13.09
  -1  -8  -3  131.08   13.26
  -1  -8  -3  135.67   10.74
   1   8   3  120.59   12.64
  -1  -8  -3  107.99    7.95
  -1  -8  -3  105.76   12.49
   1   8   3  134.83   11.11
   1   8   3  112.59   12.59
  -1  -8  -3  116.64    9.73
   1   8   2  131.15   12.64
   1   8   2   94.71   13.78
   1   8   2  130.05   10.77
  -1  -8  -2  109.83   11.86
  -1  -8  -2   93.73   12.78
  -1  -8  -2  127.40   10.32
   1   8   2  114.18   12.28
  -1  -8  -2  134.09   10.72
   1   8   1  372.40   15.75
  -1  -8  -1  383.60   14.46
   1   8   1  290.42   13.11
  -1  -8  -1  266.09   14.34
   1   8   1  329.15   14.33
  -1  -8  -1  380.33   17.40
   1   8   1  357.68   17.55
  -1  -8  -1  393.69   14.41
  -1  -8   0 1333.87   23.94
  -1  -8   0 1261.75   28.44
   1   8   0 1172.18   21.43
  -1  -8   0 1158.47   23.61
   1   8   0 1244.82   21.00
   1   8   0 1326.86   24.64
   1   8   0 1116.88   27.12
   1   8  -1  898.45   22.12
  -1  -8   1  991.09   20.23
   1   8  -1 1001.95   19.68
   1   8  -1  923.63   24.72
  -1  -8   1 1078.90   25.12
  -1  -8   1 1030.83   21.97
   1   8  -1  955.66   20.46
   1   8  -2   35.37   11.81
  -1  -8   2   49.20   10.37
   1   8  -2   60.86   11.22
  -1  -8   2   52.47   11.94
   1   8  -2   51.71   10.20
  -1  -8   2   42.14   10.53
   1   8  -2   52.41   13.13
   1   8  -3  142.59   14.50
   1   8  -3  135.77   12.50
   1   8  -3  113.81   13.46
  -1  -8   3  129.26   12.08
   1   8  -3  107.50   11.90
  -1  -8   3  120.30   13.38
  -1  -8   3  120.78   11.84
   1   8  -4  158.65   13.77
   1   8  -4  157.48   12.80
  -1  -8   4  134.06   12.47
   1   8  -4  168.33   13.87
  -1  -8   4  160.28   13.30
  -1  -8   4  134.17   13.85
   1   8  -5   96.84   12.45
  -1  -8   5   81.73   13.37
  -1  -8   5   82.31   12.12
  -1  -8   5   46.22   10.24
   1   8  -5   79.08   13.67
  -1  -8   5  116.61   12.65
   1   8  -5  113.20   13.85
   1   8  -6   71.08   13.68
   1   8  -6   45.97   12.19
  -1  -8   6   52.70   13.39
  -1  -8   6   81.23   12.72
   1   8  -6   87.37   14.53
  -1  -8   6   75.13   13.30
  -1  -8   6   69.63    9.27
  -1  -8   6   71.55   11.28
   1   8  -7   60.27   14.65
   1   8  -7   76.15   15.09
  -1  -8   7   95.67   13.57
   1   8  -7   76.88   13.13
  -1  -8   7   62.23   14.47
  -1  -8   7   44.37    9.20
  -1  -8   7   57.65   14.26
  -1  -8   7   63.96   11.87
   1   8  -8  307.17   16.44
   1   8  -8  292.92   19.08
  -1  -8   8  222.76   11.94
  -1  -8   8  340.86   17.38
  -1  -8   8  352.14   18.98
  -1  -8   8  298.82   19.61
  -1  -8   8  276.39   15.63
   1   8  -8  350.44   19.61
  -1  -8   9   75.62   10.27
   1   8  -9  104.12   17.22
  -1  -8   9   93.69   15.65
   1   8  -9   72.44   16.89
  -1  -8   9   40.60   15.49
   1   8  -9   55.41   13.80
  -1  -8   9   82.11   16.57
  -1  -8   9   82.66   13.51
   1   8 -10   28.71   16.51
  -1  -8  10   27.49   16.65
   1   8 -10   53.44   17.32
  -1  -8  10    1.87   15.06
  -1  -8  10    1.42    9.67
   1   8 -10   32.74   13.96
  -1  -8  10   33.71   16.52
  -1  -8  10    5.79   12.95
   1   8 -11   15.57   14.36
  -1  -8  11   10.68   17.92
   1   8 -11   27.66   17.66
  -1  -8  11    7.91   17.13
  -1  -8  11   -0.18    9.97
  -1  -8  11   26.36   13.61
   1   8 -11   29.51   18.35
  -1  -8  11   30.46   15.98
  -1  -8  12    2.94   10.29
   1   8 -12   34.69   15.12
   1   8 -12   18.11   18.13
  -1  -8  12   21.60   18.40
  -1  -8  12   44.51   14.62
   1   8 -13   89.61   20.52
  -1  -8  13   87.66   21.54
   1   8 -13   86.25   16.69
  -1  -8  13   74.39   16.02
   1   8 -14   57.99   21.02
   1   9  17   74.60   18.80
   1   9  17   85.70   18.43
   1   9  16   16.78   16.55
   1   9  16    9.70   16.34
   1   9  16   47.03   16.57
   1   9  15   21.82   16.03
  -1  -9 -15   47.06   18.75
   1   9  15   11.09   16.00
   1   9  15   12.47   15.20
   1   9  14   51.63   16.01
   1   9  14   44.52   15.61
   1   9  14   60.19   14.93
  -1  -9 -14   50.26   17.54
   1   9  13  -18.85   13.60
   1   9  13   32.87   14.21
   1   9  13   16.22   14.60
  -1  -9 -13   30.70   15.78
   1   9  12   26.14   14.59
   1   9  12   24.73   13.42
  -1  -9 -12   34.30   14.94
   1   9  12   10.35   12.88
   1   9  11   65.14   14.81
   1   9  11   42.19   12.87
   1   9  11   67.52   13.63
  -1  -9 -11   33.80   14.37
   1   9  10   90.67   13.42
   1   9  10   89.68   13.12
  -1  -9 -10  100.80   15.15
  -1  -9  -9   68.45   14.01
   1   9   9   47.43   12.99
   1   9   9   42.59   12.32
   1   9   9   83.07   13.66
   1   9   8   62.80   11.46
  -1  -9  -8   34.04   13.75
   1   9   8   35.84   12.05
  -1  -9  -7  108.76   14.27
   1   9   7   74.61   12.48
   1   9   7   92.18   12.93
   1   9   7   98.21   12.47
  -1  -9  -6  115.86    7.27
   1   9   6  110.40   12.55
  -1  -9  -6  105.46   13.73
  -1  -9  -6   85.35    9.51
   1   9   6   95.92   12.87
   1   9   5    5.78   11.85
   1   9   5   14.80   10.99
  -1  -9  -5    8.08    6.64
  -1  -9  -5   25.93    8.56
   1   9   5    3.07   11.83
   1   9   5   14.24   11.13
  -1  -9  -5  -11.36   11.69
  -1  -9  -4  693.31   16.63
   1   9   4  624.36   21.65
   1   9   4  663.82   21.93
  -1  -9  -4  571.22   14.31
  -1  -9  -4  724.51   21.23
   1   9   4  709.07   23.71
  -1  -9  -3   30.53    9.74
   1   9   3   18.76   12.33
   1   9   3   15.23   11.56
   1   9   3    8.10   11.10
  -1  -9  -3   38.95   13.04
  -1  -9  -3    4.71    6.78
   1   9   3   15.47   12.34
  -1  -9  -2   30.19    7.17
   1   9   2   44.90   12.13
   1   9   2   39.51   12.69
  -1  -9  -2   39.41   11.51
  -1  -9  -2   30.43   12.88
   1   9   2   21.50   13.25
  -1  -9  -2   42.01   10.59
   1   9   2   28.73   10.84
   1   9   1  332.30   14.73
   1   9   1  313.61   17.28
   1   9   1  326.89   16.21
  -1  -9  -1  305.15   16.06
   1   9   1  290.54   19.40
  -1  -9  -1  352.40   15.50
  -1  -9  -1  323.65   18.75
   1   9   0  614.30   17.82
   1   9   0  612.98   20.40
  -1  -9   0  601.20   19.57
   1   9   0  609.67   18.04
  -1  -9   0  643.45   19.34
   1   9   0  587.67   22.82
   1   9  -1  451.91   18.54
  -1  -9   1  468.27   18.21
   1   9  -1  418.32   17.27
   1   9  -1  474.30   16.66
   1   9  -1  418.59   20.54
  -1  -9   1  504.79   21.24
  -1  -9   1  497.65   17.83
   1   9  -2   14.64   10.79
   1   9  -2   45.78   12.67
  -1  -9   2   17.61   11.11
  -1  -9   2   16.95   12.74
  -1  -9   2   44.91   11.59
   1   9  -2   48.33   12.11
   1   9  -2   35.02   13.14
   1   9  -3  399.15   19.36
   1   9  -3  343.36   16.15
   1   9  -3  361.36   18.36
   1   9  -3  387.34   16.45
  -1  -9   3  352.45   16.55
  -1  -9   3  414.83   19.11
  -1  -9   3  316.13   15.76
   1   9  -4  160.41   15.56
   1   9  -4  142.19   13.87
   1   9  -4  155.21   14.79
  -1  -9   4  163.12   13.99
   1   9  -4  149.79   16.13
  -1  -9   4  165.96   14.03
  -1  -9   4  156.66   15.74
   1   9  -5   69.69   14.70
   1   9  -5   83.63   14.51
   1   9  -5   69.58   13.02
  -1  -9   5   62.31   14.66
  -1  -9   5   89.16   13.46
  -1  -9   5  100.18   13.85
   1   9  -5   74.35   16.16
   1   9  -6  509.92   18.74
   1   9  -6  485.00   21.14
   1   9  -6  475.68   22.79
   1   9  -6  483.71   20.42
  -1  -9   6  544.80   20.14
  -1  -9   6  458.74   17.01
  -1  -9   6  496.10   20.48
  -1  -9   6  495.85   21.02
   1   9  -7   38.83   16.33
   1   9  -7   76.78   15.80
  -1  -9   7   88.69   14.53
   1   9  -7   83.42   13.65
  -1  -9   7   68.19   12.88
  -1  -9   7   53.23   15.12
  -1  -9   7   92.86   15.84
   1   9  -8   12.27   12.83
   1   9  -8   20.47   15.83
  -1  -9   8   15.19   12.65
   1   9  -8   43.88   16.13
  -1  -9   8    8.78   14.61
  -1  -9   8   59.46   16.25
  -1  -9   8   15.24   15.54
   1   9  -9  125.03   18.37
   1   9  -9  143.46   18.60
  -1  -9   9  148.76   17.42
  -1  -9   9  147.81   18.16
   1   9  -9  114.19   14.99
  -1  -9   9   78.28   14.24
  -1  -9   9  140.32   18.58
   1   9 -10   53.16   18.29
  -1  -9  10   18.91   17.54
  -1  -9  10   11.21   17.62
   1   9 -10   29.74   14.39
   1   9 -10   45.13   18.16
  -1  -9  10    7.00   13.75
   1   9 -11   32.39   18.49
  -1  -9  11   27.51   19.25
   1   9 -11   72.02   16.09
  -1  -9  11   25.75   14.44
   1   9 -12   56.23   19.81
  -1  -9  12   54.60   20.84
   1   9 -12   60.91   16.06
   1   9 -13  122.09   22.26
   1  10  17   14.09   18.42
   1  10  16   16.87   17.80
   1  10  16   14.09   16.47
  -1 -10 -15   -7.24   18.89
   1  10  15   47.39   17.47
   1  10  15   51.92   16.28
   1  10  15    7.59   16.67
   1  10  14  218.43   19.39
   1  10  14  203.32   17.91
   1  10  14  191.96   17.93
  -1 -10 -14  201.33   20.63
   1  10  13   65.07   16.45
   1  10  13   48.96   15.06
   1  10  13   49.88   15.18
  -1 -10 -13   81.66   18.10
   1  10  12   37.42   14.78
   1  10  12   29.02   15.09
  -1 -10 -12   71.11   16.51
   1  10  12   43.84   14.07
   1  10  11   15.47   14.00
   1  10  11  -10.02   13.33
  -1 -10 -11   11.89   14.57
   1  10  11   -2.51   13.46
  -1 -10 -10   18.04   14.77
   1  10  10   18.85   13.82
   1  10  10    8.69   13.20
   1  10   9   41.36   14.15
   1  10   9   46.81   12.72
   1  10   9   34.08   12.83
  -1 -10  -9   46.16   14.98
   1  10   8   92.24   14.01
   1  10   8   61.08   12.99
  -1 -10  -8  102.25   15.90
   1  10   8   89.06   13.42
   1  10   7  382.48   17.33
   1  10   7  310.87   17.14
   1  10   7  326.15   17.19
  -1 -10  -7  362.69   18.69
   1  10   6   96.05   13.32
   1  10   6  126.41   14.06
  -1 -10  -6  102.97   15.23
   1  10   6   83.15   13.94
  -1 -10  -5   74.22   14.17
   1  10   5   85.35   13.13
   1  10   5   87.08   14.18
  -1 -10  -5   56.58    7.62
   1  10   5   61.71   13.73
  -1 -10  -5   92.76   10.46
   1  10   4  105.71   14.45
  -1 -10  -4  117.76   15.28
   1  10   4  104.71   14.41
  -1 -10  -4  108.27   11.36
   1  10   4  101.96   14.62
  -1 -10  -4   77.59    8.50
  -1 -10  -3   15.63   13.58
   1  10   3   10.04   12.40
   1  10   3    3.85   13.39
   1  10   3   24.26   12.66
   1  10   3   13.05   13.23
  -1 -10  -3    8.63    7.11
  -1 -10  -3   24.31   10.65
  -1 -10  -2   -0.68   13.21
   1  10   2   11.73   13.43
   1  10   2   16.30   11.65
  -1 -10  -2    4.96    7.27
  -1 -10  -2  -13.69   10.70
   1  10   1   43.22   13.32
  -1 -10  -1   87.80   15.84
   1  10   1   73.02   13.66
   1  10   1   58.06   12.08
  -1 -10  -1   71.53   12.04
   1  10   1   61.00   15.28
   1  10   0   10.11   13.20
  -1 -10   0   14.38   11.86
   1  10   0   48.28   12.86
   1  10   0   16.97   11.39
  -1 -10   0   22.39   14.22
   1  10   0   24.38   15.41
  -1 -10   1   -2.51   13.97
   1  10  -1    3.35   12.83
   1  10  -1    1.29   11.41
   1  10  -1   17.48   11.89
  -1 -10   1    8.68   11.52
   1  10  -1   -5.13   14.24
   1  10  -2    0.48   13.32
   1  10  -2   46.17   13.14
  -1 -10   2   23.86   14.85
   1  10  -2   20.62   12.02
  -1 -10   2   25.66   12.48
   1  10  -2   25.11   14.53
   1  10  -3  300.38   17.91
   1  10  -3  287.79   16.61
   1  10  -3  273.88   19.93
   1  10  -3  208.25   15.39
  -1 -10   3  255.00   15.89
  -1 -10   3  244.90   18.68
   1  10  -4   49.96   15.16
   1  10  -4    6.18   12.30
   1  10  -4   34.92   13.82
  -1 -10   4   43.63   12.99
   1  10  -4   46.29   16.51
  -1 -10   4   50.65   15.08
   1  10  -5   61.55   16.11
  -1 -10   5   38.75   13.84
   1  10  -5   25.63   14.86
  -1 -10   5   39.90   15.83
  -1 -10   5   18.56   13.49
   1  10  -5   37.14   13.20
  -1 -10   6  103.79   16.94
   1  10  -6  103.49   17.77
   1  10  -6  105.22   16.22
   1  10  -6  101.77   14.25
   1  10  -6   87.53   18.06
  -1 -10   6   95.66   15.77
   1  10  -7  102.26   18.32
   1  10  -7   87.46   14.81
   1  10  -7  114.23   19.01
   1  10  -7  147.07   18.04
  -1 -10   7  125.35   17.45
  -1 -10   7  122.09   17.70
   1  10  -8   24.86   17.28
   1  10  -8   51.82   18.82
  -1 -10   8   40.72   17.34
   1  10  -8   55.30   14.45
  -1 -10   8   46.80   17.72
  -1 -10   8   24.98   13.45
   1  10  -9   15.94   17.40
   1  10  -9   32.77   14.52
   1  10  -9   73.55   19.47
  -1 -10   9   57.56   18.48
  -1 -10   9   31.26   14.20
   1  10 -10   47.79   19.22
  -1 -10  10    5.71   18.64
   1  10 -10   59.21   20.48
   1  10 -10   14.84   15.15
   1  10 -11   61.55   20.47
   1  10 -11   24.08   21.56
  -1 -10  11    7.50   20.29
   1  10 -11   49.79   16.46
   1  10 -12   31.46   21.11
   1  10 -12   -3.59   21.30
   1  11  16   39.85   18.60
   1  11  15   93.85   19.43
   1  11  15   78.46   18.17
   1  11  15   78.60   17.68
   1  11  14   72.44   17.44
  -1 -11 -14   82.14   19.96
   1  11  14   39.13   16.55
   1  11  14   75.18   16.70
   1  11  13   69.93   17.27
  -1 -11 -13   82.55   19.45
   1  11  13   75.28   16.37
   1  11  13   46.72   15.62
   1  11  12   34.84   16.03
   1  11  12   52.74   15.73
  -1 -11 -12   63.34   17.33
   1  11  12   60.49   15.14
   1  11  11   52.47   14.40
   1  11  11  100.52   15.65
   1  11  11   86.83   16.14
  -1 -11 -11   69.63   17.25
   1  11  10  211.34   17.66
  -1 -11 -10  200.63   18.27
   1  11  10  194.68   16.59
   1  11  10  166.45   16.51
   1  11   9  363.45   19.65
   1  11   9  333.92   18.08
  -1 -11  -9  348.62   20.41
   1  11   9  352.94   17.87
   1  11   8  128.82   15.80
  -1 -11  -8  118.48   17.12
   1  11   8   82.45   15.02
   1  11   8  122.09   14.59
   1  11   7   56.79   14.24
   1  11   7   38.30   13.74
   1  11   7   47.67   13.62
   1  11   6   81.22   14.45
   1  11   6   87.99   14.45
  -1 -11  -6   57.28   15.30
   1  11   6   61.21   14.79
   1  11   5   25.04   13.26
   1  11   5    6.64   13.84
   1  11   5   29.52   13.20
  -1 -11  -4  156.23   17.05
  -1 -11  -4  169.59   14.06
   1  11   4  184.29   16.16
   1  11   4  148.86   17.22
  -1 -11  -3  269.36   19.26
   1  11   3  235.40   18.78
   1  11   3  217.21   19.37
   1  11   3  306.19   18.47
  -1 -11  -3  186.58   11.76
  -1 -11  -3  317.77   16.72
   1  11   2  160.15   17.97
  -1 -11  -2  170.55   10.87
  -1 -11  -2  196.94   15.38
   1  11   2  184.72   16.12
   1  11   2  204.26   18.64
  -1 -11  -1    1.59   15.51
   1  11   1   30.78   14.48
  -1 -11  -1   -3.03   12.27
   1  11   1   19.26   13.04
   1  11   1   -8.40   15.72
   1  11   0  103.23   16.26
  -1 -11   0  134.28   18.41
   1  11   0   91.21   14.27
   1  11   0  111.99   18.51
   1  11  -1   63.40   13.56
  -1 -11   1   59.02   13.44
   1  11  -1   71.23   14.42
   1  11  -1   76.36   17.47
   1  11  -1   70.57   15.77
  -1 -11   1   63.52   16.71
   1  11  -2   24.87   15.32
   1  11  -2   38.89   13.89
   1  11  -2   12.67   12.98
  -1 -11   2    4.52   13.03
   1  11  -2    1.19   16.02
  -1 -11   2    1.84   15.98
   1  11  -3   38.23   16.49
  -1 -11   3   48.54   17.22
   1  11  -3   34.36   16.77
   1  11  -3   51.97   14.12
  -1 -11   3   35.54   13.47
   1  11  -3   45.67   13.88
   1  11  -4  125.32   17.71
  -1 -11   4  128.25   15.82
   1  11  -4  162.25   15.46
   1  11  -4  146.24   19.75
   1  11  -5    5.15   16.54
  -1 -11   5   27.91   16.87
  -1 -11   5   23.88   14.39
   1  11  -5   36.02   13.72
   1  11  -5   41.78   17.80
  -1 -11   6   28.35   17.88
   1  11  -6   73.31   18.03
   1  11  -6   40.43   14.13
  -1 -11   6   56.86   16.00
   1  11  -6   56.69   18.36
   1  11  -7   -1.05   17.11
  -1 -11   7   18.81   16.71
   1  11  -7   -9.66   13.74
  -1 -11   7   17.47   18.30
   1  11  -7   21.80   19.00
   1  11  -8  -13.56   17.80
  -1 -11   8   18.26   19.14
   1  11  -8   28.00   15.01
   1  11  -9   78.56   20.42
  -1 -11   9   94.32   20.95
   1  11  -9   77.47   21.68
   1  11  -9   37.65   15.61
   1  11 -10  146.02   22.90
   1  11 -10  127.88   17.12
   1  11 -10  190.84   23.87
   1  11 -11   86.94   22.19
   1  11 -11  124.18   23.98
   1  12  15   50.82   18.51
   1  12  14   -1.34   17.43
   1  12  14   15.60   16.34
   1  12  14   35.84   17.01
   1  12  13   26.54   17.32
   1  12  13    8.42   16.39
   1  12  13   48.78   16.39
  -1 -12 -13    0.59   19.03
   1  12  12   52.39   16.46
   1  12  12   22.92   16.56
  -1 -12 -12   21.07   17.95
   1  12  12   30.35   15.35
   1  12  11  231.29   19.23
   1  12  11  192.12   17.44
   1  12  11  184.44   17.60
  -1 -12 -11  214.54   21.03
   1  12  10  158.27   16.66
   1  12  10  122.19   17.51
  -1 -12 -10  175.59   19.34
   1  12  10  150.21   17.07
   1  12   9   -7.90   14.66
  -1 -12  -9    3.32   16.11
   1  12   9   49.22   14.96
   1  12   9   24.88   14.11
  -1 -12  -8   39.78   16.74
   1  12   8    3.24   14.85
   1  12   8   24.87   13.95
   1  12   8   36.32   14.36
   1  12   7  250.24   18.79
   1  12   7  232.64   17.63
  -1 -12  -7  267.93   20.33
   1  12   7  206.31   18.10
   1  12   6  351.82   20.75
  -1 -12  -6  390.31   21.85
   1  12   6  389.26   21.25
   1  12   5  -17.09   13.85
   1  12   5   12.24   14.45
  -1 -12  -5   13.40   15.65
   1  12   4    3.79   14.82
   1  12   4   28.56   14.81
  -1 -12  -4   74.44   16.14
   1  12   4   65.85   15.31
   1  12   3   14.64   15.63
  -1 -12  -3   48.80   16.42
   1  12   3   45.88   15.30
  -1 -12  -3   20.39   12.55
   1  12   3   45.12   15.19
   1  12   2   53.47   16.26
   1  12   2   78.83   16.12
  -1 -12  -2   76.54   17.84
  -1 -12  -2   95.07   14.56
   1  12   2   57.59   16.87
  -1 -12  -1   47.44   14.45
   1  12   1   37.17   14.75
   1  12   1   65.40   16.48
  -1 -12   0  -11.62   13.63
   1  12   0    8.04   15.94
   1  12   0   -1.11   13.69
  -1 -12   0    6.21   16.36
   1  12   0  -20.39   16.36
   1  12  -1  236.66   19.51
   1  12  -1  216.01   16.78
   1  12  -1  168.48   20.08
  -1 -12   1  183.49   16.54
   1  12  -2  194.75   20.57
   1  12  -2  188.77   16.26
   1  12  -2  224.39   19.48
  -1 -12   2  227.01   20.10
  -1 -12   2  188.39   16.42
   1  12  -3   23.34   16.59
   1  12  -3   31.01   18.12
  -1 -12   3   -3.00   18.21
  -1 -12   3   19.05   14.03
   1  12  -3    7.60   13.74
   1  12  -4   74.16   15.29
   1  12  -4  107.95   18.97
  -1 -12   4  104.97   16.31
  -1 -12   4  100.24   20.66
   1  12  -4  103.64   20.12
   1  12  -5  149.43   19.60
  -1 -12   5   96.08   20.14
  -1 -12   5   87.75   16.68
   1  12  -5  108.56   19.75
   1  12  -5   94.57   15.34
   1  12  -6  105.26   19.43
  -1 -12   6   93.98   20.50
   1  12  -6   93.21   15.54
  -1 -12   6  116.52   18.71
   1  12  -6  108.74   20.50
   1  12  -7  160.39   21.16
   1  12  -7  123.38   16.94
  -1 -12   7  151.62   22.39
   1  12  -7  132.29   21.97
   1  12  -8   55.34   16.07
   1  12  -8   39.90   20.12
  -1 -12   8   21.06   20.49
   1  12  -8   30.35   21.18
   1  12  -9  106.58   21.51
   1  12  -9   96.10   23.08
   1  12  -9   91.87   17.53
   1  12 -10   68.04   22.17
   1  12 -10   83.02   24.08
   1  13  14   21.96   18.60
   1  13  13   21.27   17.28
   1  13  13   54.79   18.62
   1  13  13   39.00   16.90
   1  13  12   37.22   17.41
  -1 -13 -12   40.79   20.53
   1  13  12   21.70   16.27
   1  13  12   53.60   16.54
  -1 -13 -11   48.25   19.30
   1  13  11   43.53   17.08
   1  13  11   30.62   15.83
   1  13  11   22.88   16.16
   1  13  10   -7.00   16.53
   1  13  10   32.01   15.36
  -1 -13 -10   21.49   18.09
   1  13  10    6.47   15.10
   1  13   9  128.26   18.00
   1  13   9  156.84   17.32
  -1 -13  -9  110.47   20.02
   1  13   9  111.99   17.14
   1  13   8   71.79   16.72
   1  13   8   78.55   15.74
   1  13   8   63.78   16.16
  -1 -13  -8   65.64   19.04
  -1 -13  -7   70.44   18.31
   1  13   7   42.79   16.14
   1  13   7   34.84   14.99
   1  13   7   58.55   16.24
   1  13   6  144.43   17.71
   1  13   6  200.15   18.19
   1  13   6  167.70   18.66
   1  13   5   25.85   15.77
  -1 -13  -5    2.55   17.05
   1  13   5   58.21   15.97
   1  13   4   46.48   16.59
   1  13   4   30.85   16.82
   1  13   4   28.35   16.72
  -1 -13  -4   50.45   17.71
  -1 -13  -3  231.27   20.30
   1  13   3  274.37   20.31
   1  13   3  253.05   19.72
   1  13   3  306.70   20.51
   1  13   2   92.88   18.21
  -1 -13  -2   79.64   18.40
  -1 -13  -2   91.00   16.09
   1  13   2   89.86   17.72
   1  13   2   77.81   17.51
   1  13   1   40.37   17.35
   1  13   1   60.97   17.76
  -1 -13  -1   64.77   15.53
  -1 -13  -1   29.68   18.00
   1  13   1   68.61   17.25
   1  13   0  -22.28   16.81
   1  13   0    1.17   16.23
  -1 -13   0   10.50   14.29
  -1 -13   0  -19.99   18.13
   1  13  -1   25.31   17.75
  -1 -13   1   51.80   15.35
   1  13  -1   31.97   15.84
  -1 -13   1   32.70   18.76
   1  13  -1   13.72   17.27
   1  13  -2   78.22   18.12
  -1 -13   2   73.54   15.69
   1  13  -2   91.48   16.19
  -1 -13   2  122.51   20.77
   1  13  -2   59.18   19.48
   1  13  -3   52.67   15.70
   1  13  -3   97.71   19.22
  -1 -13   3   87.17   21.19
  -1 -13   3   94.83   16.69
   1  13  -3   56.16   19.72
  -1 -13   4  392.81   21.48
   1  13  -4  376.94   23.71
   1  13  -4  395.96   20.94
   1  13  -5   44.16   18.88
   1  13  -5   21.92   15.35
  -1 -13   5   70.72   22.30
   1  13  -5   73.12   21.37
   1  13  -6  142.85   22.90
   1  13  -6  124.34   21.43
   1  13  -6   85.36   16.78
  -1 -13   6  152.53   24.67
   1  13  -7   35.14   20.30
   1  13  -7   33.90   21.25
   1  13  -7   27.85   16.17
   1  13  -8   77.70   21.65
   1  13  -8  113.09   24.10
   1  13  -9    7.26   21.21
   1  14  13  139.98   21.02
   1  14  12   72.53   19.07
   1  14  12   78.93   18.34
   1  14  11   91.29   19.41
   1  14  11   59.02   18.16
   1  14  11   50.05   17.47
   1  14  10   56.64   18.29
   1  14  10   38.69   16.49
  -1 -14 -10   16.06   20.43
   1  14  10    4.67   16.45
   1  14   9   78.61   18.13
   1  14   9  120.39   17.57
  -1 -14  -9   84.19   21.22
   1  14   9   64.36   17.25
   1  14   8  169.46   19.73
   1  14   8  136.64   18.29
  -1 -14  -8  172.35   21.83
   1  14   8  135.58   17.48
   1  14   7   39.21   17.06
  -1 -14  -7   49.96   19.77
   1  14   7   47.40   16.11
   1  14   7   35.65   17.02
   1  14   6   68.65   17.16
   1  14   6   62.34   16.19
   1  14   6   99.64   17.27
  -1 -14  -5   13.20   18.67
   1  14   5   -3.59   16.15
   1  14   5   21.90   16.36
   1  14   5   12.31   16.20
   1  14   4   96.86   17.71
   1  14   4   76.85   17.14
  -1 -14  -4  110.69   18.64
   1  14   4   64.21   16.86
   1  14   3    0.53   17.30
   1  14   3   16.63   16.76
   1  14   3   50.13   18.57
  -1 -14  -3   42.91   18.79
   1  14   2  120.73   20.14
  -1 -14  -2   95.94   21.64
   1  14   2  120.36   20.57
   1  14   1  462.13   24.85
   1  14   1  438.16   23.76
  -1 -14  -1  498.56   27.35
   1  14   1  402.99   24.03
   1  14   0  280.74   22.23
   1  14   0  351.70   22.58
  -1 -14   0  247.63   19.12
  -1 -14   0  329.23   24.89
   1  14   0  285.83   22.75
   1  14  -1   81.81   19.63
  -1 -14   1   66.39   22.00
  -1 -14   1   47.65   16.08
   1  14  -1   74.51   18.00
   1  14  -1   48.75   19.65
   1  14  -2   27.17   19.16
   1  14  -2   36.25   17.53
   1  14  -2  -11.72   20.01
  -1 -14   2   10.23   21.26
   1  14  -3    2.89   18.43
   1  14  -3  -13.45   20.10
   1  14  -3   17.33   16.48
   1  14  -4  126.28   21.29
   1  14  -4   80.74   22.82
   1  14  -4  100.11   19.12
   1  14  -5  184.97   20.42
   1  14  -5  187.41   23.13
   1  14  -5  237.19   25.26
   1  14  -6   33.34   21.01
   1  14  -6    9.69   22.34
   1  14  -7   49.39   22.02
   1  15  11    5.95   18.74
   1  15  10   -5.40   18.06
   1  15  10    9.35   17.50
   1  15   9   34.12   18.54
   1  15   9    7.90   16.57
   1  15   9   43.64   18.16
   1  15   8   60.34   18.82
   1  15   8   23.07   16.56
   1  15   8   44.69   17.69
  -1 -15  -7   50.97   22.67
   1  15   7   87.67   18.33
   1  15   7   72.02   18.38
   1  15   7   63.19   17.00
   1  15   6   63.00   17.45
   1  15   6   23.91   17.38
   1  15   6   51.54   17.75
  -1 -15  -6    0.42   20.53
   1  15   5  183.42   19.79
   1  15   5  151.60   19.76
   1  15   5  131.04   18.14
  -1 -15  -5  169.79   22.84
   1  15   4   88.82   18.90
   1  15   4   62.34   18.18
  -1 -15  -4   58.07   21.28
   1  15   4   72.69   18.84
  -1 -15  -3   94.61   21.99
   1  15   3   57.05   19.96
   1  15   3   88.34   19.45
   1  15   3   79.89   19.22
   1  15   2  149.12   20.67
   1  15   2  181.22   20.36
  -1 -15  -2  190.10   23.83
   1  15   2  153.22   20.29
   1  15   1  103.51   19.39
  -1 -15  -1   43.72   21.50
   1  15   1   58.34   19.14
   1  15   1   27.21   18.77
   1  15   0   72.81   20.71
  -1 -15   0   78.07   23.01
   1  15   0   52.94   18.63
   1  15   0   24.51   19.76
   1  15  -1   70.11   20.66
   1  15  -1   33.58   18.43
  -1 -15   1   56.78   23.01
   1  15  -1   23.75   20.27
   1  15  -2   96.03   21.74
   1  15  -2  137.03   20.14
   1  15  -2  113.33   22.00
   1  15  -3  139.56   23.53
   1  15  -3  149.55   21.74
   1  15  -3  197.65   24.25
   1  15  -4  141.90   23.20
   1  15  -4  140.84   24.55
   1  15  -5   50.03   22.65
   1  16   9   42.95   20.54
   1  16   8  113.67   20.71
   1  16   7   38.04   19.23
   1  16   7   63.00   19.36
   1  16   6   56.10   19.01
   1  16   6   42.61   18.85
   1  16   5   97.86   19.27
   1  16   5   64.65   19.07
   1  16   4   42.68   18.26
   1  16   4  104.09   19.50
   1  16   3  102.02   20.87
   1  16   3   46.96   19.93
   1  16   2  111.16   21.65
   1  16   2  121.69   21.32
   1  16   1   44.07   19.80
   1  16   1  139.75   22.40
   1  16   0   82.75   21.38
   1  16  -1   48.16   21.39
   1  16  -1   52.27   21.01
   1  16  -2  128.22   23.09
   2 -16   2   75.87   22.92
   2 -16   1   54.67   24.26
   2 -16   0   66.46   25.24
   2 -16  -1   67.15   26.17
   2 -16  -2  135.71   28.24
   2 -16  -3  -23.73   23.98
   2 -16  -4  -15.91   24.54
   2 -16  -5  108.25   24.71
   2 -16  -5  108.62   26.86
   2 -16  -6   80.50   26.18
   2 -16  -6   84.37   27.07
   2 -16  -7   23.22   25.95
   2 -15   5    7.18   20.70
   2 -15   4  102.26   21.44
   2 -15   3   98.47   21.49
   2 -15   1  -22.59   20.88
  -2  15  -1   -8.59   22.13
   2 -15   0   53.71   22.05
  -2  15   0   34.16   22.36
   2 -15  -1   91.44   24.59
  -2  15   1   93.64   23.21
  -2  15   2  158.87   25.62
   2 -15  -2   68.75   25.44
   2 -15  -3   36.09   23.95
   2 -15  -3   43.97   14.69
  -2  15   3   18.04   22.00
   2 -15  -4   62.46   15.94
   2 -15  -4   98.81   25.02
  -2  15   4  101.86   24.39
   2 -15  -5  203.17   18.86
  -2  15   5  224.70   27.74
   2 -15  -6   41.01   22.88
   2 -15  -6   29.70   15.28
   2 -15  -6   12.75   24.03
   2 -15  -7   22.25   23.96
   2 -15  -7   -1.09   14.91
   2 -15  -8   72.57   25.24
   2 -15  -9   41.48   25.45
   2 -15 -10   77.96   26.30
   2 -14   8   80.78   21.29
   2 -14   7  134.19   22.67
   2 -14   6   52.79   20.68
   2 -14   5   77.64   20.62
   2 -14   4   49.40   19.73
  -2  14  -4   24.86   19.57
  -2  14  -3   36.08   19.25
   2 -14   3   37.44   19.47
  -2  14  -2   60.02   19.82
   2 -14   2   54.21   19.16
   2 -14   1    5.13   18.10
  -2  14  -1   22.26   19.65
   2 -14   0  107.93   24.87
  -2  14   0  267.68   25.82
   2 -14  -1  -15.95   20.41
  -2  14   1    1.90   19.99
  -2  14   2   32.61   19.97
   2 -14  -2   22.90   21.04
   2 -14  -3  110.72   21.60
  -2  14   3   81.67   20.53
   2 -14  -4   75.01   13.88
   2 -14  -4   56.44   22.03
  -2  14   4   41.10   20.33
   2 -14  -5   54.84   14.34
   2 -14  -5   28.16   20.86
   2 -14  -6   25.35   23.28
   2 -14  -6   69.79   15.60
  -2  14   6   43.88   20.99
   2 -14  -7   88.63   15.39
  -2  14   7   84.81   21.57
   2 -14  -7  123.12   24.06
   2 -14  -8   -6.74   14.82
  -2  14   8  -20.19   21.87
   2 -14  -8   42.19   23.71
   2 -14  -9   25.53   14.72
   2 -14  -9   -2.87   22.93
   2 -14 -10  100.00   25.09
   2 -14 -11   99.29   24.89
   2 -13   9  148.86   21.27
   2 -13   8   92.06   19.67
  -2  13  -7   82.31   19.36
   2 -13   7   85.17   18.75
  -2  13  -6   16.64   18.01
   2 -13   6   38.56   18.44
  -2  13  -5   74.05   18.28
   2 -13   5   48.00   18.02
   2 -13   4    4.04   17.03
  -2  13  -4   46.07   16.81
   2 -13   3   55.83   17.95
   2 -13   3   51.09   20.68
   2 -13   2  323.99   28.04
  -2  13  -2  269.13   23.48
   2 -13   1  251.43   24.82
  -2  13  -1  227.19   22.66
   2 -13   0   26.29   18.97
   2 -13   0    1.41   19.68
  -2  13   0   56.92   19.64
   2 -13  -1  299.06   29.22
  -2  13   1  267.47   28.85
  -2  13   2   99.20   18.07
   2 -13  -2  167.05   20.48
   2 -13  -2   80.20   23.66
  -2  13   2  136.27   22.84
  -2  13   3  215.62   20.23
   2 -13  -3  219.55   26.60
  -2  13   3  164.16   14.05
  -2  13   3  207.47   25.67
   2 -13  -4   54.66   15.98
   2 -13  -4   63.03   21.78
  -2  13   4   43.08   19.44
  -2  13   4   75.31   15.02
  -2  13   4   38.29   10.97
  -2  13   5   17.24   18.38
   2 -13  -5   59.95   13.61
   2 -13  -5   17.25   20.16
   2 -13  -5   48.44   15.82
  -2  13   5   29.16   14.15
  -2  13   5   45.21   10.89
   2 -13  -6   13.20   20.65
   2 -13  -6   17.79   13.13
  -2  13   6   43.84   11.16
  -2  13   6   43.46   14.10
   2 -13  -7   52.24   21.20
  -2  13   7   29.57   14.10
  -2  13   7   39.09   11.51
   2 -13  -7   18.57   13.35
   2 -13  -8   35.81   14.38
  -2  13   8   49.51   14.90
  -2  13   8   27.21   11.67
  -2  13   8    7.13   19.45
   2 -13  -8   31.03   21.52
   2 -13  -9   52.77   14.87
  -2  13   9   77.41   21.03
  -2  13   9   51.94   15.18
   2 -13  -9   95.57   22.83
  -2  13  10   97.34   21.61
   2 -13 -10   66.46   14.75
   2 -13 -11  373.40   28.25
   2 -13 -11  361.14   18.60
   2 -13 -12   54.72   22.79
   2 -13 -13   32.55   23.52
   2 -12  11   62.68   20.00
   2 -12  10   24.52   18.67
   2 -12   9   55.58   14.74
   2 -12   9    9.08   16.57
   2 -12   8   34.61   17.19
  -2  12  -8   49.64   18.22
   2 -12   8   42.86   13.95
  -2  12  -7   46.30   17.29
   2 -12   7  107.56   18.46
  -2  12  -6   44.60   17.54
   2 -12   6   70.41   17.44
   2 -12   5   -9.78   16.18
  -2  12  -5   11.88   15.52
   2 -12   5   19.07   17.78
   2 -12   4   36.07   16.98
   2 -12   4   66.77   19.24
  -2  12  -4   37.03   15.43
   2 -12   3   52.37   17.73
  -2  12  -3   51.72   16.02
   2 -12   3   60.88   19.16
  -2  12  -2  128.24   18.94
   2 -12   2  150.83   21.20
   2 -12   2  187.38   23.17
   2 -12   1  206.14   25.51
  -2  12  -1  239.28   22.37
   2 -12   1  206.64   24.06
   2 -12   0  104.21   20.90
  -2  12   0  158.60   20.51
  -2  12   0   66.47   13.37
   2 -12   0  204.13   21.76
  -2  12   1   59.95   12.12
   2 -12  -1   53.00   19.54
  -2  12   1   65.50   20.45
  -2  12   2   28.68   17.37
   2 -12  -2   15.26   14.40
  -2  12   2   18.26   13.19
   2 -12  -2   15.69   18.49
  -2  12   2   19.42   10.13
  -2  12   3   24.35   16.90
   2 -12  -3   41.68   19.19
  -2  12   3   38.98   10.57
   2 -12  -3   80.84   15.04
  -2  12   3   22.36   13.25
   2 -12  -4   26.03   16.60
   2 -12  -4   19.58   19.45
   2 -12  -4   26.40   13.99
  -2  12   4    4.96   16.77
  -2  12   4   43.53   10.35
  -2  12   4   -0.59   12.91
  -2  12   5   99.11   11.30
   2 -12  -5  106.43   20.32
   2 -12  -5   71.60   13.97
   2 -12  -5  112.02   16.11
   2 -12  -5   95.55   18.23
  -2  12   5   76.60   18.74
  -2  12   5   92.61   14.31
  -2  12   6  274.87   13.48
   2 -12  -6  251.18   16.75
   2 -12  -6  292.58   24.26
   2 -12  -6  223.93   24.27
   2 -12  -6  307.33   21.04
  -2  12   6  315.79   24.22
  -2  12   6  271.36   17.25
   2 -12  -6  290.32   18.62
  -2  12   7  106.29   14.59
   2 -12  -7  114.17   18.46
   2 -12  -7  104.51   21.00
   2 -12  -7  105.39   14.32
  -2  12   7  122.55   12.02
   2 -12  -7  113.89   15.79
  -2  12   7  152.70   20.42
  -2  12   8   16.74   11.07
   2 -12  -8   44.65   14.21
   2 -12  -8   22.82   13.72
  -2  12   8   54.92   14.03
   2 -12  -8   41.32   17.68
  -2  12   8   56.95   18.77
   2 -12  -8   62.23   21.03
  -2  12   9   80.62   12.72
   2 -12  -9   99.24   21.80
   2 -12  -9   81.53   16.19
   2 -12  -9   94.61   18.56
  -2  12   9  119.28   20.44
   2 -12  -9   73.86   14.67
  -2  12   9   84.80   15.24
  -2  12  10  166.26   21.71
  -2  12  10  128.36   15.88
   2 -12 -10  191.41   16.36
   2 -12 -10  202.84   24.17
  -2  12  10  161.95   13.74
   2 -12 -11   21.69   21.82
   2 -12 -11   59.89   14.54
  -2  12  11   42.75   14.98
  -2  12  11   59.61   20.42
   2 -12 -12   65.62   14.63
  -2  12  12   72.75   22.40
   2 -12 -12   62.94   22.41
   2 -12 -13   51.51   22.10
   2 -12 -14   29.90   22.88
   2 -11  12  218.48   21.80
   2 -11  11   34.90   14.91
   2 -11  11   54.85   18.59
   2 -11  11    8.51   15.95
   2 -11  10   72.02   18.01
  -2  11 -10   14.01   18.65
   2 -11  10   42.16   14.27
   2 -11  10   24.46   15.41
  -2  11  -9  103.96   19.30
   2 -11   9   82.57   17.36
   2 -11   9   63.69   14.10
   2 -11   9   67.21   15.71
  -2  11  -8   23.27   16.72
   2 -11   8    3.30   17.44
   2 -11   8    7.26   12.88
  -2  11  -7   25.47   16.15
   2 -11   7   50.89   16.88
   2 -11   7   33.26   12.79
   2 -11   6   95.53   13.32
  -2  11  -6  109.36   16.36
   2 -11   6   68.12   16.56
   2 -11   5  116.17   19.09
   2 -11   5  134.72   17.55
  -2  11  -5  116.42   16.69
   2 -11   4   83.36   16.95
  -2  11  -4   52.20   15.28
   2 -11   4   75.56   18.84
   2 -11   3   28.24   17.05
   2 -11   3   34.64   15.71
  -2  11  -2   14.17   13.98
   2 -11   2   52.50   16.22
  -2  11  -2   59.17   14.51
  -2  11  -2   41.17    9.83
   2 -11   2   31.71   17.31
   2 -11   1    0.53   14.31
  -2  11  -1   26.87   14.40
  -2  11  -1    0.04    8.69
   2 -11   1   35.77   15.27
  -2  11  -1   39.92   12.39
   2 -11   0   23.54   14.52
  -2  11   0   42.76   11.73
   2 -11   0    4.17   13.97
   2 -11   0  -16.55   14.00
  -2  11   0   40.67   14.40
  -2  11   0   -8.94    8.94
  -2  11   1  265.73   23.37
  -2  11   1   76.94   19.16
   2 -11  -1  234.75   23.80
  -2  11   1   89.07   15.07
   2 -11  -1  341.92   22.51
   2 -11  -1  186.41   22.39
  -2  11   2   33.43   13.34
  -2  11   2   85.17   10.96
   2 -11  -2   62.56   16.74
   2 -11  -2   59.92   18.59
  -2  11   2   85.48   18.06
   2 -11  -2  109.05   15.56
  -2  11   3   26.97   12.60
   2 -11  -3   17.10   16.43
   2 -11  -3   34.59   12.61
  -2  11   3   14.19   15.46
  -2  11   3   12.55    9.18
   2 -11  -3    9.47   14.36
  -2  11   3   26.34   11.72
  -2  11   4  138.78   20.49
  -2  11   4  176.75   17.33
   2 -11  -4  246.90   17.20
   2 -11  -4  218.85   22.06
   2 -11  -4  204.32   18.69
  -2  11   4  182.04   15.66
  -2  11   4  188.69   12.00
  -2  11   5  563.89   23.23
  -2  11   5  486.81   19.55
   2 -11  -5  533.22   26.89
  -2  11   5  503.74   15.15
   2 -11  -5  618.75   21.94
  -2  11   5  604.33   29.05
   2 -11  -5  581.30   23.36
  -2  11   6  129.19   13.78
  -2  11   6   59.32   15.14
   2 -11  -6  134.78   17.19
   2 -11  -6  102.69   19.64
  -2  11   6   82.20   10.76
   2 -11  -6   88.49   13.60
   2 -11  -6  100.64   14.00
  -2  11   6   95.94   18.12
   2 -11  -6  101.12   20.27
   2 -11  -7   41.79   13.08
  -2  11   7    4.60   13.87
   2 -11  -7   15.35   18.35
  -2  11   7   14.29   10.19
   2 -11  -7   27.28   15.91
  -2  11   7    9.29   16.61
  -2  11   7   31.81   12.64
   2 -11  -7   23.73   12.67
  -2  11   8  136.40   16.87
   2 -11  -8   98.98   15.23
   2 -11  -8  115.50   17.18
   2 -11  -8  147.08   21.95
  -2  11   8  118.29   13.87
  -2  11   8  122.46   11.90
   2 -11  -8  120.00   14.46
  -2  11   8  152.27   19.46
   2 -11  -9   67.97   14.55
   2 -11  -9   76.57   14.03
  -2  11   9   60.21   11.72
   2 -11  -9   44.77   19.38
  -2  11   9   90.46   14.23
  -2  11   9   94.39   18.63
   2 -11  -9   49.47   16.65
   2 -11 -10   51.03   20.65
  -2  11  10   33.31   17.73
   2 -11 -10   44.35   13.39
  -2  11  10   19.31   11.52
   2 -11 -10    4.99   13.93
  -2  11  10   51.02   14.19
   2 -11 -10   28.71   17.10
   2 -11 -11   -5.09   19.48
  -2  11  11    5.35   18.17
  -2  11  11    0.70   12.07
   2 -11 -11   51.91   13.39
   2 -11 -11   36.80   15.25
   2 -11 -11   46.09   18.68
  -2  11  11   37.26   14.41
  -2  11  12   28.22   14.69
  -2  11  12   27.74   19.89
  -2  11  12   52.43   13.11
   2 -11 -12   39.44   13.79
   2 -11 -13   10.59   20.53
  -2  11  13   47.24   21.62
   2 -11 -13   -9.32   14.03
   2 -11 -14   41.92   21.53
   2 -11 -15   31.49   22.84
   2 -10  13   79.83   19.70
   2 -10  12   18.51   17.62
   2 -10  12   30.91   16.11
   2 -10  12   10.97   14.39
  -2  10 -11   52.68   18.97
   2 -10  11   91.11   18.14
   2 -10  11   51.37   14.41
   2 -10  11   92.42   16.15
   2 -10  10   40.38   14.10
  -2  10 -10   83.79   18.43
   2 -10  10   80.69   16.94
   2 -10  10   34.91   14.66
  -2  10  -9  280.05   20.36
   2 -10   9  267.81   19.52
   2 -10   9  291.93   16.68
   2 -10   9  285.61   17.82
   2 -10   9  314.60   21.95
   2 -10   8  180.80   14.57
  -2  10  -8  207.57   18.54
   2 -10   8  197.94   17.88
   2 -10   8  215.68   16.44
  -2  10  -7   62.85   15.49
   2 -10   7  105.63   15.93
   2 -10   7   57.19   12.52
   2 -10   7  110.84   16.54
   2 -10   7   67.11   13.97
   2 -10   6    8.43   15.03
   2 -10   6    7.54   11.26
   2 -10   6   -2.29   13.29
  -2  10  -6   21.96   14.26
   2 -10   5    4.17   14.82
   2 -10   5   13.79   14.02
  -2  10  -5    0.09   13.37
   2 -10   5    9.48   11.12
   2 -10   4   60.43   14.62
   2 -10   4   33.04   11.26
  -2  10  -4   50.13   13.45
   2 -10   4   51.40   17.04
   2 -10   3   44.34   13.89
  -2  10  -3   34.01   13.42
  -2  10  -3   25.33    8.58
  -2  10  -3   38.83   13.31
   2 -10   3   66.23   16.18
  -2  10  -2  219.47   16.56
   2 -10   2  182.38   18.46
  -2  10  -2  140.36   12.33
   2 -10   2  113.66   22.22
  -2  10  -2   75.89   16.04
  -2  10  -1  248.86   19.73
   2 -10   1  247.83   20.23
   2 -10   1  148.89   21.69
   2 -10   1  211.03   23.28
  -2  10  -1  132.69   13.99
  -2  10   0  118.03   17.08
   2 -10   0   81.36   16.34
  -2  10   0   43.65   10.94
   2 -10   0   23.23   17.09
   2 -10   0  119.80   16.54
  -2  10   1  114.76   12.84
  -2  10   1  165.34   18.40
  -2  10   1  161.32   19.77
   2 -10  -1  159.59   19.09
   2 -10  -1  167.87   18.89
  -2  10   2   15.60    8.46
   2 -10  -2   -2.70   11.65
  -2  10   2   -1.89   11.75
   2 -10  -2   62.99   14.55
  -2  10   2   18.63   14.10
  -2  10   2   28.96   11.09
   2 -10  -2   36.25   13.47
  -2  10   3   -0.33   10.77
   2 -10  -3   34.45   13.33
   2 -10  -3   33.53   15.08
  -2  10   3    9.61    8.15
  -2  10   3   28.24   14.25
   2 -10  -3   17.69   11.99
  -2  10   4   75.65   13.06
   2 -10  -4  111.15   17.75
   2 -10  -4  111.75   15.43
  -2  10   4   88.04    9.62
   2 -10  -4   95.48   12.63
  -2  10   4   91.47   12.38
  -2  10   5  149.43   18.40
  -2  10   5  180.49   15.43
   2 -10  -5  175.12   19.07
  -2  10   5  175.32   11.08
   2 -10  -5  158.45   14.04
   2 -10  -5  193.47   16.65
  -2  10   5  160.70   13.02
   2 -10  -6   99.47   15.19
  -2  10   6  124.75   13.82
   2 -10  -6  103.26   17.48
  -2  10   6   67.05   11.03
  -2  10   6   74.25   10.43
   2 -10  -6   85.71   12.78
   2 -10  -6   94.29   18.58
   2 -10  -6  106.98   13.29
  -2  10   6   73.66   16.54
  -2  10   6  105.04   12.36
  -2  10   7   54.49   13.12
   2 -10  -7   31.72   17.61
   2 -10  -7    3.10   11.91
  -2  10   7   15.45    9.69
   2 -10  -7   14.76   12.38
   2 -10  -7    4.64   13.84
  -2  10   7   33.42   15.33
  -2  10   7    9.11   11.08
  -2  10   8  159.35   15.36
   2 -10  -8   94.58   14.11
   2 -10  -8  102.85   13.67
  -2  10   8  129.87   13.45
  -2  10   8  120.87   11.56
   2 -10  -8  117.27   16.80
  -2  10   8  158.92   18.41
   2 -10  -8  132.35   20.12
  -2  10   9   18.47   16.23
  -2  10   9   67.54   14.79
   2 -10  -9   24.16   12.68
   2 -10  -9   17.98   13.31
  -2  10   9   19.34   10.55
  -2  10   9   33.12   13.14
   2 -10  -9   42.28   16.00
   2 -10  -9   32.34   18.58
  -2  10  10   86.78   17.37
  -2  10  10   92.47   16.13
  -2  10  10   73.83   13.58
   2 -10 -10   54.59   13.22
  -2  10  10   53.60   11.94
   2 -10 -10   46.96   18.91
   2 -10 -10   34.43   13.94
   2 -10 -10   84.15   16.79
  -2  10  11  101.94   16.91
   2 -10 -11   35.73   13.32
  -2  10  11   75.47   18.33
  -2  10  11   76.67   12.61
  -2  10  11   68.66   14.32
   2 -10 -11   60.13   13.40
   2 -10 -11   87.86   17.89
   2 -10 -11   84.67   19.44
   2 -10 -12  123.74   20.85
  -2  10  12  118.69   17.74
  -2  10  12   99.42   19.95
  -2  10  12  108.13   13.41
   2 -10 -12   43.25   14.38
  -2  10  12  126.13   15.67
   2 -10 -12   82.73   14.10
   2 -10 -12   68.66   18.34
   2 -10 -13   24.02   20.06
  -2  10  13   30.35   19.99
   2 -10 -13   -3.54   13.37
  -2  10  13   34.23   12.89
  -2  10  13   33.22   15.16
   2 -10 -14   39.45   21.09
  -2  10  14   58.42   21.98
   2 -10 -14   30.01   14.24
   2 -10 -15   66.90   22.19
   2  -9  14   70.23   18.95
   2  -9  13   52.68   17.97
   2  -9  13   13.64   14.88
   2  -9  13   29.82   15.95
  -2   9 -12   40.53   19.14
   2  -9  12   46.23   17.03
   2  -9  12   19.22   14.12
   2  -9  12   20.52   14.73
   2  -9  11   81.03   16.74
   2  -9  11   52.80   17.73
   2  -9  11   70.23   14.43
  -2   9 -11   93.19   18.76
   2  -9  11   72.07   15.04
  -2   9 -10   24.22   15.80
   2  -9  10   36.81   17.33
   2  -9  10   36.11   15.82
   2  -9  10   55.88   13.56
   2  -9  10   28.52   13.64
  -2   9  -9   83.94   16.52
   2  -9   9  111.77   16.38
   2  -9   9   98.02   13.82
   2  -9   9   99.12   14.52
   2  -9   8   19.66   14.82
  -2   9  -8   -4.92   14.33
   2  -9   8   20.92   14.31
   2  -9   8   17.26   11.71
   2  -9   8   38.39   12.72
  -2   9  -7   75.28   14.86
   2  -9   7  106.50   15.24
   2  -9   7   67.70   15.74
   2  -9   7   57.62   11.77
   2  -9   7   59.23   12.93
  -2   9  -6  186.35   15.94
   2  -9   6  191.64   16.01
   2  -9   6  189.46   17.43
   2  -9   6  201.36   13.61
   2  -9   5  278.76   14.89
   2  -9   5  265.76   17.95
  -2   9  -5  202.30   16.20
   2  -9   5  234.06   19.48
   2  -9   5  227.25   15.65
   2  -9   4  683.99   23.86
  -2   9  -4  494.47   20.35
  -2   9  -4  591.13   14.40
   2  -9   4  410.25   26.73
   2  -9   4  579.18   18.38
  -2   9  -4  468.13   20.68
   2  -9   3  143.90   12.47
  -2   9  -3   89.51   14.05
   2  -9   3  183.25   15.84
  -2   9  -3  111.47   13.63
   2  -9   3  177.42   16.78
  -2   9  -3  123.23    9.82
   2  -9   3  131.27   17.22
   2  -9   2   69.00   12.78
  -2   9  -2   45.82   11.90
   2  -9   2   17.24   13.25
  -2   9  -2   27.74    8.01
   2  -9   2   14.76   13.72
   2  -9   2   47.13   10.64
  -2   9  -2    0.65   11.25
   2  -9   1    7.93   13.05
  -2   9  -1   42.38   12.46
   2  -9   1   24.10   13.63
  -2   9  -1   44.65    8.52
   2  -9   1   38.94   13.36
  -2   9  -1    8.08   11.12
   2  -9   0   -5.78   11.83
  -2   9   0    3.00    7.18
  -2   9   0   16.13   11.17
  -2   9   0   -8.96    9.66
  -2   9   0   18.38   12.34
   2  -9   0    6.49   12.20
   2  -9   0    8.85   11.20
   2  -9  -1   44.46   11.56
  -2   9   1   16.00   12.51
  -2   9   1   -2.62   10.78
  -2   9   1   17.95    7.37
   2  -9  -1   45.29   12.13
  -2   9   1   34.99    9.51
  -2   9   2  153.94   16.00
  -2   9   2  227.03   11.62
   2  -9  -2  202.51   18.74
  -2   9   2  189.53   19.78
   2  -9  -2  189.66   16.75
  -2   9   2  145.29   14.95
  -2   9   3  138.86   17.42
  -2   9   3  173.85   14.70
   2  -9  -3  189.43   15.67
   2  -9  -3  199.78   17.77
  -2   9   3  161.94   10.08
   2  -9  -3  206.39   13.82
  -2   9   3  171.12   13.15
  -2   9   4  162.36   14.25
   2  -9  -4  229.73   18.28
  -2   9   4  192.91   18.99
   2  -9  -4  248.01   13.74
   2  -9  -4  193.63   15.36
  -2   9   4  209.95   10.40
  -2   9   4  221.61   13.48
  -2   9   5   90.17    9.02
   2  -9  -5   75.89   13.31
  -2   9   5  101.50   12.69
  -2   9   5   53.59    9.74
   2  -9  -5   76.53   15.73
  -2   9   5   70.34   15.30
   2  -9  -5   79.23   11.60
  -2   9   5   79.65   11.16
  -2   9   6   29.07   11.50
   2  -9  -6   54.14   13.00
   2  -9  -6   44.75   14.63
  -2   9   6   -9.21    7.82
   2  -9  -6   22.92   11.24
  -2   9   6   -2.92    8.36
   2  -9  -6   44.22   15.22
   2  -9  -6   14.20   10.91
  -2   9   6   21.81   13.48
  -2   9   6   18.60    9.78
   2  -9  -7   25.02   13.26
  -2   9   7   24.92   11.83
  -2   9   7   29.31   10.51
  -2   9   7   38.36    9.58
   2  -9  -7   46.90   11.93
   2  -9  -7   25.53   11.60
  -2   9   7   57.15   14.83
  -2   9   7   51.52   10.84
   2  -9  -7   59.17   16.32
  -2   9   8   64.36   12.45
   2  -9  -8   43.98   13.67
   2  -9  -8   50.90   12.32
  -2   9   8   43.87   13.14
   2  -9  -8   23.52   11.36
   2  -9  -8   69.05   17.10
  -2   9   8   45.76   10.20
  -2   9   8   37.66   10.97
  -2   9   8   30.60   14.92
  -2   9   9  350.06   14.20
   2  -9  -9  325.17   16.80
   2  -9  -9  332.58   16.38
  -2   9   9  403.01   18.66
  -2   9   9  352.74   16.25
   2  -9  -9  405.24   19.57
   2  -9  -9  432.52   23.31
  -2   9   9  416.39   21.15
  -2   9  10   82.47   16.72
   2  -9 -10   67.14   12.88
  -2   9  10   51.44   11.23
   2  -9 -10   63.69   12.93
  -2   9  10   88.36   15.17
  -2   9  10   78.75   13.31
   2  -9 -10   85.09   15.79
   2  -9 -10   82.52   18.11
   2  -9 -11   18.45   17.49
  -2   9  11   56.80   16.53
  -2   9  11   37.58   14.93
  -2   9  11   26.41   12.97
   2  -9 -11   59.45   12.74
  -2   9  11   29.90   12.02
   2  -9 -11   33.63   12.94
   2  -9 -11   59.15   16.95
   2  -9 -12   34.55   18.10
   2  -9 -12    0.67   12.33
  -2   9  12   20.78   17.92
  -2   9  12   38.90   15.73
   2  -9 -12   14.26   16.34
  -2   9  12    9.44   11.75
   2  -9 -12   30.74   12.99
  -2   9  12   -2.77   13.76
   2  -9 -13   32.83   18.95
  -2   9  13   50.05   12.90
  -2   9  13   32.42   18.80
  -2   9  13   33.86   16.15
   2  -9 -13    5.94   13.41
  -2   9  13   15.56   13.95
   2  -9 -13   18.51   18.03
   2  -9 -14  120.22   21.11
  -2   9  14  138.66   21.77
   2  -9 -14   83.20   14.78
  -2   9  14  119.92   16.91
   2  -9 -15   88.73   15.80
   2  -9 -15  125.00   22.18
   2  -9 -16  131.55   22.74
   2  -8  15   36.97   18.45
   2  -8  14   20.79   16.97
   2  -8  14   31.32   15.69
   2  -8  14   14.29   15.23
  -2   8 -13   68.24   19.56
   2  -8  13   18.54   14.41
   2  -8  13   33.25   16.24
   2  -8  13   10.03   14.39
  -2   8 -12    1.37   17.24
   2  -8  12   40.75   15.72
   2  -8  12    4.54   13.06
   2  -8  12   21.82   13.48
   2  -8  12   28.34   18.31
  -2   8 -11   81.69   17.10
   2  -8  11  123.21   16.33
   2  -8  11   96.19   18.25
   2  -8  11  117.19   14.54
   2  -8  11   79.11   14.39
   2  -8  10   25.30   16.16
  -2   8 -10   13.52   14.96
   2  -8  10    2.14   12.35
   2  -8  10   40.24   14.49
   2  -8  10    0.74   12.48
   2  -8   9   51.39   12.70
  -2   8  -9   64.08   15.02
   2  -8   9   68.14   14.47
   2  -8   9   70.48   15.48
   2  -8   9   44.31   12.51
  -2   8  -8  209.72   16.20
   2  -8   8  208.39   16.42
   2  -8   8  224.21   14.66
   2  -8   8  237.66   14.54
   2  -8   7  155.41   15.51
  -2   8  -7  138.85   14.65
   2  -8   7  146.05   14.79
   2  -8   7  139.15   12.45
   2  -8   7  141.94   13.50
  -2   8  -6  196.39   14.94
   2  -8   6  232.46   15.47
   2  -8   6  195.48   16.93
   2  -8   6  218.45   12.80
   2  -8   6  210.43   14.16
  -2   8  -5  121.54   13.73
   2  -8   5  187.35   14.75
   2  -8   5  128.86   16.88
   2  -8   5  158.38   12.00
  -2   8  -5  181.52   14.12
   2  -8   5  146.11   13.16
   2  -8   4  282.56   16.41
   2  -8   4  333.24   18.54
  -2   8  -4  280.35   10.29
   2  -8   4  308.43   13.73
  -2   8  -4  275.47   15.51
   2  -8   4  291.48   15.35
   2  -8   3  580.67   21.34
  -2   8  -3  515.76   18.62
  -2   8  -3  425.98   13.08
   2  -8   3  330.99   25.78
   2  -8   3  566.43   17.34
  -2   8  -3  425.24   19.03
   2  -8   3  770.12   23.95
   2  -8   2   16.85   11.79
  -2   8  -2   25.01   10.15
   2  -8   2   13.91   10.30
  -2   8  -2    1.06   10.34
  -2   8  -2   11.96    6.94
   2  -8   2    4.42   11.97
   2  -8   2   24.74    8.93
  -2   8  -1   25.14   12.93
   2  -8   1   64.43   13.66
   2  -8   1    1.95   12.71
   2  -8   1   39.79   13.43
  -2   8  -1    9.83    8.73
  -2   8  -1   95.19   12.18
   2  -8   1   81.04   11.26
  -2   8  -1    2.17   11.85
  -2   8   0   13.50   10.52
   2  -8   0   -3.03   10.12
   2  -8   0    8.64   10.42
  -2   8   0    4.60    8.75
  -2   8   0   -1.65    6.52
   2  -8   0   -8.89   10.80
  -2   8   1    5.33   11.02
  -2   8   1   15.61    9.78
   2  -8  -1   -5.17   10.53
  -2   8   1   14.95    6.70
   2  -8  -1   32.87   10.31
   2  -8  -1    4.79    9.58
  -2   8   2   29.47    9.93
   2  -8  -2   10.95   11.56
  -2   8   2   14.83    6.65
  -2   8   2   -9.18   11.69
   2  -8  -2   35.73   11.07
   2  -8  -2   24.09    9.48
  -2   8   2   16.44    8.75
  -2   8   3   29.89    8.07
  -2   8   3   -2.07    9.42
  -2   8   3   12.66    8.70
   2  -8  -3   30.55   12.91
  -2   8   3   23.58    7.40
  -2   8   3   28.60   12.19
   2  -8  -3   37.34   11.15
   2  -8  -3   24.25    9.30
  -2   8   4   17.96    9.38
  -2   8   4    0.15    7.02
   2  -8  -4    5.18   12.76
   2  -8  -4    0.57    9.75
   2  -8  -4   32.23   11.56
  -2   8   4   26.21    8.68
  -2   8   4   -3.22    7.65
  -2   8   4   -3.03   11.69
  -2   8   5   35.98   10.51
  -2   8   5   20.83    7.61
  -2   8   5   11.10    8.13
   2  -8  -5    5.23    9.71
   2  -8  -5   14.82   13.58
   2  -8  -5   -4.42   11.17
  -2   8   5    1.25    8.82
  -2   8   5   14.10   12.36
  -2   8   6  238.38   14.11
   2  -8  -6  195.08   14.78
  -2   8   6  199.26   12.96
   2  -8  -6  274.51   17.89
  -2   8   6  207.62   10.19
   2  -8  -6  242.41   13.74
   2  -8  -6  221.40   12.87
  -2   8   6  237.57   17.66
  -2   8   6  241.12   11.93
   2  -8  -6  247.66   17.98
  -2   8   7  234.32   14.23
  -2   8   7  196.26   11.80
   2  -8  -7  170.33   13.18
  -2   8   7  200.50   10.80
  -2   8   7  244.13   15.70
   2  -8  -7  245.99   13.97
   2  -8  -7  221.30   14.99
  -2   8   7  249.59   17.68
   2  -8  -7  273.83   18.87
  -2   8   8   40.51   11.67
   2  -8  -8   35.26   10.78
  -2   8   8   40.23    9.63
  -2   8   8   68.03   11.08
  -2   8   8   54.13   14.37
  -2   8   8   80.84   13.30
   2  -8  -8   62.09   13.23
   2  -8  -8   78.47   15.98
   2  -8  -8   54.07   11.93
  -2   8   9  112.56   15.57
  -2   8   9  112.45   13.64
   2  -8  -9  134.24   13.41
   2  -8  -9  111.92   14.89
  -2   8   9  105.93   14.17
  -2   8   9   94.95   10.89
  -2   8   9  133.65   12.42
   2  -8  -9   93.62   11.90
   2  -8  -9  120.42   17.10
  -2   8  10  155.93   17.08
   2  -8 -10  154.63   18.16
  -2   8  10  154.83   15.03
  -2   8  10  180.48   14.39
   2  -8 -10  145.00   13.47
   2  -8 -10  134.13   13.39
   2  -8 -10  166.93   16.21
  -2   8  10  150.83   12.30
   2  -8 -11   18.33   16.33
  -2   8  11   47.02   16.16
  -2   8  11   19.37   13.92
   2  -8 -11   36.54   12.14
  -2   8  11   15.33   10.66
   2  -8 -11   -0.22   11.55
  -2   8  11   12.17   11.82
   2  -8 -11   30.07   15.34
   2  -8 -12   37.90   12.50
  -2   8  12   46.94   16.80
  -2   8  12   36.67   15.25
  -2   8  12   30.71   13.21
  -2   8  12   58.31   12.08
   2  -8 -12   29.85   16.98
   2  -8 -12   29.08   16.38
   2  -8 -13  191.41   20.87
   2  -8 -13  198.10   15.24
  -2   8  13  169.17   18.08
  -2   8  13  193.49   14.36
  -2   8  13  180.63   16.51
  -2   8  13  227.33   21.25
   2  -8 -13  191.09   20.07
   2  -8 -14   98.51   19.90
  -2   8  14  146.42   21.16
  -2   8  14  135.28   14.01
  -2   8  14  142.72   16.75
   2  -8 -14   89.30   14.65
   2  -8 -15   60.36   20.11
  -2   8  15   69.41   20.24
   2  -8 -15   39.76   14.72
  -2   8  15   65.81   16.66
   2  -8 -16   52.24   21.04
   2  -7  16   97.16   20.24
   2  -7  15   75.32   18.06
   2  -7  15   27.94   15.49
  -2   7 -14  122.60   20.52
   2  -7  14  119.01   18.00
   2  -7  14  110.08   16.21
   2  -7  14   69.44   15.24
   2  -7  13   52.75   14.85
  -2   7 -13   55.68   18.06
   2  -7  13   63.49   15.90
   2  -7  13   58.52   18.66
   2  -7  13   26.19   13.48
   2  -7  12   32.60   16.57
  -2   7 -12   11.51   15.83
   2  -7  12    8.42   14.51
   2  -7  12   21.97   13.72
   2  -7  12   10.41   13.12
  -2   7 -11  148.35   17.44
   2  -7  11  177.23   16.31
   2  -7  11  203.71   19.28
   2  -7  11  181.85   15.50
   2  -7  11  178.13   14.89
   2  -7  10  509.12   18.49
  -2   7 -10  490.69   21.02
   2  -7  10  519.75   19.91
   2  -7  10  448.90   17.87
   2  -7  10  562.91   22.32
  -2   7  -9   82.50   14.78
   2  -7   9   88.58   12.61
   2  -7   9   95.21   14.13
   2  -7   9  126.97   15.43
   2  -7   9   90.47   12.67
  -2   7  -8  466.05   18.85
   2  -7   8  469.34   18.00
   2  -7   8  449.90   16.35
   2  -7   8  477.98   19.61
   2  -7   7  247.74   13.18
  -2   7  -7  234.16   15.54
   2  -7   7  216.59   14.31
   2  -7   7  235.69   15.80
   2  -7   7  234.14   13.56
   2  -7   6   61.01   10.26
  -2   7  -6   66.05   12.27
   2  -7   6   86.88   11.84
   2  -7   6   58.30   12.70
   2  -7   6   72.16   10.74
  -2   7  -5   94.56   12.35
  -2   7  -5  168.28    8.33
   2  -7   5  122.86   12.72
   2  -7   5  105.37   15.11
   2  -7   5  135.59   11.21
  -2   7  -5  153.17   12.70
   2  -7   5  135.74   11.88
  -2   7  -4  620.98   16.85
  -2   7  -4  412.75   16.94
   2  -7   4  494.47   19.15
   2  -7   4  669.84   20.88
  -2   7  -4  530.81   11.31
   2  -7   4  289.36   22.32
   2  -7   4  570.79   15.72
  -2   7  -4  509.45   17.21
   2  -7   4  551.75   18.22
  -2   7  -3   -5.05    8.58
   2  -7   3    6.23    9.33
  -2   7  -3  -10.92    9.24
  -2   7  -3   16.66    6.15
   2  -7   3    0.03   10.34
   2  -7   3    2.50    8.00
   2  -7   3   12.63    8.88
   2  -7   2   -8.18   10.35
  -2   7  -2   19.19    9.25
  -2   7  -2   -4.95    8.48
   2  -7   2   17.49    9.71
   2  -7   2   31.67    8.19
  -2   7  -2   21.50    9.46
   2  -7   2   13.42   10.54
  -2   7  -2   14.93    6.23
  -2   7  -2   21.21    8.94
  -2   7  -1   65.47   13.12
  -2   7  -1  121.48   13.25
   2  -7   1   42.47   13.35
  -2   7  -1  101.55   12.50
   2  -7   1   10.40   13.92
   2  -7   1    9.78   13.52
   2  -7   1   89.88   11.03
  -2   7   0   77.50   13.61
   2  -7   0  -13.15   12.49
  -2   7   0   11.93   11.69
   2  -7   0  129.02   12.65
   2  -7   0   55.13   12.42
  -2   7   1  -15.18    9.62
  -2   7   1    9.18    8.67
   2  -7  -1    6.87    9.62
  -2   7   1    5.37    5.53
   2  -7  -1    3.62    9.67
   2  -7  -1   22.21    8.26
  -2   7   1   -1.50    7.48
   2  -7  -2  508.01   19.48
  -2   7   2  474.83   24.10
  -2   7   2  723.16   20.25
  -2   7   2  527.98   26.75
   2  -7  -2  618.84   22.52
  -2   7   2  388.79   20.46
  -2   7   2  658.63   13.47
   2  -7  -2  828.72   18.65
  -2   7   2  431.97   18.45
  -2   7   3  729.94   20.37
  -2   7   3  822.08   27.64
   2  -7  -3 1130.17   20.24
   2  -7  -3  783.09   24.54
  -2   7   3  518.20   20.98
  -2   7   3  862.85   13.71
  -2   7   3  628.10   26.40
   2  -7  -3  832.57   20.31
  -2   7   3  675.52   19.37
  -2   7   4  259.96   13.42
   2  -7  -4  269.69   16.17
  -2   7   4  241.17    8.97
  -2   7   4  272.45   17.43
   2  -7  -4  227.21   13.55
  -2   7   4  245.45   11.79
   2  -7  -5 1077.05   21.97
  -2   7   5 1150.74   23.14
   2  -7  -5 1332.48   27.43
  -2   7   5 1028.01   25.20
  -2   7   5 1158.70   15.94
  -2   7   5 1101.12   29.83
  -2   7   5 1130.50   18.30
   2  -7  -5 1189.02   19.58
   2  -7  -5 1242.76   28.06
   2  -7  -6   27.35    9.85
   2  -7  -6   38.65   11.01
  -2   7   6   76.67   10.25
  -2   7   6   37.08   10.75
  -2   7   6   21.03    7.51
   2  -7  -6   31.13    9.11
  -2   7   6   33.67   12.06
  -2   7   6   25.20    8.46
   2  -7  -6   61.54   13.32
  -2   7   7   48.44   10.81
   2  -7  -7   84.99   11.21
   2  -7  -7   92.90   14.44
  -2   7   7   76.49   11.95
   2  -7  -7   49.99    9.82
  -2   7   7   77.00    9.72
   2  -7  -7   66.23   11.81
  -2   7   7   85.02    9.00
  -2   7   7   84.55   13.53
  -2   7   8   52.47   11.33
  -2   7   8   54.33   12.28
  -2   7   8   47.91    8.99
  -2   7   8   56.20    9.85
   2  -7  -8   76.03   12.01
   2  -7  -8   82.56   12.66
   2  -7  -8   76.89   14.76
  -2   7   8   80.72   13.87
  -2   7   9  207.94   16.09
   2  -7  -9  189.48   15.04
  -2   7   9  202.39   15.53
  -2   7   9  141.64   11.21
  -2   7   9  176.37   13.75
  -2   7   9  143.51   11.92
   2  -7  -9  181.99   13.84
   2  -7  -9  167.83   16.37
   2  -7 -10   26.34   15.18
  -2   7  10   24.29   13.74
  -2   7  10   27.92   12.17
   2  -7 -10   32.31   11.50
  -2   7  10   47.26   10.49
  -2   7  10   29.15   12.63
  -2   7  10   16.59   10.95
   2  -7 -10   33.51   13.77
   2  -7 -11   44.83   16.51
  -2   7  11    9.13   14.40
  -2   7  11   16.65   12.82
   2  -7 -11    2.09   11.23
  -2   7  11   19.20   10.69
  -2   7  11   11.75   11.67
   2  -7 -11   24.65   14.18
   2  -7 -12   24.10   16.38
  -2   7  12   30.81   16.44
  -2   7  12   38.03   14.38
   2  -7 -12   23.04   15.12
  -2   7  12   17.70   11.13
  -2   7  12    6.44   12.55
   2  -7 -12   -0.30   11.83
   2  -7 -13   57.99   17.77
  -2   7  13   66.11   17.73
  -2   7  13   42.86   15.67
   2  -7 -13   34.77   13.03
  -2   7  13   56.08   12.10
  -2   7  13   21.39   13.28
   2  -7 -13   77.31   17.73
   2  -7 -14   48.90   18.39
   2  -7 -14   -6.85   17.26
  -2   7  14   -3.15   17.50
  -2   7  14    2.35   15.38
   2  -7 -14    8.97   13.89
  -2   7  14    4.11   11.77
  -2   7  14   30.77   14.24
   2  -7 -15  105.44   20.42
  -2   7  15   82.59   19.92
   2  -7 -15  109.21   15.71
  -2   7  15   75.96   16.19
   2  -7 -16   95.05   21.13
   2  -7 -16   91.32   16.61
   2  -7 -17   44.16   21.05
   2  -6  16   41.45   17.49
   2  -6  16   47.13   16.60
   2  -6  15   89.35   17.51
   2  -6  15   54.15   15.85
   2  -6  15   64.78   16.13
  -2   6 -14   62.85   18.61
   2  -6  14   62.58   16.40
   2  -6  14   45.63   14.99
   2  -6  14   45.10   14.87
   2  -6  13   49.79   14.63
  -2   6 -13   77.95   17.39
   2  -6  13   49.00   15.25
   2  -6  13   65.68   14.19
   2  -6  13   51.97   16.99
  -2   6 -12   71.58   15.23
   2  -6  12   69.56   14.44
   2  -6  12   87.25   16.97
   2  -6  12   79.23   14.18
   2  -6  12   52.83   13.64
   2  -6  11   39.59   13.24
  -2   6 -11   24.07   14.32
   2  -6  11   28.50   13.15
   2  -6  11   27.09   12.28
  -2   6 -10  276.58   17.27
   2  -6  10  242.22   15.94
   2  -6  10  281.84   17.61
   2  -6  10  278.52   15.51
   2  -6  10  262.55   15.21
  -2   6  -9  306.52   16.90
   2  -6   9  329.44   15.51
   2  -6   9  343.74   15.34
   2  -6   9  316.14   16.73
   2  -6   9  302.41   15.00
  -2   6  -8   77.24   13.34
   2  -6   8   80.66   12.01
   2  -6   8   77.67   11.51
   2  -6   8   50.74   11.19
  -2   6  -7   59.59   11.85
   2  -6   7   92.00   11.62
   2  -6   7   41.95   11.71
   2  -6   7  103.05   11.05
   2  -6   7   65.91   10.30
  -2   6  -6   18.09    9.20
  -2   6  -6   -4.06   10.22
   2  -6   6   38.53    9.83
   2  -6   6   -9.84   10.84
   2  -6   6   15.66    8.83
  -2   6  -6   -2.57    9.76
   2  -6   6   25.27    8.56
  -2   6  -5   48.10    9.09
  -2   6  -5   66.67   10.52
   2  -6   5   38.21   10.13
   2  -6   5   47.41   10.41
   2  -6   5   52.92   11.92
   2  -6   5   43.48    8.60
  -2   6  -5   61.62   10.28
  -2   6  -5   54.18    6.21
   2  -6   5   55.69    9.19
  -2   6  -4   15.91    8.15
  -2   6  -4   -1.82    9.29
   2  -6   4    2.33    9.04
  -2   6  -4   18.61    5.49
   2  -6   4   13.62   10.42
   2  -6   4    4.09    7.76
  -2   6  -4   12.36    8.78
   2  -6   4    5.45    7.82
  -2   6  -3  310.58   12.33
  -2   6  -3  270.39   13.37
   2  -6   3  275.08   15.00
  -2   6  -3  318.82    8.17
   2  -6   3  337.58   12.24
  -2   6  -3  303.09   13.19
   2  -6   3  338.73   13.55
  -2   6  -2  159.12   11.88
   2  -6   2    5.77   12.96
  -2   6  -2  136.57   11.99
  -2   6  -2  152.90   11.84
  -2   6  -2  173.49    7.82
   2  -6   2  336.41   11.48
   2  -6   2  243.59   14.23
   2  -6   2  158.55   12.08
  -2   6  -1   78.67   13.36
   2  -6   1  103.64   12.18
   2  -6   1   98.35   14.61
   2  -6   0   43.04    9.66
  -2   6   0   80.00   11.22
  -2   6   1  143.17   18.09
   2  -6  -1  102.25   16.30
  -2   6   1  297.67   10.20
   2  -6  -1  280.79   15.09
   2  -6  -1  457.76   14.07
  -2   6   2   33.14    8.83
  -2   6   2   88.13   12.25
   2  -6  -2   79.60   11.94
  -2   6   2   35.69   11.56
  -2   6   2   85.52    6.52
   2  -6  -2   71.85   10.07
   2  -6  -2  126.49    9.65
  -2   6   2  105.61    8.95
  -2   6   3 2502.09   28.50
  -2   6   3 1884.98   41.00
   2  -6  -3 2077.61   35.30
  -2   6   3 1893.80   36.96
  -2   6   3 2192.50   18.40
   2  -6  -3 1889.04   28.11
  -2   6   3 2173.16   26.37
   2  -6  -4 1386.72   23.03
   2  -6  -4 1720.68   21.55
  -2   6   4 1693.81   25.62
  -2   6   4 1480.02   29.07
   2  -6  -4 1696.20   28.98
  -2   6   4 1716.52   16.47
  -2   6   4 1788.65   32.46
  -2   6   4 1531.62   20.50
  -2   6   5  168.00   11.25
   2  -6  -5  153.97    9.47
  -2   6   5  181.72   13.93
  -2   6   5  154.44   12.79
  -2   6   5  175.49    8.27
   2  -6  -5  155.89   11.54
  -2   6   5  156.76    9.18
   2  -6  -5  157.13   13.78
  -2   6   6  112.33   10.35
   2  -6  -6  126.62   10.80
  -2   6   6  128.40   12.37
  -2   6   6  109.73    8.27
   2  -6  -6  134.60   11.39
  -2   6   6  135.03    9.24
  -2   6   6  116.32   12.76
   2  -6  -6  127.60   14.32
  -2   6   7   51.00   10.61
  -2   6   7   18.50    7.83
   2  -6  -7   12.05    9.69
  -2   6   7   23.03    9.48
   2  -6  -7   15.66   12.49
  -2   6   7    9.07   11.02
   2  -6  -7    0.41   10.21
  -2   6   7   12.45    8.38
   2  -6  -8  136.14   14.50
  -2   6   8  114.79   13.52
  -2   6   8  127.78   12.64
  -2   6   8  121.04   11.76
  -2   6   8   92.25   10.06
   2  -6  -8  109.85   11.90
  -2   6   8  103.00    9.57
   2  -6  -8  151.72   13.21
   2  -6  -9   -0.59   13.02
  -2   6   9    1.51   12.10
  -2   6   9   13.65   11.00
  -2   6   9   13.51   10.76
  -2   6   9    6.65    8.73
   2  -6  -9   38.77   11.02
  -2   6   9    5.70    9.37
   2  -6  -9   18.77   11.73
  -2   6  10   94.59   14.51
  -2   6  10  101.15   12.63
   2  -6 -10   86.58   11.85
  -2   6  10  105.21   13.16
  -2   6  10   52.66   10.69
   2  -6 -10  104.95   15.31
   2  -6 -10  100.83   13.95
  -2   6  10   87.74   11.57
   2  -6 -11  116.60   16.64
   2  -6 -11   87.19   12.44
  -2   6  11   76.76   12.48
  -2   6  11  121.24   13.96
   2  -6 -11   83.11   14.60
  -2   6  11  125.91   15.75
  -2   6  11   93.38   11.31
   2  -6 -12   68.01   16.32
   2  -6 -12   55.42   12.39
  -2   6  12   51.63   14.16
  -2   6  12   58.42   16.13
  -2   6  12   19.60   12.16
  -2   6  12   52.46   11.21
   2  -6 -12   43.71   14.76
   2  -6 -13  125.54   18.18
   2  -6 -13  151.38   17.85
   2  -6 -13  118.88   13.70
  -2   6  13  141.72   17.96
  -2   6  13  158.17   16.46
  -2   6  13  148.64   15.07
  -2   6  13  105.04   12.61
  -2   6  14  116.78   13.00
  -2   6  14  160.94   19.30
  -2   6  14  139.51   17.35
   2  -6 -14  123.81   18.95
   2  -6 -14  124.38   14.78
   2  -6 -14  148.26   19.78
  -2   6  14  116.68   15.57
   2  -6 -15   78.62   15.46
  -2   6  15   49.39   18.40
  -2   6  15   44.66   12.65
   2  -6 -15   75.16   19.22
  -2   6  15   58.57   16.08
   2  -6 -16   94.20   20.74
   2  -6 -16   60.33   15.63
   2  -6 -17   71.33   21.11
   2  -5  17   37.82   17.87
   2  -5  16   19.83   16.76
   2  -5  16   32.42   16.07
   2  -5  16   39.36   16.26
  -2   5 -15   48.55   18.14
   2  -5  15   58.35   16.30
   2  -5  15   39.52   15.88
   2  -5  15   34.65   15.34
  -2   5 -14   49.06   16.45
   2  -5  14   56.70   15.33
   2  -5  14   75.25   15.30
   2  -5  14   49.59   14.27
  -2   5 -13  124.27   16.51
   2  -5  13  128.68   15.82
   2  -5  13  129.66   15.16
   2  -5  12   47.79   15.19
  -2   5 -12   24.04   13.92
   2  -5  12   23.87   13.10
   2  -5  12   35.84   13.55
   2  -5  12   20.41   12.72
  -2   5 -11   51.33   13.88
   2  -5  11   64.23   13.48
   2  -5  11   59.98   14.80
   2  -5  11   70.02   13.48
   2  -5  11   56.18   12.38
  -2   5 -10  120.05   14.17
   2  -5  10   89.97   12.87
   2  -5  10  114.88   12.50
   2  -5  10  131.33   14.62
   2  -5  10  121.21   12.60
   2  -5   9  123.41   12.02
  -2   5  -9  123.45   13.41
   2  -5   9  141.59   12.86
   2  -5   9  131.98   11.97
   2  -5   9  141.10   13.52
  -2   5  -8   16.15   10.45
  -2   5  -8   18.52   10.41
   2  -5   8   33.91   10.57
   2  -5   8   30.68   10.74
   2  -5   8   33.54   10.14
   2  -5   8   13.56    9.69
  -2   5  -7   26.27    9.62
  -2   5  -7    4.88    9.33
   2  -5   7   12.64    9.40
   2  -5   7    6.10    8.89
   2  -5   7   13.55    9.89
   2  -5   7    2.27    8.68
  -2   5  -6   11.09    9.38
  -2   5  -6   13.25    8.86
   2  -5   6    7.61    8.67
   2  -5   6   17.01    9.67
   2  -5   6   30.51    8.46
  -2   5  -6   -0.69    8.88
   2  -5   6   -0.48    7.95
  -2   5  -5   22.37    8.18
  -2   5  -5   15.69    9.15
   2  -5   5   31.82    8.71
   2  -5   5   42.62    9.07
   2  -5   5   38.09   10.33
  -2   5  -5   39.61    8.67
   2  -5   5   28.95    7.98
  -2   5  -4  488.95   13.30
  -2   5  -4  556.83   13.69
  -2   5  -4  455.56    6.60
  -2   5  -4  507.80   13.99
   2  -5   4  436.65   14.92
   2  -5   4  487.98   15.18
   2  -5   4  516.93   13.04
   2  -5   4  451.66   13.59
  -2   5  -3  196.86   10.03
  -2   5  -3  122.95   10.52
   2  -5   3  252.19    9.47
   2  -5   3   72.08   10.93
   2  -5   3  173.36   11.97
  -2   5  -3  192.04    4.91
  -2   5  -3  155.53   10.27
   2  -5   3  209.98    9.94
   2  -5   3   58.01    9.64
   2  -5   2  457.61   14.47
   2  -5   2  154.15   13.21
   2  -5   2  454.97   12.07
  -2   5  -2  251.36   12.50
   2  -5   2    5.40   13.39
  -2   5  -2  203.19   13.25
  -2   5  -2  379.77    6.56
   2  -5   2  312.68   14.54
   2  -5   2  367.97   12.88
   2  -5   1   33.16    7.01
   2  -5   1   33.90    6.90
  -2   5  -1   40.16    7.59
   2  -5   1   33.39    8.16
  -2   5  -1   32.17    7.73
  -2   5  -1    6.13    4.15
   2  -5   1   17.09    8.87
   2  -5   0   10.56   14.58
  -2   5   0   80.73   15.10
   2  -5   0  155.15   12.51
  -2   5   0   11.41   12.52
  -2   5   0  186.19    7.73
   2  -5   0  108.69   12.90
   2  -5  -1  580.21   25.86
  -2   5   1  370.56   26.15
   2  -5  -1  474.95   22.15
  -2   5   1  308.67   20.87
  -2   5   1  993.06   22.02
   2  -5  -1  518.38   19.50
   2  -5  -2  454.01   16.57
  -2   5   2  458.62   20.27
   2  -5  -2  746.47   13.93
   2  -5  -2  475.43   18.60
   2  -5  -2  860.95   13.76
  -2   5   2  289.92   18.15
  -2   5   2  604.08    8.83
   2  -5  -2  484.14   14.51
  -2   5   2  542.63   13.43
   2  -5  -3   18.27    6.20
  -2   5   3   27.45    8.55
   2  -5  -3   10.97    6.20
   2  -5  -3   38.72    9.84
  -2   5   3   13.77    8.63
  -2   5   3   31.90    5.18
  -2   5   3   16.89    8.70
   2  -5  -3   31.79    7.78
  -2   5   3   21.19    6.00
  -2   5   4   83.51    9.38
   2  -5  -4  113.58   10.97
  -2   5   4   61.33   11.15
  -2   5   4  123.08   10.80
   2  -5  -4   77.61    9.12
  -2   5   4  101.60    6.38
  -2   5   4   77.81    7.17
   2  -5  -4  107.92   11.36
  -2   5   5    5.22    7.41
  -2   5   5    3.66    6.96
  -2   5   5   -8.58    8.79
  -2   5   5    8.04    6.00
   2  -5  -5   40.53    8.42
  -2   5   5   29.81    9.24
  -2   5   5   -2.23    6.60
   2  -5  -5    1.89   10.04
  -2   5   6  -10.28    8.14
  -2   5   6    5.13    6.90
  -2   5   6   -2.49    8.43
   2  -5  -6   -6.74    8.30
  -2   5   6   -2.68    6.41
   2  -5  -6   -8.37    8.97
  -2   5   6   10.25    9.65
   2  -5  -7  383.65   13.60
  -2   5   7  365.24   15.54
  -2   5   7  378.47   13.19
  -2   5   7  366.24   14.69
  -2   5   7  335.56   10.64
  -2   5   7  326.90   11.65
   2  -5  -7  351.39   13.92
   2  -5  -7  393.69   16.33
  -2   5   8  483.37   14.98
   2  -5  -8  481.35   15.81
  -2   5   8  446.34   12.65
   2  -5  -8  466.69   15.85
  -2   5   8  549.25   18.21
  -2   5   8  445.38   13.71
  -2   5   8  504.60   16.65
   2  -5  -8  534.93   18.08
  -2   5   9  428.63   15.14
  -2   5   9  385.04   13.83
   2  -5  -9  416.64   15.10
  -2   5   9  403.66   15.81
  -2   5   9  400.51   12.97
   2  -5  -9  417.05   17.75
   2  -5  -9  417.02   16.28
   2  -5 -10   87.69   14.20
  -2   5  10  109.71   12.21
  -2   5  10   87.62   14.03
  -2   5  10   85.08   11.59
  -2   5  10   59.12    9.87
  -2   5  10   68.66   10.98
   2  -5 -10   76.77   11.38
   2  -5 -10   73.81   12.73
   2  -5 -11   36.05   14.17
  -2   5  11   29.53   11.52
   2  -5 -11   33.05   11.30
   2  -5 -11   46.47   13.35
  -2   5  11    9.10    9.62
  -2   5  11   15.76   10.71
   2  -5 -12   30.76   15.01
   2  -5 -12   23.27   11.89
   2  -5 -12   51.12   15.79
  -2   5  12   40.90   14.95
  -2   5  12    8.36   11.57
  -2   5  12   19.31   12.56
  -2   5  12   16.72   10.33
   2  -5 -13   49.77   16.08
   2  -5 -13    7.88   15.36
  -2   5  13   21.28   14.95
  -2   5  13   29.50   13.95
   2  -5 -13   24.08   12.40
  -2   5  13   21.92   10.76
  -2   5  13   17.18   13.06
   2  -5 -14   29.12   16.81
  -2   5  14   78.61   17.52
  -2   5  14   66.62   15.90
   2  -5 -14   74.68   13.89
  -2   5  14   51.81   12.14
  -2   5  14   63.42   14.61
   2  -5 -14   94.54   17.78
   2  -5 -15   64.58   17.89
  -2   5  15   29.68   17.82
   2  -5 -15    9.02   14.16
  -2   5  15   45.10   12.01
  -2   5  15   56.74   15.01
   2  -5 -16   69.14   19.34
  -2   5  16   48.06   19.65
   2  -5 -16   61.47   15.53
   2  -5 -17   92.69   21.29
   2  -4  17   18.27   16.33
   2  -4  17   59.39   17.67
  -2   4 -16   94.60   19.93
   2  -4  16  156.63   18.54
   2  -4  16  152.27   18.29
   2  -4  16  134.51   17.46
  -2   4 -15    6.20   15.53
   2  -4  15   48.98   15.51
   2  -4  15   27.71   14.21
   2  -4  15   48.48   15.53
  -2   4 -14    8.80   14.64
   2  -4  14   18.50   13.99
   2  -4  14   -6.83   14.41
   2  -4  14    7.71   13.36
  -2   4 -13    1.68   13.46
   2  -4  13   32.11   13.75
   2  -4  13   32.75   13.77
   2  -4  13   31.99   13.42
  -2   4 -12   44.06   13.99
   2  -4  12   48.18   13.27
   2  -4  12   50.62   13.14
   2  -4  12   72.06   12.70
   2  -4  12   79.21   14.76
   2  -4  11   51.14   11.80
  -2   4 -11   70.19   13.32
   2  -4  11   49.45   12.65
   2  -4  11   54.23   13.49
   2  -4  11   36.68   11.78
  -2   4 -10  315.61   15.34
   2  -4  10  341.88   15.38
   2  -4  10  348.27   14.97
   2  -4  10  326.06   14.95
  -2   4  -9  372.81   15.74
   2  -4   9  344.94   13.90
  -2   4  -9  347.79   14.91
   2  -4   9  363.18   14.98
   2  -4   9  397.77   14.36
   2  -4   9  404.44   16.05
   2  -4   8    1.94    8.56
  -2   4  -8   13.78    9.63
  -2   4  -8   -2.58    9.21
   2  -4   8    1.92    9.05
   2  -4   8    1.35    9.63
   2  -4   8   16.98    9.21
  -2   4  -7  644.40   16.09
  -2   4  -7  645.79   15.52
   2  -4   7  577.15   16.05
   2  -4   7  723.07   17.26
   2  -4   7  793.52   14.90
   2  -4   7  655.10   14.87
  -2   4  -6  215.42   10.51
  -2   4  -6  206.80   10.82
   2  -4   6  180.11   10.93
   2  -4   6  230.47   10.11
   2  -4   6  180.83   12.11
  -2   4  -6  241.64   10.80
   2  -4   6  220.02    9.93
  -2   4  -5   79.58    8.29
  -2   4  -5   47.52    8.36
   2  -4   5   59.85    8.64
   2  -4   5   87.95    8.28
   2  -4   5   57.19    6.54
   2  -4   5   54.08    9.64
   2  -4   5   85.36    7.75
   2  -4   5   76.89    7.96
  -2   4  -4   86.55    7.47
  -2   4  -4   96.31    8.46
   2  -4   4   84.70    8.30
   2  -4   4   72.16    8.04
   2  -4   4   46.05    6.49
   2  -4   4   41.23    9.86
   2  -4   4  115.44    7.78
   2  -4   4   71.76    6.39
   2  -4   3 2417.11   22.29
  -2   4  -3 1833.09   23.73
  -2   4  -3 1850.31   24.23
   2  -4   3 1765.48   26.04
   2  -4   3 2230.04   23.06
   2  -4   2  121.58   10.91
  -2   4  -2  495.56   10.91
   2  -4   2  331.75   10.70
   2  -4   2  440.92   11.50
   2  -4   2  192.28   10.10
  -2   4  -1   39.62    5.94
   2  -4   1   36.86    6.61
  -2   4  -1   60.84    6.42
   2  -4   1   57.97    6.16
  -2   4   0  102.17    6.78
   2  -4   0   78.80    6.06
  -2   4   0   10.14    6.77
  -2   4   0   -5.50    6.55
  -2   4   1   28.12    7.31
   2  -4  -1   19.54    6.03
  -2   4   1   19.55    6.66
   2  -4  -1    8.64    7.80
   2  -4  -1   53.30    5.88
   2  -4  -1   42.03    5.57
   2  -4  -2   48.17    5.94
   2  -4  -2   34.92    7.22
   2  -4  -2   51.24    6.05
  -2   4   2   25.54    7.35
   2  -4  -2   39.15    8.93
  -2   4   2   40.92    4.04
  -2   4   2   47.34    7.87
   2  -4  -2   61.42    5.86
  -2   4   3  276.76   14.50
  -2   4   3  372.59   14.62
   2  -4  -3  456.64   12.21
   2  -4  -3  416.16   14.11
   2  -4  -3  424.82   10.51
  -2   4   3  391.88    7.20
   2  -4  -3  292.85   10.65
   2  -4  -3  379.32   14.82
  -2   4   4  772.98   12.08
  -2   4   4  715.83   16.62
  -2   4   4  790.37   10.38
   2  -4  -4  736.91   13.73
   2  -4  -4  771.40   14.30
  -2   4   4  814.40   18.91
   2  -4  -4  761.20   18.85
   2  -4  -5  156.53    8.74
  -2   4   5  127.29    8.79
  -2   4   5  117.63   10.02
   2  -4  -5  122.15    8.82
  -2   4   5  129.68    7.37
  -2   4   5  121.72   10.56
  -2   4   5  125.27    6.79
   2  -4  -5  118.58   10.99
  -2   4   6   66.69    8.16
  -2   4   6   38.73    7.51
  -2   4   6   65.21    9.82
   2  -4  -6   64.78   10.34
  -2   4   6   39.72    6.59
  -2   4   6   42.61    7.98
   2  -4  -6   42.12    8.15
  -2   4   6   32.27    7.06
   2  -4  -6   27.62    8.36
   2  -4  -7  467.78   15.74
  -2   4   7  450.05   15.21
  -2   4   7  395.70   12.95
  -2   4   7  418.07   14.04
  -2   4   7  389.77   10.88
  -2   4   7  371.00   11.56
   2  -4  -7  444.79   13.57
   2  -4  -7  373.27   13.24
   2  -4  -8   94.19   12.09
  -2   4   8   89.51   12.11
   2  -4  -8   66.95   10.02
  -2   4   8   59.56    8.89
  -2   4   8   99.61   10.13
  -2   4   8   54.60    8.25
   2  -4  -8   60.11   10.51
   2  -4  -9   89.45   13.04
  -2   4   9  106.69   12.69
  -2   4   9   84.65   10.45
   2  -4  -9   70.67   11.61
   2  -4  -9   62.21   10.54
  -2   4   9   59.07    8.94
  -2   4   9   61.55    9.66
  -2   4  10  454.46   17.97
   2  -4 -10  420.16   17.98
  -2   4  10  408.38   15.76
   2  -4 -10  406.32   15.37
  -2   4  10  346.87   12.86
  -2   4  10  341.12   14.02
   2  -4 -10  391.61   16.68
   2  -4 -11   82.70   14.20
  -2   4  11   91.07   13.79
  -2   4  11  102.98   12.83
   2  -4 -11   89.83   12.16
  -2   4  11   87.51   10.55
  -2   4  11   89.57   11.56
   2  -4 -11   88.66   13.90
   2  -4 -12   19.95   14.20
   2  -4 -12   25.42   14.71
  -2   4  12    3.78   13.29
  -2   4  12   22.56   12.28
  -2   4  12    6.10    9.78
   2  -4 -12  -10.08   11.16
  -2   4  12   17.93   11.94
   2  -4 -13   56.33   15.91
   2  -4 -13   74.46   16.82
  -2   4  13   47.41   15.50
  -2   4  13   56.64   14.25
   2  -4 -13   50.07   12.90
  -2   4  13   38.73   11.03
  -2   4  13   28.60   12.88
   2  -4 -14   13.85   16.43
   2  -4 -14    7.59   16.01
  -2   4  14   25.01   15.07
  -2   4  14   25.05   15.61
   2  -4 -14   18.55   13.20
  -2   4  14    6.61   10.93
  -2   4  14   11.93   13.44
   2  -4 -15   29.71   17.07
  -2   4  15   14.51   11.60
  -2   4  15   11.90   17.10
   2  -4 -15   28.20   14.11
  -2   4  15   26.67   14.40
   2  -4 -16   34.68   17.86
  -2   4  16   62.04   19.76
   2  -4 -16   18.03   15.25
   2  -4 -17   40.90   19.98
   2  -3  18   29.90   18.18
   2  -3  17   18.57   16.63
   2  -3  17   40.80   16.89
   2  -3  17   31.70   16.44
  -2   3 -16   60.11   18.09
   2  -3  16   28.44   15.36
   2  -3  16    4.98   15.49
   2  -3  16    7.98   15.09
   2  -3  15   24.69   14.90
  -2   3 -15   10.40   15.56
   2  -3  15   26.77   14.60
   2  -3  15   14.21   14.05
  -2   3 -14   30.43   14.75
   2  -3  14    4.59   13.56
   2  -3  14   -3.25   13.68
   2  -3  14   17.92   13.13
  -2   3 -13  136.45   15.63
   2  -3  13  151.54   14.92
   2  -3  13  117.02   14.47
   2  -3  13  154.49   14.64
   2  -3  12   87.42   13.11
  -2   3 -12   64.31   13.84
   2  -3  12  100.69   13.44
   2  -3  12   68.19   12.68
  -2   3 -11   24.39   12.08
   2  -3  11   18.09   12.26
   2  -3  11   17.49   11.09
   2  -3  11   25.57   10.95
   2  -3  11   27.34   11.35
  -2   3 -10    4.92   11.20
   2  -3  10   38.85   10.34
  -2   3 -10   24.09   11.34
   2  -3  10   14.27   10.28
   2  -3  10   23.83   10.44
   2  -3  10   44.49   11.54
  -2   3  -9   51.21   11.04
  -2   3  -9   42.03   10.11
   2  -3   9   69.22   10.05
   2  -3   9   40.76    9.70
   2  -3   9   43.76   10.81
   2  -3   9   57.60    9.76
  -2   3  -8  458.11   15.03
  -2   3  -8  420.03   13.93
   2  -3   8  478.72   14.08
   2  -3   8  417.07   13.06
   2  -3   8  496.70   15.23
   2  -3   8  415.44   13.08
  -2   3  -7  905.07   16.58
   2  -3   7  875.25   17.30
   2  -3   7  875.85   15.85
  -2   3  -7  952.65   18.35
   2  -3   7  922.28   16.16
   2  -3   7  937.54   17.68
  -2   3  -6 1578.39   20.50
  -2   3  -6 1402.93   19.49
   2  -3   6 1357.44   20.72
   2  -3   6 1621.37   18.19
   2  -3   6 1395.02   18.00
   2  -3   6 1536.55   22.38
   2  -3   6 1671.31   17.67
   2  -3   6 1391.65   18.92
   2  -3   6 1590.88   18.82
  -2   3  -5  331.38   10.16
  -2   3  -5  282.77   10.00
   2  -3   5  302.05    9.24
   2  -3   5  290.23   10.72
   2  -3   5  255.76    8.56
   2  -3   5  300.09    9.61
  -2   3  -4  318.44    9.90
   2  -3   4  387.07   11.08
   2  -3   4  330.62    8.81
  -2   3  -4  420.73   10.01
   2  -3   4  363.79    9.91
   2  -3   4  412.19    9.28
   2  -3   3   21.99    4.39
  -2   3  -3   32.42    5.47
  -2   3  -3   17.56    6.14
   2  -3   3   20.29    6.99
   2  -3   3   34.04    4.77
  -2   3  -2 1067.01   13.55
   2  -3   2 1113.71   13.95
  -2   3  -1  745.96   12.71
   2  -3   1  501.24   12.13
  -2   3   0 1994.72   17.82
  -2   3   0 2047.08   20.24
   2  -3  -1 1377.67   13.97
  -2   3   1 1180.41   16.85
   2  -3  -1 1190.15   15.96
   2  -3  -1 1320.60   14.32
  -2   3   1 1283.10   17.75
   2  -3  -1 1254.72   13.65
   2  -3  -2  303.71    8.71
  -2   3   2  278.15    9.86
   2  -3  -2  298.56    8.34
  -2   3   3    4.60    5.82
   2  -3  -3   18.51    5.69
  -2   3   3   -3.96    6.05
   2  -3  -3    6.27    5.55
   2  -3  -3   11.09    8.06
  -2   3   3   12.70    6.56
  -2   3   4  200.59    8.68
   2  -3  -4  224.43    8.28
  -2   3   4  197.27    6.04
   2  -3  -4  202.66    8.97
   2  -3  -4  168.48    8.59
  -2   3   4  203.63   10.63
   2  -3  -4  167.15   10.91
   2  -3  -5  191.70   11.15
  -2   3   5  166.88   10.21
  -2   3   5  152.58    8.55
  -2   3   5  162.53    6.79
   2  -3  -5  180.01    8.86
   2  -3  -5  170.72    9.52
  -2   3   5  154.28    7.44
   2  -3  -5  170.23    8.91
   2  -3  -6  535.44   14.53
  -2   3   6  497.69   14.46
  -2   3   6  500.45   12.11
  -2   3   6  458.97   12.58
  -2   3   6  460.13    9.94
   2  -3  -6  541.17   12.59
  -2   3   6  391.45   10.62
   2  -3  -6  406.81   12.02
   2  -3  -7  185.37   11.92
  -2   3   7  200.70   11.81
  -2   3   7  162.36    9.57
  -2   3   7  191.13    9.97
   2  -3  -7  174.25   10.50
  -2   3   7  154.37    8.94
  -2   3   7  153.47    8.26
   2  -3  -7  157.22   10.53
   2  -3  -8   97.11   11.73
  -2   3   8  112.66   11.68
  -2   3   8  102.79   10.05
  -2   3   8  102.27    8.43
   2  -3  -8   98.14    9.57
  -2   3   8   74.39    8.65
   2  -3  -8  109.72   10.95
   2  -3  -9   15.46   10.74
   2  -3  -9   -2.52   10.92
  -2   3   9    7.40   11.06
  -2   3   9   19.35    9.37
   2  -3  -9   20.90    9.39
  -2   3   9   17.81    7.89
  -2   3   9   -4.93    8.41
   2  -3 -10   17.57   11.40
   2  -3 -10   11.94   11.72
  -2   3  10   10.05   11.59
  -2   3  10   15.95   10.18
  -2   3  10   -1.42    8.03
   2  -3 -10   20.07   10.25
  -2   3  10    8.41    9.30
   2  -3 -11   19.97   13.10
   2  -3 -11   19.65   13.23
  -2   3  11   14.28   10.99
  -2   3  11    3.77   12.12
   2  -3 -11    2.42   10.80
  -2   3  11   18.92    9.42
  -2   3  11   16.92   10.76
   2  -3 -12  102.01   15.16
   2  -3 -12   85.55   15.40
  -2   3  12  106.23   14.66
  -2   3  12  130.81   14.13
  -2   3  12   96.09   11.23
  -2   3  12  115.86   13.43
   2  -3 -12   87.11   12.65
   2  -3 -13  270.20   19.14
  -2   3  13  225.57   13.23
  -2   3  13  250.30   17.85
  -2   3  13  297.10   17.87
  -2   3  13  266.88   16.28
   2  -3 -13  265.22   15.62
   2  -3 -13  305.06   19.14
   2  -3 -14   68.02   17.00
   2  -3 -14   75.15   16.95
  -2   3  14   80.94   16.68
  -2   3  14   53.47   15.12
   2  -3 -14   46.84   13.43
  -2   3  14   52.46   11.32
  -2   3  14   58.84   14.24
   2  -3 -15   65.25   17.16
   2  -3 -15   61.34   15.44
  -2   3  15   83.62   18.31
  -2   3  15   26.49   11.77
  -2   3  15   43.14   15.42
   2  -3 -16   50.92   18.46
   2  -3 -16   75.59   15.82
   2  -3 -17   48.43   20.07
   2  -2  18    8.29   17.05
   2  -2  18   36.98   17.46
   2  -2  17   55.86   16.81
   2  -2  17    0.11   16.76
   2  -2  17   45.87   16.62
   2  -2  16   28.36   15.02
  -2   2 -16    0.17   16.57
   2  -2  16   34.94   14.58
   2  -2  16   22.82   15.44
  -2   2 -15   27.91   14.99
   2  -2  15   -0.23   13.73
   2  -2  15   16.18   14.63
   2  -2  15   12.57   13.81
  -2   2 -14    7.85   14.25
   2  -2  14   15.19   13.02
   2  -2  14   28.39   13.98
   2  -2  14   15.10   13.36
  -2   2 -13    2.95   12.74
   2  -2  13   30.80   12.75
   2  -2  13    4.43   12.61
   2  -2  13   22.12   12.49
  -2   2 -12  346.53   16.58
   2  -2  12  407.76   16.55
   2  -2  12  407.63   17.15
   2  -2  12  388.57   16.54
  -2   2 -11  241.59   15.52
  -2   2 -11  239.12   14.43
   2  -2  11  267.26   13.92
   2  -2  11  298.45   15.14
   2  -2  11  268.53   14.03
   2  -2  11  250.42   13.89
  -2   2 -10   15.82   10.22
  -2   2 -10   24.02   11.08
   2  -2  10   15.79    9.61
   2  -2  10    7.04    9.56
   2  -2  10    1.36   10.15
   2  -2  10   11.72   10.01
  -2   2  -9   13.43    8.97
  -2   2  -9   -1.76    9.66
   2  -2   9   21.58    8.67
  -2   2  -9   27.37   12.40
   2  -2   9    6.82    9.58
   2  -2   9    2.09    8.87
   2  -2   9   10.72    8.40
  -2   2  -8  167.83   11.15
  -2   2  -8  159.44   10.17
   2  -2   8  184.05   10.25
  -2   2  -8  195.16   14.06
   2  -2   8  197.88   10.18
   2  -2   8  197.35   10.07
   2  -2   8  232.57   11.41
  -2   2  -7    4.34    7.44
  -2   2  -7   15.69    7.89
   2  -2   7   17.79    6.34
   2  -2   7   18.92    7.24
   2  -2   7    7.33    7.00
  -2   2  -7   23.52    9.94
   2  -2   7    8.53    6.86
   2  -2   7   25.32    7.51
  -2   2  -6  110.85    7.86
  -2   2  -6   63.08    7.44
   2  -2   6   97.06    6.45
   2  -2   6   98.33    7.62
   2  -2   6  104.38    6.48
   2  -2   6   96.19    7.96
  -2   2  -6   66.02   10.40
   2  -2   6  110.41    7.39
  -2   2  -5  649.10   11.22
   2  -2   5  598.32   10.14
  -2   2  -5  583.41   11.41
   2  -2   5  626.07   12.51
   2  -2   5  570.21    9.96
   2  -2   5  562.82   11.30
  -2   2  -4 1075.53   11.71
   2  -2   4 1048.38   11.21
  -2   2  -3 1283.84   10.15
  -2   2  -3 1391.18   13.61
   2  -2   3 1344.95   10.34
   2  -2   3 1328.10   10.23
   2  -2   2 1897.30    9.89
   2  -2   2 1864.67    9.49
   2  -2   1  426.15   11.30
   2  -2   0   10.96    2.60
   2  -2   0   11.98    2.75
   2  -2  -1 1723.24   12.33
  -2   2   1 1648.08   11.92
  -2   2   1 1661.23   16.30
   2  -2  -2  276.12    7.17
  -2   2   2  286.03    7.86
   2  -2  -2  218.67    6.57
  -2   2   2  217.54    8.78
  -2   2   3  138.34    7.03
   2  -2  -3  114.25    6.55
  -2   2   3  124.51    8.25
   2  -2  -4    5.33    7.32
  -2   2   4   17.00    6.36
  -2   2   4   10.72    5.14
   2  -2  -4    1.52    4.33
  -2   2   4    9.12    3.90
   2  -2  -4    1.56    5.60
   2  -2  -4   18.79    6.12
   2  -2  -5  847.78   16.28
  -2   2   5  836.27   14.68
  -2   2   5  808.01   16.25
  -2   2   5  760.60   10.05
   2  -2  -5  798.36   14.77
  -2   2   5  779.25   12.03
   2  -2  -5  851.54   13.73
   2  -2  -6   24.77    8.36
  -2   2   6   22.39    7.98
   2  -2  -6   15.24    7.20
  -2   2   6   19.63    6.55
  -2   2   6   16.76    5.50
   2  -2  -6   10.45    7.64
  -2   2   6   -2.82    6.19
   2  -2  -7   27.16    8.94
   2  -2  -7   25.92    9.34
  -2   2   7   12.42    9.30
  -2   2   7   12.46    7.71
  -2   2   7   18.65    7.25
   2  -2  -7   25.12    7.71
  -2   2   7   11.18    6.30
  -2   2   7   18.03    7.09
   2  -2  -8   58.93   10.88
  -2   2   8   50.03   10.78
  -2   2   8   54.83    9.25
  -2   2   8   44.71    8.47
   2  -2  -8   58.96    8.75
  -2   2   8   56.17    7.58
   2  -2  -8   66.65   10.51
   2  -2  -9  225.07   13.79
  -2   2   9  258.32   13.75
  -2   2   9  220.42   11.54
  -2   2   9  248.17   12.29
  -2   2   9  208.12   10.02
   2  -2  -9  206.51   11.99
   2  -2  -9  189.61   12.96
   2  -2 -10  166.34   13.61
   2  -2 -10  159.09   12.45
  -2   2  10  191.93   13.61
   2  -2 -10  160.89   13.77
  -2   2  10  149.91   11.92
  -2   2  10  138.50    9.90
  -2   2  10  165.96   11.76
   2  -2 -11  107.07   13.91
  -2   2  11   92.22   13.20
  -2   2  11   93.47   12.43
   2  -2 -11   82.88   11.83
  -2   2  11   55.91   10.04
   2  -2 -11  104.23   14.05
  -2   2  11   61.92   11.19
   2  -2 -12  195.62   16.78
  -2   2  12  159.50   15.05
  -2   2  12  176.20   14.77
   2  -2 -12  183.99   14.39
  -2   2  12  161.01   11.80
  -2   2  12  146.24   13.65
   2  -2 -12  215.13   16.49
   2  -2 -13   -0.59   14.84
   2  -2 -13   10.46   14.90
  -2   2  13   10.82   13.70
  -2   2  13   11.86   14.04
   2  -2 -13   25.23   12.39
  -2   2  13   10.97   10.37
  -2   2  13   23.47   12.75
   2  -2 -14   41.45   16.00
   2  -2 -14   28.71   16.72
  -2   2  14   19.11   10.87
  -2   2  14   35.05   15.88
   2  -2 -14   16.86   13.46
  -2   2  14   51.63   13.87
   2  -2 -15   10.71   16.54
  -2   2  15   11.26   17.82
   2  -2 -15   11.68   14.11
  -2   2  15   -3.13   10.96
  -2   2  15   -3.47   14.12
   2  -2 -16   68.41   15.97
   2  -2 -16  130.34   20.25
  -2   2  16  126.26   21.24
   2  -2 -17   75.62   21.20
   2  -1  18   29.71   17.09
   2  -1  18   10.72   17.29
  -2   1 -17  173.42   20.24
   2  -1  17  155.26   18.05
   2  -1  17  170.30   18.71
   2  -1  17  178.65   18.30
  -2   1 -16   99.13   17.12
   2  -1  16   94.70   15.87
   2  -1  16   86.86   16.79
   2  -1  16   79.40   16.36
  -2   1 -15  102.57   16.34
   2  -1  15  137.47   15.79
   2  -1  15  113.61   15.90
   2  -1  15  118.31   16.22
  -2   1 -14   38.35   14.33
   2  -1  14   12.77   12.80
   2  -1  14   56.54   13.90
   2  -1  14   31.98   13.08
  -2   1 -13   31.42   13.03
   2  -1  13   17.21   12.23
   2  -1  13   63.73   13.58
   2  -1  13   40.17   12.50
  -2   1 -12   20.03   12.37
   2  -1  12   22.80   11.64
   2  -1  12   25.92   11.66
   2  -1  12   30.98   11.88
  -2   1 -11   79.64   12.25
   2  -1  11   75.50   11.46
   2  -1  11   87.40   11.37
   2  -1  11   89.75   11.09
  -2   1 -11   94.24   13.27
  -2   1 -10   32.22   10.47
   2  -1  10   47.73    9.91
   2  -1  10   48.55    9.81
  -2   1 -10   65.38   13.60
   2  -1  10   53.54   10.03
  -2   1 -10   48.71   11.21
  -2   1  -9   82.74   10.09
  -2   1  -9   99.54   10.59
   2  -1   9   79.74    9.47
  -2   1  -9  108.42   13.07
   2  -1   9   89.89    9.49
   2  -1   9   97.27    9.55
   2  -1   9   96.74    9.43
  -2   1  -8  328.53   11.67
  -2   1  -8  344.31   12.24
  -2   1  -8  363.24   15.68
   2  -1   8  328.42   11.22
   2  -1   8  334.52   10.28
   2  -1   8  327.71   10.96
  -2   1  -7   68.49    7.73
  -2   1  -7   74.14    7.89
   2  -1   7   94.10    7.67
   2  -1   7   96.16    7.17
   2  -1   7   91.15    8.03
   2  -1   7   73.59    6.30
   2  -1   7   96.97    7.46
  -2   1  -7   80.60   10.38
  -2   1  -6  124.30    7.73
  -2   1  -6  104.11   10.39
   2  -1   6  129.86    7.58
   2  -1   6  138.95    6.27
   2  -1   6  141.82    7.17
   2  -1   6  139.05    7.53
  -2   1  -6  152.76    7.63
   2  -1   6  123.76    6.17
  -2   1  -5 1766.79   14.85
  -2   1  -5 1498.63   16.46
  -2   1  -5 1175.42   23.79
   2  -1   5 1810.65   14.01
   2  -1   5 1431.54   18.61
   2  -1   5 1594.76   13.81
  -2   1  -4  172.75    4.16
  -2   1  -4  161.01   10.71
   2  -1   4  186.90    4.28
   2  -1   4  180.39    4.86
   2  -1   4  181.41    8.07
   2  -1   3   17.52    5.17
  -2   1  -3   25.50    7.67
   2  -1   2  282.56    6.98
  -2   1  -1 1656.56   15.70
   2  -1   1 2068.45   14.28
   2  -1   0 1336.93   15.49
  -2   1   0  743.28   15.04
  -2   1   1  580.71   15.81
   2  -1  -2    5.12    3.89
  -2   1   2   -0.24    4.17
   2  -1  -2    3.34    3.84
  -2   1   2    8.06    5.25
  -2   1   3   51.36    6.44
  -2   1   3   61.21    5.17
   2  -1  -3   69.18    4.93
   2  -1  -4  178.77    9.15
  -2   1   4  217.77    9.14
   2  -1  -4  192.86    7.72
  -2   1   4  207.90    7.48
   2  -1  -4  232.18    6.89
   2  -1  -5  154.11    9.47
  -2   1   5  175.60    8.95
   2  -1  -5  147.98    6.88
  -2   1   5  169.32    7.87
  -2   1   5  153.66    5.84
   2  -1  -5  172.07    8.05
   2  -1  -5  131.73    7.73
  -2   1   5  156.42    7.19
   2  -1  -5  173.91    8.49
   2  -1  -6  217.02   10.43
  -2   1   6  194.66   10.02
  -2   1   6  180.14    8.71
  -2   1   6  174.59    6.97
   2  -1  -6  202.85    8.86
  -2   1   6  173.35    8.12
   2  -1  -6  193.02    9.89
   2  -1  -7   42.83    9.13
   2  -1  -7   32.10    9.00
  -2   1   7   48.74    8.15
  -2   1   7   55.44    9.39
  -2   1   7   46.22    7.97
   2  -1  -7   47.32    7.72
  -2   1   7   37.95    7.47
  -2   1   7   39.18    6.38
   2  -1  -8   88.06   10.80
   2  -1  -8   71.25   10.60
  -2   1   8  100.98    9.45
  -2   1   8   87.86   10.48
  -2   1   8   56.69    7.47
  -2   1   8   74.27    8.94
   2  -1  -8   59.30    8.92
   2  -1  -9    3.40   10.47
   2  -1  -9   19.40   10.93
  -2   1   9   -1.64    9.14
  -2   1   9   28.01   10.46
  -2   1   9   -1.85    7.40
  -2   1   9   11.31    8.94
   2  -1  -9   15.15    9.34
   2  -1 -10   14.16   12.17
  -2   1  10    0.66    9.73
  -2   1  10   15.62   11.28
   2  -1 -10    8.64   10.24
  -2   1  10   -5.68    8.03
   2  -1 -10    0.58   11.07
  -2   1  10    2.68    9.61
   2  -1 -11   78.83   13.40
   2  -1 -11   66.25   13.37
  -2   1  11   65.97   11.85
  -2   1  11   68.50   13.16
   2  -1 -11   41.17   11.37
  -2   1  11   62.40    9.93
  -2   1  11   50.46   11.17
   2  -1 -12  109.59   15.58
   2  -1 -12   76.02   14.59
   2  -1 -12  103.55   13.57
  -2   1  12   96.16   13.30
  -2   1  12  129.63   14.91
  -2   1  12   68.46   10.49
  -2   1  12   72.13   12.58
   2  -1 -13   77.07   15.35
  -2   1  13  142.80   15.25
  -2   1  13  135.21   16.70
   2  -1 -13   80.05   13.72
  -2   1  13   82.69   11.16
  -2   1  13   82.43   13.83
   2  -1 -13   83.95   16.44
   2  -1 -14   46.51   16.40
   2  -1 -14   18.73   16.74
  -2   1  14   21.54   10.98
  -2   1  14   10.57   15.55
  -2   1  14   19.48   13.70
   2  -1 -14   10.59   13.36
  -2   1  15   73.58   15.32
   2  -1 -15  124.49   18.51
  -2   1  15   97.71   18.96
   2  -1 -15   63.55   15.15
   2  -1 -16  133.22   20.14
  -2   1  16  116.26   21.69
   2  -1 -16  164.75   17.66
   2  -1 -17   83.74   20.96
   2   0  18  406.23   22.46
   2   0  18  403.74   23.20
   2   0  18  358.69   22.69
  -2   0 -17  107.40   18.87
   2   0  17  146.19   17.03
   2   0  17  118.55   18.09
   2   0  17  105.83   17.17
  -2   0 -16   41.89   16.23
   2   0  16   49.11   15.09
   2   0  16   42.53   15.98
   2   0  16   51.22   15.32
  -2   0 -15   41.64   15.17
   2   0  15   30.83   13.93
   2   0  15   28.25   14.33
   2   0  15    3.57   13.78
  -2   0 -14   69.26   14.44
   2   0  14   64.85   13.66
   2   0  14   61.23   14.58
   2   0  14   59.77   13.37
  -2   0 -13  105.97   14.39
   2   0  13  122.55   13.55
   2   0  13  111.07   13.86
   2   0  13  108.90   13.22
   2   0  12  257.65   14.28
   2   0  12  256.07   14.52
   2   0  12  224.26   14.03
  -2   0 -11  140.62   12.30
  -2   0 -11  126.91   13.14
   2   0  11  148.62   11.77
   2   0  11  141.92   12.13
   2   0  11  142.14   11.83
  -2   0 -10   74.02   11.06
   2   0  10   75.90   10.22
   2   0  10   91.68    9.91
  -2   0 -10   62.09   13.20
   2   0  10   81.43   10.08
  -2   0 -10   82.13   10.25
  -2   0  -9   12.22    8.62
  -2   0  -9   -5.70    8.70
   2   0   9   -1.54    7.79
  -2   0  -9   22.28   12.08
   2   0   9    1.46    7.78
  -2   0  -8  843.64   15.43
  -2   0  -8  878.90   16.39
  -2   0  -8  926.15   21.10
   2   0   8  922.90   14.64
   2   0   8  867.10   15.11
   2   0   8  880.88   14.62
  -2   0  -7  261.27    9.42
  -2   0  -7  274.99    9.64
  -2   0  -7  283.70    8.74
   2   0   7  269.56    8.38
   2   0   7  220.87    8.89
  -2   0  -7  231.46   12.84
   2   0   7  312.96    9.19
   2   0   7  232.62    8.30
   2   0   7  251.56    8.48
  -2   0  -6 1420.37   15.18
  -2   0  -6 1131.31   21.27
   2   0   6 1265.19   15.35
   2   0   6 1422.79   14.23
   2   0   6 1236.01   14.21
  -2   0  -6 1386.72   15.13
   2   0   6 1428.73   14.05
   2   0   6 1353.07   14.93
  -2   0  -5 4496.59   23.92
  -2   0  -5 4638.04   19.41
   2   0   5 4678.92   19.19
   2   0   5 4526.05   20.74
  -2   0  -5 4698.20   37.52
  -2   0  -4   54.56    8.59
  -2   0  -3 2446.99   25.72
   2   0   3 1128.91   30.84
   2   0   2  130.14   12.76
  -2   0  -2  455.61   12.24
  -2   0  -1  427.83   10.60
  -2   0  -1  311.41    6.26
   2   0   0  523.33   10.22
  -2   0   0  467.35    9.06
   2   0  -1 1773.07   13.32
  -2   0   1 1468.70   18.80
   2   0  -2  607.09    8.05
  -2   0   2  570.54   10.00
   2   0  -2  598.14    7.94
  -2   0   2  620.15    7.48
  -2   0   2  635.61   12.27
  -2   0   3 1026.32   14.92
   2   0  -3  988.56   11.65
  -2   0   3  928.19   14.40
  -2   0   3 1127.51   11.84
   2   0  -3 1070.39   13.12
   2   0  -4   74.91    7.34
   2   0  -4   56.95    5.15
  -2   0   4   75.61    7.07
  -2   0   4   62.86    5.59
   2   0  -4   54.99    6.01
   2   0  -5  784.63   13.40
   2   0  -5  728.26   14.42
   2   0  -5  766.50   13.20
  -2   0   5  722.18   13.98
  -2   0   5  737.72   13.28
  -2   0   5  670.65    9.06
   2   0  -5  816.04   12.08
   2   0  -5  601.50   12.66
  -2   0   5  700.24   11.68
   2   0  -6   45.66    8.25
   2   0  -6   25.88    7.72
  -2   0   6   62.99    7.57
  -2   0   6   35.45    7.88
  -2   0   6   52.73    5.86
   2   0  -6   49.66    7.25
  -2   0   6   35.20    7.19
   2   0  -7 2565.87   27.26
   2   0  -7 2514.22   25.74
  -2   0   7 2561.99   24.85
  -2   0   7 2593.11   27.33
   2   0  -7 2449.81   23.84
  -2   0   7 2299.68   19.67
  -2   0   7 2383.64   23.72
  -2   0   7 2629.46   26.41
   2   0  -8 1158.98   21.04
   2   0  -8 1236.95   21.01
  -2   0   8 1162.70   18.81
  -2   0   8 1251.64   19.57
  -2   0   8 1333.02   21.44
  -2   0   8 1100.41   15.89
   2   0  -8 1222.01   19.08
   2   0  -9   11.23   10.37
   2   0  -9   36.03   10.95
  -2   0   9   46.33    9.59
  -2   0   9   36.00   10.80
   2   0  -9   18.75    9.44
  -2   0   9   25.47    7.61
  -2   0   9   38.97    9.12
   2   0 -10   30.54   11.90
   2   0 -10   26.60   12.26
  -2   0  10   16.35    9.95
  -2   0  10    4.39   10.82
   2   0 -10   14.88   10.57
  -2   0  10    6.28    7.99
  -2   0  10   16.77    9.81
   2   0 -11  114.56   14.66
  -2   0  11  119.46   12.72
  -2   0  11   82.23   13.32
   2   0 -11  134.20   14.12
   2   0 -11  130.96   13.31
  -2   0  11   77.22    9.98
  -2   0  11  113.53   12.07
   2   0 -12   37.04   14.63
   2   0 -12   42.08   14.49
  -2   0  12   18.84   13.50
  -2   0  12   59.07   12.96
   2   0 -12   51.17   12.70
  -2   0  12   43.28   10.04
  -2   0  12   38.10   12.07
   2   0 -13   42.84   15.35
   2   0 -13   12.38   14.50
   2   0 -13   40.00   13.19
  -2   0  13   21.19   10.19
  -2   0  13   11.86   14.53
  -2   0  13   18.01   12.66
   2   0 -14   66.01   16.53
  -2   0  14   93.21   17.66
   2   0 -14   46.18   14.54
  -2   0  14   50.62   10.96
  -2   0  14   57.92   14.08
   2   0 -15   31.97   17.02
  -2   0  15   30.07   17.34
   2   0 -15   17.57   14.73
  -2   0  15  -11.35   17.01
   2   0 -16   12.39   19.05
  -2   0  16    4.06   19.37
  -2   0  16   15.00   19.71
   2   0 -16   24.67   15.71
   2   0 -17   33.71   20.25
   2   1  19   -9.08   17.76
   2   1  18   23.66   17.05
   2   1  18   -0.45   17.06
   2   1  18   38.93   16.74
  -2  -1 -17   99.16   18.78
   2   1  17  133.19   17.31
   2   1  17   73.24   17.50
   2   1  17   89.93   17.54
  -2  -1 -16   30.56   16.49
   2   1  16   21.79   14.65
   2   1  16   55.21   16.01
   2   1  16   15.86   15.07
  -2  -1 -15   48.25   15.56
   2   1  15   24.13   14.12
   2   1  15   46.98   15.14
   2   1  15   64.53   14.43
  -2  -1 -14   50.17   14.34
   2   1  14   54.88   13.44
   2   1  14   62.21   14.06
   2   1  14   64.71   13.80
  -2  -1 -13   51.45   13.39
   2   1  13   51.98   12.15
   2   1  13   34.51   12.41
   2   1  13   71.02   12.62
  -2  -1 -12  148.52   13.89
  -2  -1 -12  159.90   14.27
   2   1  12  154.08   12.72
   2   1  12  128.31   12.77
   2   1  12  131.02   12.40
  -2  -1 -11   -1.05   10.52
  -2  -1 -11    8.91   10.81
   2   1  11   18.36   10.11
   2   1  11   19.77   10.08
   2   1  11   12.34    9.84
  -2  -1 -10  359.22   14.41
   2   1  10  357.20   13.21
  -2  -1 -10  402.26   17.33
   2   1  10  362.66   12.83
  -2  -1 -10  344.11   13.66
  -2  -1  -9   54.93    9.60
   2   1   9   40.18    8.38
  -2  -1  -9   47.17   11.26
   2   1   9   33.96    8.03
  -2  -1  -9   43.12    8.86
   2   1   8    4.48    6.62
  -2  -1  -8   -2.02    7.54
   2   1   8    8.78    6.10
  -2  -1  -8   10.24    7.89
   2   1   8   13.39    6.88
  -2  -1  -8   20.58    9.38
   2   1   8   11.98    6.46
  -2  -1  -7  975.69   14.56
   2   1   7  889.11   14.02
   2   1   7  990.22   13.38
   2   1   7  989.66   13.29
  -2  -1  -7  967.39   14.20
   2   1   7  882.91   14.30
  -2  -1  -6   41.34    5.16
   2   1   6   30.76    4.33
   2   1   6   32.87    5.66
  -2  -1  -6   33.58    8.05
   2   1   6   31.48    4.62
   2   1   6   28.32    4.36
  -2  -1  -6   46.27    6.43
  -2  -1  -6   40.71    5.89
  -2  -1  -5  128.25    4.26
   2   1   5  140.23    4.20
  -2  -1  -5  128.44    8.96
   2   1   5  137.35    4.59
  -2  -1  -5  127.47    6.11
  -2  -1  -4   58.52    7.38
  -2  -1  -4   57.14    7.93
  -2  -1  -3    4.44    6.48
  -2  -1  -3   16.96    6.29
  -2  -1  -2  180.78    8.01
  -2  -1  -2  218.85    9.05
  -2  -1  -1   53.95    6.50
  -2  -1  -1   44.71    3.94
   2   1   0 1435.68   16.40
  -2  -1   0 1539.67   17.86
  -2  -1   1  855.65   14.17
  -2  -1   2   47.17    3.63
   2   1  -2   35.73    3.38
  -2  -1   2   38.53    5.29
  -2  -1   2   43.19    6.34
   2   1  -2   30.28    3.99
   2   1  -3  139.96    5.86
  -2  -1   3  135.18    7.10
  -2  -1   3  149.99    5.94
  -2  -1   3  139.90    7.54
   2   1  -3  140.63    6.65
   2   1  -4  302.86    9.68
   2   1  -4  377.29    9.81
   2   1  -4  337.69    9.26
  -2  -1   4  345.27    9.56
  -2  -1   4  347.12    8.83
   2   1  -4  332.17   10.17
  -2  -1   4  311.69    9.37
   2   1  -5  761.95   14.04
  -2  -1   5  651.83   12.48
   2   1  -5  654.53   13.67
  -2  -1   5  739.75   13.61
  -2  -1   5  701.83   11.91
   2   1  -5  743.19   12.11
  -2  -1   5  763.41   13.91
  -2  -1   5  634.45    8.66
   2   1  -5  736.07   13.27
   2   1  -6 2138.88   23.65
   2   1  -6 2071.99   22.56
  -2  -1   6 2320.00   23.40
  -2  -1   6 2040.57   23.68
   2   1  -6 2213.71   20.57
  -2  -1   6 1940.16   20.12
  -2  -1   6 1890.45   20.44
   2   1  -7  261.91   12.02
  -2  -1   7  312.98   11.29
  -2  -1   7  310.30   12.71
   2   1  -7  298.98   11.12
  -2  -1   7  269.16    8.88
  -2  -1   7  281.11   10.61
   2   1  -7  299.79   12.29
  -2  -1   7  354.83   12.43
   2   1  -8   -5.43    9.53
   2   1  -8    0.96    9.98
  -2  -1   8   25.35    8.80
   2   1  -8   -6.08    8.50
  -2  -1   8    0.02    6.65
  -2  -1   8   10.47    8.23
   2   1  -9    1.61   10.28
   2   1  -9   17.45   10.64
  -2  -1   9   -0.85    9.35
   2   1  -9   -2.18    9.69
  -2  -1   9    8.35   10.45
  -2  -1   9    7.81    7.37
  -2  -1   9   14.52    9.18
   2   1 -10   14.16   11.78
   2   1 -10   -4.10   11.92
  -2  -1  10   23.91   10.60
   2   1 -10    8.28   10.93
  -2  -1  10    3.55    7.81
  -2  -1  10   16.38   11.71
  -2  -1  10   15.23    9.63
   2   1 -11  207.63   15.63
   2   1 -11  231.50   16.00
  -2  -1  11  236.48   14.83
  -2  -1  11  231.88   15.80
   2   1 -11  190.53   14.18
  -2  -1  11  173.84   11.25
  -2  -1  11  236.71   13.88
   2   1 -12   36.97   14.47
   2   1 -12   19.23   13.94
  -2  -1  12   10.94   14.01
   2   1 -12   27.77   12.83
  -2  -1  12   17.14    9.28
  -2  -1  12   39.84   12.05
   2   1 -13  128.87   15.11
   2   1 -13  121.61   16.75
  -2  -1  13  130.64   14.43
  -2  -1  13  156.36   17.39
  -2  -1  13  174.44   17.68
  -2  -1  13  129.89   11.10
   2   1 -14  113.72   17.64
  -2  -1  14  122.59   18.87
  -2  -1  14   91.44   17.88
   2   1 -14  106.30   15.47
  -2  -1  14  108.52   14.83
   2   1 -15   26.56   17.28
  -2  -1  15    9.92   17.58
  -2  -1  15   31.54   18.33
   2   1 -15   15.24   14.75
   2   1 -16   20.38   19.55
   2   1 -16   40.83   16.53
   2   1 -17   27.30   19.65
   2   2  19   60.57   19.00
   2   2  18   27.36   16.68
   2   2  18    5.39   16.70
  -2  -2 -17   46.03   17.95
   2   2  17   24.70   15.91
   2   2  17   53.79   17.47
   2   2  17   39.81   15.86
  -2  -2 -16   24.62   15.92
   2   2  16   12.92   14.72
   2   2  16   27.66   15.96
   2   2  16   35.29   14.89
  -2  -2 -15   12.71   14.53
   2   2  15   20.20   14.09
   2   2  15   19.52   14.38
   2   2  15    2.40   13.40
  -2  -2 -14    8.40   13.51
   2   2  14   18.53   12.88
   2   2  14    2.40   13.41
   2   2  14   17.95   12.64
   2   2  13   29.92   12.48
  -2  -2 -13    8.88   12.73
   2   2  13    6.55   11.67
  -2  -2 -12  243.96   15.76
   2   2  12  203.41   13.37
   2   2  12  245.29   14.47
   2   2  12  250.22   13.69
  -2  -2 -12  194.56   14.43
  -2  -2 -11  180.45   13.59
   2   2  11  196.85   12.21
   2   2  11  182.15   11.96
  -2  -2 -11  155.45   12.91
  -2  -2 -10  101.05   11.37
   2   2  10   94.09   10.19
   2   2  10   93.14    9.72
  -2  -2 -10   73.06   10.49
  -2  -2  -9  166.50   11.62
   2   2   9  168.51    9.21
   2   2   9  160.24    9.75
   2   2   9  182.92    9.75
  -2  -2  -9  179.44   10.65
  -2  -2  -8  233.74   10.31
   2   2   8  240.13    8.67
   2   2   8  258.14    9.56
  -2  -2  -8  225.04   13.24
   2   2   8  215.33   10.01
   2   2   8  233.76    9.36
  -2  -2  -8  222.92   10.02
  -2  -2  -7  665.37   12.42
   2   2   7  655.05   12.46
  -2  -2  -7  628.69   17.60
   2   2   7  637.31   11.83
   2   2   7  647.77   11.49
   2   2   7  706.94   11.53
  -2  -2  -7  655.48   12.44
   2   2   7  732.62   11.38
  -2  -2  -6  344.22    8.60
   2   2   6  344.45    7.52
   2   2   6  322.28    8.78
  -2  -2  -6  374.86   13.29
   2   2   6  388.39    8.63
  -2  -2  -6  352.10    9.00
   2   2   6  336.86    8.28
  -2  -2  -6  384.95   11.06
  -2  -2  -5  187.41    4.92
   2   2   5  194.82    4.93
   2   2   5  183.86    5.09
  -2  -2  -5  203.65    6.77
  -2  -2  -5  209.85   11.08
  -2  -2  -4   32.33    8.16
  -2  -2  -4   26.44    5.08
  -2  -2  -4   46.33    6.69
  -2  -2  -3   62.72    8.29
  -2  -2  -3   54.12    7.05
  -2  -2  -2   66.39    8.10
  -2  -2  -2   76.40    7.29
  -2  -2  -1   16.44    6.53
  -2  -2  -1   17.74    2.76
  -2  -2   0   58.43    6.03
  -2  -2   0   51.24    5.28
  -2  -2   0   54.97    6.79
  -2  -2   1 3799.60   13.79
   2   2  -1 3935.87   15.10
  -2  -2   1 3835.15   20.86
  -2  -2   1 3923.25   20.96
  -2  -2   1 3777.66   25.58
  -2  -2   1 3817.96   16.39
   2   2  -1 3798.79   16.93
  -2  -2   2  273.19    6.29
  -2  -2   2  278.34    9.35
   2   2  -2  308.61    6.83
  -2  -2   2  207.56    8.79
   2   2  -2  247.93    7.16
  -2  -2   2  256.28    8.09
   2   2  -3  131.94    7.75
  -2  -2   3  129.96    6.39
  -2  -2   3  138.66    8.21
  -2  -2   3  119.37    7.35
   2   2  -3  128.42    6.77
  -2  -2   3  108.61    7.11
   2   2  -3  122.21    6.07
   2   2  -4  112.78    8.29
  -2  -2   4   84.01    3.82
   2   2  -4  116.19    7.81
  -2  -2   4  121.56    7.19
   2   2  -4  123.21    6.87
   2   2  -4   83.58    6.76
  -2  -2   4  101.88    7.72
   2   2  -4   95.96    7.48
  -2  -2   4   78.05    6.64
   2   2  -5   15.30    7.60
  -2  -2   5    6.26    6.24
   2   2  -5   14.47    7.76
   2   2  -5    6.45    6.29
  -2  -2   5    6.65    4.30
  -2  -2   5   24.33    7.43
   2   2  -5    8.85    7.22
  -2  -2   5    8.91    5.19
  -2  -2   5   14.02    6.12
   2   2  -6    5.42    8.17
   2   2  -6    4.93    8.49
  -2  -2   6    0.47    7.17
   2   2  -6    9.22    7.41
  -2  -2   6   -5.70    5.18
  -2  -2   6    9.32    6.72
   2   2  -7    6.75    9.29
   2   2  -7   18.32    9.72
  -2  -2   7   13.10    8.21
  -2  -2   7   21.22    8.48
   2   2  -7    9.19    8.34
  -2  -2   7    7.17    5.96
  -2  -2   7   27.76    9.34
  -2  -2   7   12.25    7.42
   2   2  -8   35.60   10.24
   2   2  -8   31.65   10.23
   2   2  -8   32.53    9.43
  -2  -2   8   39.89    9.19
  -2  -2   8   25.67   10.43
  -2  -2   8   21.15    6.96
  -2  -2   8   26.84    8.30
   2   2  -9  180.14   13.51
   2   2  -9  212.84   13.62
  -2  -2   9  199.81   12.63
  -2  -2   9  224.31   14.10
  -2  -2   9  190.31   11.45
   2   2  -9  188.31   12.54
   2   2 -10  271.07   14.87
   2   2 -10  281.78   16.30
   2   2 -10  279.49   15.92
  -2  -2  10  299.53   14.68
  -2  -2  10  276.84   15.66
  -2  -2  10  293.66   16.03
  -2  -2  10  248.74   13.03
  -2  -2  10  226.21   10.57
   2   2 -11  227.91   17.08
   2   2 -11  215.79   16.23
  -2  -2  11  213.82   15.76
  -2  -2  11  199.00   15.81
  -2  -2  11  173.67   10.75
   2   2 -11  212.94   14.93
  -2  -2  11  198.10   13.08
   2   2 -12   17.59   14.25
   2   2 -12   37.29   14.57
   2   2 -12   12.44   12.99
  -2  -2  12   22.22   14.46
  -2  -2  12   34.19   14.43
  -2  -2  12    8.76    9.22
  -2  -2  12    1.74   12.06
   2   2 -13   31.65   15.83
   2   2 -13   19.06   13.20
  -2  -2  13   16.47   15.15
  -2  -2  13   29.92   10.04
  -2  -2  13   33.36   13.07
   2   2 -14  151.23   18.60
  -2  -2  14  185.29   19.20
   2   2 -14  168.85   16.76
   2   2 -15   -2.46   17.16
  -2  -2  15   -2.07   18.02
   2   2 -15    1.65   14.99
   2   2 -16   37.95   19.39
   2   2 -16   21.58   16.23
   2   2 -17   38.74   21.01
   2   3  19   33.14   18.66
   2   3  18   -4.84   15.88
   2   3  18   13.01   16.99
  -2  -3 -17   83.33   18.31
   2   3  17   63.76   16.48
   2   3  17   21.72   17.21
   2   3  17   55.84   16.45
  -2  -3 -16   50.53   16.59
   2   3  16   57.72   15.09
   2   3  16   57.21   16.41
   2   3  16   48.36   14.98
  -2  -3 -15    7.58   15.03
   2   3  15  -10.77   13.34
   2   3  15   17.32   14.64
   2   3  15    6.85   13.82
  -2  -3 -14   40.20   14.32
   2   3  14   28.42   12.51
   2   3  14   36.93   14.23
   2   3  14   26.94   12.89
   2   3  13   36.10   11.70
   2   3  13   47.28   12.11
  -2  -3 -13   30.52   13.21
  -2  -3 -12   11.22   12.10
  -2  -3 -12   17.17   12.47
   2   3  12   40.43   11.15
   2   3  12   44.99   11.32
   2   3  12   48.75   11.61
   2   3  11  198.00   12.25
  -2  -3 -11  203.16   13.96
  -2  -3 -11  179.76   12.64
   2   3  11  191.53   12.25
  -2  -3 -10   72.02   11.13
   2   3  10   57.10    9.71
   2   3  10   41.85    9.10
  -2  -3 -10   46.16    9.91
  -2  -3  -9  266.18   12.41
   2   3   9  297.34   11.47
   2   3   9  269.26   10.80
  -2  -3  -9  280.42   11.84
  -2  -3  -8   89.50    8.92
   2   3   8   98.02    8.59
  -2  -3  -8  122.48   12.87
   2   3   8  113.95    7.17
   2   3   8   93.79    8.15
  -2  -3  -8   95.46    8.83
  -2  -3  -7  871.19   14.63
   2   3   7  774.60   13.98
   2   3   7  844.61   13.90
  -2  -3  -7  806.59   13.87
   2   3   7  919.23   13.03
  -2  -3  -7  855.83   19.58
   2   3   7  795.17   13.11
   2   3   6    3.70    4.67
  -2  -3  -6   -6.56    8.70
  -2  -3  -6    5.16    5.24
   2   3   6   16.26    5.91
  -2  -3  -6    6.63    6.26
   2   3   6   24.66    5.86
   2   3   6    8.30    4.13
  -2  -3  -5 1432.84   12.78
  -2  -3  -5 1548.63   15.51
   2   3   5 1451.39   13.03
  -2  -3  -5 1554.54   20.00
   2   3   5 1375.19   13.27
  -2  -3  -4 2669.56   12.89
   2   3   4 2707.23   13.92
  -2  -3  -4 2841.61   18.80
   2   3   4 2782.59   14.27
  -2  -3  -4 2855.48   26.36
   2   3   3 1123.75    6.32
  -2  -3  -3 1099.95   12.09
  -2  -3  -3 1054.23   16.55
   2   3   3 1105.97    6.52
  -2  -3  -2  541.58   13.46
   2   3   1  785.49    6.47
   2   3   1  786.82    5.80
  -2  -3  -1  888.83   10.49
  -2  -3  -1  879.59   15.23
  -2  -3  -1  981.64   10.02
   2   3   0  865.00    8.80
   2   3   0  806.83    8.78
  -2  -3   0  788.83    7.60
  -2  -3   0  786.30   10.87
  -2  -3   0  703.82   15.06
  -2  -3   0  903.41   11.57
   2   3  -1  203.82    5.97
  -2  -3   1  177.05    6.02
  -2  -3   1  182.26    7.37
  -2  -3   1  194.81    7.97
  -2  -3   1  157.27    8.27
   2   3  -1  167.54    6.28
   2   3  -2 1054.76   14.56
   2   3  -2 1183.88   13.35
  -2  -3   2 1094.05   14.15
  -2  -3   2 1036.24   14.45
  -2  -3   2 1198.70   15.65
  -2  -3   2  947.62   14.90
   2   3  -2 1062.24   13.91
   2   3  -3   18.93    5.74
   2   3  -3   22.88    7.17
   2   3  -3   26.32    5.00
  -2  -3   3   29.73    5.91
   2   3  -3   31.65    7.26
  -2  -3   3   34.06    6.54
  -2  -3   3   44.71    7.42
  -2  -3   3   37.68    6.27
   2   3  -4  168.31    9.49
  -2  -3   4  187.91    9.88
  -2  -3   4  160.82    8.75
   2   3  -4  155.52    8.56
  -2  -3   4  136.74    8.78
  -2  -3   4  116.93    4.69
   2   3  -4  158.74    7.92
  -2  -3   4  139.26    7.21
   2   3  -4  109.13    8.28
  -2  -3   4  130.43    7.38
   2   3  -5  174.35   10.59
  -2  -3   5  134.63    9.78
  -2  -3   5  187.56    9.76
   2   3  -5  170.68   10.08
  -2  -3   5  171.79   10.02
  -2  -3   5  121.23    5.70
  -2  -3   5  208.66   10.93
   2   3  -5  156.69    9.14
  -2  -3   5  133.32    7.93
   2   3  -6  211.53   11.55
   2   3  -6  217.78   11.18
  -2  -3   6  253.57   11.49
  -2  -3   6  226.99   10.51
  -2  -3   6  210.27   11.46
   2   3  -6  227.19   10.63
  -2  -3   6  173.51    7.08
  -2  -3   6  198.20   11.56
  -2  -3   6  275.89   12.68
  -2  -3   6  195.75    9.57
   2   3  -7   35.37   10.13
   2   3  -7   62.44   10.43
  -2  -3   7   45.06    9.26
  -2  -3   7   52.87   10.25
   2   3  -7   42.61    9.35
  -2  -3   7   40.18    6.42
  -2  -3   7   61.66   10.76
  -2  -3   7   31.13    8.25
   2   3  -8   24.37   11.17
  -2  -3   8   11.30    9.60
  -2  -3   8   40.23   11.05
  -2  -3   8   34.29   11.07
  -2  -3   8    8.44    6.56
  -2  -3   8   30.49    8.79
   2   3  -8   17.99   10.09
   2   3  -9   70.55   12.65
   2   3  -9  102.90   12.97
  -2  -3   9   65.55   12.34
  -2  -3   9   74.78   12.29
  -2  -3   9   56.14    7.95
  -2  -3   9   59.59   10.04
   2   3  -9   88.09   12.23
   2   3 -10   31.54   13.34
  -2  -3  10   36.75   12.69
   2   3 -10   60.38   12.44
  -2  -3  10   27.19    8.29
  -2  -3  10   45.79   10.52
   2   3 -11   26.41   13.72
   2   3 -11   27.36   14.22
  -2  -3  11    6.96    8.48
  -2  -3  11   53.30   13.66
   2   3 -11   28.66   12.60
  -2  -3  11   27.23   11.58
   2   3 -12  141.41   17.11
  -2  -3  12  116.15   13.77
  -2  -3  12  178.16   16.92
   2   3 -12  183.69   15.75
  -2  -3  12  146.07   10.74
   2   3 -13   47.05   16.57
  -2  -3  13   65.72   16.57
   2   3 -13   42.76   14.40
   2   3 -14    2.16   16.67
  -2  -3  14   24.91   17.07
   2   3 -14   25.54   14.83
   2   3 -15   43.95   18.85
  -2  -3  15   84.15   19.80
   2   3 -15   91.27   16.75
   2   3 -16   80.31   20.37
   2   4  19    0.30   17.83
   2   4  18   55.33   17.09
   2   4  18   56.69   18.58
   2   4  18   81.03   18.24
  -2  -4 -17   52.92   17.65
   2   4  17   18.82   15.22
   2   4  17   41.85   17.86
   2   4  17    2.08   15.39
  -2  -4 -16   35.79   16.66
   2   4  16    2.32   14.29
   2   4  16   21.30   16.16
   2   4  16   15.01   14.84
  -2  -4 -15   22.70   15.06
   2   4  15   -2.40   13.66
   2   4  15   14.13   14.56
   2   4  15   17.03   13.81
  -2  -4 -14   33.12   14.26
   2   4  14   46.59   12.93
   2   4  14   61.21   14.39
   2   4  14   44.84   13.31
   2   4  13    3.70   11.47
   2   4  13   -3.27   11.66
   2   4  13   17.11   12.23
  -2  -4 -13   11.78   12.77
  -2  -4 -12   74.64   13.64
   2   4  12   55.73   11.63
   2   4  12   61.76   11.47
   2   4  12   52.69   11.98
  -2  -4 -12   54.19   12.61
  -2  -4 -11   -0.32   11.37
   2   4  11    5.06   10.12
  -2  -4 -11    1.11   11.02
   2   4  11   32.37   10.10
  -2  -4 -10   84.25   11.46
   2   4  10   73.94   10.46
   2   4  10   92.39   10.23
  -2  -4 -10   86.31   10.74
  -2  -4  -9   15.75    9.39
   2   4   9   21.57    9.05
   2   4   9   13.06    8.60
  -2  -4  -9   11.28    9.14
  -2  -4  -8  408.31   12.99
   2   4   8  362.26   12.12
   2   4   8  394.71   11.76
   2   4   8  400.11   10.28
  -2  -4  -8  372.32   12.36
  -2  -4  -7  164.28    9.73
   2   4   7  185.12    9.17
   2   4   7  150.15    8.36
   2   4   7  130.36    6.61
  -2  -4  -7  137.26    9.04
   2   4   7  169.62    8.83
  -2  -4  -6  244.99    8.75
   2   4   6  257.68    9.53
   2   4   6  232.47    7.02
  -2  -4  -6  267.46    9.71
   2   4   6  251.31    8.43
  -2  -4  -5  717.41   11.17
   2   4   5  718.92   11.96
   2   4   5  558.92    6.64
   2   4   5  653.13   10.40
  -2  -4  -5  731.31   12.75
   2   4   5  625.80    9.77
   2   4   5  745.58   12.34
   2   4   4 2346.91   16.55
   2   4   4 2582.10   19.04
  -2  -4  -4 2454.48   20.17
  -2  -4  -4 2505.31   24.93
  -2  -4  -4 2365.23   17.03
  -2  -4  -3  513.11    7.98
   2   4   3  503.06    8.06
  -2  -4  -3  553.13   10.89
  -2  -4  -3  529.59   12.64
   2   4   3  486.14    7.17
  -2  -4  -2  248.06   10.04
  -2  -4  -2  268.60    8.93
   2   4   2  255.13    6.70
  -2  -4  -2  242.36    5.95
   2   4   2  273.59    5.91
  -2  -4  -2  291.39    6.62
   2   4   1 1364.30   13.48
  -2  -4  -1 1357.87   13.96
  -2  -4  -1 1366.67   19.50
  -2  -4  -1 1389.51   15.02
   2   4   0  111.03    6.07
  -2  -4   0  109.91    6.22
   2   4   0  145.00    5.89
  -2  -4   0  138.45    7.41
  -2  -4   0  121.33    6.61
  -2  -4   0  117.62    8.05
   2   4  -1  745.69   12.90
  -2  -4   1  664.48   12.71
   2   4  -1  804.16   12.23
  -2  -4   1  617.35   12.50
  -2  -4   1  724.59   12.31
  -2  -4   1  624.11   13.71
   2   4  -1  574.79   10.61
   2   4  -2  751.61   13.61
  -2  -4   2  693.67   14.22
   2   4  -2  889.04   13.63
  -2  -4   2  693.84   13.78
  -2  -4   2  864.74   14.18
  -2  -4   2  666.95   13.85
   2   4  -2  650.13   12.58
   2   4  -3  364.58   11.38
  -2  -4   3  314.02   11.18
   2   4  -3  371.48   11.11
   2   4  -3  303.02   10.48
  -2  -4   3  349.07   11.20
  -2  -4   3  354.89   11.45
   2   4  -3  307.98    9.98
  -2  -4   3  262.33    9.84
   2   4  -3  259.35    9.71
   2   4  -4   12.39    8.27
  -2  -4   4    1.71    7.39
   2   4  -4    3.08    8.20
  -2  -4   4   -8.30    7.55
  -2  -4   4    4.61    8.04
   2   4  -4   -2.32    7.18
  -2  -4   4    4.93    6.06
   2   4  -5  132.30   10.72
  -2  -4   5  141.83   10.43
   2   4  -5  118.34   10.32
  -2  -4   5  108.17    9.15
  -2  -4   5  120.98   10.13
   2   4  -5  115.48    9.74
  -2  -4   5  134.60   10.73
  -2  -4   5  111.61    8.21
   2   4  -6   51.82   10.17
  -2  -4   6   60.68    9.80
   2   4  -6   72.89   10.39
  -2  -4   6   42.82    9.73
   2   4  -6   44.60    9.51
  -2  -4   6   59.90   10.60
  -2  -4   6   35.99    5.91
  -2  -4   6   39.46    7.80
   2   4  -7   15.97   10.69
   2   4  -7   33.14   10.65
  -2  -4   7   19.33   10.27
  -2  -4   7   16.78    6.36
  -2  -4   7   30.76   11.02
   2   4  -7   17.81    9.59
  -2  -4   7   15.59    8.22
   2   4  -8  190.55   13.79
   2   4  -8  139.31   12.91
   2   4  -8  178.63   13.27
  -2  -4   8  229.63   13.94
  -2  -4   8  133.41    8.09
  -2  -4   8  166.66   11.12
   2   4  -9  264.87   15.78
   2   4  -9  226.08   15.50
  -2  -4   9  290.06   15.84
   2   4  -9  264.34   15.19
  -2  -4   9  221.38    9.73
  -2  -4   9  229.91   12.87
   2   4 -10   10.63   13.28
   2   4 -10   26.52   13.36
  -2  -4  10    2.34   12.80
   2   4 -10   38.19   12.62
  -2  -4  10   14.95    8.23
  -2  -4  10   18.13   10.66
   2   4 -11   15.38   14.52
   2   4 -11   28.95   13.25
  -2  -4  11   45.77   14.88
  -2  -4  11   16.92    8.71
  -2  -4  11   10.46   11.79
   2   4 -12   75.69   16.07
  -2  -4  12   45.76   15.79
   2   4 -12   81.52   14.85
  -2  -4  13   20.97   16.52
   2   4 -13   45.99   14.46
   2   4 -13    8.65   15.92
  -2  -4  14   65.75   18.86
   2   4 -14   28.85   15.56
   2   4 -14   51.49   17.78
   2   4 -15  174.19   20.72
   2   4 -15  127.60   18.17
   2   4 -16   76.24   21.18
   2   5  19   87.69   19.39
   2   5  18   75.29   17.71
   2   5  18   29.29   18.34
   2   5  18   31.76   17.92
  -2  -5 -17    2.93   17.36
   2   5  17    4.66   15.14
   2   5  17   20.08   17.57
   2   5  17   14.88   15.80
  -2  -5 -16   44.77   16.59
   2   5  16   -3.88   14.56
   2   5  16   51.44   17.02
   2   5  16    7.45   14.60
  -2  -5 -15   33.07   15.22
   2   5  15   11.46   13.75
   2   5  15    2.09   14.16
   2   5  15   23.27   14.03
   2   5  14   12.88   12.97
   2   5  14   12.63   13.92
   2   5  14   12.66   13.28
  -2  -5 -14   35.59   14.63
   2   5  13   53.50   12.80
   2   5  13   59.79   13.07
   2   5  13   38.97   12.16
  -2  -5 -13   35.46   13.82
   2   5  12   87.39   12.44
   2   5  12   94.43   12.95
   2   5  12   86.13   12.54
  -2  -5 -12   93.45   13.44
  -2  -5 -11  212.91   14.92
   2   5  11  226.91   13.24
  -2  -5 -11  222.14   14.36
   2   5  11  199.72   12.79
  -2  -5 -10   24.33   10.91
   2   5  10   47.08   10.23
   2   5  10   58.36   10.27
  -2  -5 -10   29.10   10.88
  -2  -5  -9  589.73   16.81
  -2  -5  -9  591.81   16.09
   2   5   9  577.01   14.89
  -2  -5  -8    6.27    8.83
   2   5   8   21.11    8.55
  -2  -5  -8    3.01    8.80
   2   5   8   12.71    8.28
  -2  -5  -7  318.54   11.92
   2   5   7  320.07   11.13
  -2  -5  -7  322.67   11.98
   2   5   7  321.81   11.19
   2   5   6    4.47    5.64
  -2  -5  -6    0.10    6.79
   2   5   6   19.40    4.87
  -2  -5  -6   16.32    8.20
   2   5   6    7.22    7.18
   2   5   5  205.39    7.29
  -2  -5  -5  208.30    8.56
   2   5   5  221.52    9.35
   2   5   5  194.21    7.55
  -2  -5  -5  204.41    9.71
   2   5   4    9.98    6.78
  -2  -5  -4    8.04    5.58
   2   5   4   11.42    4.70
   2   5   4    4.15    4.57
  -2  -5  -4    4.72    7.24
  -2  -5  -4   16.36    4.54
   2   5   4   -1.68    7.38
  -2  -5  -3  171.71    7.39
   2   5   3  151.46    7.02
   2   5   3  186.98    9.33
   2   5   3  158.49    6.47
  -2  -5  -3  180.67    9.50
  -2  -5  -3  212.68    7.00
   2   5   3  184.85    9.97
  -2  -5  -2  985.52   13.27
   2   5   2  871.61   13.00
   2   5   2 1031.95   15.53
   2   5   2  933.87   12.81
  -2  -5  -2 1009.47   16.12
  -2  -5  -2 1121.47   12.91
   2   5   2 1062.76   16.89
  -2  -5  -2  853.46   16.58
   2   5   1 1193.37   15.50
   2   5   1 1306.79   17.45
  -2  -5  -1 1310.74   15.62
  -2  -5  -1 1214.49   17.10
   2   5   1 1217.29   14.04
  -2  -5  -1 1417.69   14.90
   2   5   1 1390.93   18.79
  -2  -5  -1 1073.64   18.93
   2   5   0   41.34    6.05
   2   5   0   37.66    8.02
  -2  -5   0   43.49    6.26
  -2  -5   0   49.09    7.24
   2   5   0   43.20    5.35
  -2  -5   0   46.13    6.22
  -2  -5   0   42.45    7.35
   2   5  -1   25.71    8.19
  -2  -5   1   35.93    6.59
   2   5  -1   19.45    6.89
   2   5  -1   19.40    5.23
  -2  -5   1   19.57    7.13
  -2  -5   1   38.42    6.58
  -2  -5   1   25.83    7.01
   2   5  -1   21.84    6.24
   2   5  -2  220.96   10.67
  -2  -5   2  198.68    9.80
  -2  -5   2  204.37    9.42
   2   5  -2  237.83    9.99
  -2  -5   2  204.98   10.13
  -2  -5   2  219.65    9.58
   2   5  -2  191.99    9.12
   2   5  -2  165.34    8.85
   2   5  -3  208.92   11.14
  -2  -5   3  203.93   11.06
   2   5  -3  221.13   10.92
  -2  -5   3  213.01   11.07
   2   5  -3  196.55   10.19
  -2  -5   3  191.01    8.67
  -2  -5   3  210.18    9.25
  -2  -5   4  435.90   14.37
   2   5  -4  398.32   13.96
  -2  -5   4  406.68   13.73
   2   5  -4  371.65   13.14
  -2  -5   4  354.32   13.62
   2   5  -4  364.87   12.05
  -2  -5   4  338.04   10.69
   2   5  -5    0.37    9.66
  -2  -5   5    9.38    8.90
   2   5  -5    1.80    9.90
  -2  -5   5    3.10    9.52
  -2  -5   5   23.31    9.94
   2   5  -5   -1.14    8.71
  -2  -5   5    5.21    7.27
   2   5  -6   37.25   10.86
   2   5  -6   52.33   11.63
  -2  -5   6   48.03   10.88
  -2  -5   6   32.73   10.84
  -2  -5   6   33.38    6.28
  -2  -5   6   37.21    8.27
   2   5  -6   24.94   10.22
   2   5  -7   27.01   11.26
   2   5  -7   10.83   11.24
  -2  -5   7    1.78   11.20
  -2  -5   7    2.96   11.53
   2   5  -7   -0.29   10.20
  -2  -5   7    9.51    6.32
  -2  -5   7    8.09    8.15
   2   5  -8   86.26   12.52
  -2  -5   8   64.07   10.03
   2   5  -8   63.27   12.89
  -2  -5   8   68.43   13.00
   2   5  -8   72.09   12.81
  -2  -5   8   83.56   13.76
  -2  -5   8   44.91    7.44
   2   5  -9   91.75   13.83
  -2  -5   9  101.42   14.52
   2   5  -9   82.84   13.18
  -2  -5   9   77.12    8.20
  -2  -5   9  104.03   11.30
  -2  -5  10  119.31   12.96
   2   5 -10  135.15   15.90
  -2  -5  10  160.69   16.18
  -2  -5  10  112.09    9.44
   2   5 -10  136.26   14.49
   2   5 -11  107.61   16.66
  -2  -5  11   72.07   15.53
   2   5 -11   81.46   14.96
   2   5 -12  116.67   15.64
   2   5 -12  119.27   17.71
  -2  -5  12  155.09   18.35
   2   5 -13   14.31   16.60
  -2  -5  13   56.49   18.43
   2   5 -13   24.59   15.24
   2   5 -14   30.39   18.33
  -2  -5  14   16.99   18.86
   2   5 -14   47.76   16.70
   2   5 -15   54.30   19.82
   2   6  18   36.74   17.30
   2   6  18   29.01   17.30
  -2  -6 -17   20.86   18.20
   2   6  17  -12.03   15.41
   2   6  17   29.10   17.79
   2   6  17   23.69   16.36
  -2  -6 -16   16.68   17.32
   2   6  16   26.22   15.04
   2   6  16   44.18   16.76
   2   6  16   13.61   15.36
   2   6  15   95.20   15.53
   2   6  15  106.58   15.82
   2   6  15   68.87   15.78
  -2  -6 -15   92.82   16.75
   2   6  14  562.49   20.40
   2   6  14  585.93   21.27
   2   6  14  543.28   20.59
  -2  -6 -14  521.85   21.20
   2   6  13  280.13   16.10
   2   6  13  261.20   16.38
   2   6  13  314.93   17.03
  -2  -6 -13  281.74   17.33
   2   6  12  -13.73   11.63
   2   6  12   13.95   11.64
   2   6  12   10.50   11.36
  -2  -6 -12   -5.24   12.48
  -2  -6 -11   47.05   13.15
   2   6  11   43.92   11.67
   2   6  11   53.73   11.31
  -2  -6 -11   27.92   12.25
  -2  -6 -10   37.10   11.73
   2   6  10   56.80   11.27
  -2  -6 -10   37.81   11.73
   2   6  10   37.33   10.47
  -2  -6  -9   28.39   10.51
   2   6   9   46.14   10.46
  -2  -6  -9   37.20   10.49
   2   6   9   41.58   10.06
  -2  -6  -8  336.07   14.17
  -2  -6  -8  325.25   13.61
   2   6   8  306.32   12.61
  -2  -6  -7   46.78    9.48
   2   6   7   40.30    9.02
  -2  -6  -7   47.56    9.87
   2   6   7   36.99    9.32
  -2  -6  -6  294.22   11.48
   2   6   6  288.41   11.69
  -2  -6  -6  304.83   12.61
   2   6   6  306.56   12.08
  -2  -6  -5  239.73   10.07
  -2  -6  -5  242.76   11.27
   2   6   5  256.55   11.89
   2   6   4   11.13    8.05
  -2  -6  -4    8.57    6.74
   2   6   4    8.51    5.41
   2   6   4   14.43    6.19
  -2  -6  -4   23.77    8.53
   2   6   4   22.35    8.76
   2   6   3    1.13    5.06
  -2  -6  -3   -4.75    6.61
  -2  -6  -3    7.04    8.47
   2   6   3    3.97    5.97
  -2  -6  -3   -3.54    5.66
   2   6   3    9.74    9.11
   2   6   2   18.72    8.37
  -2  -6  -2   18.04    6.90
   2   6   2   -3.34    6.11
   2   6   2    2.92    9.01
  -2  -6  -2   22.29    6.26
  -2  -6  -2   -4.69    8.45
   2   6   2    8.71    5.31
   2   6   1  942.26   15.89
   2   6   1 1111.33   18.26
  -2  -6  -1 1136.20   16.94
  -2  -6  -1 1023.49   18.45
  -2  -6  -1 1110.64   15.20
   2   6   1 1129.12   19.82
   2   6   1  994.73   15.02
   2   6   0  189.99   10.99
  -2  -6   0  186.43    9.43
  -2  -6   0  181.73   10.40
   2   6   0  166.63    9.17
  -2  -6   0  193.97    9.00
   2   6  -1   19.97    9.47
  -2  -6   1   50.11    7.87
   2   6  -1   22.12    8.01
  -2  -6   1   22.26    8.50
  -2  -6   1   25.89    7.67
   2   6  -1   39.83    7.76
   2   6  -1   33.27    7.85
   2   6  -2  185.36   11.61
  -2  -6   2  152.68   10.36
   2   6  -2  176.76   10.74
  -2  -6   2  167.93   11.01
  -2  -6   2  179.56   10.06
   2   6  -2  168.13    9.77
   2   6  -3   17.60   10.22
  -2  -6   3   12.30    8.87
   2   6  -3   16.82    9.49
  -2  -6   3    5.67    8.73
  -2  -6   3   24.46    9.18
   2   6  -3   20.52    8.97
  -2  -6   3    3.56    6.79
   2   6  -4  163.17   12.72
  -2  -6   4  148.92   11.22
   2   6  -4  143.31   11.79
  -2  -6   4  142.88   11.89
  -2  -6   4  138.64   11.87
   2   6  -4  122.14   10.92
  -2  -6   4  134.68    9.36
   2   6  -5  150.60   12.87
   2   6  -5  148.16   12.73
  -2  -6   5  141.91   12.75
  -2  -6   5  156.07   12.74
   2   6  -5  142.82   11.70
  -2  -6   5  137.86    9.86
   2   6  -6  162.45   13.23
   2   6  -6  151.35   13.90
  -2  -6   6  158.04   13.44
  -2  -6   6  142.26   13.29
  -2  -6   6  134.18   10.25
   2   6  -6  147.79   12.44
   2   6  -7  356.20   16.91
  -2  -6   7  409.93   17.60
  -2  -6   7  412.63   17.92
  -2  -6   7  257.22    9.35
  -2  -6   7  293.94   12.86
   2   6  -7  399.21   16.29
   2   6  -8   48.10   13.36
  -2  -6   8   55.90   13.21
   2   6  -8   85.29   12.88
  -2  -6   8   86.11   14.57
  -2  -6   8   54.35    7.64
  -2  -6   8   53.45   10.46
   2   6  -9   46.54   14.86
  -2  -6   9   59.92   14.73
   2   6  -9   39.67   13.40
  -2  -6   9   36.05   14.47
  -2  -6   9   34.21   10.90
   2   6 -10    2.99   15.06
  -2  -6  10   42.18   15.52
   2   6 -10   48.93   14.22
   2   6 -11   53.06   16.64
  -2  -6  11   69.60   16.90
   2   6 -11   34.23   14.61
   2   6 -12   88.51   17.80
  -2  -6  12  112.95   18.92
   2   6 -12   83.61   16.22
   2   6 -13   38.08   18.10
  -2  -6  13   37.00   19.09
   2   6 -13   40.41   16.71
   2   6 -14   35.85   19.16
   2   6 -14   38.00   17.28
   2   6 -15   45.64   20.44
   2   7  18   68.73   17.99
   2   7  18    4.15   17.72
   2   7  17   34.32   16.74
   2   7  17   35.41   18.63
   2   7  17   22.03   16.76
   2   7  16  178.23   17.70
   2   7  16  240.83   20.09
   2   7  16  150.33   17.89
  -2  -7 -16  207.10   20.43
   2   7  15  278.59   18.38
   2   7  15  305.67   19.87
  -2  -7 -15  271.20   19.79
   2   7  15  239.55   17.84
   2   7  14   22.98   13.86
   2   7  14   -5.81   13.87
   2   7  14   10.43   13.71
  -2  -7 -14   28.11   15.29
  -2  -7 -13  277.80   17.85
   2   7  13  319.60   17.39
   2   7  13  326.81   17.63
   2   7  13  283.13   16.99
   2   7  12    5.21   12.27
   2   7  12   -2.13   12.69
   2   7  12    0.96   11.67
  -2  -7 -12   -9.11   13.10
   2   7  11   87.76   13.07
   2   7  11   52.67   12.29
   2   7  11   95.07   12.98
  -2  -7 -11   74.27   13.45
  -2  -7 -10  218.04   15.43
   2   7  10  229.58   14.27
   2   7  10  211.94   13.45
  -2  -7 -10  222.35   14.78
  -2  -7  -9  185.53   14.06
   2   7   9  220.92   13.81
   2   7   9  222.37   13.05
  -2  -7  -9  215.11   13.94
   2   7   8   81.29   11.06
  -2  -7  -8  105.56   12.16
  -2  -7  -8   73.85   11.89
   2   7   8   95.43   11.10
   2   7   7   -0.80    9.41
  -2  -7  -7    0.80    9.32
  -2  -7  -7    2.45   10.62
   2   7   7    3.93    9.58
   2   7   6   13.89    9.10
  -2  -7  -6   16.32    8.93
  -2  -7  -6   10.86    9.94
   2   7   6   12.21    9.44
  -2  -7  -5    0.82    8.03
   2   7   5   -7.08    8.65
  -2  -7  -5    0.11    9.47
   2   7   5   20.75    9.63
   2   7   4  212.12   12.39
  -2  -7  -4  217.32   12.87
  -2  -7  -4  227.08   10.82
   2   7   4  239.13   13.77
  -2  -7  -3 1734.26   22.13
   2   7   3 1608.98   22.04
   2   7   3 1683.88   24.95
  -2  -7  -3 1770.70   24.87
  -2  -7  -3 1881.25   20.33
   2   7   3 1817.01   28.37
   2   7   2  189.54   10.30
   2   7   2  206.41   12.07
  -2  -7  -2  217.95   10.49
  -2  -7  -2  222.04   12.97
   2   7   2  249.15   10.94
  -2  -7  -2  234.97   10.44
   2   7   2  203.24   13.60
   2   7   1  621.73   14.40
   2   7   1  593.70   16.52
  -2  -7  -1  639.44   15.13
  -2  -7  -1  616.60   17.41
  -2  -7  -1  644.33   14.49
   2   7   1  620.58   17.78
   2   7   0  874.21   19.31
  -2  -7   0  867.19   19.47
   2   7   0  834.93   16.53
  -2  -7   0  857.19   16.22
   2   7   0  906.19   20.63
   2   7  -1  333.39   14.54
  -2  -7   1  329.75   13.10
  -2  -7   1  299.53   13.34
   2   7  -1  267.14   12.14
  -2  -7   1  291.30   11.53
   2   7  -2   -1.27   10.50
  -2  -7   2   14.42    9.20
  -2  -7   2   12.46    9.90
  -2  -7   2   -5.65    8.47
   2   7  -2   23.42    9.16
   2   7  -3  721.90   18.96
  -2  -7   3  656.20   18.45
  -2  -7   3  713.84   18.57
  -2  -7   3  706.55   17.00
   2   7  -4  434.27   16.81
  -2  -7   4  440.16   16.80
  -2  -7   4  460.68   16.41
   2   7  -4  409.73   15.51
  -2  -7   4  412.55   12.98
   2   7  -5  157.54   13.93
   2   7  -5  167.40   12.93
  -2  -7   5  166.72   14.04
  -2  -7   5  198.17   14.61
  -2  -7   5  180.45   11.57
   2   7  -6  141.24   14.71
   2   7  -6  123.68   13.08
  -2  -7   6  132.05   13.99
  -2  -7   6  117.56   14.11
  -2  -7   6  120.43   11.11
   2   7  -7    7.94   12.91
  -2  -7   7   30.79   12.88
  -2  -7   7   31.14   13.51
   2   7  -7   22.53   12.50
   2   7  -8   33.72   15.01
  -2  -7   8   75.99   14.43
   2   7  -8   67.47   13.99
  -2  -7   8   72.24   14.99
   2   7  -9  317.86   19.52
   2   7  -9  321.58   17.93
  -2  -7   9  346.82   19.41
  -2  -7   9  336.30   20.30
  -2  -7  10  926.56   27.23
   2   7 -10  909.54   25.09
   2   7 -11   45.28   17.13
   2   7 -11   10.45   14.81
  -2  -7  11   28.63   16.52
   2   7 -12   85.77   18.27
   2   7 -12  110.31   16.84
  -2  -7  12  100.75   19.65
   2   7 -13   -0.20   18.67
   2   7 -13   51.09   17.33
   2   7 -14   84.02   21.19
   2   8  18   65.06   18.90
   2   8  17   23.90   16.86
   2   8  17   13.64   17.26
   2   8  16   10.40   15.32
   2   8  16   10.08   17.01
   2   8  16   23.65   16.26
  -2  -8 -16   29.83   18.24
   2   8  15   13.84   14.93
   2   8  15    2.78   16.05
   2   8  15   26.13   15.28
  -2  -8 -15   18.02   17.18
   2   8  14   49.40   15.05
   2   8  14   41.94   15.41
   2   8  14   45.68   14.74
  -2  -8 -14   32.96   15.68
   2   8  13   16.15   14.15
   2   8  13   21.28   14.08
   2   8  13   24.17   13.39
  -2  -8 -13   -2.55   14.34
  -2  -8 -12    6.20   13.78
   2   8  12   19.77   13.22
   2   8  12   35.37   13.38
   2   8  12   21.68   12.82
   2   8  11  122.60   13.99
   2   8  11  140.91   14.06
  -2  -8 -11  123.10   15.09
   2   8  10   30.34   12.05
   2   8  10   29.92   12.51
  -2  -8 -10    6.56   12.69
   2   8  10    6.04   11.76
  -2  -8  -9    2.18   12.09
   2   8   9    3.93   11.42
  -2  -8  -9    9.04   12.65
   2   8   9    4.96   11.19
  -2  -8  -8  329.52   16.52
   2   8   8  316.08   15.35
  -2  -8  -8  297.67   16.01
   2   8   8  356.96   15.42
  -2  -8  -7  558.93   17.59
  -2  -8  -7  526.68   17.94
   2   8   7  505.74   17.06
   2   8   6    6.33   10.10
  -2  -8  -6   -1.55    9.55
  -2  -8  -6  -11.05   11.02
   2   8   6   -1.13   10.23
  -2  -8  -5  233.00   12.42
   2   8   5  207.88   13.23
   2   8   5  226.96   13.95
   2   8   4    1.21   10.46
  -2  -8  -4    0.06    8.71
   2   8   4   -8.44    9.35
  -2  -8  -4   14.49   11.10
   2   8   4    9.45   11.11
  -2  -8  -3  177.51   11.37
   2   8   3  155.58   13.39
   2   8   3  153.36   14.22
   2   8   3  156.07   11.45
  -2  -8  -3  176.64   13.67
  -2  -8  -2  230.56   12.26
  -2  -8  -2  203.08   14.02
   2   8   2  209.51   11.96
  -2  -8  -2  223.36   11.12
   2   8   2  246.52   15.58
   2   8   1   25.32   10.95
  -2  -8  -1   18.58    9.29
  -2  -8  -1   13.19   11.23
   2   8   1   11.51    9.75
  -2  -8  -1    0.93    8.73
   2   8   1   19.83   12.26
   2   8   0  118.80   12.91
  -2  -8   0  169.20   12.01
  -2  -8   0  152.81   13.60
   2   8   0  162.04   11.92
  -2  -8   0  170.17   11.04
   2   8   0  160.70   14.42
   2   8  -1  117.17   13.20
  -2  -8   1  104.94   11.21
   2   8  -1   75.83   13.35
   2   8  -1   93.90   10.92
  -2  -8   1  117.00   12.59
  -2  -8   1   91.57   10.38
  -2  -8   2   75.37   11.90
   2   8  -2   67.84   12.83
  -2  -8   2   69.63   11.09
  -2  -8   2   68.48   10.24
   2   8  -2   80.67   11.41
   2   8  -2   75.55   14.16
   2   8  -3   57.47   12.87
  -2  -8   3   18.17   10.20
   2   8  -3   44.89   11.20
  -2  -8   3   17.50   11.63
   2   8  -4  -12.22   12.49
  -2  -8   4   18.01   11.19
   2   8  -4    3.90   11.23
   2   8  -5  306.74   17.10
  -2  -8   5  314.22   16.98
   2   8  -5  321.83   16.25
  -2  -8   5  342.62   16.86
   2   8  -6  202.10   16.69
  -2  -8   6  229.72   16.31
   2   8  -6  219.52   15.46
  -2  -8   6  216.00   16.58
   2   8  -7   88.76   15.74
  -2  -8   7   85.45   14.51
   2   8  -7  100.32   14.50
  -2  -8   7  104.51   15.64
   2   8  -8   62.03   16.41
  -2  -8   8   83.67   15.88
  -2  -8   8   31.49   14.60
   2   8  -8   84.25   15.03
   2   8  -9  218.09   19.43
   2   8  -9  250.42   18.03
  -2  -8   9  241.10   19.01
  -2  -8   9  282.69   20.88
   2   8 -10   25.19   17.07
  -2  -8  10   25.83   16.63
  -2  -8  10   11.97   16.90
   2   8 -10    5.54   14.87
   2   8 -11   24.87   17.67
  -2  -8  11   41.35   17.97
   2   8 -11   15.63   15.90
   2   8 -12   29.88   19.22
  -2  -8  12   -2.69   18.69
   2   8 -12   37.00   16.65
   2   8 -13   16.51   19.65
   2   9  17   24.60   17.39
   2   9  17   57.68   19.16
   2   9  16   26.92   16.73
   2   9  16   16.23   17.81
   2   9  16   25.93   17.19
   2   9  15    4.34   15.30
   2   9  15   37.07   16.74
   2   9  15   -1.94   15.27
  -2  -9 -15   37.81   17.85
   2   9  14   16.33   15.40
   2   9  14   20.37   15.57
   2   9  14    9.58   14.81
  -2  -9 -14   -6.24   15.58
   2   9  13   38.20   14.62
   2   9  13   52.71   15.31
  -2  -9 -13   46.64   16.09
   2   9  13   33.68   14.82
   2   9  12   11.03   13.71
   2   9  12   18.86   14.42
  -2  -9 -12   31.43   15.43
   2   9  12   20.19   13.99
   2   9  11   39.15   14.05
  -2  -9 -11   13.99   14.26
   2   9  11  -11.46   12.67
   2   9  10   20.86   12.87
   2   9  10   33.06   13.13
  -2  -9 -10   58.21   14.19
   2   9  10   15.90   12.72
   2   9   9   66.68   13.34
   2   9   9  103.61   13.70
   2   9   9   86.08   13.57
  -2  -9  -9   52.13   14.36
   2   9   8   -3.98   11.96
  -2  -9  -8   41.08   13.46
   2   9   8   33.43   13.33
  -2  -9  -8   22.59   13.48
   2   9   8   31.74   12.26
  -2  -9  -7  250.69   15.41
   2   9   7  196.36   14.42
   2   9   7  247.65   16.19
  -2  -9  -7  233.12   16.07
   2   9   7  199.98   14.76
  -2  -9  -6  489.87   17.36
   2   9   6  453.23   17.40
  -2  -9  -6  482.86   18.36
   2   9   6  468.65   18.19
  -2  -9  -5  383.57   15.50
   2   9   5  375.43   16.39
  -2  -9  -5  341.13   16.87
   2   9   5  331.54   16.99
  -2  -9  -4  118.29   11.75
   2   9   4  130.75   14.01
   2   9   4  146.38   14.66
   2   9   4  126.05   12.38
  -2  -9  -4  113.10   13.82
  -2  -9  -3   82.67   11.16
   2   9   3   77.17   13.48
   2   9   3   93.11   11.68
  -2  -9  -3   77.70   13.70
   2   9   3   53.18   14.00
   2   9   2   82.29   13.55
  -2  -9  -2   88.81   11.19
  -2  -9  -2   68.40    9.93
  -2  -9  -2  102.05   13.95
   2   9   2   95.03   11.53
   2   9   2   75.04   14.87
   2   9   1   -4.31   12.23
  -2  -9  -1   33.66   10.24
  -2  -9  -1   38.50   12.80
   2   9   1   11.00   10.43
  -2  -9  -1   16.70    9.37
   2   9   1    8.56   13.02
   2   9   0  134.07   14.32
  -2  -9   0  157.82   12.62
  -2  -9   0  157.74   15.16
  -2  -9   0  128.81   11.41
   2   9   0  141.04   12.93
   2   9   0  147.69   15.80
   2   9  -1  285.80   16.90
   2   9  -1  291.21   17.94
  -2  -9   1  325.95   17.95
  -2  -9   1  298.96   13.77
   2   9  -2  122.42   15.64
   2   9  -2  122.27   14.99
  -2  -9   2   94.98   14.17
  -2  -9   2  111.25   11.89
   2   9  -2  108.43   12.89
   2   9  -3  242.92   16.82
   2   9  -3  228.74   18.02
  -2  -9   3  256.69   16.64
   2   9  -3  267.71   15.54
  -2  -9   3  197.07   13.96
   2   9  -4  330.77   18.41
  -2  -9   4  374.01   17.98
   2   9  -4  300.32   16.54
  -2  -9   4  311.11   17.04
   2   9  -4  318.52   19.99
   2   9  -5   51.15   15.35
  -2  -9   5    1.28   13.37
   2   9  -5   20.63   13.07
  -2  -9   5   22.78   13.38
   2   9  -6   73.53   14.64
   2   9  -6  106.11   17.30
  -2  -9   6   59.16   14.92
  -2  -9   6   67.55   15.51
   2   9  -7    9.60   15.62
  -2  -9   7   57.80   15.65
   2   9  -7   18.33   14.35
  -2  -9   7    2.47   14.38
   2   9  -8  -14.11   16.33
  -2  -9   8   43.90   16.25
   2   9  -8   18.85   14.97
  -2  -9   8    8.00   15.72
   2   9  -9  -14.59   15.22
   2   9  -9   24.55   17.04
  -2  -9   9   30.55   17.14
  -2  -9   9   41.76   17.09
   2   9 -10    5.79   17.12
   2   9 -10   17.57   15.97
  -2  -9  10   13.73   18.01
   2   9 -11   33.79   18.80
  -2  -9  11   29.68   19.70
   2   9 -11   25.32   16.07
   2   9 -12   90.58   21.20
   2   9 -13   12.85   20.68
   2  10  17   50.02   19.23
   2  10  16   66.14   18.26
   2  10  16   14.21   18.33
   2  10  16   48.27   18.11
   2  10  15   47.37   16.71
   2  10  15   42.79   17.74
   2  10  15   39.16   16.71
  -2 -10 -15   84.34   19.56
   2  10  14    8.55   15.74
   2  10  14   20.39   16.12
   2  10  14   31.67   15.61
  -2 -10 -14   48.26   17.61
   2  10  13   33.99   15.54
   2  10  13   57.70   16.23
   2  10  13   13.91   14.90
  -2 -10 -13   32.79   16.40
   2  10  12   43.43   15.34
   2  10  12   21.79   14.98
   2  10  12   56.81   15.00
  -2 -10 -12   44.31   16.02
   2  10  11   28.27   13.87
  -2 -10 -11    6.87   14.46
   2  10  11   22.33   13.79
   2  10  10   46.61   14.31
   2  10  10   61.00   14.42
   2  10  10   69.25   14.37
  -2 -10 -10   39.61   15.08
   2  10   9  159.09   15.61
   2  10   9  186.92   16.58
  -2 -10  -9  177.20   17.12
   2  10   9  221.75   16.05
   2  10   8  122.41   14.50
   2  10   8  117.73   14.99
  -2 -10  -8  117.58   16.40
   2  10   8   95.93   14.40
   2  10   7   64.11   13.31
   2  10   7   39.94   14.92
  -2 -10  -7   23.82   14.11
   2  10   7   43.41   13.21
   2  10   6  105.17   14.27
   2  10   6  155.65   16.09
  -2 -10  -6  116.01   15.69
   2  10   6  132.34   14.88
   2  10   5   51.26   13.30
  -2 -10  -5   45.36   14.52
   2  10   5   57.42   14.01
   2  10   4    5.09   13.11
   2  10   4   49.66   12.80
  -2 -10  -4   31.63   14.31
   2  10   3  367.46   18.78
   2  10   3  344.56   16.60
  -2 -10  -3  348.31   19.54
   2  10   2 1157.92   27.11
  -2 -10  -2 1058.24   28.12
   2  10   2 1085.53   23.88
   2  10   2 1068.62   29.87
  -2 -10  -1  363.49   20.22
   2  10   1  332.81   18.85
   2  10   1  346.07   16.25
  -2 -10  -1  354.29   15.20
   2  10   1  315.53   20.03
   2  10   0  205.96   14.75
   2  10   0  236.20   17.10
  -2 -10   0  238.20   13.57
   2  10   0  259.60   18.86
   2  10  -1   66.29   14.83
  -2 -10   1   92.27   16.06
   2  10  -1   72.22   13.69
  -2 -10   1   85.48   12.08
   2  10  -1   70.70   16.58
   2  10  -2   11.16   14.43
  -2 -10   2   11.94   11.69
   2  10  -2   13.25   12.64
   2  10  -2   40.91   16.13
  -2 -10   2   14.29   14.45
   2  10  -3   70.98   15.95
  -2 -10   3   64.14   15.12
  -2 -10   3   67.84   13.10
   2  10  -3   49.53   16.37
   2  10  -3   77.78   13.59
   2  10  -4  148.28   17.91
   2  10  -4  177.75   15.91
  -2 -10   4  172.35   15.80
   2  10  -4  187.93   19.70
   2  10  -5  142.81   19.53
   2  10  -5  176.44   18.24
   2  10  -5  195.96   16.83
  -2 -10   5  215.92   18.33
  -2 -10   5  154.49   16.31
   2  10  -6   15.61   16.48
   2  10  -6   16.45   17.74
  -2 -10   6   38.71   15.69
   2  10  -6    7.99   14.44
  -2 -10   6    8.99   15.31
  -2 -10   7   48.73   16.62
   2  10  -7   47.67   17.20
   2  10  -7   52.47   15.45
  -2 -10   7   43.20   16.29
   2  10  -7   41.64   18.64
   2  10  -8   50.71   17.96
   2  10  -8    9.84   18.61
   2  10  -8   65.76   16.23
  -2 -10   8   47.36   17.90
  -2 -10   8   41.35   17.86
   2  10  -9   38.53   18.46
  -2 -10   9   71.17   18.96
   2  10  -9   18.39   15.82
   2  10  -9   72.23   20.98
   2  10 -10   -2.61   18.65
  -2 -10  10   39.43   20.37
   2  10 -10   55.58   16.84
   2  10 -10   69.24   21.72
   2  10 -11   52.82   20.56
   2  10 -11   61.03   22.28
   2  10 -12   59.78   21.95
   2  11  16   27.72   18.69
   2  11  15   73.00   18.25
   2  11  15   72.64   18.86
   2  11  15   90.20   18.20
   2  11  14   56.94   17.03
   2  11  14   14.61   16.96
   2  11  14   43.26   17.22
  -2 -11 -14   42.33   19.15
   2  11  13   18.06   16.09
   2  11  13   19.11   16.34
  -2 -11 -13    7.96   17.18
   2  11  13   25.15   16.18
   2  11  12   65.18   15.78
   2  11  12  137.83   17.45
   2  11  12   85.30   16.11
  -2 -11 -12  117.97   18.71
   2  11  11   28.73   15.51
   2  11  11   24.56   15.23
  -2 -11 -11   21.08   16.11
   2  11  11   28.59   15.20
   2  11  10   53.64   15.08
   2  11  10   46.50   14.84
  -2 -11 -10    6.80   15.42
   2  11  10   10.93   14.48
   2  11   9   31.48   14.61
   2  11   9    8.13   14.28
  -2 -11  -9    5.71   15.06
   2  11   9    3.85   13.88
   2  11   8  -19.51   13.90
   2  11   8   10.94   15.03
  -2 -11  -8    3.33   15.26
   2  11   8   18.79   13.70
   2  11   7   59.47   14.50
   2  11   7   69.52   16.49
  -2 -11  -7   31.34   15.27
   2  11   7   48.74   14.83
   2  11   6  144.51   15.10
  -2 -11  -6   65.80   15.43
   2  11   6  150.82   17.00
   2  11   6   79.09   15.44
   2  11   5  266.76   18.75
  -2 -11  -5  272.32   18.73
   2  11   5  220.50   18.06
   2  11   4  -10.19   13.91
   2  11   4   47.89   14.63
  -2 -11  -4    7.50   14.71
   2  11   4   31.41   14.62
   2  11   3   20.49   15.01
   2  11   3   41.06   13.95
  -2 -11  -3   53.25   16.05
   2  11   3   49.91   16.46
   2  11   2  250.66   18.58
  -2 -11  -2  259.50   19.29
   2  11   2  207.87   15.80
   2  11   2  224.45   19.70
   2  11   1  279.09   19.06
  -2 -11  -1  317.20   19.55
   2  11   1  310.38   16.77
   2  11   1  353.26   21.26
   2  11   0   37.52   15.63
   2  11   0   20.76   13.18
  -2 -11   0   36.06   16.30
  -2 -11   0   13.21   11.30
   2  11   0   31.45   16.74
   2  11  -1  527.40   22.01
   2  11  -1  449.57   19.88
  -2 -11   1  528.79   22.96
  -2 -11   1  364.81   16.42
   2  11  -1  387.39   22.73
   2  11  -2  190.93   18.75
  -2 -11   2  278.29   20.26
   2  11  -2  250.26   17.24
  -2 -11   2  230.98   15.49
   2  11  -2  210.02   20.33
  -2 -11   3   36.08   16.07
   2  11  -3   35.24   16.69
   2  11  -3   47.34   14.89
  -2 -11   3   20.62   13.38
   2  11  -3   15.92   18.06
   2  11  -4   96.06   17.74
   2  11  -4   62.32   18.55
  -2 -11   4   80.15   17.28
   2  11  -4   75.91   15.61
  -2 -11   4   87.88   15.87
   2  11  -5   17.83   16.72
  -2 -11   5   63.40   17.72
   2  11  -5   79.11   15.85
  -2 -11   5   60.82   15.83
   2  11  -5   42.90   18.07
   2  11  -6   45.70   18.69
   2  11  -6   73.59   18.50
   2  11  -6   53.22   16.23
  -2 -11   6   41.85   16.72
  -2 -11   6   70.80   18.63
   2  11  -7   26.30   18.56
  -2 -11   7   42.07   18.82
   2  11  -7   74.93   17.02
   2  11  -7   88.79   20.75
   2  11  -8   75.64   20.11
   2  11  -8   87.38   17.50
   2  11  -8  109.34   21.74
  -2 -11   8   86.53   20.64
   2  11  -9   33.31   19.42
   2  11  -9   30.27   17.26
   2  11  -9   54.58   22.35
   2  11 -10   24.81   20.66
   2  11 -10   -5.34   21.50
   2  11 -11   64.77   22.26
   2  12  15   33.46   18.44
   2  12  14   17.58   17.42
   2  12  14   19.45   17.74
   2  12  14   42.57   18.24
   2  12  13   44.99   17.26
   2  12  13   41.11   17.95
  -2 -12 -13   21.79   18.85
   2  12  13   16.86   17.02
   2  12  12   28.81   16.06
   2  12  12   60.86   17.25
  -2 -12 -12   39.48   18.05
   2  12  12   14.89   16.00
   2  12  11  116.97   17.39
   2  12  11  144.54   18.13
   2  12  11   89.24   16.78
  -2 -12 -11   94.68   18.24
   2  12  10  158.24   17.91
   2  12  10  174.04   17.65
   2  12  10  175.52   17.83
  -2 -12 -10  169.76   19.77
   2  12   9  157.27   17.46
  -2 -12  -9  156.49   18.92
   2  12   9  198.37   18.56
   2  12   8   45.43   15.55
  -2 -12  -8   46.82   17.08
   2  12   8   55.86   15.50
   2  12   7   24.11   14.50
   2  12   7   16.27   16.14
  -2 -12  -7   20.03   15.68
   2  12   7   25.57   15.15
   2  12   6   27.10   14.08
   2  12   6   16.79   16.03
  -2 -12  -6   34.42   16.21
   2  12   6   18.29   14.94
   2  12   5   81.22   17.32
   2  12   5   57.13   15.40
  -2 -12  -5   54.40   16.21
   2  12   5   54.12   16.40
   2  12   4  224.43   17.97
   2  12   4  260.95   19.54
   2  12   4  282.54   19.76
  -2 -12  -4  250.75   19.51
   2  12   3   47.75   16.08
   2  12   3   22.09   15.32
  -2 -12  -3   47.86   16.96
   2  12   3   52.58   16.47
   2  12   2   10.59   15.80
  -2 -12  -2   -2.73   16.22
   2  12   2   36.34   16.91
   2  12   1   24.47   16.16
  -2 -12  -1   34.93   17.06
   2  12   1   53.23   15.19
   2  12   1   62.43   17.93
   2  12   0   77.64   17.53
   2  12   0   71.99   15.50
   2  12   0   98.70   19.88
   2  12  -1   10.69   16.35
  -2 -12   1   69.23   13.86
  -2 -12   1   63.30   17.59
   2  12  -1   46.25   15.20
   2  12  -1    1.65   17.84
   2  12  -2   26.26   17.08
   2  12  -2    3.54   14.48
  -2 -12   2   14.94   17.71
  -2 -12   2   -7.58   12.91
   2  12  -2   31.56   18.42
   2  12  -3   90.87   16.44
   2  12  -3   82.20   17.92
  -2 -12   3  113.32   20.07
  -2 -12   3   77.63   14.97
   2  12  -3   66.84   19.60
   2  12  -4   58.75   18.13
  -2 -12   4   60.82   19.39
  -2 -12   4   75.63   16.22
   2  12  -4   81.94   16.58
   2  12  -4   50.28   19.36
   2  12  -5   57.33   18.90
   2  12  -5   56.96   16.52
  -2 -12   5   31.63   19.11
  -2 -12   5   38.13   15.90
   2  12  -5   56.74   19.87
   2  12  -6   21.33   18.37
  -2 -12   6   25.39   19.72
   2  12  -6   13.07   16.57
   2  12  -6   48.13   20.20
   2  12  -7   46.79   19.57
  -2 -12   7   19.31   20.68
   2  12  -7   -3.40   16.42
   2  12  -7   38.15   20.68
   2  12  -8   77.26   20.93
   2  12  -8   34.49   17.69
   2  12  -8   62.65   22.17
   2  12  -9   59.67   21.23
   2  12  -9   25.35   22.95
   2  13  14   92.20   19.72
   2  13  13   99.99   19.20
   2  13  13   72.46   19.05
   2  13  12  196.77   20.45
   2  13  12  200.20   19.76
   2  13  11  224.18   20.14
   2  13  11  189.51   19.97
  -2 -13 -11  179.08   21.46
   2  13  10   23.79   16.02
   2  13  10   39.80   16.77
  -2 -13 -10   74.45   19.10
   2  13  10   -7.87   16.34
   2  13   9  237.92   19.62
   2  13   9  214.08   19.36
  -2 -13  -9  192.39   20.66
   2  13   9  199.09   19.37
   2  13   8   69.84   16.62
   2  13   8   37.10   17.06
  -2 -13  -8   40.90   18.25
   2  13   8   71.94   17.23
   2  13   7   11.93   15.42
  -2 -13  -7   50.34   18.09
   2  13   7   58.95   17.25
   2  13   7   32.68   16.68
   2  13   6    2.26   15.53
  -2 -13  -6   33.04   17.46
   2  13   6   36.92   18.16
   2  13   6   29.78   16.46
   2  13   5  312.97   19.63
   2  13   5  261.62   20.72
  -2 -13  -5  255.14   20.59
   2  13   5  261.87   20.00
   2  13   4   45.44   16.15
   2  13   4   51.09   18.14
  -2 -13  -4   73.36   17.48
   2  13   4   94.72   17.46
   2  13   3   15.80   17.37
  -2 -13  -3   74.11   17.93
   2  13   3   70.56   17.91
   2  13   2   25.02   17.15
   2  13   2   23.87   17.37
  -2 -13  -2   10.06   17.40
   2  13   2   49.30   18.85
   2  13   1  160.41   19.23
   2  13   1  170.09   18.70
   2  13   1  145.63   20.10
  -2 -13   0  123.59   19.62
   2  13   0   81.23   17.17
   2  13   0   82.43   19.85
   2  13  -1   96.39   16.99
   2  13  -1   70.65   18.09
  -2 -13   1   89.53   20.13
   2  13  -1   33.02   19.61
   2  13  -2   94.58   19.27
   2  13  -2   44.26   16.68
  -2 -13   2  121.44   21.23
   2  13  -2   94.14   20.48
   2  13  -3   25.47   17.97
   2  13  -3   78.14   17.33
  -2 -13   3   85.77   21.44
  -2 -13   3   34.46   15.21
   2  13  -3   41.94   19.54
   2  13  -4  176.71   20.64
   2  13  -4  174.68   19.36
  -2 -13   4  217.95   24.19
   2  13  -4  156.78   22.55
   2  13  -5   55.62   19.92
   2  13  -5   71.93   17.94
  -2 -13   5   42.34   22.24
   2  13  -5   86.71   22.20
   2  13  -6   35.67   20.02
   2  13  -6   15.51   17.23
   2  13  -6   52.20   22.18
   2  13  -7  194.24   23.61
   2  13  -7  172.35   24.55
   2  13  -8  154.83   23.88
   2  14  13  114.53   20.40
   2  14  12   52.57   18.90
   2  14  12   22.93   18.38
   2  14  11   65.64   19.06
   2  14  11   53.48   18.57
   2  14  10   35.72   17.75
   2  14  10   75.51   18.55
   2  14  10   29.18   17.90
   2  14   9   10.72   16.60
   2  14   9   28.03   17.36
  -2 -14  -9   21.75   19.28
   2  14   9   40.61   17.77
   2  14   8   43.36   16.77
  -2 -14  -8   46.49   19.81
   2  14   8   42.97   17.45
   2  14   8   66.01   17.70
   2  14   7  186.68   19.14
  -2 -14  -7  193.08   21.69
   2  14   7  183.71   20.37
   2  14   7  233.95   20.39
   2  14   6   14.29   16.06
   2  14   6   53.70   18.61
   2  14   6   17.76   17.30
   2  14   5   18.80   16.90
   2  14   5   26.77   19.10
  -2 -14  -5    0.89   18.54
   2  14   5   42.13   18.14
   2  14   4   81.13   18.08
   2  14   4   70.26   20.02
  -2 -14  -4   80.22   19.53
   2  14   4   73.48   18.77
   2  14   3   41.78   17.51
   2  14   3   89.76   19.59
  -2 -14  -3   87.98   19.59
   2  14   3   69.24   18.63
   2  14   2   77.01   18.12
   2  14   2   36.14   18.75
  -2 -14  -2   69.61   20.32
   2  14   2   60.15   19.08
   2  14   1   32.77   18.11
   2  14   1   41.35   18.26
  -2 -14  -1   -1.41   19.96
   2  14   1   40.88   19.09
   2  14   0  -15.31   17.90
  -2 -14   0   49.70   20.42
   2  14   0   30.56   18.39
   2  14   0  -17.51   18.80
   2  14  -1   67.19   19.26
   2  14  -1   96.07   18.98
  -2 -14   1  113.40   22.62
   2  14  -1   88.42   21.29
   2  14  -2  258.56   23.19
   2  14  -2  250.79   21.33
  -2 -14   2  248.82   25.04
   2  14  -2  252.28   24.63
   2  14  -3   46.16   19.87
   2  14  -3   38.56   17.95
  -2 -14   3   29.77   22.62
   2  14  -3   99.03   23.13
   2  14  -4   39.05   20.08
   2  14  -4   81.51   18.41
   2  14  -4   51.91   22.78
   2  14  -5   41.31   20.60
   2  14  -5  122.80   23.73
   2  14  -6  247.84   24.72
   2  15  11   -7.57   19.18
   2  15  10   73.55   20.27
   2  15  10   -1.04   19.05
   2  15   9   56.85   18.95
   2  15   9   14.16   18.45
   2  15   8   62.54   18.37
   2  15   8   45.32   18.75
   2  15   8   45.47   19.22
   2  15   7   49.11   18.19
   2  15   7   30.90   18.82
   2  15   7   37.59   18.70
   2  15   6   54.76   18.54
   2  15   6   23.95   18.97
  -2 -15  -6   27.68   20.08
   2  15   6   65.13   19.34
   2  15   5   62.04   19.20
   2  15   5   84.02   18.42
   2  15   5   91.46   20.24
  -2 -15  -5  123.93   21.61
   2  15   4   72.50   18.81
   2  15   4   64.74   22.55
  -2 -15  -4   44.91   20.45
   2  15   4   56.16   20.37
   2  15   3  247.95   22.45
   2  15   3  270.70   24.51
  -2 -15  -3  282.46   25.23
   2  15   3  298.90   23.78
   2  15   2  146.18   20.73
   2  15   2  219.31   23.00
  -2 -15  -2  151.39   23.70
   2  15   2  199.26   22.63
   2  15   1   35.12   19.33
   2  15   1   30.52   20.34
  -2 -15  -1   23.30   22.05
   2  15   1   81.91   20.31
   2  15   0   19.87   19.56
   2  15   0   40.48   20.26
   2  15   0   16.36   20.13
   2  15  -1   46.18   20.58
   2  15  -1   25.44   20.59
   2  15  -1   44.10   21.36
   2  15  -2   28.60   20.22
   2  15  -2   53.72   22.31
   2  15  -3   73.08   21.45
   2  15  -3   59.17   23.44
   2  15  -4   79.26   22.55
   2  16   8   51.12   19.84
   2  16   7   10.58   18.73
   2  16   6   22.78   18.41
   2  16   6   35.37   19.55
   2  16   5   57.57   19.52
   2  16   5   55.40   21.47
   2  16   4  177.31   21.63
   2  16   4  130.41   22.64
   2  16   3  116.76   20.17
   2  16   3  134.87   22.03
   2  16   2   10.29   19.85
   2  16   1   55.25   20.56
   2  16   0   53.69   21.37
   2  16  -1   59.13   22.26
   3 -16   0   14.47   26.06
   3 -16  -1   52.48   26.68
   3 -16  -2   94.09   26.09
   3 -16  -3   65.63   25.42
   3 -15   4  128.10   23.91
   3 -15   3  125.32   24.04
   3 -15   2  -10.59   21.32
   3 -15   1  138.56   22.52
   3 -15   0   -2.42   22.19
   3 -15  -1    1.43   23.87
   3 -15  -2  130.97   27.52
   3 -15  -3  158.37   25.76
   3 -15  -4   35.75   22.66
   3 -15  -5   57.77   24.48
   3 -15  -5  130.85   25.46
   3 -15  -6  113.01   24.44
   3 -15  -7  116.36   25.83
   3 -15  -8   43.21   25.28
   3 -14   7    9.64   20.13
   3 -14   6    1.78   20.12
   3 -14   5   36.79   19.63
   3 -14   4  116.47   21.39
   3 -14   3   31.40   20.06
  -3  14  -3   47.41   20.14
   3 -14   2  141.31   25.35
  -3  14  -2  153.93   24.11
   3 -14   1   33.03   23.28
  -3  14  -1  125.14   24.36
   3 -14   0  121.02   24.56
  -3  14   0  122.41   24.74
   3 -14  -1   42.20   23.84
  -3  14   1   80.97   22.41
   3 -14  -2   90.86   23.85
  -3  14   2   83.60   22.71
   3 -14  -3   71.45   22.51
  -3  14   3   54.24   21.85
   3 -14  -4   53.58   22.56
  -3  14   4   43.58   20.71
   3 -14  -5   52.14   22.05
   3 -14  -5   33.74   15.94
  -3  14   5   74.71   21.93
   3 -14  -5   67.40   23.61
   3 -14  -6   45.71   16.17
  -3  14   6   26.24   20.88
   3 -14  -7   71.75   16.21
   3 -14  -7   83.48   23.72
   3 -14  -8   65.08   24.27
   3 -14  -9   66.39   24.20
   3 -14 -10  162.34   25.68
   3 -13   9   30.13   19.15
   3 -13   8  146.13   20.59
   3 -13   7   13.83   17.93
   3 -13   6   77.15   18.74
  -3  13  -6   15.26   17.61
   3 -13   5  113.46   20.06
  -3  13  -5  111.08   19.19
   3 -13   4  251.52   24.03
  -3  13  -4  199.27   21.34
   3 -13   3   89.19   17.57
  -3  13  -3   35.42   17.82
   3 -13   2  108.15   19.30
  -3  13  -2   70.15   19.36
   3 -13   1  -22.36   17.85
  -3  13  -1  -16.88   17.77
   3 -13   0   16.64   18.80
  -3  13   0   59.90   19.24
   3 -13   0   36.65   19.99
   3 -13  -1   13.06   19.25
  -3  13   1   33.08   18.99
   3 -13  -1   40.27   18.50
   3 -13  -2  106.16   23.57
   3 -13  -2  149.43   21.14
  -3  13   2  148.27   22.16
   3 -13  -3   31.34   19.84
   3 -13  -3   38.83   17.76
  -3  13   3   16.08   18.51
   3 -13  -4   58.85   20.92
   3 -13  -4   21.40   16.30
  -3  13   4   10.23   18.26
   3 -13  -5   62.10   21.14
   3 -13  -5   54.90   15.27
  -3  13   5   83.55   20.18
   3 -13  -5   47.27   21.54
   3 -13  -6   43.97   20.83
   3 -13  -6   59.00   15.85
  -3  13   6   30.33   19.44
   3 -13  -6   71.82   21.30
  -3  13   7   33.55   19.62
   3 -13  -7   37.15   15.68
   3 -13  -7   78.64   21.66
   3 -13  -8  330.78   20.41
  -3  13   8  347.06   25.35
   3 -13  -8  376.84   27.53
   3 -13  -9  530.98   30.06
   3 -13  -9  363.87   21.17
   3 -13 -10   34.93   22.63
   3 -13 -11   23.76   21.87
   3 -12  10   68.85   19.18
   3 -12   9  201.58   20.41
   3 -12   9  127.91   17.10
   3 -12   8  126.24   19.01
   3 -12   8   98.88   16.17
   3 -12   7   -7.43   15.91
  -3  12  -7    7.36   16.83
  -3  12  -6   67.73   16.83
   3 -12   6  138.42   18.67
   3 -12   5   77.84   17.76
  -3  12  -5   45.76   15.68
  -3  12  -4  228.97   19.41
   3 -12   4  276.33   26.80
   3 -12   3  109.05   19.75
  -3  12  -3  116.31   17.83
   3 -12   3  122.19   22.83
   3 -12   2   11.93   16.29
  -3  12  -2   17.89   15.71
   3 -12   2   61.65   19.10
   3 -12   1  -15.02   16.16
  -3  12  -1   23.89   15.80
   3 -12   1   29.32   18.36
  -3  12   0  170.33   22.66
   3 -12   0  182.07   24.65
   3 -12  -1   -2.13   18.01
  -3  12   1   15.06   16.78
   3 -12  -1   13.42   16.25
   3 -12  -2   24.23   19.34
  -3  12   2   11.10   16.18
   3 -12  -2   52.26   15.97
   3 -12  -3   -7.84   18.91
   3 -12  -3   33.33   15.30
  -3  12   3   22.44   17.94
   3 -12  -4   37.00   19.66
   3 -12  -4   98.04   16.40
  -3  12   4   59.66   18.26
   3 -12  -5  117.20   20.81
   3 -12  -5   97.56   16.92
  -3  12   5   91.75   19.25
   3 -12  -5  113.64   22.38
   3 -12  -6   63.00   15.46
   3 -12  -6  118.09   21.18
   3 -12  -6  102.03   16.75
  -3  12   6  100.24   19.34
   3 -12  -6   41.62   20.33
   3 -12  -7   76.42   15.65
  -3  12   7   66.21   19.25
   3 -12  -7   48.49   15.91
   3 -12  -7  106.78   21.27
  -3  12   8   49.82   19.43
   3 -12  -8   25.97   14.92
   3 -12  -8   32.76   20.44
   3 -12  -9  117.12   16.88
   3 -12  -9  120.13   22.29
  -3  12   9  123.78   20.86
  -3  12  10   80.90   20.69
   3 -12 -10   69.83   16.22
   3 -12 -10   63.34   21.89
   3 -12 -11    8.66   20.61
   3 -12 -11   14.33   14.92
   3 -12 -12   93.35   22.69
   3 -12 -13   38.09   22.07
   3 -11  12   35.46   19.13
   3 -11  11  164.43   19.59
   3 -11  11  135.03   18.87
   3 -11  10   47.13   17.33
   3 -11  10   43.56   15.47
   3 -11  10   71.25   16.60
   3 -11   9   13.16   16.02
  -3  11  -9   10.12   16.73
   3 -11   9   31.88   14.31
  -3  11  -8   89.68   17.08
   3 -11   8   44.91   16.38
   3 -11   8   68.90   14.58
  -3  11  -7  132.90   16.83
   3 -11   7   98.64   17.07
   3 -11   7  110.21   19.23
   3 -11   7   94.02   14.53
   3 -11   6   50.11   16.27
  -3  11  -6   75.03   15.96
   3 -11   6   71.29   14.43
   3 -11   5   94.34   14.52
   3 -11   5  122.56   17.91
  -3  11  -5  108.85   15.70
   3 -11   5  111.65   19.52
   3 -11   4   18.53   15.30
   3 -11   4   24.14   17.81
  -3  11  -4   52.59   14.26
   3 -11   3   -0.24   14.42
   3 -11   3    6.56   16.82
   3 -11   2   91.11   17.88
  -3  11  -2   67.83   16.50
  -3  11  -1  177.61   21.06
   3 -11   1   55.98   25.44
  -3  11   0  123.40   21.32
   3 -11   0  185.11   21.75
   3 -11  -1   35.62   18.69
  -3  11   1   29.24   16.84
   3 -11  -1   83.42   16.17
   3 -11  -2  219.59   24.35
  -3  11   2  177.43   22.80
   3 -11  -3   22.17   14.03
  -3  11   3   16.70   15.64
   3 -11  -4   53.09   19.10
   3 -11  -4  102.03   15.12
  -3  11   4   83.36   17.88
   3 -11  -5   50.40   17.90
   3 -11  -5   41.79   13.22
  -3  11   5   40.14   16.11
   3 -11  -5   44.60   18.82
   3 -11  -6  105.51   15.37
   3 -11  -6  150.04   15.93
  -3  11   6  128.54   18.40
   3 -11  -6   86.98   19.89
   3 -11  -7  201.35   16.63
  -3  11   7  171.09   20.20
   3 -11  -7  213.81   22.22
   3 -11  -8   80.27   15.90
   3 -11  -8   96.02   15.69
  -3  11   8  122.77   18.74
   3 -11  -8   70.35   20.04
   3 -11  -9   52.28   16.25
   3 -11  -9   79.66   16.18
   3 -11  -9  126.65   20.89
  -3  11   9  106.65   19.28
   3 -11 -10   67.02   19.95
  -3  11  10   70.67   18.96
   3 -11 -10   35.97   14.90
   3 -11 -11   17.97   19.73
  -3  11  11   38.42   19.63
   3 -11 -11   29.42   14.58
   3 -11 -12   32.17   20.15
   3 -11 -12   38.13   15.17
   3 -11 -13   18.55   20.66
   3 -10  13   15.63   18.64
   3 -10  12   38.37   17.99
   3 -10  12   66.89   17.55
   3 -10  11   47.30   16.90
  -3  10 -11    2.68   17.17
   3 -10  11   22.16   15.04
   3 -10  11   37.06   15.77
  -3  10 -10   88.34   18.03
   3 -10  10   33.98   15.39
   3 -10  10   65.96   15.20
   3 -10  10   69.73   15.60
   3 -10   9   38.54   15.61
  -3  10  -9    6.32   16.08
   3 -10   9   39.06   17.32
   3 -10   9    5.23   13.29
   3 -10   9   35.34   14.55
   3 -10   8   44.03   14.93
  -3  10  -8   32.89   15.22
   3 -10   8   45.02   16.89
   3 -10   8   33.56   14.31
   3 -10   8   59.00   14.02
   3 -10   7   22.64   14.40
  -3  10  -7    9.94   14.02
   3 -10   7   38.27   16.68
   3 -10   7   -7.58   12.43
   3 -10   7  -15.76   13.63
   3 -10   6    0.14   13.81
  -3  10  -6    9.43   13.61
   3 -10   6   18.88   12.16
   3 -10   5   23.92   13.99
  -3  10  -5   49.48   14.11
   3 -10   5   65.95   16.81
   3 -10   5    3.46   11.65
   3 -10   4  187.12   18.27
  -3  10  -4  132.55   16.02
   3 -10   4  152.45   21.67
   3 -10   4  212.39   15.45
   3 -10   3  214.83   19.83
   3 -10   3  222.83   16.91
  -3  10  -3  250.43   16.86
   3 -10   2   51.58   15.33
  -3  10  -2   50.79   14.16
   3 -10   1   10.21   15.45
  -3  10  -1   27.90   14.88
   3 -10   1   -2.51   15.84
   3 -10   0   98.44   16.11
  -3  10   0   57.61   15.62
   3 -10  -1   12.51   14.12
   3 -10  -1   -7.20   12.57
   3 -10  -2  103.77   19.39
  -3  10   2   98.40   18.77
   3 -10  -3  713.25   31.45
  -3  10   3  738.45   31.62
   3 -10  -4  197.08   20.93
   3 -10  -4  248.32   16.01
  -3  10   4  238.99   19.85
   3 -10  -5   24.32   16.97
   3 -10  -5   34.02   12.79
  -3  10   5   67.09   16.20
   3 -10  -5   17.16   17.59
   3 -10  -6   67.59   13.77
   3 -10  -6   44.86   13.67
  -3  10   6   42.56   15.78
   3 -10  -6   41.37   17.91
   3 -10  -7   75.43   14.37
   3 -10  -7   72.43   14.62
  -3  10   7   30.96   15.99
   3 -10  -7   49.58   18.04
   3 -10  -8    6.29   13.56
   3 -10  -8   18.71   14.07
   3 -10  -8   10.45   17.86
   3 -10  -9    8.98   18.13
  -3  10   9    5.91   16.64
   3 -10  -9  -21.90   14.80
   3 -10 -10   62.93   19.18
   3 -10 -10   70.49   15.47
   3 -10 -10   37.72   15.47
   3 -10 -11   34.17   18.37
  -3  10  11   27.59   18.35
   3 -10 -11   43.35   14.29
   3 -10 -12   48.86   19.53
  -3  10  12   18.93   18.86
   3 -10 -12    3.23   14.29
   3 -10 -13  135.80   21.83
   3 -10 -13   84.99   16.13
   3 -10 -14   36.23   20.35
   3  -9  14   92.42   19.73
   3  -9  13   41.15   17.64
   3  -9  13   87.90   17.32
  -3   9 -12   65.73   18.68
   3  -9  12   96.41   17.38
   3  -9  12   67.26   15.88
   3  -9  12   50.83   16.07
  -3   9 -11   34.96   16.83
   3  -9  11   34.53   15.39
   3  -9  11   41.26   14.81
   3  -9  11   81.05   16.35
  -3   9 -10   22.66   16.04
   3  -9  10   78.57   16.07
   3  -9  10   84.41   18.06
   3  -9  10   69.29   14.28
   3  -9  10   72.37   15.31
  -3   9  -9    9.52   15.11
   3  -9   9   14.90   14.56
   3  -9   9   45.92   16.39
   3  -9   9   17.14   12.91
   3  -9   9   19.04   13.36
  -3   9  -8   19.73   14.12
   3  -9   8   18.36   13.73
   3  -9   8    9.92   15.24
   3  -9   8  -15.44   13.31
  -3   9  -7  262.30   17.16
   3  -9   7  270.50   17.85
   3  -9   7  302.53   19.93
   3  -9   7  258.08   15.49
   3  -9   7  226.77   16.51
   3  -9   6  119.57   15.33
  -3   9  -6  114.34   14.79
   3  -9   6  162.39   18.15
   3  -9   6  154.48   13.58
   3  -9   6  122.24   14.07
   3  -9   5    2.73   12.49
  -3   9  -5   -8.70   12.12
   3  -9   5   -3.32   10.93
   3  -9   4   40.96   13.45
  -3   9  -4   36.48   12.54
   3  -9   4    3.51   14.73
   3  -9   4   34.34   11.27
   3  -9   3    4.26   12.43
  -3   9  -3   -9.92   11.21
   3  -9   3  -14.38   13.81
   3  -9   3   21.94   10.96
   3  -9   2  -19.03   15.78
  -3   9  -2   32.51   13.96
   3  -9   1   86.50   17.86
  -3   9  -1  185.65   17.22
  -3   9   0   73.19   21.37
   3  -9   0  448.00   21.74
   3  -9  -1    9.03   14.42
  -3   9   1    4.87   13.66
   3  -9  -1   35.64   12.26
   3  -9  -2   25.96   16.02
  -3   9   2   37.95   15.09
   3  -9  -2   67.08   12.84
   3  -9  -3  195.63   19.28
  -3   9   3  160.77   18.23
   3  -9  -4   37.20   12.38
   3  -9  -4   28.63   14.77
  -3   9   4   24.88   10.87
  -3   9   4   25.42   14.25
   3  -9  -5   49.33   16.06
   3  -9  -5   50.14   12.92
  -3   9   5   42.07   14.45
  -3   9   5   27.14   10.93
   3  -9  -5   51.05   16.17
   3  -9  -6  358.85   17.24
   3  -9  -6  404.82   17.60
  -3   9   6  351.57   21.10
   3  -9  -6  414.25   22.23
   3  -9  -7  162.13   14.91
  -3   9   7  185.62   17.26
   3  -9  -7  210.86   19.74
   3  -9  -8   58.64   18.25
   3  -9  -8   28.98   12.79
   3  -9  -8   40.10   13.57
  -3   9   8   57.35   15.15
   3  -9  -9   40.93   17.79
  -3   9   9   62.36   15.85
   3  -9  -9   13.71   13.78
   3  -9  -9   37.39   13.18
   3  -9 -10   35.48   17.64
  -3   9  10   43.21   16.44
   3  -9 -10   31.28   13.29
   3  -9 -10   35.01   14.10
   3  -9 -11   29.35   17.67
  -3   9  11   38.70   17.45
   3  -9 -11   22.08   13.84
   3  -9 -11  -11.26   13.85
   3  -9 -12   29.54   17.57
  -3   9  12   40.20   18.45
   3  -9 -12   30.69   14.20
   3  -9 -13   41.29   19.29
  -3   9  13   26.60   19.50
   3  -9 -13   24.37   14.64
   3  -9 -14   46.10   20.63
   3  -9 -14   34.37   15.32
   3  -9 -15   54.12   21.42
   3  -8  14   11.49   17.02
   3  -8  14   10.07   15.64
  -3   8 -13    7.21   17.64
   3  -8  13   16.18   15.75
   3  -8  13   -5.40   15.26
   3  -8  13   21.63   15.11
  -3   8 -12  131.15   18.81
   3  -8  12  149.91   17.24
   3  -8  12  123.11   16.15
   3  -8  12   88.81   15.94
  -3   8 -11  194.56   19.10
   3  -8  11  216.85   17.03
   3  -8  11  188.31   16.63
  -3   8 -10  225.07   18.16
   3  -8  10  247.06   19.20
   3  -8  10  235.15   16.50
   3  -8  10  220.76   16.21
  -3   8  -9   32.45   14.49
   3  -8   9   20.77   13.87
   3  -8   9   21.57   14.71
   3  -8   9   28.96   12.65
   3  -8   9   20.51   12.67
  -3   8  -8   32.67   13.92
   3  -8   8   24.55   13.15
   3  -8   8   54.74   14.72
   3  -8   8   43.35   12.14
   3  -8   8   28.90   12.37
  -3   8  -7   64.92   14.18
   3  -8   7   61.61   13.41
   3  -8   7   40.77   14.53
   3  -8   7   51.65   11.81
   3  -8   7   52.51   12.16
   3  -8   6  567.69   21.27
   3  -8   6  541.32   23.53
   3  -8   6  592.52   18.18
   3  -8   6  544.45   19.36
   3  -8   5  294.60   17.51
  -3   8  -5  231.57   16.10
   3  -8   5  202.75   20.35
   3  -8   5  346.33   15.16
   3  -8   5  278.21   15.86
  -3   8  -4   54.07   11.72
   3  -8   4   79.20   13.34
  -3   8  -4   32.97   11.86
   3  -8   4   10.13   14.87
   3  -8   4   75.85   11.44
  -3   8  -3  208.75   15.36
   3  -8   3   75.08   16.21
  -3   8  -3  151.98   14.39
   3  -8   3   -7.33   19.62
   3  -8   3  244.86   14.25
  -3   8  -2  115.61   14.85
  -3   8  -2  111.82   13.35
  -3   8  -1   15.40   12.81
   3  -8   1   17.94   11.13
   3  -8   0   62.51   14.75
  -3   8   0   92.86   14.11
  -3   8   1  169.67   18.99
   3  -8  -1  149.93   17.80
  -3   8   1  168.89   17.99
  -3   8   2  207.52   20.45
   3  -8  -2  239.04   19.63
   3  -8  -3  236.69   13.87
   3  -8  -3  175.94   17.58
  -3   8   3  197.35   17.16
   3  -8  -4  131.15   16.17
  -3   8   4   89.36   12.32
  -3   8   4  114.46   15.74
   3  -8  -5  222.89   17.27
   3  -8  -5  245.93   15.11
  -3   8   5  215.50   17.43
   3  -8  -5  201.29   17.96
  -3   8   6   19.99   10.66
   3  -8  -6   -3.42   11.86
   3  -8  -6    7.83   10.43
  -3   8   6   28.88   13.19
   3  -8  -6   21.36   14.90
   3  -8  -7  106.31   13.45
   3  -8  -7   91.42   12.51
  -3   8   7  147.96   14.79
  -3   8   7   94.72   15.15
   3  -8  -7  134.17   17.01
   3  -8  -8  132.27   13.91
   3  -8  -8  186.51   14.96
   3  -8  -8  177.07   19.14
  -3   8   8  189.05   16.79
  -3   8   9   52.98   14.51
   3  -8  -9   52.92   13.98
   3  -8  -9   30.13   12.17
   3  -8  -9   32.11   16.32
   3  -8 -10   67.07   17.35
  -3   8  10   46.33   15.70
   3  -8 -10   60.27   13.95
   3  -8 -10   65.31   13.20
  -3   8  11   63.97   17.31
   3  -8 -11   32.11   13.18
   3  -8 -11   31.91   13.65
   3  -8 -12   54.37   18.17
  -3   8  12    1.33   17.13
   3  -8 -12   54.02   14.25
   3  -8 -12   28.67   13.54
   3  -8 -13   13.25   17.92
  -3   8  13   46.01   18.49
   3  -8 -13   23.27   14.76
   3  -8 -14   66.55   20.07
   3  -8 -14   40.43   15.17
   3  -8 -15   53.51   20.24
   3  -7  15   18.68   17.04
   3  -7  15   37.51   16.85
  -3   7 -14   26.79   19.04
   3  -7  14   44.23   16.17
   3  -7  14   17.95   15.83
   3  -7  14   42.57   15.50
  -3   7 -13  128.51   18.67
   3  -7  13  156.92   17.29
   3  -7  13  186.10   17.60
   3  -7  13  147.44   16.55
  -3   7 -12  174.12   18.72
   3  -7  12  174.39   16.93
   3  -7  12  177.98   16.56
   3  -7  12  132.41   15.38
  -3   7 -11   17.83   15.52
   3  -7  11   16.33   13.88
   3  -7  11   27.97   13.73
   3  -7  11   35.72   13.12
  -3   7 -10   68.92   15.32
   3  -7  10   70.85   14.22
   3  -7  10   70.74   13.02
   3  -7  10   86.58   16.10
   3  -7  10   76.34   13.13
  -3   7  -9  269.70   17.20
   3  -7   9  261.76   16.08
   3  -7   9  244.07   14.77
   3  -7   9  238.55   14.67
  -3   7  -8  264.91   16.51
   3  -7   8  268.29   16.16
   3  -7   8  315.83   17.68
   3  -7   8  284.28   15.32
   3  -7   8  262.40   14.62
  -3   7  -7  403.81   16.94
  -3   7  -7  400.73   16.88
   3  -7   7  406.99   17.68
   3  -7   7  417.68   19.74
   3  -7   7  365.66   15.95
  -3   7  -6   59.37   11.13
  -3   7  -6   50.91   12.04
   3  -7   6   38.90   11.54
   3  -7   6   34.12   13.70
   3  -7   6   65.72   11.08
  -3   7  -5   26.37    9.71
   3  -7   5   17.29   10.61
   3  -7   5    1.95    9.59
  -3   7  -4   11.59    9.10
   3  -7   4   23.25   10.56
  -3   7  -4   20.04   10.35
   3  -7   4    3.17   12.50
   3  -7   4   30.55   10.19
   3  -7   3    5.23    9.80
  -3   7  -3   -5.37    9.52
   3  -7   3   11.93   11.01
   3  -7   2    4.30    9.96
  -3   7  -2    8.28    9.41
   3  -7   2  -10.09   10.18
  -3   7  -1   -2.39    9.12
   3  -7   1   25.79   10.01
  -3   7  -1   15.98    9.06
  -3   7   0  655.80   26.15
   3  -7   0  651.17   22.59
  -3   7   1  652.47   26.66
  -3   7   1  641.96   24.02
  -3   7   2   20.57   10.65
   3  -7  -2   37.74   12.94
  -3   7   2   18.72    8.98
  -3   7   2    7.17   10.89
   3  -7  -2   41.45    9.89
  -3   7   3    0.63   10.36
   3  -7  -3  -13.87   12.37
  -3   7   3    4.09    7.61
   3  -7  -3   14.68    9.67
  -3   7   3   -2.98   10.98
  -3   7   4   33.03   10.42
   3  -7  -4   26.73   13.20
  -3   7   4   11.83    9.09
   3  -7  -4   43.73    9.86
  -3   7   4   43.94   11.94
   3  -7  -4   59.02   14.04
  -3   7   5  270.93   16.78
   3  -7  -5  291.77   13.46
  -3   7   5  317.73   17.41
   3  -7  -5  317.15   18.28
  -3   7   6  133.61   14.49
   3  -7  -6  129.47   12.53
  -3   7   6  123.18   14.12
   3  -7  -6  115.65   15.51
  -3   7   7   -3.95   12.01
   3  -7  -7    2.68   11.16
   3  -7  -7    4.73    9.79
  -3   7   7  -13.78   12.57
   3  -7  -7  -10.39   13.67
  -3   7   8  165.91   15.23
   3  -7  -8  173.67   14.52
  -3   7   8  199.10   16.83
   3  -7  -8  200.27   17.28
   3  -7  -9  -14.17   15.06
  -3   7   9   -1.76   13.37
   3  -7  -9   -0.08   12.24
   3  -7 -10   13.77   15.72
  -3   7  10   44.84   14.76
   3  -7 -10   31.40   12.83
   3  -7 -11   46.00   16.84
  -3   7  11   33.89   15.74
   3  -7 -11   18.14   12.59
   3  -7 -12  334.68   21.48
   3  -7 -12  338.99   17.87
   3  -7 -13  420.18   23.52
  -3   7  13  391.10   23.14
   3  -7 -14   87.22   19.67
  -3   7  14   82.31   19.38
   3  -7 -14   43.46   14.71
   3  -7 -15   46.17   19.55
   3  -7 -15   30.80   15.92
   3  -7 -16   18.52   20.16
   3  -6  16    8.41   17.37
   3  -6  15    4.52   15.74
   3  -6  15   28.52   16.57
  -3   6 -14   16.20   17.08
   3  -6  14   27.93   15.41
   3  -6  14   36.26   16.65
   3  -6  14    8.43   14.87
  -3   6 -13  105.48   17.74
   3  -6  13  129.63   16.57
   3  -6  13   73.03   15.23
  -3   6 -12  633.20   23.56
   3  -6  12  685.97   22.21
   3  -6  12  703.96   22.40
   3  -6  12  645.65   21.25
  -3   6 -11   19.32   13.97
   3  -6  11    0.69   13.09
   3  -6  11   35.88   13.28
   3  -6  11   11.97   12.46
   3  -6  10    3.87   13.60
  -3   6 -10   11.53   13.35
   3  -6  10    8.89   12.19
   3  -6  10    8.11   11.53
  -3   6  -9   67.28   13.54
  -3   6  -9   60.73   13.65
   3  -6   9   43.37   12.13
   3  -6   9   63.47   13.28
   3  -6   9   50.82   11.62
  -3   6  -8    6.17   11.32
  -3   6  -8    1.25   11.84
   3  -6   8   13.03   10.86
   3  -6   8    0.34    9.89
  -3   6  -7   22.92   10.45
  -3   6  -7   11.92   11.25
   3  -6   7    0.74    9.89
   3  -6   7    4.56   11.83
  -3   6  -6  122.47   11.42
  -3   6  -6  121.73   12.06
   3  -6   6   98.92   11.77
   3  -6   6  101.45   14.04
   3  -6   6   91.53   10.42
  -3   6  -5  349.26   14.75
  -3   6  -5  301.33   14.99
   3  -6   5  431.64   16.26
   3  -6   5  250.56   20.22
   3  -6   5  412.51   14.63
  -3   6  -4   59.28    9.44
  -3   6  -4   46.67   10.31
   3  -6   4   73.02   10.24
   3  -6   4   87.83    9.70
  -3   6  -3   -1.39    7.61
   3  -6   3   -0.14    9.06
  -3   6  -3   -0.46    8.50
   3  -6   3  -12.78    9.50
   3  -6   3    7.84    8.09
   3  -6   2  732.71   17.95
  -3   6  -2  714.07   17.15
  -3   6  -1   21.34    8.17
   3  -6   1    7.20    8.80
  -3   6   0 1560.24   21.76
   3  -6   0 1220.54   22.43
  -3   6   1  381.36   23.08
   3  -6  -1  452.96   21.50
  -3   6   2  159.22   14.29
   3  -6  -2  114.63   14.32
  -3   6   2  156.59   13.71
  -3   6   3  115.02   12.52
   3  -6  -3  108.22   12.81
  -3   6   3   81.86   12.08
   3  -6  -3  118.16    9.84
  -3   6   4  124.48   11.86
   3  -6  -4  119.06   13.69
   3  -6  -4  128.76   10.33
  -3   6   4  111.47   12.64
   3  -6  -4  121.32   14.05
  -3   6   5  125.42   11.22
  -3   6   5  153.51   14.38
   3  -6  -5  138.90   10.43
  -3   6   5  113.77   12.86
   3  -6  -5  172.63   14.96
  -3   6   6   14.51   10.81
   3  -6  -6    6.86   10.16
  -3   6   6   23.40   11.06
   3  -6  -6   28.63   12.90
   3  -6  -7   39.75   13.13
   3  -6  -7   38.03   10.72
  -3   6   7   68.44   13.29
  -3   6   7   84.72   12.52
  -3   6   8  117.38   14.04
   3  -6  -8  123.61   12.93
  -3   6   8  112.39   14.86
   3  -6  -8   94.06   14.46
   3  -6  -9   83.56   14.67
  -3   6   9   71.76   13.92
   3  -6  -9   57.95   12.75
   3  -6 -10   41.86   15.33
   3  -6 -10   58.97   12.66
  -3   6  10   47.69   13.80
   3  -6 -11  591.81   23.37
   3  -6 -11  577.96   19.62
  -3   6  11  637.18   22.82
   3  -6 -12   17.87   16.32
  -3   6  12   68.19   16.55
   3  -6 -12   34.23   13.63
   3  -6 -13  121.82   18.62
  -3   6  13  151.89   18.51
   3  -6 -14    5.84   17.04
  -3   6  14   19.39   17.48
   3  -6 -14   33.78   14.78
   3  -6 -15   28.53   15.67
   3  -6 -15   30.42   19.19
   3  -6 -16   56.12   19.85
   3  -5  17   62.63   18.71
   3  -5  16   56.42   17.20
   3  -5  16   71.14   18.31
   3  -5  16   42.60   16.86
  -3   5 -15   41.66   17.27
   3  -5  15   62.46   16.78
   3  -5  15   33.36   16.65
   3  -5  15   42.92   15.91
  -3   5 -14   59.70   16.90
   3  -5  14   60.07   15.41
   3  -5  14   90.66   16.34
   3  -5  14   37.07   14.46
  -3   5 -13   55.63   15.86
   3  -5  13   87.34   15.38
   3  -5  13  105.65   15.81
   3  -5  13   32.96   13.69
  -3   5 -12   26.28   13.55
   3  -5  12   14.48   13.20
   3  -5  12   26.55   12.24
  -3   5 -11   65.33   13.64
   3  -5  11   97.46   13.61
   3  -5  11   81.93   12.97
  -3   5 -10   94.67   14.31
  -3   5 -10   89.56   13.25
   3  -5  10  116.85   12.89
   3  -5  10   96.24   11.99
  -3   5  -9  165.39   14.09
  -3   5  -9  189.43   14.32
   3  -5   9  179.61   13.12
   3  -5   9  206.68   14.37
   3  -5   9  196.36   12.67
  -3   5  -8   22.42   11.27
  -3   5  -8    8.06   10.06
   3  -5   8   10.37   10.22
   3  -5   8   10.67   10.72
   3  -5   8   10.97    9.37
  -3   5  -7  169.93   12.01
  -3   5  -7  175.89   12.15
   3  -5   7  153.97   11.48
   3  -5   7  143.14   13.17
   3  -5   7  164.59   11.03
  -3   5  -6  558.67   15.94
  -3   5  -6  496.53   15.87
   3  -5   6  509.41   19.60
   3  -5   6  511.07   14.36
  -3   5  -5   37.91    8.83
  -3   5  -5   44.94    9.22
   3  -5   5   35.58    8.98
   3  -5   5   11.75   10.84
   3  -5   5   41.09    7.59
   3  -5   5   44.05    8.17
   3  -5   4  367.16   12.98
  -3   5  -4  440.91   14.23
  -3   5  -4  651.36   14.03
   3  -5   4  582.54   14.99
   3  -5   4  528.12   13.92
  -3   5  -4  554.37   16.15
   3  -5   3  102.83    9.32
  -3   5  -3  121.23    9.62
  -3   5  -3  226.76   10.01
   3  -5   3  204.29   10.44
   3  -5   3  174.93    9.51
   3  -5   2  938.16   19.62
   3  -5   2  643.77   17.10
  -3   5  -2 1001.38   16.20
   3  -5   2  653.83   17.84
   3  -5   2  946.89   15.52
  -3   5  -1 1358.58   21.28
   3  -5   1 1087.53   19.41
   3  -5   0   12.87    6.41
   3  -5   0   -1.63    5.88
  -3   5   0   14.83    6.98
   3  -5   0    7.90    8.19
   3  -5   0   15.15    7.60
  -3   5   0    5.94    7.48
   3  -5  -1   25.44    7.43
  -3   5   1   37.47    8.52
   3  -5  -1   30.18    9.90
  -3   5   1   52.06    9.19
   3  -5  -1   41.82    7.19
  -3   5   2  504.82   18.10
   3  -5  -2  729.79   15.51
   3  -5  -2  519.38   17.60
  -3   5   2  506.33   18.10
   3  -5  -2  783.30   13.57
  -3   5   3  667.78   18.86
   3  -5  -3  627.67   17.92
   3  -5  -3  648.47   13.70
  -3   5   3  622.22   19.14
   3  -5  -3  616.73   18.90
  -3   5   4  116.48   10.45
  -3   5   4   77.60   11.37
  -3   5   4   96.36   10.93
   3  -5  -4  116.83   12.72
  -3   5   5   -1.92    8.02
  -3   5   5    6.34   10.11
  -3   5   5   -1.71    9.49
   3  -5  -5    5.69   11.41
  -3   5   6  512.02   14.94
  -3   5   6  591.50   19.92
   3  -5  -6  589.93   15.59
   3  -5  -6  589.75   18.43
  -3   5   6  503.78   16.84
  -3   5   7  217.11   13.75
   3  -5  -7  213.19   12.89
  -3   5   7  204.14   14.40
   3  -5  -7  226.29   14.94
   3  -5  -8   33.24   12.70
  -3   5   8   38.07   12.10
  -3   5   8   37.37   11.79
   3  -5  -8   57.41   12.13
   3  -5  -9   46.17   13.43
  -3   5   9   87.27   13.53
   3  -5  -9   96.94   12.64
  -3   5   9   62.61   12.83
   3  -5 -10   44.76   14.94
   3  -5 -10   49.03   12.29
  -3   5  10   43.69   14.04
   3  -5 -11   48.05   15.29
  -3   5  11   83.40   15.08
   3  -5 -11   67.61   13.01
   3  -5 -12  111.69   17.14
  -3   5  12  123.49   16.71
   3  -5 -12   90.32   14.42
   3  -5 -13   22.38   16.08
  -3   5  13   36.41   16.29
   3  -5 -13   23.33   13.92
   3  -5 -14   36.18   16.96
  -3   5  14   21.31   17.67
   3  -5 -14    3.67   14.37
   3  -5 -15   38.10   18.40
  -3   5  15   17.09   18.43
   3  -5 -15   45.87   15.74
   3  -5 -16   43.68   19.42
   3  -4  17   45.15   17.74
   3  -4  17   38.09   17.15
   3  -4  16   45.24   16.32
   3  -4  16   45.54   17.23
  -3   4 -15   34.02   16.38
   3  -4  15   14.41   15.04
   3  -4  15   18.82   16.13
   3  -4  15   11.03   14.56
  -3   4 -14   69.62   15.79
   3  -4  14   51.07   14.94
   3  -4  14   70.55   16.20
   3  -4  14   57.50   14.55
  -3   4 -13  -20.00   13.59
   3  -4  13   -0.67   13.30
   3  -4  13   17.80   13.27
  -3   4 -12   30.72   13.49
   3  -4  12   43.25   13.16
   3  -4  12   66.86   12.80
  -3   4 -11   88.38   13.74
  -3   4 -11   89.62   13.13
   3  -4  11   86.07   12.37
   3  -4  11   67.36   12.36
  -3   4 -10   -9.48   11.08
  -3   4 -10   21.96   11.48
   3  -4  10   14.89   11.01
   3  -4  10   14.46   10.65
  -3   4  -9   61.08   11.90
  -3   4  -9   64.21   11.22
   3  -4   9   78.57   10.97
   3  -4   9   73.86   10.38
  -3   4  -8   21.03    9.73
  -3   4  -8   21.73    9.84
   3  -4   8   38.32    9.89
   3  -4   8   43.70   10.12
   3  -4   8   48.30    9.32
  -3   4  -7   32.65    9.17
  -3   4  -7   37.64    9.37
   3  -4   7   27.08    8.64
   3  -4   7   34.44    9.84
   3  -4   7   10.98    8.10
  -3   4  -6  429.44   13.12
  -3   4  -6  375.47   13.40
   3  -4   6  445.93   13.13
   3  -4   6  391.03   16.17
   3  -4   6  404.43   12.02
   3  -4   6  377.07   11.79
  -3   4  -5  326.18   11.07
  -3   4  -5  301.38   11.25
   3  -4   5  302.77   11.16
   3  -4   5  295.52   10.33
   3  -4   5  304.74   10.31
   3  -4   5  283.79    9.89
   3  -4   4  267.32    9.20
  -3   4  -4  281.04   10.06
  -3   4  -4  376.15   10.75
   3  -4   4  328.85   11.20
  -3   4  -4  346.45   13.19
   3  -4   4  340.95   10.13
   3  -4   4  313.53    9.84
   3  -4   3    4.59    4.82
  -3   4  -3   -1.81    5.80
  -3   4  -3   16.57    6.82
   3  -4   3   -0.98    6.71
   3  -4   3   10.81    7.46
   3  -4   3    4.81    5.86
  -3   4  -3   15.23    7.72
   3  -4   3   -2.16    4.78
   3  -4   2   41.64    6.05
   3  -4   2   65.09    5.63
  -3   4  -2   24.97    6.47
   3  -4   2   67.32    7.40
  -3   4  -2   55.72    6.84
   3  -4   2   74.29    6.59
   3  -4   1  229.57    8.88
  -3   4  -1  223.94    8.71
   3  -4   1  237.27    9.26
  -3   4  -1  259.87    8.31
   3  -4   1  200.76    8.86
   3  -4   0  225.64   10.04
  -3   4   0  323.95   10.66
   3  -4   0  427.69   11.63
  -3   4   0  321.28   10.69
   3  -4   0  177.16   11.26
   3  -4   0  339.47   10.69
   3  -4  -1 1197.94   16.07
   3  -4  -1 1135.30   17.05
  -3   4   1 1165.42   18.08
   3  -4  -1 1098.73   15.44
   3  -4  -2 1828.24   21.30
  -3   4   2 1798.51   22.52
   3  -4  -2 1319.73   23.07
   3  -4  -2 1798.67   20.04
  -3   4   2 1508.00   24.04
   3  -4  -2 1873.77   18.07
   3  -4  -2 1692.96   19.11
   3  -4  -2 1310.30   23.98
  -3   4   3  730.72   16.37
   3  -4  -3  725.65   15.02
   3  -4  -3  695.33   14.31
  -3   4   3  530.27   16.67
   3  -4  -3  568.52   16.49
  -3   4   4   43.72    8.04
  -3   4   4   51.97   10.08
   3  -4  -4   45.56    7.95
   3  -4  -4   37.24    7.15
  -3   4   4   49.96    9.22
   3  -4  -4   40.21   10.36
   3  -4  -5   -1.57   10.23
  -3   4   5    3.86    7.61
  -3   4   5    6.44    8.96
  -3   4   5    2.03    8.82
  -3   4   6  226.60   12.40
  -3   4   6  244.53   11.28
   3  -4  -6  275.15   11.95
  -3   4   6  290.22   13.94
   3  -4  -6  273.78   13.97
   3  -4  -7  640.45   18.49
  -3   4   7  673.27   17.72
  -3   4   7  661.96   16.38
   3  -4  -7  660.73   16.82
  -3   4   7  605.12   18.32
   3  -4  -8   75.25   12.44
  -3   4   8   59.22   12.20
   3  -4  -8   35.85   11.37
  -3   4   8   64.35   11.27
   3  -4  -9  169.33   14.82
   3  -4  -9  207.74   13.60
  -3   4   9  170.20   13.92
   3  -4 -10   76.81   14.38
  -3   4  10   49.40   13.26
   3  -4 -10   48.10   11.93
   3  -4 -11   49.91   14.54
  -3   4  11   34.08   13.91
   3  -4 -11   14.46   11.81
   3  -4 -12   18.20   14.78
  -3   4  12   16.55   14.01
   3  -4 -12   25.77   12.72
   3  -4 -13   35.35   16.53
  -3   4  13   31.62   15.75
   3  -4 -13    8.17   13.77
   3  -4 -14   26.75   16.72
  -3   4  14   76.29   17.05
   3  -4 -14   54.25   14.85
   3  -4 -15   25.64   15.40
  -3   4  15   -0.91   17.66
   3  -4 -16   62.43   19.19
   3  -3  17   38.63   17.09
   3  -3  17   59.04   18.42
   3  -3  17   32.43   16.71
  -3   3 -16   51.05   17.57
   3  -3  16   53.09   16.08
   3  -3  16   12.87   16.58
   3  -3  16   35.89   15.97
  -3   3 -15   78.89   16.16
   3  -3  15  105.02   15.97
   3  -3  15   88.94   16.69
   3  -3  15   62.10   15.19
  -3   3 -14   78.12   15.41
   3  -3  14   63.42   14.34
   3  -3  14   77.68   14.56
  -3   3 -13   79.72   14.66
   3  -3  13   82.19   13.57
   3  -3  13   77.38   13.67
  -3   3 -12  110.52   14.92
  -3   3 -12   74.35   13.56
   3  -3  12   67.99   12.81
   3  -3  12   80.72   12.72
  -3   3 -11  175.20   15.42
  -3   3 -11  147.88   13.89
   3  -3  11  162.08   12.99
   3  -3  11  132.00   12.91
  -3   3 -10    5.82   10.70
  -3   3 -10    4.08   11.24
   3  -3  10   31.02    9.90
   3  -3  10   25.70   10.21
  -3   3  -9   -7.70    9.59
  -3   3  -9   -3.88   10.17
   3  -3   9   -2.94    9.00
   3  -3   9   -3.57    9.08
  -3   3  -8   21.11    8.99
  -3   3  -8   28.14    9.78
   3  -3   8   35.34    9.11
   3  -3   8   36.81    9.33
   3  -3   8   27.39    8.40
  -3   3  -7   22.20    8.52
  -3   3  -7   23.08    8.34
   3  -3   7   37.60    8.15
   3  -3   7   20.59    6.22
   3  -3   7   28.14    8.79
   3  -3   7   31.17    7.92
  -3   3  -6   92.23    8.52
  -3   3  -6   64.77    8.23
   3  -3   6  102.36    8.28
   3  -3   6   99.99    9.88
   3  -3   6   94.30    7.24
   3  -3   6   85.48    7.56
   3  -3   6   83.19    7.67
   3  -3   5   61.84    5.77
  -3   3  -5   38.97    6.76
  -3   3  -5   60.53    7.31
   3  -3   5   61.39    7.22
   3  -3   5   46.13    9.35
   3  -3   5   76.80    6.29
  -3   3  -5   62.69    7.80
   3  -3   5   68.46    6.72
  -3   3  -4  113.35    6.48
  -3   3  -4  177.34    7.96
   3  -3   4  123.56    5.81
   3  -3   4  148.69    7.51
   3  -3   4  115.32   10.12
   3  -3   4  144.92    6.25
  -3   3  -4  146.54    9.38
   3  -3   4  124.81    6.77
  -3   3  -3  223.38    6.96
  -3   3  -3  321.13    8.73
   3  -3   3  310.57    8.68
   3  -3   3  167.23   10.83
   3  -3   3  317.62    7.31
  -3   3  -3  381.99   12.93
   3  -3   3  300.86    7.07
   3  -3   2  291.04    7.10
   3  -3   2  375.43    8.70
  -3   3  -2  386.66    8.67
   3  -3   2  218.53   10.69
   3  -3   2  467.53    7.94
  -3   3  -2  590.95   13.95
   3  -3   1 1462.31   13.93
  -3   3  -1 1655.05   13.93
   3  -3   1 1636.85   15.54
  -3   3  -1 1525.71   14.60
   3  -3   1 1375.61   16.11
   3  -3   0    3.04    3.94
  -3   3   0   15.63    3.96
   3  -3   0    1.25    6.72
  -3   3   0    3.14    4.96
  -3   3   0   11.26    6.10
   3  -3   0   -1.63    5.95
   3  -3   0   10.40    4.51
   3  -3  -1   14.50    4.88
   3  -3  -1    7.16    4.24
  -3   3   1   -4.80    4.61
   3  -3  -1   14.39    7.11
  -3   3   1    5.86    6.76
  -3   3   1    3.08    6.30
   3  -3  -1    5.87    5.69
   3  -3  -2    6.89    4.83
  -3   3   2   12.28    5.61
  -3   3   2   22.38    7.78
   3  -3  -2   12.38    5.36
  -3   3   2   28.38    6.86
   3  -3  -2    4.05    7.73
  -3   3   3    5.53    6.59
   3  -3  -3    0.52    5.53
  -3   3   3   13.25    7.79
   3  -3  -3   14.65    6.56
  -3   3   3    6.41    6.99
   3  -3  -3   11.70    8.34
   3  -3  -4  416.54   13.67
  -3   3   4  510.25   12.58
  -3   3   4  427.19   15.55
   3  -3  -4  483.60   12.98
  -3   3   4  383.76   13.18
   3  -3  -5  490.07   14.07
  -3   3   5  452.71   13.82
  -3   3   5  469.87   12.52
  -3   3   5  490.05   15.35
   3  -3  -6  858.61   18.41
  -3   3   6  865.87   19.04
  -3   3   6  855.81   16.87
   3  -3  -7    7.27   10.83
  -3   3   7    9.70    9.75
  -3   3   7   24.34    8.97
   3  -3  -7   11.60    9.61
  -3   3   7   21.62    8.91
   3  -3  -8   30.35   11.51
  -3   3   8   18.57   10.37
   3  -3  -8   14.30    9.88
   3  -3  -9   11.22   12.17
  -3   3   9  -11.98   11.59
   3  -3  -9   26.07   11.13
   3  -3 -10   23.36   12.50
  -3   3  10   37.20   12.47
   3  -3 -10   31.59   11.32
   3  -3 -11   20.95   13.98
  -3   3  11    6.36   12.77
   3  -3 -11   -1.91   11.52
   3  -3 -12   37.52   14.91
  -3   3  12   23.81   13.66
   3  -3 -12   45.70   13.62
   3  -3 -13   33.58   15.33
  -3   3  13   33.92   15.21
   3  -3 -13   16.28   13.86
   3  -3 -14   21.40   16.43
  -3   3  14   11.50   16.01
   3  -3 -14   15.34   14.88
   3  -3 -15   19.97   17.42
  -3   3  15   30.27   17.99
   3  -3 -15   39.03   16.14
   3  -3 -16   15.90   18.37
   3  -2  18   19.37   17.83
   3  -2  17   87.70   17.58
   3  -2  17   72.62   18.78
   3  -2  17   50.02   16.41
  -3   2 -16   19.55   15.91
   3  -2  16   42.75   15.80
   3  -2  16   22.55   16.37
   3  -2  16    3.21   14.72
  -3   2 -15   10.63   15.28
   3  -2  15   33.73   14.63
   3  -2  15   11.37   14.33
  -3   2 -14  182.16   16.75
   3  -2  14  206.69   15.99
   3  -2  14  164.75   15.52
  -3   2 -13   70.68   13.85
   3  -2  13   66.59   13.10
   3  -2  13   61.53   13.41
  -3   2 -12   27.17   12.10
  -3   2 -12   12.31   12.73
   3  -2  12   34.19   11.66
   3  -2  12   39.53   11.93
  -3   2 -11  199.77   14.98
  -3   2 -11  176.22   13.41
   3  -2  11  206.44   12.73
   3  -2  11  187.45   13.05
  -3   2 -10   73.22   12.00
  -3   2 -10   61.47   10.92
   3  -2  10   43.27    9.83
   3  -2  10   50.55   10.02
  -3   2  -9  496.07   15.85
   3  -2   9  470.65   13.73
   3  -2   9  464.05   13.80
  -3   2  -8  442.27   13.43
  -3   2  -8  442.47   12.96
   3  -2   8  433.47   12.48
   3  -2   8  471.97   12.25
   3  -2   8  446.66   12.30
  -3   2  -7  197.56    9.63
  -3   2  -7  170.50    9.32
   3  -2   7  175.94    8.96
   3  -2   7  175.04    7.96
   3  -2   7  175.11    7.91
   3  -2   7  156.08    8.55
  -3   2  -6  282.04    8.94
  -3   2  -6  316.60    9.56
   3  -2   6  313.24    9.27
   3  -2   6  332.56    8.47
   3  -2   6  315.30   11.05
   3  -2   6  257.75    7.89
  -3   2  -6  366.66   11.77
   3  -2   6  298.48    9.32
  -3   2  -5  103.40    5.67
  -3   2  -5  140.66    7.01
   3  -2   5  131.21    7.01
   3  -2   5  109.79    5.11
   3  -2   5  135.59    9.25
   3  -2   5   99.44    4.84
  -3   2  -5  148.25    9.10
   3  -2   5  123.66    6.70
  -3   2  -4  859.70   11.12
   3  -2   4  814.29   10.82
   3  -2   4  707.61    7.41
   3  -2   4  811.77   16.82
   3  -2   4  671.14    7.09
  -3   2  -4 1037.77   16.78
  -3   2  -3  146.63    6.15
  -3   2  -3  157.43    9.25
  -3   2  -2 1274.73   12.57
  -3   2  -2 1490.81   22.82
   3  -2   1  429.23   10.43
  -3   2  -1  377.48   15.32
  -3   2   0   23.01    6.04
  -3   2   0   30.52    5.53
   3  -2   0   27.81    5.20
  -3   2   0   30.19    7.67
  -3   2   1  406.94    6.15
  -3   2   1  463.92   10.00
   3  -2  -1  381.69    6.34
   3  -2  -1  438.63    7.03
   3  -2  -2 1017.30   12.70
  -3   2   2 1068.66   12.50
  -3   2   2  797.16   19.35
   3  -2  -2  885.80   11.50
  -3   2   2  897.53   14.72
   3  -2  -2  757.32   14.47
   3  -2  -3  115.30    8.63
  -3   2   3  172.67    7.58
   3  -2  -3  155.48    7.41
  -3   2   3  112.78    9.12
   3  -2  -3  129.28    6.94
  -3   2   3  141.07    7.98
   3  -2  -4   26.58    8.14
  -3   2   4   33.68    7.47
  -3   2   4   28.94    6.14
   3  -2  -4   28.74    5.64
  -3   2   4   24.73    7.13
   3  -2  -4   25.53    6.37
   3  -2  -5    5.85    8.32
  -3   2   5  -12.44    7.58
  -3   2   5   12.70    6.28
   3  -2  -5   16.18    7.20
   3  -2  -5    0.94    7.02
   3  -2  -6   65.02   10.11
  -3   2   6   78.83    8.37
  -3   2   6   84.19    9.71
   3  -2  -6   80.02    9.29
   3  -2  -7  297.47   13.95
  -3   2   7  297.74   11.89
  -3   2   7  281.02   13.33
   3  -2  -7  290.38   11.98
   3  -2  -8  234.84   14.25
  -3   2   8  238.28   13.14
  -3   2   8  255.58   12.50
   3  -2  -8  237.36   12.01
   3  -2  -9  230.71   14.69
  -3   2   9  220.66   14.14
   3  -2  -9  228.28   13.08
   3  -2 -10   12.96   12.46
  -3   2  10   32.24   12.18
   3  -2 -10   11.29   10.92
   3  -2 -11  173.53   16.00
   3  -2 -11  169.16   14.35
  -3   2  11  193.02   15.30
   3  -2 -12   78.58   15.42
  -3   2  12   49.34   14.18
   3  -2 -12   39.28   13.37
   3  -2 -13   24.37   15.31
  -3   2  13  -15.36   14.80
   3  -2 -13   12.22   13.88
   3  -2 -14   43.10   16.29
  -3   2  14   35.32   16.76
   3  -2 -14   43.77   15.02
   3  -2 -15   66.82   18.57
  -3   2  15   16.13   18.52
   3  -2 -15   60.24   16.54
   3  -2 -16   59.93   19.11
   3  -1  18    6.66   16.79
   3  -1  18   70.64   17.86
  -3   1 -17   45.12   17.69
   3  -1  17   19.63   16.01
   3  -1  17   73.70   18.34
   3  -1  17   50.33   16.83
  -3   1 -16   65.81   17.33
   3  -1  16   64.11   15.43
   3  -1  16  101.68   16.50
  -3   1 -15   33.46   15.39
   3  -1  15    1.16   13.82
   3  -1  15    6.59   14.36
  -3   1 -14   22.74   13.82
   3  -1  14  -15.42   12.93
   3  -1  14   18.85   13.22
  -3   1 -13   27.16   14.38
   3  -1  13   54.32   12.20
   3  -1  13   45.10   12.55
  -3   1 -12   18.03   11.79
  -3   1 -12   14.99   13.12
   3  -1  12   32.48   11.24
   3  -1  12   25.33   11.49
  -3   1 -11    8.85   10.70
   3  -1  11   27.47   10.33
  -3   1 -11   -3.25   11.35
   3  -1  11   23.08   10.08
  -3   1 -10  204.53   13.07
  -3   1 -10  204.17   12.10
   3  -1  10  183.76   11.23
   3  -1  10  195.14   11.45
  -3   1  -9  849.20   18.02
   3  -1   9  892.01   16.07
   3  -1   9  888.35   16.91
   3  -1   9  887.64   16.51
  -3   1  -8 1070.98   17.67
  -3   1  -8 1015.58   16.59
   3  -1   8  963.37   15.33
   3  -1   8 1063.64   16.18
  -3   1  -8  929.17   24.69
   3  -1   8  922.94   15.04
   3  -1   8 1046.51   15.81
  -3   1  -7   22.45    6.48
  -3   1  -7   12.23    6.99
   3  -1   7   11.13    6.39
   3  -1   7   18.37    5.31
  -3   1  -7   12.94   10.87
   3  -1   7    7.84    5.28
  -3   1  -7   -1.77    7.55
   3  -1   7   15.80    6.35
  -3   1  -6  712.17   10.36
  -3   1  -6  717.47   11.84
   3  -1   6  707.05   10.91
   3  -1   6  726.15    9.98
   3  -1   6  638.36   10.01
  -3   1  -6  857.35   16.31
   3  -1   6  719.91   11.06
  -3   1  -6  540.95   19.11
  -3   1  -5  464.21    8.67
   3  -1   5  472.81    8.12
  -3   1  -5  441.97   15.87
   3  -1   5  369.99    5.17
   3  -1   5  490.45   10.98
  -3   1  -5  551.40   14.16
  -3   1  -4  321.91    6.85
  -3   1  -4  302.26   13.30
   3  -1   4  372.28    9.97
  -3   1  -4  413.43   12.20
   3  -1   3 3177.43   22.11
  -3   1  -3 3286.45   30.90
   3  -1   2   47.07    5.02
  -3   1  -2   28.94    7.16
  -3   1  -1   11.51    4.10
   3  -1   1    6.23    4.44
  -3   1  -1    9.07    6.62
  -3   1   0  223.94    9.92
  -3   1   0  274.76   11.63
  -3   1   1  335.51   11.75
  -3   1   1  318.74    7.95
  -3   1   1  339.73   12.67
  -3   1   2   34.50    5.70
   3  -1  -2   32.72    4.21
  -3   1   2   31.61    4.33
   3  -1  -2   33.34    6.57
  -3   1   2   20.69    6.36
   3  -1  -2   30.92    4.39
  -3   1   2   33.83    7.90
   3  -1  -3   87.15    7.53
  -3   1   3  101.10    7.20
  -3   1   3  104.96    6.14
   3  -1  -3  100.82    5.94
  -3   1   3   87.12    7.46
   3  -1  -3   85.31    5.87
  -3   1   3   91.15    8.82
   3  -1  -4 1557.89   18.73
  -3   1   4 1623.01   17.13
  -3   1   4 1429.32   19.08
   3  -1  -4 1502.46   16.16
   3  -1  -4 1395.37   17.32
   3  -1  -5  400.14   12.30
  -3   1   5  415.58   11.01
  -3   1   5  368.47   11.88
   3  -1  -5  382.02   11.75
   3  -1  -6   18.14    8.98
  -3   1   6   41.21    7.57
  -3   1   6   15.77    8.31
   3  -1  -6   26.63    7.79
   3  -1  -7   15.00    9.99
  -3   1   7    2.72    9.26
  -3   1   7    7.59    7.69
   3  -1  -7   15.22    8.37
   3  -1  -8   24.24   10.97
  -3   1   8   11.01    8.88
  -3   1   8   14.08    9.91
   3  -1  -8   23.05    9.38
   3  -1  -9   69.50   12.22
  -3   1   9   63.86   11.67
   3  -1  -9   61.11   11.44
   3  -1 -10  315.31   16.31
  -3   1  10  315.34   16.14
   3  -1 -10  281.98   14.99
   3  -1 -11   83.16   14.62
  -3   1  11  113.90   14.48
   3  -1 -11   87.25   13.32
   3  -1 -12   13.54   14.17
  -3   1  12   55.85   14.55
   3  -1 -12   40.23   13.26
   3  -1 -13   63.45   15.89
  -3   1  13   73.98   16.13
   3  -1 -13   31.79   14.10
   3  -1 -14   16.41   16.72
  -3   1  14    5.82   16.48
   3  -1 -14  -10.47   14.98
   3  -1 -15  105.36   19.23
   3  -1 -15  131.70   18.05
  -3   1  15  103.83   20.25
   3  -1 -16  111.71   20.30
   3   0  18  112.64   18.30
   3   0  18  138.53   20.40
   3   0  18  100.34   18.63
  -3   0 -17   -2.06   16.67
   3   0  17   27.73   15.71
   3   0  17   15.93   16.29
  -3   0 -16   56.30   16.56
   3   0  16   24.54   14.66
   3   0  16   19.87   15.32
  -3   0 -15   37.89   14.83
   3   0  15   30.86   13.74
   3   0  15   38.02   14.50
  -3   0 -14   30.50   14.18
   3   0  14    3.86   12.35
   3   0  14   15.47   12.98
  -3   0 -13  125.04   14.70
  -3   0 -13  111.98   15.15
   3   0  13  136.33   13.45
   3   0  13  125.84   13.39
  -3   0 -12   14.54   11.49
  -3   0 -12   16.96   12.15
   3   0  12    9.65   10.78
   3   0  12   27.72   11.20
  -3   0 -11    9.49   10.47
  -3   0 -11   30.87   11.47
   3   0  11   -1.02    9.54
   3   0  11    8.37    9.81
  -3   0 -10  166.26   11.36
  -3   0 -10  193.12   12.25
   3   0  10  192.41   10.88
   3   0  10  194.80   11.16
  -3   0  -9    0.14    8.08
   3   0   9    5.58    6.27
  -3   0  -9    5.55    8.35
   3   0   9   22.89    7.97
   3   0   9    8.03    7.74
  -3   0  -8 1280.97   17.37
  -3   0  -8 1321.58   18.72
  -3   0  -8 1298.06   25.39
   3   0   8 1233.72   16.09
   3   0   8 1395.81   17.99
   3   0   8 1156.05   16.83
   3   0   8 1259.60   16.41
  -3   0  -7  434.72   10.36
  -3   0  -7  415.39    9.49
   3   0   7  430.65    9.79
   3   0   7  419.42    8.76
  -3   0  -7  388.81   16.45
   3   0   7  405.38    9.86
   3   0   7  437.79    9.60
  -3   0  -6  132.77    4.20
  -3   0  -6  183.33    7.19
  -3   0  -6  135.86    4.68
   3   0   6  183.04    6.70
   3   0   6  145.87    4.55
  -3   0  -6  159.67   12.15
   3   0   6  142.31    4.72
  -3   0  -6  187.86   10.10
  -3   0  -5   88.48    5.46
  -3   0  -5   86.14   10.21
  -3   0  -4  284.59   12.45
  -3   0  -4  340.13   11.76
  -3   0  -3    5.60    7.97
  -3   0  -3    7.67    6.45
  -3   0  -2  102.43    9.06
   3   0   2  123.94    4.68
  -3   0  -2  104.58    8.27
  -3   0  -1   80.41    5.44
  -3   0  -1   97.92    8.11
   3   0   0  141.34    7.69
  -3   0   0  154.86    8.04
  -3   0   1   32.54    4.64
   3   0  -1   37.96    6.08
  -3   0   1   18.72    5.64
  -3   0   1   22.93    6.97
   3   0  -2  130.32    4.97
  -3   0   2  107.09    4.69
  -3   0   2  114.65    6.26
   3   0  -2  136.96    6.63
  -3   0   2  103.95    8.64
   3   0  -2   86.47    4.56
   3   0  -3  290.80    8.95
  -3   0   3  312.63    7.57
   3   0  -3  281.55    6.95
   3   0  -3  294.00    8.54
  -3   0   3  275.12   12.03
   3   0  -4   14.87    7.33
  -3   0   4   -1.22    6.52
  -3   0   4    7.37    5.35
   3   0  -4    5.32    4.48
   3   0  -4    2.63    6.07
  -3   0   4   12.27    7.72
   3   0  -5 1183.91   17.81
  -3   0   5 1278.47   17.00
  -3   0   5 1275.82   17.61
  -3   0   5 1176.56   20.64
   3   0  -6    8.25    9.03
  -3   0   6    7.23    7.97
  -3   0   6   18.24    7.10
   3   0  -6    7.67    7.80
  -3   0   6   11.15    7.91
   3   0  -7    7.24    9.60
  -3   0   7   23.43    8.36
  -3   0   7   21.40    9.01
   3   0  -7    6.22    8.32
  -3   0   7    1.91    7.94
  -3   0   8  193.35   12.28
   3   0  -8  207.74   11.81
  -3   0   8  203.25   11.90
   3   0  -9   65.31   12.23
  -3   0   9   41.23   11.70
   3   0  -9   63.20   11.27
   3   0 -10   10.26   12.17
  -3   0  10   10.50   12.40
   3   0 -10   27.50   11.53
   3   0 -11   20.21   13.87
  -3   0  11   39.49   13.33
   3   0 -11    0.23   12.42
   3   0 -12   34.08   14.57
  -3   0  12   42.61   14.52
   3   0 -12   30.93   13.40
   3   0 -13   70.12   16.78
  -3   0  13   74.14   16.85
   3   0 -13   77.02   15.45
   3   0 -14  114.07   18.21
   3   0 -14  133.66   17.04
   3   0 -15  244.52   21.85
  -3   0  15  308.98   23.15
  -3   0  15  306.66   23.41
   3   0 -15  285.14   20.51
   3   0 -16   48.71   19.45
   3   1  18   51.89   17.21
   3   1  18   58.57   18.89
   3   1  18   34.17   17.11
  -3  -1 -17   27.28   16.94
   3   1  17   52.91   15.65
   3   1  17   30.82   16.06
  -3  -1 -16   58.52   16.05
   3   1  16   33.09   14.44
   3   1  16   32.51   15.32
  -3  -1 -15   20.61   15.18
   3   1  15   -6.20   13.15
   3   1  15   -5.32   13.71
  -3  -1 -14   11.11   13.84
   3   1  14    2.80   12.20
   3   1  14    6.76   12.79
  -3  -1 -13   66.48   14.17
  -3  -1 -13   39.51   12.70
   3   1  13   51.71   12.25
   3   1  13   74.91   12.62
  -3  -1 -12   97.89   12.64
  -3  -1 -12  129.29   14.07
   3   1  12  113.74   12.00
   3   1  12   98.72   11.74
  -3  -1 -11  137.36   12.08
  -3  -1 -11  134.60   12.87
   3   1  11  162.99   11.43
   3   1  11  141.32   11.58
  -3  -1 -10  670.10   16.37
   3   1  10  677.97   15.12
  -3  -1  -9  330.76   12.43
   3   1   9  310.28   10.45
   3   1   9  311.07   10.93
   3   1   9  295.29   10.74
  -3  -1  -9  294.24   11.38
  -3  -1  -8  397.35   11.19
   3   1   8  397.09   10.38
   3   1   8  371.79    9.46
  -3  -1  -8  468.47   17.90
   3   1   8  400.19   11.50
   3   1   8  391.09   10.32
  -3  -1  -8  468.28   13.85
  -3  -1  -8  406.92   11.43
  -3  -1  -7  179.34    7.12
   3   1   7  200.48    7.70
   3   1   7  221.39    6.82
  -3  -1  -7  220.90   13.72
   3   1   7  180.28    6.52
   3   1   7  206.10    7.63
  -3  -1  -7  247.65   11.29
  -3  -1  -7  213.12    8.42
   3   1   6  376.12    7.64
   3   1   6  293.59    4.71
  -3  -1  -6  424.82   15.13
   3   1   6  307.51    5.21
  -3  -1  -6  467.01   13.45
  -3  -1  -6  385.14    8.36
  -3  -1  -5   54.29    8.28
  -3  -1  -5   46.73    4.72
  -3  -1  -4   64.87    8.99
  -3  -1  -4   62.81    7.72
  -3  -1  -3  859.83   17.04
  -3  -1  -3  907.12   16.64
  -3  -1  -2  593.90   13.29
  -3  -1  -2  632.57   15.34
  -3  -1  -1   -0.56    6.59
  -3  -1  -1    7.82    4.57
   3   1   1   -1.18    6.55
  -3  -1  -1   -4.12    6.71
  -3  -1   0  561.69   11.25
  -3  -1   0  600.81   10.38
   3   1   0  603.67   11.99
  -3  -1   1   24.15    4.53
  -3  -1   1   26.39    7.15
   3   1  -2 1243.32   13.66
  -3  -1   2 1214.72   10.29
   3   1  -2 1237.02   10.98
  -3  -1   2 1129.40   13.62
   3   1  -2 1166.79   11.47
  -3  -1   2 1260.91   20.79
   3   1  -3 1148.06   14.20
  -3  -1   3 1129.89   12.67
   3   1  -3 1050.76   12.44
  -3  -1   3 1028.16   14.14
  -3  -1   3 1039.58   17.60
   3   1  -3 1066.24   14.46
   3   1  -4   12.49    7.16
  -3  -1   4   -5.08    6.51
  -3  -1   4   -0.05    5.31
   3   1  -4    0.30    4.86
   3   1  -4   -0.38    6.57
  -3  -1   4   -6.82    7.15
   3   1  -5  506.61   12.89
  -3  -1   5  545.41   12.22
  -3  -1   5  560.22   12.94
   3   1  -5  525.42   14.00
  -3  -1   5  485.18   13.65
   3   1  -6   75.17    9.82
  -3  -1   6   45.89    8.83
   3   1  -6   58.85    8.33
  -3  -1   6   76.97    8.58
  -3  -1   6   70.96    8.26
   3   1  -7  237.61   12.79
  -3  -1   7  229.41   12.23
   3   1  -7  249.96   11.43
  -3  -1   7  269.29   12.15
   3   1  -8   31.41   11.07
  -3  -1   8   34.78   10.15
  -3  -1   8   40.94   10.89
   3   1  -8   27.76    9.88
   3   1  -9  210.62   14.69
  -3  -1   9  182.03   14.05
   3   1  -9  199.29   13.81
   3   1 -10  182.85   15.46
  -3  -1  10  146.33   14.27
   3   1 -10  167.00   13.96
   3   1 -11   69.58   14.70
  -3  -1  11   88.74   14.33
   3   1 -11   85.91   13.91
   3   1 -12   35.11   15.12
   3   1 -12   55.64   14.50
  -3  -1  12   42.59   15.06
   3   1 -13   19.89   16.08
  -3  -1  13   35.83   15.80
  -3  -1  13   20.22   15.81
   3   1 -13   16.20   14.67
   3   1 -14  121.70   17.94
  -3  -1  14  120.70   18.98
   3   1 -14   66.39   16.85
  -3  -1  14   73.68   18.32
   3   1 -15   15.29   17.97
   3   1 -15   28.51   17.02
   3   1 -16   74.78   20.09
   3   2  19   22.51   17.76
   3   2  18   40.64   17.02
   3   2  18   -1.90   17.61
  -3  -2 -17   47.85   17.78
   3   2  17   35.83   15.34
   3   2  17   41.89   16.70
  -3  -2 -16   -1.11   15.90
   3   2  16   15.56   14.43
   3   2  16   35.04   15.17
  -3  -2 -15  259.98   18.08
   3   2  15  269.09   16.96
   3   2  15  249.21   17.62
  -3  -2 -14  203.28   15.87
   3   2  14  237.77   15.47
   3   2  14  242.63   16.31
  -3  -2 -13   66.16   13.28
  -3  -2 -13   64.24   14.33
   3   2  13   97.66   12.27
   3   2  13  106.40   13.03
  -3  -2 -12   -4.42   11.29
  -3  -2 -12    6.47   11.72
   3   2  12    1.21   10.57
   3   2  12   21.82   10.70
  -3  -2 -11    3.16   10.24
  -3  -2 -11    9.10   10.45
   3   2  11   23.94    9.49
   3   2  11   13.59    9.43
  -3  -2 -10    8.00    9.27
  -3  -2 -10    1.38    9.74
   3   2  10    1.75    8.56
   3   2  10    8.11    8.38
   3   2  10   12.83    7.39
   3   2   9    2.56    6.37
  -3  -2  -9   17.06    8.20
   3   2   9    1.03    7.76
   3   2   9   -0.30    7.28
  -3  -2  -9    8.31    8.03
  -3  -2  -8  398.59   11.08
   3   2   8  407.68   10.37
   3   2   8  403.22    9.86
  -3  -2  -8  356.01   14.79
   3   2   8  345.96    9.98
   3   2   8  385.84   10.05
   3   2   8  370.14   10.17
  -3  -2  -8  460.21   14.62
  -3  -2  -8  346.87   10.72
  -3  -2  -7  184.43    7.10
   3   2   7  182.57    7.59
   3   2   7  179.01    6.18
  -3  -2  -7  167.90   11.87
   3   2   7  186.01    7.16
   3   2   7  190.82    7.59
  -3  -2  -7  204.69   10.99
  -3  -2  -7  202.18    8.25
   3   2   6   51.38    5.38
   3   2   6   53.94    3.29
  -3  -2  -6   48.06    9.08
   3   2   6   47.36    3.22
  -3  -2  -6   70.29    8.86
  -3  -2  -6   69.97    5.98
  -3  -2  -5   24.25    7.79
  -3  -2  -5   13.41    4.62
  -3  -2  -5    4.41    7.22
  -3  -2  -4   69.35    8.32
  -3  -2  -4   85.40    4.70
  -3  -2  -4   73.35    8.42
  -3  -2  -3  302.58   10.53
  -3  -2  -3  354.09   11.70
  -3  -2  -2 1422.18   18.14
  -3  -2  -2 1446.89   21.32
  -3  -2  -1 2883.74   23.90
  -3  -2  -1 2947.24   17.95
  -3  -2  -1 2828.71   29.33
  -3  -2   0  312.91    6.42
  -3  -2   0  339.76    9.01
  -3  -2   0  311.27   11.55
   3   2  -1   15.49    2.95
   3   2  -1   15.71    2.32
  -3  -2   1   19.73    5.40
  -3  -2   1   26.20    5.26
  -3  -2   1   28.98    7.40
  -3  -2   2  257.69    6.16
   3   2  -2  251.27    6.09
  -3  -2   2  284.75    8.51
  -3  -2   2  275.29   11.26
   3   2  -2  256.50    7.35
   3   2  -3  314.96    9.87
  -3  -2   3  318.76    8.13
   3   2  -3  326.17    8.62
  -3  -2   3  285.11    9.60
  -3  -2   3  302.78   11.52
   3   2  -4  316.41   11.05
   3   2  -4  298.07    9.19
  -3  -2   4  290.54   10.63
  -3  -2   4  297.76   11.34
   3   2  -4  312.27   11.12
  -3  -2   4  326.54    9.64
   3   2  -5  865.46   16.79
  -3  -2   5  902.96   16.41
   3   2  -5  824.35   17.64
  -3  -2   5  826.61   16.21
  -3  -2   5  944.46   15.93
   3   2  -6  602.25   16.14
  -3  -2   6  587.54   15.29
   3   2  -6  576.11   13.44
  -3  -2   6  634.96   15.49
   3   2  -7   90.44   11.58
  -3  -2   7   60.12   10.52
   3   2  -7   76.94    9.76
  -3  -2   7   94.64   10.34
   3   2  -8   51.01   12.49
   3   2  -8   38.53   10.64
  -3  -2   8   25.16   11.06
   3   2  -9  159.10   14.31
  -3  -2   9  134.58   14.06
   3   2  -9  154.45   13.05
   3   2 -10   31.83   13.73
  -3  -2  10    5.72   12.49
  -3  -2  10   36.57   13.17
   3   2 -10   22.88   12.46
   3   2 -11  140.85   16.49
  -3  -2  11  163.69   15.97
  -3  -2  11  178.72   16.39
   3   2 -11  200.37   16.02
   3   2 -12   86.46   16.11
  -3  -2  12   96.93   15.64
   3   2 -12   76.12   15.44
  -3  -2  12  121.09   16.23
   3   2 -13    7.55   15.56
  -3  -2  13   16.18   15.78
   3   2 -13   19.48   15.27
   3   2 -14   23.69   17.07
  -3  -2  14   28.68   18.44
   3   2 -14   11.29   16.36
   3   2 -15   50.88   18.64
   3   2 -15   31.79   17.34
   3   2 -16   22.48   19.67
   3   3  19   38.79   17.89
   3   3  18   39.67   16.64
   3   3  18   11.88   17.44
  -3  -3 -17   25.67   17.33
   3   3  17   52.36   15.95
   3   3  17    4.82   15.73
  -3  -3 -16  101.71   17.39
   3   3  16  128.73   15.67
   3   3  16  100.66   16.19
   3   3  15   50.69   13.67
   3   3  15   28.52   14.29
  -3  -3 -14   41.48   13.71
  -3  -3 -14   45.89   15.37
   3   3  14   37.92   12.57
   3   3  14   11.32   12.73
  -3  -3 -13   53.79   13.94
   3   3  13   82.05   12.13
   3   3  13   66.21   12.51
  -3  -3 -13   38.51   13.02
  -3  -3 -12   81.50   13.48
   3   3  12   74.60   11.56
   3   3  12   77.51   11.88
  -3  -3 -12   80.48   12.59
  -3  -3 -11   40.89   11.56
   3   3  11   31.36    9.62
   3   3  11   49.78   10.18
  -3  -3 -11   19.95   10.37
  -3  -3 -10   13.94    9.58
   3   3  10    9.91    8.39
  -3  -3 -10    2.06    9.28
  -3  -3  -9   -5.54    8.10
   3   3   9   13.64    7.84
   3   3   9    0.25    7.84
   3   3   9    7.53    6.50
  -3  -3  -9    2.52    8.15
  -3  -3  -8   50.19    8.05
   3   3   8   48.40    6.01
   3   3   8   66.71    7.60
  -3  -3  -8   48.42   11.97
   3   3   8   38.71    6.51
   3   3   8   41.73    7.27
  -3  -3  -8   49.84    7.82
  -3  -3  -7   71.07    6.35
   3   3   7   86.44    7.14
   3   3   7   82.78    5.67
  -3  -3  -7  100.63   11.62
   3   3   7   70.85    5.99
   3   3   7   85.38    6.96
  -3  -3  -7   84.81    7.49
  -3  -3  -6    0.84    3.39
  -3  -3  -6   -0.90    3.72
   3   3   6   18.40    5.40
   3   3   6    1.91    3.27
   3   3   6    2.65    3.55
  -3  -3  -6   -6.35    5.87
  -3  -3  -6   11.36    8.25
   3   3   6   -4.78    5.73
   3   3   5  173.44    6.44
  -3  -3  -5  173.95   11.46
  -3  -3  -5  185.95    7.17
  -3  -3  -5  169.79   10.41
  -3  -3  -4  269.85   12.01
  -3  -3  -4  286.40    7.27
  -3  -3  -3  321.46   11.74
  -3  -3  -3  321.25    7.58
  -3  -3  -3  300.76   11.68
  -3  -3  -2   13.65    7.20
  -3  -3  -2   -0.66    4.66
  -3  -3  -2    4.44    7.53
  -3  -3  -1   14.96    4.86
  -3  -3  -1   34.10    6.44
  -3  -3  -1   38.10    7.15
  -3  -3  -1   18.43    3.30
   3   3   0  101.01    3.59
   3   3   0   98.60    2.88
  -3  -3   0  144.32    6.65
  -3  -3   0  138.63    6.82
  -3  -3   0  125.90    9.21
   3   3  -1   65.13    6.65
  -3  -3   1   47.64    3.82
   3   3  -1   51.11    4.06
  -3  -3   1   46.53    6.03
  -3  -3   1   69.24    5.93
  -3  -3   1   59.73    8.32
   3   3  -1   48.87    4.81
   3   3  -2  354.43    9.94
   3   3  -2  331.00    8.08
  -3  -3   2  338.68    9.85
   3   3  -2  323.10    9.00
  -3  -3   2  341.12    8.14
   3   3  -3  639.97   13.11
   3   3  -3  656.98   12.31
  -3  -3   3  626.06   12.98
  -3  -3   3  596.87   15.41
  -3  -3   3  616.31   11.74
   3   3  -4  497.80   13.27
  -3  -3   4  448.16   12.89
  -3  -3   4  475.04   13.14
   3   3  -4  467.70   13.60
  -3  -3   4  421.40   13.41
  -3  -3   4  528.49   12.44
   3   3  -5  723.99   16.43
  -3  -3   5  726.00   15.97
  -3  -3   5  729.22   16.06
   3   3  -6    5.39   10.05
  -3  -3   6    7.18    8.38
  -3  -3   6    3.45    9.32
   3   3  -6   18.06    8.99
  -3  -3   6   -2.38    9.67
   3   3  -7   82.19   12.26
  -3  -3   7   66.45   11.09
  -3  -3   7   77.07   10.94
   3   3  -7   68.64   10.43
  -3  -3   7   88.56   11.24
   3   3  -8  192.78   14.23
  -3  -3   8  210.15   14.06
   3   3  -8  229.55   13.41
  -3  -3   8  202.96   14.63
   3   3  -9  288.15   16.30
  -3  -3   9  286.56   16.09
   3   3  -9  318.50   16.03
  -3  -3   9  317.84   16.83
   3   3 -10  180.77   16.21
   3   3 -10  200.37   15.86
   3   3 -11  -13.34   14.11
  -3  -3  11   10.20   14.32
   3   3 -11   27.45   14.00
   3   3 -12   55.88   15.92
  -3  -3  12   37.67   15.22
   3   3 -12   14.52   14.63
   3   3 -13   20.83   16.79
  -3  -3  13   34.97   16.35
   3   3 -13   42.68   15.99
   3   3 -14   24.31   17.50
  -3  -3  14   12.27   17.96
   3   3 -14    2.07   16.49
   3   3 -15    5.42   18.45
   3   4  19   31.18   18.05
   3   4  18   42.30   16.94
   3   4  18    6.17   17.33
   3   4  17   18.00   15.26
   3   4  17   59.01   16.72
  -3  -4 -16    3.08   15.49
   3   4  16   29.25   14.46
   3   4  16   23.94   15.01
  -3  -4 -15   48.97   15.20
   3   4  15   22.08   13.41
   3   4  15   46.73   14.60
  -3  -4 -14   37.35   14.06
   3   4  14   12.41   12.38
   3   4  14   19.97   12.68
  -3  -4 -13   38.61   12.89
  -3  -4 -13   38.14   14.12
   3   4  13   50.44   11.85
   3   4  13   40.10   12.57
  -3  -4 -12   16.88   12.90
   3   4  12   39.45   10.91
   3   4  12   37.97   11.16
  -3  -4 -12   24.08   11.56
  -3  -4 -11   38.71   11.56
   3   4  11   36.14   10.08
   3   4  11   56.25   10.29
  -3  -4 -11   57.74   11.37
  -3  -4 -10  818.84   19.12
   3   4  10  751.50   15.96
   3   4  10  794.69   16.68
  -3  -4 -10  753.76   17.26
  -3  -4  -9  274.87   12.37
   3   4   9  242.43    9.79
   3   4   9  234.91   10.47
   3   4   9  275.66   11.18
  -3  -4  -9  249.59   11.63
   3   4   8    5.39    6.65
  -3  -4  -8   15.03    7.70
   3   4   8    6.91    7.38
   3   4   8   21.33    7.59
   3   4   8   12.51    5.81
  -3  -4  -8   16.26    8.12
   3   4   7    5.01    5.65
  -3  -4  -7   -1.91    6.01
   3   4   7   30.59    7.31
  -3  -4  -7   38.01   10.36
   3   4   7    2.54    4.78
  -3  -4  -7    7.78    7.15
  -3  -4  -7   14.30   12.21
   3   4   7    9.86    7.10
  -3  -4  -6   55.16    5.57
   3   4   6   58.33    6.73
  -3  -4  -6   47.35   11.34
   3   4   6   40.82    4.93
  -3  -4  -6   52.04    7.59
  -3  -4  -6   78.50   10.04
   3   4   6   51.07    4.65
   3   4   6   65.24    7.09
  -3  -4  -5   15.24    3.96
   3   4   5   23.48    5.71
   3   4   5   18.54    3.66
  -3  -4  -5   12.98    9.66
  -3  -4  -5    6.31    6.50
  -3  -4  -5   22.33    8.44
   3   4   5   21.98    3.49
   3   4   5   29.45    6.60
   3   4   4  427.71    5.87
   3   4   4  414.30    8.60
   3   4   4  419.94    5.77
  -3  -4  -4  457.65   14.35
  -3  -4  -4  417.83    9.94
  -3  -4  -4  410.55   13.65
  -3  -4  -3  477.19   14.06
   3   4   3  478.95    9.48
   3   4   3  481.74    5.40
  -3  -4  -3  463.33   10.30
  -3  -4  -3  497.74   14.04
   3   4   2  251.52    4.43
   3   4   2  303.84    8.43
   3   4   2  212.19    3.96
  -3  -4  -2  314.71    8.83
  -3  -4  -2  236.46   11.47
  -3  -4  -2  309.39   11.21
   3   4   1  137.34    4.25
   3   4   1  106.57    4.85
  -3  -4  -1   73.07    3.86
   3   4   1  130.96    7.57
  -3  -4  -1  115.99    3.79
  -3  -4  -1  143.33    9.13
  -3  -4  -1  108.84    6.88
  -3  -4  -1  129.94    6.20
  -3  -4  -1   93.52    9.22
   3   4   0  453.61    9.20
   3   4   0  522.43    8.10
   3   4   0  547.20   11.18
  -3  -4   0  475.77    7.94
  -3  -4   0  502.08   10.68
  -3  -4   0  478.90   11.44
  -3  -4   0  548.54   10.53
  -3  -4   0  422.85   14.21
   3   4  -1   16.34    7.30
  -3  -4   1   15.44    5.01
   3   4  -1   12.56    4.47
  -3  -4   1   24.04    6.80
  -3  -4   1   14.67    6.32
   3   4  -1   19.98    5.51
   3   4  -2   35.89    8.19
  -3  -4   2   42.65    6.25
   3   4  -2   37.28    5.51
  -3  -4   2   34.29    7.87
  -3  -4   2   49.24    8.02
  -3  -4   2   54.58    8.29
   3   4  -2   24.53    6.58
   3   4  -3  134.52    9.65
  -3  -4   3  122.07    8.50
  -3  -4   3  131.90    9.43
  -3  -4   3  158.83    9.97
  -3  -4   3  129.96    9.40
   3   4  -4   12.25    8.98
  -3  -4   4   10.64    8.51
  -3  -4   4   23.69    8.30
   3   4  -5   16.97   10.04
  -3  -4   5    8.40    8.71
  -3  -4   5   -2.70    8.98
   3   4  -6  173.12   12.80
  -3  -4   6  187.56   12.48
   3   4  -6  147.74   11.55
  -3  -4   6  177.97   12.45
   3   4  -7  267.40   14.88
  -3  -4   7  270.06   14.80
   3   4  -7  293.51   14.19
   3   4  -8  131.04   14.37
   3   4  -8  152.82   13.78
   3   4  -9   15.47   13.25
  -3  -4   9   29.37   13.10
   3   4  -9   22.26   12.89
   3   4 -10    8.97   13.82
  -3  -4  10    7.69   13.40
   3   4 -10   34.69   13.78
   3   4 -11   94.46   16.70
  -3  -4  11  100.62   15.93
   3   4 -11  107.16   15.90
   3   4 -12   19.55   16.45
  -3  -4  12   30.91   16.19
   3   4 -12   13.19   15.04
   3   4 -13   64.30   17.67
  -3  -4  13   38.13   17.55
   3   4 -13   29.90   16.53
   3   4 -14   13.44   18.10
   3   4 -14   43.65   18.06
   3   4 -15   45.47   19.26
   3   5  18   42.11   17.16
   3   5  18  100.52   18.97
  -3  -5 -17   31.39   17.24
   3   5  17   42.01   15.78
   3   5  17   48.54   16.91
  -3  -5 -16   11.88   16.11
   3   5  16   27.38   14.68
   3   5  16   16.19   14.68
  -3  -5 -15   14.56   14.94
   3   5  15    6.15   13.26
   3   5  15   18.42   13.89
   3   5  14   54.60   12.95
   3   5  14   41.01   13.38
  -3  -5 -14   48.00   14.89
  -3  -5 -13   60.22   15.25
   3   5  13   64.83   12.51
   3   5  13   59.05   12.82
  -3  -5 -13   49.24   13.52
  -3  -5 -12  171.56   15.82
   3   5  12  173.29   12.97
   3   5  12  136.85   13.02
  -3  -5 -12  129.86   13.65
  -3  -5 -11   58.69   12.27
   3   5  11   71.76   11.18
   3   5  11   69.74   11.08
  -3  -5 -11   72.94   12.17
  -3  -5 -10   20.28   10.32
   3   5  10   17.07    9.41
   3   5  10   18.00    9.44
  -3  -5 -10   16.93   10.22
  -3  -5  -9    8.29    9.39
   3   5   9    8.60    8.77
   3   5   9    3.04    6.23
  -3  -5  -9    4.48    9.34
   3   5   9   19.56    8.92
  -3  -5  -8   65.10    9.13
   3   5   8   53.30    8.86
   3   5   8   55.34    8.74
   3   5   8   67.15    6.45
  -3  -5  -8   56.43    9.03
  -3  -5  -7  700.64   14.30
   3   5   7  718.74   14.11
   3   5   7  679.66   11.80
   3   5   7  691.22   14.74
  -3  -5  -7  738.56   15.17
  -3  -5  -6 1429.19   16.96
   3   5   6 1370.09   17.43
  -3  -5  -6 1474.65   26.50
   3   5   6 1479.92   17.12
   3   5   6 1376.76   14.64
  -3  -5  -6 1455.46   19.21
  -3  -5  -5  537.51   10.58
   3   5   5  536.07   11.88
  -3  -5  -5  622.03   17.84
   3   5   5  578.27   10.30
   3   5   5  520.15    8.24
  -3  -5  -5  614.07   13.06
  -3  -5  -5  534.90   16.47
   3   5   5  680.48   13.61
  -3  -5  -4  269.40    7.70
   3   5   4  324.26    9.65
   3   5   4  290.61    7.82
  -3  -5  -4  334.04   11.22
  -3  -5  -4  305.84   13.39
   3   5   4  352.89   11.62
   3   5   4  295.19    6.82
   3   5   3  134.82    6.11
   3   5   3  158.87    8.81
   3   5   3  131.83    5.66
  -3  -5  -3  157.16    9.37
  -3  -5  -3  139.48   10.56
   3   5   3  170.00    9.88
  -3  -5  -3  146.56    6.24
   3   5   2    9.20    7.42
  -3  -5  -2    7.28    4.86
   3   5   2    6.63    4.78
   3   5   2    0.87    4.12
  -3  -5  -2   25.05    7.64
  -3  -5  -2    4.90    8.44
   3   5   1   73.72    6.32
   3   5   1  106.23    8.63
  -3  -5  -1  103.10    6.41
   3   5   1  110.77    5.89
  -3  -5  -1  122.61    8.49
  -3  -5  -1   64.16    9.19
   3   5   0  450.85   10.72
   3   5   0  638.37   13.53
  -3  -5   0  535.24   11.70
   3   5   0  579.29   11.15
  -3  -5   0  586.90   11.81
  -3  -5   0  513.30   15.31
  -3  -5   0  567.47   12.76
   3   5  -1  794.88   15.21
  -3  -5   1  801.82   14.62
   3   5  -1  914.04   14.30
  -3  -5   1  730.58   14.65
  -3  -5   1  828.16   14.21
  -3  -5   1  683.79   16.59
   3   5  -1  688.78   13.99
   3   5  -2   23.88    7.33
   3   5  -2   10.29    8.92
  -3  -5   2   43.72    7.52
  -3  -5   2   32.56    8.50
  -3  -5   2   55.77    8.47
  -3  -5   2    0.51    8.06
   3   5  -3   48.64    9.82
  -3  -5   3   88.12    9.07
  -3  -5   3   73.63    9.66
  -3  -5   3   82.44   10.23
  -3  -5   3   70.19    9.15
   3   5  -4   74.73   10.66
  -3  -5   4   87.47   10.12
  -3  -5   4   81.44   10.36
  -3  -5   4   78.08   10.81
   3   5  -5   80.52   11.48
   3   5  -5   89.53   10.78
  -3  -5   5   83.07   11.90
  -3  -5   5  104.48   11.55
   3   5  -6   99.20   13.04
  -3  -5   6   79.26   11.88
   3   5  -6   74.97   11.77
  -3  -5   6  116.70   12.85
   3   5  -7  121.75   13.97
  -3  -5   7  149.00   13.75
   3   5  -7  150.50   13.29
   3   5  -8   14.84   12.92
  -3  -5   8    8.58   12.50
   3   5  -8    6.33   12.35
   3   5  -9   12.88   14.02
  -3  -5   9    2.87   13.01
   3   5  -9   13.23   13.41
   3   5 -10  100.79   16.02
  -3  -5  10  115.45   15.30
   3   5 -10   91.82   15.15
   3   5 -11   35.18   15.80
  -3  -5  11   19.09   15.29
   3   5 -11   18.64   14.96
   3   5 -12   41.13   16.54
  -3  -5  12   26.86   17.15
   3   5 -12   60.40   16.57
   3   5 -13   81.35   18.97
  -3  -5  13   44.69   18.97
   3   5 -13  102.12   17.91
   3   5 -14  134.63   20.60
   3   6  18  103.61   18.15
   3   6  18   90.83   19.10
   3   6  17   68.63   16.60
   3   6  17   80.07   17.18
  -3  -6 -17   87.87   19.91
   3   6  16   51.88   15.64
   3   6  16   74.53   16.47
  -3  -6 -16  109.30   18.27
   3   6  15   22.89   14.14
   3   6  15   19.43   14.39
  -3  -6 -15   49.11   15.90
   3   6  14   56.08   13.66
   3   6  14   31.08   13.39
  -3  -6 -14   53.66   14.87
  -3  -6 -13    6.76   15.52
   3   6  13   35.27   12.80
   3   6  13   23.19   12.70
  -3  -6 -13   26.51   13.74
  -3  -6 -12   13.72   13.56
   3   6  12   31.26   11.83
   3   6  12   30.54   11.78
  -3  -6 -12   22.25   12.36
  -3  -6 -11   68.47   12.97
   3   6  11   45.35   11.57
   3   6  11   52.02   11.36
  -3  -6 -11   62.52   12.31
  -3  -6 -10   11.82   11.01
   3   6  10   13.52   10.33
   3   6  10   36.79   10.39
  -3  -6 -10   36.91   11.86
  -3  -6  -9   19.04   10.61
   3   6   9   24.23    9.52
  -3  -6  -9   24.63   10.22
   3   6   9   17.07    9.82
  -3  -6  -8  119.74   10.58
   3   6   8  115.02   10.16
   3   6   8  123.05   10.69
  -3  -6  -8  107.64   11.06
  -3  -6  -7  849.70   16.82
   3   6   7  843.20   14.54
  -3  -6  -7  810.27   17.52
  -3  -6  -6  534.35   13.28
   3   6   6  552.02   13.49
   3   6   6  571.40   12.21
   3   6   6  504.00   12.40
  -3  -6  -6  543.92   14.50
   3   6   6  582.31   14.45
  -3  -6  -5   70.09    7.76
   3   6   5   70.46    6.91
   3   6   5   64.41    8.28
   3   6   5   77.73    6.82
  -3  -6  -5   77.97    9.73
   3   6   5   81.34    9.93
  -3  -6  -4 1094.39   16.08
   3   6   4 1098.54   16.16
   3   6   4  979.09   17.17
   3   6   4 1067.85   15.04
  -3  -6  -4 1065.67   18.81
  -3  -6  -4  957.03   21.43
   3   6   4 1229.62   20.57
  -3  -6  -3 1312.90   17.11
   3   6   3 1273.65   17.20
   3   6   3 1247.66   19.28
   3   6   3 1259.91   16.15
  -3  -6  -3 1300.52   20.46
   3   6   2   84.32    7.10
   3   6   2  112.93   10.09
  -3  -6  -2  124.66    7.95
   3   6   2   98.67    6.52
  -3  -6  -2   97.53   10.34
   3   6   2  110.28   10.56
   3   6   1   18.71    8.91
  -3  -6  -1    3.34    6.74
   3   6   1   10.42    6.34
  -3  -6  -1    2.38    8.64
   3   6   1   24.05    5.61
  -3  -6  -1   22.08    9.22
   3   6   0  808.63   16.42
  -3  -6   0  785.33   14.85
  -3  -6   0  793.21   13.99
  -3  -6   0  778.64   17.83
   3   6  -1    3.99    7.54
   3   6  -1   14.10   10.27
  -3  -6   1    5.35    7.56
  -3  -6   1    4.18    8.55
  -3  -6   1   13.61    8.16
  -3  -6   1   23.49    9.05
   3   6  -2   53.76   10.43
  -3  -6   2   69.12    9.76
  -3  -6   2   80.78   10.08
  -3  -6   2   63.17    9.44
   3   6  -3    5.76   10.52
  -3  -6   3   13.07    9.25
  -3  -6   3   28.74    9.59
  -3  -6   3   15.45    9.58
   3   6  -4   69.41   12.27
  -3  -6   4   86.37   10.71
  -3  -6   4   75.10   11.34
  -3  -6   4   64.66   10.81
   3   6  -5  190.14   14.43
  -3  -6   5  171.31   13.66
   3   6  -5  158.13   13.07
  -3  -6   5  175.55   13.54
  -3  -6   5  211.00   13.80
   3   6  -6  225.57   15.53
  -3  -6   6  229.94   15.13
   3   6  -6  183.26   13.88
  -3  -6   6  211.81   15.11
   3   6  -7  149.26   15.34
  -3  -6   7  136.62   14.51
   3   6  -7  141.27   13.99
   3   6  -8   53.03   14.82
  -3  -6   8   44.35   14.09
   3   6  -8   30.48   12.80
   3   6  -9  330.30   19.30
  -3  -6   9  319.40   18.53
   3   6  -9  313.47   18.34
   3   6 -10   24.22   15.60
   3   6 -10   47.60   15.39
   3   6 -11   34.82   16.15
  -3  -6  11   40.46   17.13
   3   6 -11   30.59   16.31
   3   6 -12   38.18   17.07
  -3  -6  12   65.17   18.94
   3   6 -12   78.61   17.66
   3   6 -13  186.79   21.45
   3   6 -13  173.63   20.34
   3   6 -14    4.78   19.26
   3   7  18   33.17   17.42
   3   7  17   25.58   16.29
   3   7  17   67.55   17.55
   3   7  16  279.57   19.27
   3   7  16  324.44   20.36
  -3  -7 -16  313.23   22.00
   3   7  15   95.24   15.52
   3   7  15  123.68   16.72
  -3  -7 -15  104.64   17.89
   3   7  14    8.48   13.35
   3   7  14   -8.58   13.51
  -3  -7 -14   33.28   15.31
   3   7  13   33.62   13.04
   3   7  13   22.45   13.03
  -3  -7 -13   36.18   14.04
  -3  -7 -12   89.63   15.35
   3   7  12   77.31   13.44
   3   7  12   89.58   13.46
  -3  -7 -12   55.82   13.83
  -3  -7 -11   20.99   12.70
   3   7  11   30.09   11.55
  -3  -7 -11   24.49   12.83
   3   7  11   14.89   11.49
  -3  -7 -10   77.79   13.05
   3   7  10   81.63   12.53
   3   7  10  107.02   12.47
  -3  -7 -10   77.64   12.79
   3   7   9  122.48   12.10
  -3  -7  -9  156.94   13.91
   3   7   9  113.43   11.67
  -3  -7  -9  140.59   12.93
  -3  -7  -8   65.01   10.96
   3   7   8   78.61   10.62
  -3  -7  -8   80.77   11.66
   3   7   8   95.47   11.27
   3   7   7   12.72    9.34
  -3  -7  -7    8.50    9.19
  -3  -7  -7   17.02   10.64
   3   7   7   15.85    9.62
  -3  -7  -6  224.91   11.63
   3   7   6  214.88   10.82
  -3  -7  -6  234.32   12.82
   3   7   6  223.16   12.96
  -3  -7  -5  583.05   14.78
   3   7   5  569.28   14.55
   3   7   5  541.59   14.93
  -3  -7  -5  544.01   15.97
   3   7   5  603.75   17.05
  -3  -7  -4    4.36    8.03
   3   7   4    6.83    7.11
  -3  -7  -4   -2.66   10.12
   3   7   4   -8.88   10.86
  -3  -7  -3   96.98    9.24
   3   7   3   66.85    8.14
   3   7   3   77.93   10.65
  -3  -7  -3   86.21   11.50
   3   7   3   82.60   12.23
  -3  -7  -2  107.67    9.43
   3   7   2   83.91    8.92
   3   7   2  110.86   11.21
  -3  -7  -2  109.23   11.95
   3   7   2  120.50   12.36
   3   7   1   53.38    8.29
   3   7   1   47.65   10.77
  -3  -7  -1   57.20    8.94
  -3  -7  -1   39.80   10.66
  -3  -7  -1   60.51   11.08
   3   7   1   77.29   11.69
   3   7   0   65.55   11.36
  -3  -7   0   77.39    9.51
  -3  -7   0   67.23   10.54
  -3  -7   0   90.81   11.28
   3   7  -1  525.92   16.62
  -3  -7   1  544.92   15.50
  -3  -7   1  514.50   15.78
  -3  -7   1  452.41   13.97
  -3  -7   1  439.44   15.63
   3   7  -2   37.28   11.86
  -3  -7   2   49.67    9.95
  -3  -7   2   52.95   10.62
  -3  -7   3   59.69   10.75
   3   7  -3   60.30   12.59
  -3  -7   3   56.05   11.58
  -3  -7   3   46.30   10.68
  -3  -7   4   40.61   11.51
   3   7  -4   65.50   13.38
  -3  -7   4   63.35   12.05
  -3  -7   4   83.32   12.31
   3   7  -5   53.44   13.94
  -3  -7   5   74.23   13.00
   3   7  -5   66.15   12.38
  -3  -7   5   94.33   13.15
   3   7  -6   26.39   14.08
  -3  -7   6   41.04   12.97
   3   7  -6   27.47   12.76
  -3  -7   6   13.96   12.79
   3   7  -7  103.41   15.59
  -3  -7   7  112.23   15.08
   3   7  -7  142.86   15.31
  -3  -7   7  130.86   15.54
   3   7  -8  190.54   17.58
  -3  -7   8  220.26   17.55
   3   7  -8  216.10   17.17
   3   7  -9   29.50   16.21
  -3  -7   9   19.69   14.90
   3   7  -9   54.64   15.46
   3   7 -10   10.88   15.70
  -3  -7  10   26.08   16.33
   3   7 -10   12.75   16.09
   3   7 -11  103.87   18.43
  -3  -7  11  115.32   19.11
   3   7 -11  111.25   18.33
   3   7 -12   32.40   18.45
   3   7 -12   13.63   17.60
   3   7 -13   92.55   20.51
   3   8  17  134.25   18.65
   3   8  17   92.96   18.70
   3   8  16   52.93   16.06
   3   8  16   72.34   17.04
  -3  -8 -16   95.73   19.09
   3   8  15   38.53   15.53
   3   8  15    2.10   14.91
  -3  -8 -15   39.65   17.54
   3   8  14   19.99   13.97
   3   8  14   15.94   14.45
  -3  -8 -14   17.60   15.49
   3   8  13    5.37   13.40
   3   8  13   -7.47   13.39
  -3  -8 -13    6.50   14.78
  -3  -8 -12   29.33   15.12
   3   8  12   50.00   13.17
   3   8  12   61.51   13.66
  -3  -8 -12   33.24   14.44
  -3  -8 -11  124.86   15.62
   3   8  11  122.03   13.99
   3   8  11   71.45   13.09
  -3  -8 -11   76.50   14.64
  -3  -8 -10  190.13   15.85
   3   8  10  183.58   14.11
   3   8  10  174.56   14.16
  -3  -8 -10  189.67   15.02
  -3  -8  -9  362.04   18.14
   3   8   9  296.73   15.51
   3   8   9  371.13   16.01
  -3  -8  -9  304.55   16.12
  -3  -8  -8   21.53   11.09
   3   8   8   13.18   10.96
  -3  -8  -8   22.05   12.29
   3   8   8   29.20   11.31
  -3  -8  -7   36.06   10.65
   3   8   7   34.50   10.91
  -3  -8  -7   36.00   12.09
   3   8   7   45.89   11.65
  -3  -8  -6   65.20   10.69
   3   8   6   75.47   11.50
  -3  -8  -6   88.11   12.42
   3   8   6  109.27   12.35
  -3  -8  -5  402.18   14.87
   3   8   5  432.10   15.14
  -3  -8  -5  426.71   16.41
   3   8   5  447.30   17.24
   3   8   4   -1.19   10.40
  -3  -8  -4   17.57    9.23
   3   8   4    4.69   11.96
  -3  -8  -3  156.44   11.37
   3   8   3  158.24   13.23
  -3  -8  -3  142.69   13.53
   3   8   3  193.09   14.90
  -3  -8  -2  241.81   12.75
   3   8   2  230.89   14.24
  -3  -8  -2  246.90   15.21
   3   8   2  280.68   16.24
   3   8   1  185.68   13.70
  -3  -8  -1  161.85   11.80
  -3  -8  -1  194.78   14.12
   3   8   1  184.78   14.52
   3   8   0   35.20   12.01
  -3  -8   0   26.22    9.90
  -3  -8   0   22.28   11.41
   3   8   0   32.92   13.20
  -3  -8   1    5.90   10.20
   3   8  -1   11.66   12.28
  -3  -8   1   11.73   11.57
  -3  -8   1   12.13    9.16
   3   8  -1   38.03   13.49
  -3  -8   2  477.98   17.05
   3   8  -2  455.01   18.17
  -3  -8   2  470.22   17.36
  -3  -8   2  429.10   15.95
  -3  -8   3  549.18   18.51
   3   8  -3  527.86   19.40
  -3  -8   3  522.36   18.50
  -3  -8   3  484.45   16.91
   3   8  -4  243.47   16.77
   3   8  -4  240.97   15.25
  -3  -8   4  273.20   16.30
  -3  -8   4  258.92   15.72
   3   8  -5  111.15   15.63
  -3  -8   5  106.67   14.35
   3   8  -5  126.29   15.10
  -3  -8   5   93.24   13.87
   3   8  -6   11.98   14.20
  -3  -8   6    7.12   13.71
   3   8  -6   18.95   13.35
  -3  -8   6   36.69   13.83
   3   8  -7  113.14   17.10
  -3  -8   7  147.08   15.70
   3   8  -7  120.62   15.96
  -3  -8   7  147.03   16.72
   3   8  -8   90.61   17.39
  -3  -8   8  122.49   16.61
   3   8  -8  136.76   17.01
   3   8  -9   44.86   16.72
  -3  -8   9   47.56   16.88
   3   8  -9   53.01   16.11
   3   8 -10   18.30   17.58
  -3  -8  10    1.52   17.02
   3   8 -10   15.45   16.61
   3   8 -11  127.36   19.66
   3   8 -11  134.96   19.67
   3   8 -12  114.25   21.46
   3   9  17   55.62   18.05
   3   9  16   25.05   16.48
   3   9  16   30.32   17.31
   3   9  15   40.76   15.93
   3   9  15   45.05   16.68
  -3  -9 -15   52.35   17.84
   3   9  14   56.41   15.10
   3   9  14   29.60   15.08
  -3  -9 -14   43.59   16.57
   3   9  13   43.70   14.77
   3   9  13   44.67   15.09
  -3  -9 -13   48.13   15.93
   3   9  12  331.24   17.91
   3   9  12  309.22   17.82
  -3  -9 -12  303.26   19.11
  -3  -9 -11   26.96   14.97
   3   9  11   66.81   14.01
   3   9  11   50.32   13.53
  -3  -9 -11   35.64   14.31
  -3  -9 -10   45.38   14.52
   3   9  10   36.80   13.30
  -3  -9 -10   45.87   14.36
   3   9  10   40.06   13.29
  -3  -9  -9   72.44   14.79
   3   9   9  100.03   13.14
   3   9   9   48.01   13.17
  -3  -9  -9   76.86   14.71
   3   9   8   30.99   12.19
  -3  -9  -8   -2.71   11.98
  -3  -9  -8   13.00   13.50
   3   9   8    4.99   12.17
   3   9   7   33.81   11.54
  -3  -9  -7    1.81   11.30
  -3  -9  -7   30.30   13.22
   3   9   7   13.01   12.25
  -3  -9  -6  100.75   12.29
   3   9   6   72.63   12.38
  -3  -9  -6   76.95   13.44
   3   9   6  100.70   13.21
  -3  -9  -5  187.00   13.37
   3   9   5  156.85   13.70
  -3  -9  -5  151.89   14.92
   3   9   5  201.98   15.92
  -3  -9  -4   27.85   10.90
   3   9   4   36.18   12.37
  -3  -9  -4   67.10   13.83
   3   9   4   47.07   14.03
  -3  -9  -3   70.09   11.60
   3   9   3   90.13   13.53
  -3  -9  -3   71.37   14.18
  -3  -9  -2  113.96   12.48
   3   9   2   75.08   13.55
  -3  -9  -2   75.55   14.88
   3   9   2  105.05   15.31
   3   9   1  175.85   14.81
  -3  -9  -1  150.25   15.21
   3   9   1  161.70   16.40
  -3  -9   0   54.13   11.89
   3   9   0   41.30   13.53
  -3  -9   0   46.99   14.27
   3   9   0   54.75   14.99
  -3  -9   1  724.61   20.83
   3   9  -1  699.89   21.55
  -3  -9   1  691.24   21.37
   3   9  -1  708.85   23.50
  -3  -9   2  229.57   15.60
   3   9  -2  194.80   16.29
  -3  -9   2  183.84   15.94
  -3  -9   2  165.50   13.13
   3   9  -2  241.83   18.27
   3   9  -3   50.75   15.04
  -3  -9   3   56.23   14.28
   3   9  -3   50.97   13.45
  -3  -9   3   77.68   12.81
   3   9  -4   34.49   15.10
  -3  -9   4   20.26   13.64
  -3  -9   4   46.13   13.62
   3   9  -4   22.27   13.65
   3   9  -5   47.35   15.75
  -3  -9   5   16.91   14.31
   3   9  -5   24.12   14.04
  -3  -9   5   12.32   13.47
   3   9  -6  214.69   18.55
  -3  -9   6  222.20   17.86
   3   9  -6  154.11   16.73
  -3  -9   6  204.24   17.41
   3   9  -7  307.42   20.44
  -3  -9   7  273.09   18.89
   3   9  -7  311.15   19.72
  -3  -9   7  274.90   19.45
   3   9  -8  232.68   20.35
  -3  -9   8  244.24   19.50
   3   9  -8  256.93   19.50
  -3  -9   8  228.66   19.61
   3   9  -9   90.05   19.03
  -3  -9   9  139.21   19.24
   3   9  -9   97.71   18.16
   3   9 -10   28.06   18.48
  -3  -9  10   16.51   19.02
   3   9 -10   36.77   18.21
   3   9 -11   30.25   20.01
   3  10  16   60.51   17.82
   3  10  16   17.59   17.76
   3  10  15   77.07   17.60
   3  10  15   23.65   16.61
   3  10  14   47.14   15.67
  -3 -10 -14   68.92   17.83
   3  10  14    9.60   15.55
   3  10  13   23.33   14.99
   3  10  13    4.79   14.92
  -3 -10 -13    6.23   16.41
   3  10  12   -1.34   14.35
  -3 -10 -12   21.84   15.92
   3  10  12   20.01   14.64
   3  10  11  112.81   16.23
   3  10  11   93.86   15.82
  -3 -10 -11  103.03   16.15
   3  10  10   44.56   13.97
  -3 -10 -10   37.76   15.22
   3  10  10   16.99   13.68
   3  10   9   47.55   13.24
  -3 -10  -9   30.87   15.27
  -3 -10  -9   28.51   14.75
   3  10   9   38.65   14.22
   3  10   8   46.36   12.99
  -3 -10  -8    0.35   13.58
  -3 -10  -8   15.39   14.43
  -3 -10  -7   89.61   14.24
   3  10   7   63.60   13.33
  -3 -10  -7   82.34   14.94
   3  10   7   84.21   14.50
  -3 -10  -6   80.69   13.25
   3  10   6   84.01   13.33
  -3 -10  -6  100.64   15.28
   3  10   6   82.41   14.79
  -3 -10  -5   22.09   12.35
   3  10   5   28.86   12.93
  -3 -10  -5   31.14   14.24
   3  10   5   45.11   14.32
  -3 -10  -4  109.58   13.29
  -3 -10  -4  143.39   16.32
   3  10   4  116.05   16.24
   3  10   3   75.57   14.15
  -3 -10  -3   53.25   12.32
  -3 -10  -3   36.01   14.62
   3  10   3   62.83   16.02
   3  10   2   79.60   14.51
  -3 -10  -2   47.72   12.55
  -3 -10  -2   65.36   15.55
   3  10   2   89.02   16.89
   3  10   1   67.52   14.91
  -3 -10  -1   48.48   12.33
  -3 -10  -1   33.99   14.97
   3  10   1   39.91   15.81
  -3 -10   0   85.59   13.79
   3  10   0   95.42   15.26
  -3 -10   0   96.86   16.11
   3  10   0   78.16   17.01
   3  10  -1   52.91   14.75
  -3 -10   1   50.32   15.56
   3  10  -1   93.38   17.42
   3  10  -2   96.65   15.97
   3  10  -2  117.08   14.83
   3  10  -2   59.20   17.37
  -3 -10   2   89.57   16.12
   3  10  -3   30.60   15.42
  -3 -10   3   32.57   15.37
  -3 -10   3   40.75   13.23
   3  10  -3   31.64   14.58
   3  10  -3    9.52   16.27
   3  10  -4   32.46   15.70
   3  10  -4   29.21   14.84
  -3 -10   4   50.43   15.38
  -3 -10   4   60.57   14.50
   3  10  -4   43.93   18.41
   3  10  -5   90.55   17.72
  -3 -10   5   97.53   17.04
  -3 -10   5   98.81   15.69
   3  10  -5   72.88   19.42
   3  10  -5  101.34   16.62
   3  10  -6  101.12   18.20
  -3 -10   6  153.79   17.75
   3  10  -6  150.32   18.05
  -3 -10   6  117.03   16.93
   3  10  -7   63.70   17.79
  -3 -10   7   57.77   17.35
  -3 -10   7   38.69   17.02
  -3 -10   8   39.72   18.07
   3  10  -8   52.42   17.88
   3  10  -9   70.30   19.73
   3  10  -9   27.46   18.31
   3  10 -10  176.84   22.31
   3  11  16    8.95   17.66
   3  11  15   29.97   17.39
   3  11  15   59.81   18.17
   3  11  14   82.26   17.55
   3  11  14   73.93   17.75
   3  11  13   38.35   15.99
  -3 -11 -13   33.91   17.54
   3  11  13   17.98   15.89
   3  11  12   -1.78   15.41
  -3 -11 -12   17.17   16.79
   3  11  12   16.21   15.36
   3  11  11   14.08   14.47
  -3 -11 -11   34.75   16.18
   3  11  11    7.00   15.08
   3  11  10   11.53   14.40
  -3 -11 -10   16.79   15.49
   3  11  10   17.14   14.92
   3  11   9   37.42   14.61
  -3 -11  -9   38.23   15.95
   3  11   9    8.14   14.79
   3  11   8  381.43   18.95
   3  11   8  369.45   19.45
  -3 -11  -8  323.25   19.90
   3  11   7  397.96   18.83
   3  11   7  400.45   20.06
  -3 -11  -7  338.94   19.54
   3  11   6   63.20   14.19
  -3 -11  -6   12.62   14.98
   3  11   6   36.19   15.02
  -3 -11  -5  110.49   15.23
   3  11   5  127.24   15.03
  -3 -11  -5   71.63   15.89
   3  11   5  126.53   16.71
   3  11   4   17.28   14.71
  -3 -11  -4   28.23   15.69
   3  11   4   41.52   16.45
   3  11   3   93.66   16.39
  -3 -11  -3   91.57   16.91
   3  11   3  129.73   18.27
   3  11   2  141.84   17.43
  -3 -11  -2  159.31   18.44
   3  11   2  173.42   20.12
   3  11   1  421.29   20.71
  -3 -11  -1  458.43   22.24
   3  11   1  456.77   22.96
   3  11   0   96.99   16.51
  -3 -11   0  118.99   17.66
   3  11   0   67.80   18.03
   3  11  -1   37.97   16.22
  -3 -11   1    8.49   16.94
   3  11  -1   35.88   15.01
   3  11  -1   15.76   17.86
   3  11  -2   17.35   16.01
  -3 -11   2   30.09   17.31
   3  11  -2   22.58   15.30
   3  11  -2   50.55   18.34
   3  11  -3   29.90   17.10
   3  11  -3   18.41   15.52
  -3 -11   3   31.68   17.11
   3  11  -3   14.32   18.42
   3  11  -4   30.62   16.88
  -3 -11   4   81.04   17.81
   3  11  -4   49.11   16.41
   3  11  -4   55.83   19.22
   3  11  -5   87.15   18.19
  -3 -11   5   70.87   18.41
   3  11  -5   72.37   17.04
  -3 -11   5   75.77   16.47
   3  11  -5   59.23   19.93
   3  11  -6   43.21   18.00
  -3 -11   6   54.03   17.88
   3  11  -6   15.01   16.71
   3  11  -6   17.91   19.39
   3  11  -7   53.70   18.99
  -3 -11   7   34.78   18.73
   3  11  -7   11.34   17.19
   3  11  -7    2.82   20.30
   3  11  -8   60.44   19.85
   3  11  -8    9.73   17.35
   3  11  -8   23.02   21.61
   3  11  -9   66.19   20.51
   3  11  -9   64.21   22.86
   3  12  15   22.15   18.36
   3  12  14   38.23   17.70
   3  12  14  -16.47   17.69
   3  12  13   38.77   17.39
   3  12  13   91.95   18.85
   3  12  12   37.51   16.72
  -3 -12 -12   54.01   18.07
   3  12  12   34.28   16.46
   3  12  11  100.24   17.64
   3  12  11   75.70   16.86
  -3 -12 -11   58.97   18.27
   3  12  10   22.62   15.07
  -3 -12 -10   30.90   17.08
   3  12  10   30.92   16.52
   3  12   9    0.71   15.18
  -3 -12  -9   30.64   17.64
   3  12   9    3.59   15.78
   3  12   8   43.08   15.15
  -3 -12  -8   43.17   17.35
   3  12   8   17.76   15.09
   3  12   7    9.44   14.56
   3  12   7   60.51   16.18
  -3 -12  -7   33.20   16.84
   3  12   6   11.25   14.25
  -3 -12  -6   29.06   16.18
   3  12   6   32.94   16.10
   3  12   5   94.35   16.27
  -3 -12  -5   32.08   16.75
   3  12   5   73.69   19.18
   3  12   4  553.35   24.49
  -3 -12  -4  601.38   24.90
   3  12   3  668.92   23.94
  -3 -12  -3  613.56   25.17
   3  12   2   -8.89   15.86
  -3 -12  -2  -11.19   17.19
   3  12   2   37.70   18.18
   3  12   1    2.58   16.21
  -3 -12  -1    9.16   16.95
   3  12   1   32.29   15.29
   3  12   1   25.61   18.72
   3  12   0   64.26   17.49
   3  12   0   66.85   17.27
  -3 -12   0  125.33   19.27
   3  12   0   58.52   20.07
   3  12  -1  126.36   18.46
   3  12  -1  132.39   18.10
  -3 -12   1  182.49   20.93
   3  12  -1  114.26   21.10
   3  12  -2   87.75   18.00
   3  12  -2  100.07   17.50
  -3 -12   2  125.93   20.36
   3  12  -2  127.93   21.40
   3  12  -3   12.21   17.00
  -3 -12   3   70.43   19.09
   3  12  -3   11.32   16.47
   3  12  -3   41.56   20.18
   3  12  -4   62.14   18.38
  -3 -12   4   69.17   19.80
   3  12  -4   87.75   18.37
   3  12  -4   69.79   21.02
   3  12  -5    7.78   17.47
  -3 -12   5   45.12   20.22
   3  12  -5   35.68   17.72
   3  12  -5   26.43   20.39
   3  12  -6    5.86   18.52
   3  12  -6   32.58   18.01
   3  12  -6    3.59   20.39
   3  12  -7   50.29   19.89
   3  12  -7   45.55   19.40
   3  12  -7   -0.16   21.57
   3  12  -8   34.10   20.21
   3  13  13   42.01   18.13
   3  13  13   20.27   17.75
   3  13  12  192.29   20.16
   3  13  12  168.91   20.05
   3  13  11   47.80   17.41
   3  13  11   81.57   18.65
  -3 -13 -11   65.49   20.21
   3  13  10    0.47   16.29
  -3 -13 -10   44.95   18.56
   3  13  10   -4.37   16.98
   3  13   9   33.54   16.35
  -3 -13  -9    5.86   18.30
   3  13   9   49.64   17.53
   3  13   8   82.57   16.95
  -3 -13  -8   94.33   19.39
   3  13   8   53.45   17.28
  -3 -13  -7   -2.38   17.18
   3  13   7  -23.99   16.42
   3  13   6    6.32   15.01
  -3 -13  -6   36.63   17.47
   3  13   6   -6.89   16.79
   3  13   5   43.65   16.27
  -3 -13  -5   62.60   18.61
   3  13   5   71.74   18.55
   3  13   4  185.44   18.78
  -3 -13  -4  171.99   19.91
   3  13   4  152.86   20.18
   3  13   3   22.42   16.94
   3  13   3   32.73   17.46
  -3 -13  -3   -8.38   18.01
   3  13   3   -8.30   18.13
   3  13   2   94.44   18.85
   3  13   2   84.49   19.17
  -3 -13  -2  101.92   20.43
   3  13   2  122.05   22.01
   3  13   1  267.45   21.30
   3  13   1  264.70   20.66
   3  13   1  321.01   24.73
   3  13   0   57.47   18.30
   3  13   0   82.82   18.27
  -3 -13   0   92.83   20.33
   3  13   0   67.19   21.21
   3  13  -1   56.05   18.53
   3  13  -1  117.00   18.72
  -3 -13   1  110.40   20.78
   3  13  -1   72.38   21.75
   3  13  -2   22.31   18.31
   3  13  -2   37.28   17.59
  -3 -13   2   32.23   20.17
   3  13  -2   37.69   21.20
   3  13  -3  131.88   19.69
   3  13  -3  119.21   19.49
  -3 -13   3  105.77   21.37
   3  13  -3   98.07   22.29
   3  13  -4   15.47   18.86
   3  13  -4   55.43   18.75
  -3 -13   4   63.05   22.48
   3  13  -4   53.75   22.03
   3  13  -5  128.66   21.30
   3  13  -5   98.83   20.06
   3  13  -5  109.52   23.80
   3  13  -6   56.25   20.92
   3  13  -6   18.42   22.53
   3  14  12   50.30   19.15
   3  14  11   25.59   17.85
   3  14  11   -2.18   18.04
   3  14  10   45.16   18.23
   3  14  10   86.21   19.36
   3  14   9   24.36   17.32
   3  14   9   71.08   19.23
   3  14   8   10.28   17.14
  -3 -14  -8   15.50   19.70
   3  14   8   21.55   18.28
   3  14   7   38.17   17.03
  -3 -14  -7   52.32   19.42
   3  14   7   58.25   19.02
   3  14   6  104.59   18.11
  -3 -14  -6  172.39   21.36
   3  14   6  151.30   20.63
   3  14   5  108.93   22.33
  -3 -14  -5  153.81   21.15
   3  14   5   84.39   19.54
   3  14   4   65.23   18.10
   3  14   4   84.72   21.17
  -3 -14  -4   72.13   20.24
   3  14   4   49.05   19.02
   3  14   3   48.97   18.02
   3  14   3    3.72   18.81
  -3 -14  -3   23.18   19.33
   3  14   3   48.84   19.24
   3  14   2   48.75   18.69
   3  14   2   41.01   19.38
  -3 -14  -2   16.19   19.58
   3  14   2   48.76   20.65
   3  14   1   65.60   19.10
  -3 -14  -1   68.94   20.62
   3  14   1   52.50   20.76
   3  14   0    5.51   18.68
   3  14   0   46.49   18.56
  -3 -14   0   65.44   20.70
   3  14   0   22.77   21.54
   3  14  -1   83.53   21.15
   3  14  -1   83.91   19.74
  -3 -14   1   82.34   22.73
   3  14  -1   95.33   22.88
   3  14  -2   31.62   19.38
   3  14  -2   28.16   19.04
   3  14  -2   49.52   23.30
   3  14  -3  152.66   22.11
   3  14  -3  131.98   20.82
   3  14  -3  153.73   25.19
   3  14  -4   83.20   21.55
   3  14  -4   63.58   24.12
   3  14  -5   24.98   20.99
   3  15  10    4.17   19.11
   3  15   9   58.44   19.29
   3  15   8  100.24   19.19
   3  15   8  101.40   20.66
   3  15   7   79.25   18.88
   3  15   7   36.14   21.02
   3  15   7   76.10   20.54
   3  15   6   22.38   17.97
   3  15   6   34.71   22.62
   3  15   6   17.11   18.97
   3  15   5   91.27   19.08
   3  15   5   50.62   22.45
   3  15   5  116.46   20.62
   3  15   4   59.42   18.87
   3  15   4   82.26   22.80
   3  15   4   50.33   20.77
   3  15   3   55.69   19.54
   3  15   3   26.81   22.41
   3  15   3   11.03   20.15
   3  15   2  124.52   20.82
   3  15   2   89.75   22.71
   3  15   1   12.25   19.27
   3  15   1   40.28   21.28
   3  15   1   47.16   22.05
   3  15   0   47.74   20.77
   3  15   0   48.19   22.64
   3  15  -1   65.58   21.39
   3  15  -1   73.96   24.32
   3  15  -2   38.77   21.84
   3  16   5   73.08   19.31
   3  16   4    4.74   19.12
   4 -15   2   73.99   24.93
   4 -15   1  109.34   30.88
   4 -15   0    4.60   26.90
   4 -15  -1   28.20   22.93
   4 -15  -2   42.27   23.36
   4 -15  -3   80.63   24.25
   4 -15  -3    4.07   24.60
   4 -15  -4   98.87   24.03
   4 -14   5  205.07   23.86
   4 -14   4   94.47   21.96
   4 -14   3  -30.00   20.62
   4 -14   2  157.03   25.52
   4 -14   1   21.92   21.48
   4 -14   0   -8.89   22.92
   4 -14  -1   62.27   23.24
   4 -14  -2   12.79   21.96
   4 -14  -3   82.01   21.30
   4 -14  -4   77.21   21.87
   4 -14  -4   14.94   22.99
   4 -14  -5   63.37   23.29
   4 -14  -6   69.44   23.69
   4 -14  -7  134.85   24.68
   4 -14  -8   42.82   23.23
   4 -13   8   18.98   19.47
   4 -13   7  417.58   26.67
   4 -13   6  143.15   21.78
   4 -13   5  -14.18   18.05
   4 -13   4   79.06   19.58
  -4  13  -4   65.79   19.17
   4 -13   3  127.59   21.33
  -4  13  -3   90.75   20.73
   4 -13   2   59.84   21.24
  -4  13  -2   90.09   20.69
   4 -13   1  -10.55   20.43
  -4  13  -1   27.98   19.97
   4 -13   0  -27.71   21.11
  -4  13   0    4.38   20.14
   4 -13  -1   21.94   20.84
  -4  13   1   64.63   19.58
   4 -13  -2  -11.83   19.32
  -4  13   2   24.39   18.71
   4 -13  -3  -25.25   19.18
  -4  13   3   10.76   18.54
   4 -13  -4   50.66   20.61
  -4  13   4   46.18   18.85
   4 -13  -5   42.00   17.11
  -4  13   5  100.17   20.87
   4 -13  -5   50.37   22.03
   4 -13  -6  245.73   21.09
  -4  13   6  319.04   25.82
   4 -13  -6  309.65   26.33
   4 -13  -7  -18.91   17.03
   4 -13  -7   47.75   21.99
   4 -13  -8  166.38   23.61
   4 -13  -9   76.21   22.71
   4 -12   9   54.02   19.31
   4 -12   8   14.03   17.55
   4 -12   8   49.25   16.33
   4 -12   7   79.60   18.75
   4 -12   7   66.69   16.50
   4 -12   6  106.31   18.79
  -4  12  -6  146.30   18.57
   4 -12   5   67.43   17.04
  -4  12  -5   -8.55   16.11
   4 -12   4  112.81   18.78
  -4  12  -4   80.50   17.74
   4 -12   3   97.31   19.38
  -4  12  -3   87.73   18.05
   4 -12   2   37.45   18.40
  -4  12  -2   64.01   17.89
   4 -12   1   55.15   19.92
  -4  12  -1   58.74   18.96
   4 -12   1   17.76   20.06
   4 -12   0    0.48   18.22
  -4  12   0   40.83   17.37
  -4  12   1  131.34   20.62
   4 -12  -1  127.97   20.37
   4 -12  -2  -31.10   18.57
   4 -12  -2   -1.32   16.83
  -4  12   2   13.46   17.49
   4 -12  -3  141.36   21.37
   4 -12  -3  186.06   20.28
  -4  12   3  127.64   20.48
   4 -12  -4  240.65   24.15
   4 -12  -4  187.31   24.28
  -4  12   5   24.64   17.90
   4 -12  -5   33.15   19.45
   4 -12  -6  145.02   18.00
  -4  12   6  115.15   19.73
   4 -12  -6  129.96   21.27
   4 -12  -7  221.09   19.76
  -4  12   7  221.48   22.04
   4 -12  -8   93.61   18.16
   4 -12  -8   75.58   21.39
  -4  12   8  118.32   20.45
   4 -12  -9   72.24   18.09
   4 -12  -9   86.64   22.04
   4 -12 -10   57.49   21.53
   4 -12 -11    9.24   20.76
   4 -11  11   48.83   19.11
   4 -11  10   86.49   18.68
   4 -11   9  137.25   19.34
   4 -11   9  142.91   17.25
   4 -11   8    0.38   16.82
  -4  11  -8   32.55   16.44
   4 -11   7   39.44   17.04
  -4  11  -7   27.52   15.91
   4 -11   7   33.13   14.38
   4 -11   6   48.07   16.61
  -4  11  -6   20.65   14.58
   4 -11   6   51.99   18.50
   4 -11   5   43.36   16.17
  -4  11  -5   58.52   14.74
   4 -11   5   77.26   19.58
   4 -11   5   57.22   14.59
  -4  11  -4    9.87   14.72
   4 -11   4   36.84   19.23
  -4  11  -3   67.89   15.68
   4 -11   3    0.06   17.86
   4 -11   2   67.81   17.42
  -4  11  -2   80.40   16.96
  -4  11  -1   91.13   17.53
   4 -11   1   72.64   19.34
  -4  11   0   -6.27   22.80
   4 -11   0  313.89   23.98
   4 -11  -1   41.97   17.78
  -4  11   1   -3.42   16.43
   4 -11  -1   26.40   15.73
   4 -11  -2   71.58   19.78
  -4  11   2   68.94   17.67
   4 -11  -3   43.77   17.93
   4 -11  -3   35.69   15.51
  -4  11   3   -9.07   16.04
  -4  11   4   88.15   18.25
   4 -11  -4   82.29   19.84
   4 -11  -4  126.32   17.93
   4 -11  -4  144.86   20.68
   4 -11  -5   87.29   16.73
  -4  11   5   41.16   17.01
   4 -11  -5   79.30   19.29
   4 -11  -6   63.35   15.76
   4 -11  -6   83.94   16.85
  -4  11   6   66.59   17.36
   4 -11  -6   48.00   19.42
   4 -11  -7  137.36   17.69
  -4  11   7  131.57   18.57
   4 -11  -7  133.58   20.52
   4 -11  -8   37.10   16.21
  -4  11   8   17.37   17.80
   4 -11  -8   23.50   19.19
   4 -11  -9   45.20   19.18
  -4  11   9  -12.03   17.49
   4 -11  -9   34.42   17.21
   4 -11 -10   27.02   19.53
   4 -11 -10   28.05   17.21
   4 -11 -11   43.07   20.04
   4 -11 -12  168.06   23.27
   4 -10  12  103.81   19.15
   4 -10  11   79.99   18.46
   4 -10  11   66.01   16.38
   4 -10  11   33.48   16.28
  -4  10 -10   83.84   18.29
   4 -10  10   50.49   17.11
   4 -10  10   49.61   15.71
   4 -10  10   78.86   16.24
   4 -10   9   13.27   15.73
  -4  10  -9   42.88   16.25
   4 -10   9   20.80   14.90
  -4  10  -8   57.23   15.92
   4 -10   8   39.29   16.22
   4 -10   8   77.79   18.06
  -4  10  -7   27.33   14.69
   4 -10   7   38.35   15.59
   4 -10   6  245.89   19.26
  -4  10  -6  255.05   18.16
   4 -10   6  228.37   21.81
   4 -10   5   95.76   16.40
  -4  10  -5   65.78   14.22
   4 -10   5   60.06   19.14
   4 -10   4   14.11   14.20
  -4  10  -4   46.20   13.71
   4 -10   4   22.48   17.05
   4 -10   3   15.02   14.12
  -4  10  -3   26.58   13.58
   4 -10   2   21.27   15.90
   4 -10   2  -17.30   17.58
  -4  10  -1    5.86   18.30
  -4  10   0   91.46   16.79
   4 -10   0   88.39   15.85
   4 -10  -1   34.39   18.06
  -4  10   1   38.81   16.41
   4 -10  -2   56.80   17.40
  -4  10   2   27.02   16.08
   4 -10  -2   49.82   14.81
   4 -10  -3   54.52   17.16
   4 -10  -3   31.08   14.11
  -4  10   3   26.07   15.35
   4 -10  -4   48.61   17.48
   4 -10  -4   74.88   14.63
  -4  10   4   57.01   15.90
   4 -10  -4   36.57   17.32
   4 -10  -5   15.33   14.65
  -4  10   5   29.87   15.19
   4 -10  -6   45.38   15.16
   4 -10  -6   61.98   15.43
  -4  10   6   75.08   16.53
   4 -10  -6   30.85   18.01
   4 -10  -7   91.46   16.19
   4 -10  -7   91.64   17.08
  -4  10   7  116.90   17.19
   4 -10  -7   65.65   18.77
   4 -10  -8  101.30   16.52
   4 -10  -8   93.43   17.44
   4 -10  -8   91.68   18.52
  -4  10   8  106.18   17.30
  -4  10   9   68.18   17.76
   4 -10  -9   59.69   16.82
   4 -10  -9   35.95   17.97
   4 -10 -10   31.63   18.58
  -4  10  10   40.14   17.99
   4 -10 -10    9.15   16.42
   4 -10 -11   90.57   20.17
   4 -10 -11   49.24   16.30
   4 -10 -12   16.99   19.65
   4 -10 -13   20.81   20.45
   4  -9  13   51.42   17.53
   4  -9  12   45.42   16.87
   4  -9  12   12.88   15.66
  -4   9 -11   32.00   16.89
   4  -9  11   27.07   16.07
   4  -9  11   16.37   15.48
  -4   9 -10   51.08   16.27
   4  -9  10   21.64   15.13
   4  -9  10   30.69   14.91
  -4   9  -9  252.33   18.96
   4  -9   9  241.06   18.19
   4  -9   9  242.01   17.05
  -4   9  -8  113.67   16.12
   4  -9   8  107.49   15.96
   4  -9   8  114.68   17.59
   4  -9   8   88.50   14.47
   4  -9   7   28.70   13.73
  -4   9  -7   16.29   13.60
   4  -9   7  -24.63   15.39
   4  -9   7    6.24   12.66
   4  -9   6   42.70   13.98
  -4   9  -6    5.47   12.99
   4  -9   6   25.14   16.50
   4  -9   5   32.98   13.83
  -4   9  -5   43.54   12.86
   4  -9   5   19.51   15.81
   4  -9   4  102.47   15.14
  -4   9  -4   85.38   13.42
  -4   9  -3  339.63   22.42
  -4   9  -3  375.55   18.20
  -4   9  -2  333.64   25.53
  -4   9  -2  469.19   20.66
  -4   9  -1   -6.85   18.42
  -4   9  -1  150.26   17.05
  -4   9   0    3.33   12.50
   4  -9   0   -8.86   14.42
  -4   9   0   40.13   14.35
   4  -9   0   12.13   13.57
  -4   9   1   16.69   12.99
   4  -9  -1    9.26   14.89
  -4   9   1   -5.35   13.66
   4  -9  -1   13.97   12.99
   4  -9  -2   99.03   17.79
  -4   9   2  123.84   17.16
   4  -9  -3  170.44   17.99
   4  -9  -3  166.95   14.53
  -4   9   3  119.03   17.15
   4  -9  -4  279.52   20.19
   4  -9  -4  313.18   17.43
  -4   9   4  286.36   20.13
   4  -9  -4  260.24   20.69
   4  -9  -5  280.94   17.82
  -4   9   5  218.80   18.30
   4  -9  -5  247.11   20.25
   4  -9  -6   67.34   14.46
  -4   9   6   63.95   15.37
   4  -9  -6   74.66   17.51
   4  -9  -7   63.73   14.57
   4  -9  -7   59.41   15.77
   4  -9  -7   78.59   17.50
   4  -9  -8   20.13   16.28
  -4   9   8   52.23   15.66
   4  -9  -8   49.38   15.07
   4  -9  -8   64.44   15.20
   4  -9  -9   50.95   17.73
  -4   9   9   36.26   15.59
   4  -9  -9   65.52   15.22
   4  -9  -9    5.26   14.88
   4  -9 -10   79.39   18.23
  -4   9  10   51.98   17.10
   4  -9 -10   74.82   15.96
   4  -9 -11   32.92   18.32
  -4   9  11   67.96   18.75
   4  -9 -11   42.12   16.03
   4  -9 -12   60.47   18.70
   4  -9 -12   91.46   16.94
   4  -9 -13   90.29   20.77
   4  -8  14   24.99   17.45
   4  -8  13   34.76   16.49
   4  -8  13   11.37   15.24
  -4   8 -12   37.13   17.02
   4  -8  12   26.38   16.11
   4  -8  12   45.41   15.18
  -4   8 -11   28.41   15.82
   4  -8  11   55.66   15.31
   4  -8  11   70.75   15.05
  -4   8 -10    9.90   14.90
   4  -8  10    8.84   13.92
   4  -8  10   15.09   13.57
  -4   8  -9   59.92   14.74
   4  -8   9   41.25   14.06
   4  -8   9   34.26   13.19
  -4   8  -8  210.15   16.46
   4  -8   8  202.93   15.78
   4  -8   8  202.61   15.50
  -4   8  -7   16.84   12.15
   4  -8   7   13.12   12.78
  -4   8  -7   -7.10   12.59
   4  -8   7   46.68   14.72
   4  -8   7   10.36   11.70
  -4   8  -6   73.69   12.63
   4  -8   6   75.99   13.31
  -4   8  -6   49.33   12.86
   4  -8   6   79.57   16.53
   4  -8   6   80.66   12.64
  -4   8  -5   77.35   13.35
   4  -8   5  166.13   15.31
  -4   8  -5  166.93   13.77
   4  -8   5  100.74   18.43
  -4   8  -4   14.66   11.12
   4  -8   4    7.85   12.26
  -4   8  -4   -0.45   10.91
   4  -8   4    5.05   14.15
  -4   8  -3   47.34   11.42
   4  -8   3   33.46   12.26
  -4   8  -3   52.23   11.27
   4  -8   3   24.45   13.61
  -4   8  -2   16.67   11.83
   4  -8   2   11.43   12.11
  -4   8  -2   38.45   11.68
   4  -8   2    9.65   13.14
   4  -8   1   61.78   15.39
  -4   8  -1   93.95   14.62
  -4   8   0  430.47   23.73
  -4   8   0  371.53   21.42
  -4   8   1  602.66   25.74
  -4   8   1  525.16   22.47
  -4   8   2  833.57   32.10
  -4   8   2  816.33   27.34
   4  -8  -3   27.40   14.47
  -4   8   3   -2.55   10.18
   4  -8  -3    6.71   11.74
  -4   8   3  -14.42   12.41
   4  -8  -3   27.93   14.72
  -4   8   4   72.22   13.59
  -4   8   4   92.46   14.82
   4  -8  -4   77.22   15.99
   4  -8  -5   15.86   12.84
  -4   8   5   22.34   13.62
   4  -8  -5   14.24   15.31
   4  -8  -6   19.95   13.03
   4  -8  -6   41.75   12.87
  -4   8   6   13.42   13.50
   4  -8  -6   46.93   16.19
   4  -8  -7   29.56   15.60
   4  -8  -7   30.66   13.34
   4  -8  -7    1.77   12.67
  -4   8   7   22.46   13.66
  -4   8   8   42.89   14.79
   4  -8  -8   84.15   14.51
   4  -8  -8   41.61   13.99
   4  -8  -8   55.09   17.01
  -4   8   9  118.54   16.11
   4  -8  -9  102.16   16.00
   4  -8  -9   86.08   15.12
   4  -8 -10   21.68   16.48
  -4   8  10   38.27   16.08
   4  -8 -10   27.21   15.55
   4  -8 -10    5.91   13.38
   4  -8 -11   36.99   17.03
  -4   8  11   42.58   17.50
   4  -8 -11   52.69   15.62
   4  -8 -12   58.55   18.63
  -4   8  12   58.81   18.57
   4  -8 -12   31.27   15.87
   4  -8 -13   71.08   20.06
   4  -8 -13   44.97   16.82
   4  -8 -14   75.90   20.31
   4  -7  15  141.14   19.32
   4  -7  14   71.18   17.43
   4  -7  14   75.47   16.53
  -4   7 -13  238.47   20.96
   4  -7  13  244.85   18.76
   4  -7  13  265.02   18.50
  -4   7 -12   30.79   16.16
   4  -7  12   51.22   15.43
   4  -7  12   57.30   14.43
  -4   7 -11   62.42   15.78
   4  -7  11   52.52   14.74
   4  -7  11   61.78   13.95
  -4   7 -10  100.18   15.26
   4  -7  10  104.96   14.79
   4  -7  10   82.73   13.47
  -4   7  -9    5.09   12.72
  -4   7  -9    6.64   12.87
   4  -7   9   12.94   12.62
   4  -7   9   39.34   12.39
  -4   7  -8   12.21   11.98
  -4   7  -8   -6.83   12.10
   4  -7   8    2.74   11.38
   4  -7   8   13.43   11.39
  -4   7  -7   85.80   12.27
  -4   7  -7   81.56   12.98
   4  -7   7   84.52   13.01
   4  -7   7   75.21   14.90
   4  -7   7   62.40   11.48
  -4   7  -6   29.11   11.08
   4  -7   6   15.34   11.59
  -4   7  -6   22.32   11.31
   4  -7   6   33.38   14.23
   4  -7   6   19.38   10.55
  -4   7  -5   18.51   10.02
   4  -7   5   41.54   11.11
  -4   7  -5   37.63   10.69
   4  -7   5   15.21   13.48
   4  -7   5    6.72   10.00
  -4   7  -4   52.17   11.01
   4  -7   4  147.02   12.75
  -4   7  -4   85.99   11.46
   4  -7   4   -8.88   15.11
   4  -7   3 1345.21   25.10
  -4   7  -3 1470.07   22.64
   4  -7   2 1050.20   20.81
  -4   7  -2  890.37   20.45
  -4   7  -1    5.90    9.40
   4  -7   1    3.93   11.10
  -4   7  -1   -5.99   10.18
   4  -7   1   13.70   11.27
  -4   7   0  121.76   14.46
   4  -7   0  155.80   14.99
  -4   7   0  205.73   14.24
   4  -7   0   66.28   13.22
  -4   7   1   82.49   13.22
   4  -7  -1   58.55   14.08
  -4   7   1  102.59   12.82
  -4   7   2   34.35   11.70
   4  -7  -2   46.33   13.36
  -4   7   2   56.10   12.34
   4  -7  -2   49.68   11.77
  -4   7   3  529.14   21.49
   4  -7  -3  485.21   19.94
  -4   7   3  531.95   20.67
   4  -7  -3  491.61   20.79
  -4   7   4  107.86   13.12
  -4   7   4   36.52   10.70
   4  -7  -4  103.62   11.81
  -4   7   4   67.45   13.40
   4  -7  -4   39.51   14.30
  -4   7   5    9.66   11.01
  -4   7   5   32.59   11.57
   4  -7  -5   17.72   11.15
  -4   7   5   12.48   12.51
   4  -7  -6   14.76   12.21
   4  -7  -6   -4.72   11.15
  -4   7   6   33.09   12.77
   4  -7  -6   10.69   14.38
   4  -7  -7   -2.84   14.42
  -4   7   7   12.62   13.05
   4  -7  -7   -3.30   12.32
   4  -7  -7   -6.16   11.19
   4  -7  -8   46.40   15.08
  -4   7   8   -0.44   13.12
   4  -7  -8   37.18   13.50
   4  -7  -8   21.98   12.48
   4  -7  -9   21.00   15.45
  -4   7   9   19.56   14.33
   4  -7  -9   21.95   14.39
   4  -7 -10  242.10   19.43
  -4   7  10  263.21   19.16
   4  -7 -10  240.71   17.67
   4  -7 -11   28.10   16.44
  -4   7  11   -2.17   15.48
   4  -7 -11  -10.45   14.07
   4  -7 -12   65.82   18.12
  -4   7  12   82.35   18.03
   4  -7 -12   45.17   15.58
   4  -7 -13   44.87   18.61
  -4   7  13   -4.61   17.61
   4  -7 -13   13.19   15.75
   4  -7 -14   23.14   18.41
   4  -6  15  186.66   18.75
   4  -6  15  164.30   18.07
  -4   6 -14  161.19   20.43
   4  -6  14  183.27   17.77
   4  -6  14  200.94   17.69
  -4   6 -13   63.51   17.05
   4  -6  13   57.49   15.02
   4  -6  13   47.26   14.77
  -4   6 -12   27.48   15.55
   4  -6  12   23.95   13.72
   4  -6  12    0.44   13.27
  -4   6 -11    4.04   14.50
   4  -6  11   -6.44   13.00
   4  -6  11   27.19   12.18
  -4   6 -10  117.03   15.31
  -4   6 -10  115.95   15.04
   4  -6  10  139.82   13.81
   4  -6  10  116.25   12.94
  -4   6  -9   52.75   13.29
  -4   6  -9   34.35   13.29
   4  -6   9   24.57   11.92
   4  -6   9   52.82   11.43
  -4   6  -8  247.00   15.39
  -4   6  -8  238.99   14.90
   4  -6   8  241.49   14.24
   4  -6   8  199.62   13.01
  -4   6  -7  359.29   16.13
  -4   6  -7  319.76   15.12
   4  -6   7  370.45   14.90
   4  -6   7  324.07   14.18
  -4   6  -6   24.92   10.32
  -4   6  -6   43.21   10.60
   4  -6   6   37.43   10.76
   4  -6   6   50.21   14.05
   4  -6   6   40.25    9.78
   4  -6   5  344.96   14.34
  -4   6  -5  352.84   13.80
   4  -6   5  329.90   13.84
  -4   6  -4  623.84   18.77
   4  -6   4 1017.52   19.14
  -4   6  -4  860.42   17.60
   4  -6   4  788.96   18.38
  -4   6  -3   39.20    9.08
   4  -6   3   59.94   10.27
  -4   6  -3   48.71    9.47
   4  -6   3   -1.77   11.68
  -4   6  -3  104.67   12.13
   4  -6   2 1059.64   21.28
  -4   6  -2 1126.09   19.89
  -4   6  -1  394.18   14.13
  -4   6  -1  313.67   13.06
   4  -6   0  250.98   12.99
  -4   6   0  163.15   13.66
   4  -6   0  177.97   14.25
  -4   6   0  249.41   13.46
   4  -6   0  170.47   13.38
  -4   6   1   33.25    9.85
   4  -6  -1   56.34   12.19
  -4   6   1   34.36   10.43
   4  -6  -1   50.03   10.33
  -4   6   2  152.69   13.13
   4  -6  -2  146.86   13.80
  -4   6   2  164.47   13.39
   4  -6  -2  171.90   12.16
  -4   6   3   72.35   11.56
  -4   6   3   40.08    9.75
   4  -6  -3   51.23   10.19
  -4   6   3   51.51   11.40
   4  -6  -3   51.84   12.70
  -4   6   4  -13.80    9.94
  -4   6   4   26.05   10.82
   4  -6  -4   20.16    9.65
  -4   6   4   28.37   11.15
   4  -6  -4   11.40   12.65
  -4   6   5  148.13   12.40
  -4   6   5  169.87   15.32
  -4   6   5  121.76   13.49
   4  -6  -5  162.57   14.91
  -4   6   6  253.01   13.66
  -4   6   6  298.74   17.83
  -4   6   6  263.10   15.58
   4  -6  -6  265.89   16.65
   4  -6  -7  246.73   16.72
  -4   6   7  242.61   15.85
   4  -6  -7  252.37   15.33
   4  -6  -8  184.34   16.44
  -4   6   8  196.70   15.49
   4  -6  -8  195.34   15.43
   4  -6  -9   60.94   15.44
  -4   6   9   76.72   14.30
   4  -6  -9   81.57   14.75
   4  -6 -10  231.92   18.34
  -4   6  10  198.16   17.26
   4  -6 -10  235.44   16.36
   4  -6 -11  472.83   21.96
  -4   6  11  459.78   21.65
   4  -6 -11  487.16   20.20
   4  -6 -12   30.24   16.66
  -4   6  12   14.70   16.08
   4  -6 -12   13.17   14.45
   4  -6 -13   42.11   17.38
  -4   6  13   44.16   17.53
   4  -6 -13   29.87   15.81
   4  -6 -14  -11.07   17.87
   4  -6 -14    0.31   16.27
   4  -6 -15   30.88   19.32
   4  -5  16   40.57   16.95
   4  -5  16   35.28   16.42
   4  -5  15   35.76   15.48
   4  -5  15   19.79   15.24
  -4   5 -14   -7.70   16.34
   4  -5  14   45.09   15.10
   4  -5  14   25.55   14.87
  -4   5 -13   35.97   15.62
   4  -5  13   32.50   13.96
   4  -5  13   43.11   14.06
  -4   5 -12   60.30   14.96
   4  -5  12   60.60   13.72
   4  -5  12   55.01   13.33
  -4   5 -11   90.90   15.11
  -4   5 -11   38.02   13.84
   4  -5  11   73.93   13.09
   4  -5  11   47.20   12.46
  -4   5 -10  246.51   16.42
  -4   5 -10  250.92   16.01
   4  -5  10  282.32   14.41
   4  -5  10  221.87   13.82
  -4   5  -9  179.42   13.96
  -4   5  -9  206.89   14.39
   4  -5   9  200.03   13.36
   4  -5   9  208.78   13.01
  -4   5  -8  155.41   12.61
  -4   5  -8  129.40   12.83
   4  -5   8  143.77   11.78
   4  -5   8  151.11   11.39
  -4   5  -7   78.40   10.77
  -4   5  -7   58.30   10.76
   4  -5   7   66.58   10.27
   4  -5   7   55.90    9.31
  -4   5  -6   38.47    9.50
  -4   5  -6   47.24    9.78
   4  -5   6   46.75    9.37
   4  -5   6   46.83    8.71
   4  -5   6   42.33    9.10
   4  -5   5  146.14    9.59
  -4   5  -5  123.76   10.58
  -4   5  -5  177.30   10.77
   4  -5   5  176.22   10.41
   4  -5   5  110.38   15.19
   4  -5   5  162.74   10.28
   4  -5   4  305.33   11.77
  -4   5  -4  286.37   12.86
   4  -5   4  471.81   13.55
  -4   5  -4  288.56   11.96
   4  -5   4  145.43   17.37
  -4   5  -4  493.68   17.46
   4  -5   4  333.83   12.21
  -4   5  -3   60.34    9.26
   4  -5   3  167.09    9.82
  -4   5  -3  128.57    9.10
   4  -5   3   79.58    8.35
   4  -5   3   -3.28   11.09
  -4   5  -3  175.64   12.57
   4  -5   3  107.10    9.01
   4  -5   2   95.99    8.46
  -4   5  -2  114.08    8.34
   4  -5   2   93.70    9.12
  -4   5  -2   71.79    8.31
   4  -5   2    4.34   10.83
  -4   5  -2  159.88   12.08
   4  -5   2   58.83    8.34
   4  -5   1  106.98   11.25
  -4   5  -1  263.53   11.80
   4  -5   1  248.04   12.16
   4  -5   1  384.22   12.65
  -4   5  -1  311.40   11.73
   4  -5   1  112.77   12.47
   4  -5   0  217.84   11.41
   4  -5   0  166.02   10.19
  -4   5   0  158.08   11.45
   4  -5   0  124.68   11.94
   4  -5   0  216.65   13.38
  -4   5   0  216.23   12.00
  -4   5   1   15.26    8.02
   4  -5  -1   44.73   10.04
  -4   5   1   42.50    9.52
   4  -5  -1   44.13    7.85
   4  -5  -1   33.90    9.28
  -4   5   2    2.60    8.21
   4  -5  -2   14.31    7.31
   4  -5  -2   37.37   11.00
  -4   5   2   -5.47    8.03
   4  -5  -2   14.31    8.81
  -4   5   2    5.81    9.13
   4  -5  -2   11.32   10.85
  -4   5   3  486.23   16.15
  -4   5   3  379.92   18.25
   4  -5  -3  416.43   13.26
  -4   5   3  471.84   15.78
   4  -5  -3  406.57   16.19
  -4   5   4  462.16   15.09
  -4   5   4  446.03   19.02
   4  -5  -4  412.15   16.52
  -4   5   5   55.07    9.76
  -4   5   5   39.42   12.01
  -4   5   5   45.29   10.54
   4  -5  -5   51.24   12.23
   4  -5  -6   14.49   12.29
  -4   5   6    4.94   11.00
  -4   5   6   10.35    9.56
  -4   5   6    4.16   11.85
   4  -5  -7   17.37   12.64
  -4   5   7   26.81   11.94
  -4   5   7   47.66   11.02
  -4   5   7   17.29   12.52
   4  -5  -8  277.71   17.22
  -4   5   8  239.01   15.67
   4  -5  -8  296.77   15.75
   4  -5  -9  281.78   17.82
  -4   5   9  289.05   17.33
   4  -5  -9  308.98   16.68
   4  -5 -10  177.60   17.04
  -4   5  10  188.62   16.50
   4  -5 -11   72.66   16.14
  -4   5  11   54.54   15.10
   4  -5 -11   38.09   14.27
   4  -5 -12   88.27   16.79
  -4   5  12   52.26   16.09
   4  -5 -12   64.91   15.40
   4  -5 -13   46.14   17.08
  -4   5  13   56.51   16.95
   4  -5 -13   42.53   15.86
   4  -5 -14   41.92   17.90
   4  -5 -14   15.18   16.48
   4  -5 -15   84.49   19.50
   4  -4  17   27.60   17.43
   4  -4  16   46.18   16.32
   4  -4  16   70.82   17.07
  -4   4 -15  142.78   18.67
   4  -4  15  137.35   16.74
   4  -4  15  136.16   17.08
  -4   4 -14   95.86   16.60
   4  -4  14  117.47   15.92
   4  -4  14   99.01   15.44
  -4   4 -13   60.34   15.18
   4  -4  13   65.27   13.94
   4  -4  13   40.34   13.34
  -4   4 -12   23.09   14.41
  -4   4 -12   42.61   13.47
   4  -4  12   56.04   13.20
   4  -4  12   39.41   12.69
  -4   4 -11   97.12   14.36
  -4   4 -11   53.56   13.18
   4  -4  11   65.13   12.27
   4  -4  11   63.03   12.25
  -4   4 -10    7.29   11.74
  -4   4 -10   31.18   11.78
   4  -4  10   31.39   10.65
   4  -4  10   32.70   10.96
  -4   4  -9  279.48   15.00
  -4   4  -9  251.28   14.17
   4  -4   9  292.16   13.28
   4  -4   9  285.64   12.96
  -4   4  -8  415.50   15.55
  -4   4  -8  420.46   14.76
   4  -4   8  433.43   13.78
   4  -4   8  387.80   13.30
  -4   4  -7  246.36   12.25
  -4   4  -7  249.34   12.21
   4  -4   7  249.75   11.30
   4  -4   7  229.72   11.17
   4  -4   7  248.12   10.79
  -4   4  -6   23.03    8.49
  -4   4  -6   42.18    8.62
   4  -4   6   10.28    7.93
   4  -4   6   12.04    6.53
   4  -4   6   21.13    7.72
   4  -4   5   17.82    6.20
  -4   4  -5   15.21    7.35
  -4   4  -5   17.99    7.93
   4  -4   5   18.72    7.46
   4  -4   5   15.24    6.40
   4  -4   5   17.22    7.19
  -4   4  -4   22.73    6.79
  -4   4  -4   30.53    7.72
   4  -4   4   41.81    7.58
   4  -4   4   24.80    5.74
   4  -4   4   16.65    9.67
  -4   4  -4   34.29   10.16
   4  -4   4   24.54    7.20
   4  -4   4   37.65    6.33
   4  -4   3  111.38    7.09
  -4   4  -3   65.37    7.08
   4  -4   3  144.47    8.73
  -4   4  -3   87.26    8.05
   4  -4   3   56.63   10.22
  -4   4  -3  159.10   12.26
   4  -4   3  126.15    7.92
   4  -4   3  132.33    7.36
   4  -4   2 1117.75   15.06
  -4   4  -2  490.17   14.94
   4  -4   2 1009.03   14.52
  -4   4  -2  783.45   13.87
   4  -4   2  707.06   15.38
   4  -4   2  339.82   17.62
  -4   4  -2 1004.22   22.56
   4  -4   1   21.18    5.65
   4  -4   1   21.02    5.66
  -4   4  -1   27.06    5.67
   4  -4   1   43.76    8.21
  -4   4  -1    3.74    7.15
   4  -4   1    3.29    7.72
  -4   4  -1   17.89    9.77
   4  -4   0   12.78    5.62
  -4   4   0   14.40    5.99
   4  -4   0   13.03    5.47
   4  -4   0   19.02    8.55
  -4   4   0    8.11    7.56
  -4   4   0   -1.79    7.56
   4  -4   0   18.88    5.85
   4  -4   0   24.31    8.12
   4  -4  -1   75.82    7.34
  -4   4   1   80.86    8.04
   4  -4  -1   66.00    9.50
  -4   4   1   17.73    7.24
   4  -4  -1   84.50    7.42
  -4   4   1   52.97    8.88
   4  -4  -1   51.33    8.26
   4  -4  -1   43.68    9.35
   4  -4  -2  149.27    8.82
  -4   4   2  137.67    9.68
  -4   4   2  113.73   11.82
   4  -4  -2  152.07    9.59
   4  -4  -2  123.73    9.15
  -4   4   2  125.62   10.19
   4  -4  -2  143.09   11.31
  -4   4   3   52.79    8.98
  -4   4   3   69.74   11.34
   4  -4  -3   52.41    8.48
  -4   4   3   49.68    9.17
   4  -4  -3   44.70   10.34
  -4   4   4  477.89   14.22
  -4   4   4  497.14   18.58
  -4   4   4  468.66   14.26
  -4   4   5  598.55   15.76
  -4   4   5  614.17   15.62
   4  -4  -6   22.59   11.49
  -4   4   6   23.69   10.73
  -4   4   6   14.75    8.62
  -4   4   6   33.80   11.54
   4  -4  -7   63.84   12.91
  -4   4   7   49.11   10.04
  -4   4   7   55.45   11.98
  -4   4   7   46.13   12.15
   4  -4  -8   98.93   13.75
  -4   4   8   83.38   13.20
   4  -4  -8   58.45   12.92
   4  -4  -9   26.44   13.62
  -4   4   9   30.65   13.18
   4  -4  -9   37.36   12.55
   4  -4 -10   72.85   14.94
  -4   4  10   53.71   14.00
   4  -4 -10   40.80   13.04
   4  -4 -11   67.52   15.55
  -4   4  11   33.20   14.45
   4  -4 -11   67.30   14.25
   4  -4 -12   52.45   15.77
  -4   4  12   28.58   14.48
   4  -4 -12   20.68   14.05
   4  -4 -13   53.24   16.97
  -4   4  13   16.61   16.43
   4  -4 -13   45.03   15.43
   4  -4 -14  139.21   18.96
   4  -4 -14   99.24   17.66
   4  -4 -15  134.24   19.93
   4  -3  17   49.98   17.11
   4  -3  17   34.40   17.13
   4  -3  16   50.71   16.13
   4  -3  16   30.89   15.78
  -4   3 -15   28.32   15.32
   4  -3  15    7.04   14.46
   4  -3  15   31.97   14.64
  -4   3 -14   26.68   14.39
   4  -3  14   23.96   13.71
   4  -3  14   14.35   13.24
  -4   3 -13   17.85   13.34
  -4   3 -13   28.38   15.12
   4  -3  13   35.66   12.75
   4  -3  13   45.14   13.05
  -4   3 -12  191.27   16.89
  -4   3 -12  218.18   15.50
   4  -3  12  193.01   13.87
   4  -3  12  165.59   13.88
  -4   3 -11   70.69   13.19
  -4   3 -11   71.19   12.30
   4  -3  11   76.31   11.93
   4  -3  11   55.95   11.36
  -4   3 -10  200.07   13.28
   4  -3  10  235.25   12.74
   4  -3  10  212.75   12.57
  -4   3  -9   14.05    9.62
  -4   3  -9   17.37   10.16
   4  -3   9   26.20    9.53
   4  -3   9   16.55    9.15
  -4   3  -8   22.29    9.00
  -4   3  -8   29.12    9.59
   4  -3   8   30.53    8.39
   4  -3   8   10.38    7.15
   4  -3   8   26.99    8.56
  -4   3  -7   10.39    8.37
  -4   3  -7   10.19    8.02
   4  -3   7    9.17    7.47
   4  -3   7   12.44    6.59
   4  -3   7    4.11    7.02
   4  -3   7   32.79    7.60
  -4   3  -6  168.12    8.79
  -4   3  -6  180.06    9.73
   4  -3   6  166.64    8.88
   4  -3   6  165.61    7.62
   4  -3   6  150.27    8.23
  -4   3  -6  164.78   12.09
  -4   3  -5  539.25   10.82
  -4   3  -5  592.87   12.24
   4  -3   5  561.91   11.18
   4  -3   5  569.12   10.27
   4  -3   5  580.70   11.01
  -4   3  -4  330.83    9.43
   4  -3   4  347.78    9.11
   4  -3   4  378.64    7.78
   4  -3   4  324.01    7.43
  -4   3  -4  403.52   14.62
  -4   3  -3  213.14    5.09
   4  -3   3  313.13    6.67
  -4   3  -3  256.31    5.56
   4  -3   3  333.74    9.32
  -4   3  -3  268.34    8.90
   4  -3   3  255.59   12.17
   4  -3   3  400.39    7.08
  -4   3  -3  427.51   15.01
  -4   3  -2   18.55    3.32
  -4   3  -2    1.79    3.26
   4  -3   2   24.59    6.60
  -4   3  -2   13.43    5.51
   4  -3   2    5.83    6.85
   4  -3   2    6.91    3.97
   4  -3   2    7.73    3.56
  -4   3  -2    0.22    9.08
   4  -3   1  323.06    6.55
  -4   3  -1  350.40    7.26
  -4   3  -1  349.38    6.68
   4  -3   1  404.99   10.37
  -4   3  -1  353.96   10.23
   4  -3   1  300.91   11.48
   4  -3   1  372.02    8.38
  -4   3  -1  252.15   15.31
   4  -3   0  654.13    9.65
  -4   3   0  546.54    8.54
   4  -3   0  517.08   12.47
  -4   3   0  577.71   13.11
   4  -3   0  474.23   12.00
   4  -3   0  609.92    9.76
  -4   3   0  460.99   19.39
   4  -3   0  544.13   12.66
   4  -3  -1 1650.70   17.27
  -4   3   1 1558.52   15.93
  -4   3   1 1027.00   22.88
   4  -3  -1 1380.46   16.93
  -4   3   1 1403.79   19.34
   4  -3  -1 1623.55   16.61
  -4   3   1 1188.37   27.30
   4  -3  -1 1168.48   18.63
   4  -3  -2  341.76   10.01
  -4   3   2  357.51   10.33
  -4   3   2  316.67   15.56
   4  -3  -2  340.70   10.35
  -4   3   2  293.54   11.24
   4  -3  -2  321.70   11.68
   4  -3  -3   70.78    9.66
   4  -3  -3   93.30    8.09
  -4   3   3   88.02   11.16
   4  -3  -3   88.40    8.40
  -4   3   3  107.42    8.99
   4  -3  -4   48.49    9.67
  -4   3   4   44.66    8.76
  -4   3   4   47.74    7.99
  -4   3   4   44.16   10.97
   4  -3  -4   26.92    8.67
   4  -3  -5   41.83   10.32
  -4   3   5   42.54    9.48
  -4   3   5   27.55    8.02
  -4   3   5   44.27   10.20
   4  -3  -6   32.03   10.86
  -4   3   6   13.91    9.84
  -4   3   6   28.61    8.75
  -4   3   6   34.87   10.90
   4  -3  -7   22.21   11.59
  -4   3   7   27.75    9.61
  -4   3   7   35.01   11.14
  -4   3   7   47.66   11.30
   4  -3  -8  286.65   16.28
  -4   3   8  280.09   15.34
  -4   3   8  277.39   14.08
  -4   3   8  262.66   15.89
   4  -3  -9   41.46   13.15
  -4   3   9   61.01   13.40
   4  -3  -9   66.21   12.35
   4  -3 -10   54.18   14.33
  -4   3  10   43.66   13.00
   4  -3 -10   51.44   12.84
   4  -3 -11   87.73   15.36
  -4   3  11  102.13   14.55
   4  -3 -11  120.80   15.03
   4  -3 -12   38.78   15.57
  -4   3  12    3.29   14.03
   4  -3 -12    7.08   14.34
   4  -3 -13   14.08   15.93
  -4   3  13   -6.88   15.65
   4  -3 -13   11.05   15.55
   4  -3 -14   33.54   16.97
  -4   3  14  -11.17   17.32
   4  -3 -14   13.47   16.11
   4  -3 -15   46.08   18.44
   4  -2  17  118.50   17.89
   4  -2  17   86.53   17.67
  -4   2 -16   45.34   16.47
   4  -2  16   53.82   15.79
   4  -2  16   51.04   15.96
  -4   2 -15   32.65   15.16
   4  -2  15   43.78   14.54
   4  -2  15   40.20   14.57
  -4   2 -14   15.87   13.78
   4  -2  14   -4.38   12.76
  -4   2 -13   46.87   15.08
  -4   2 -13   54.34   13.86
   4  -2  13   91.32   12.99
   4  -2  13   76.49   13.11
  -4   2 -12   36.19   12.24
  -4   2 -12   31.08   13.56
   4  -2  12   33.48   11.66
   4  -2  12   58.65   12.22
  -4   2 -11   24.51   10.94
  -4   2 -11   16.09   11.91
   4  -2  11   25.96   10.35
   4  -2  11   -3.32   10.42
  -4   2 -10    5.98   10.26
  -4   2 -10    2.04   10.34
   4  -2  10   10.99    9.51
   4  -2  10   11.27    9.73
  -4   2  -9   94.14   10.35
  -4   2  -9  129.88   10.48
   4  -2   9   92.91    9.45
   4  -2   9  106.66    9.17
   4  -2   9  108.24    9.88
  -4   2  -8   34.95    8.42
  -4   2  -8   44.03    8.45
   4  -2   8   34.17    7.76
   4  -2   8   27.84    6.60
   4  -2   8   40.44    7.13
  -4   2  -7  138.18    8.34
  -4   2  -7  183.50    9.24
   4  -2   7  160.23    8.30
   4  -2   7  170.52    7.67
   4  -2   7  150.70    7.56
  -4   2  -6  174.61    7.00
  -4   2  -6  225.43    8.48
   4  -2   6  208.62    7.94
   4  -2   6  182.64    6.43
   4  -2   6  156.27    6.25
  -4   2  -6  224.47   12.60
  -4   2  -5   30.59    6.33
   4  -2   5   24.60    5.64
   4  -2   5   15.83    3.33
   4  -2   5    9.45    3.34
  -4   2  -5   14.84    8.88
  -4   2  -4  805.74   10.66
  -4   2  -4  891.20   18.65
  -4   2  -3   -0.42    4.87
   4  -2   3   19.21    4.78
  -4   2  -3    1.65    8.54
  -4   2  -2  261.61    7.52
  -4   2  -2  265.26   13.04
   4  -2   1  741.55   13.49
  -4   2  -1  746.06   21.20
   4  -2   0 1147.47   14.59
  -4   2   0 1298.80   15.26
  -4   2   0 1347.72   26.45
   4  -2   0 1185.44   14.25
   4  -2  -1  428.36    7.79
  -4   2   1  392.12    6.94
  -4   2   1  452.30   15.41
   4  -2  -1  387.24    7.19
  -4   2   1  443.07   10.43
  -4   2   1  440.75   16.31
   4  -2  -2   24.70    7.54
   4  -2  -2   38.44    5.57
  -4   2   2   21.88    5.80
  -4   2   2   33.35    8.73
   4  -2  -2   12.22    4.84
  -4   2   2   18.92    9.76
  -4   2   2   48.32    6.98
   4  -2  -3  290.43   10.75
  -4   2   3  316.10   10.79
  -4   2   3  371.23   10.82
   4  -2  -3  376.59   11.11
  -4   2   3  385.70   15.36
   4  -2  -3  334.16   10.19
  -4   2   3  298.83   15.45
   4  -2  -4  266.37   11.57
  -4   2   4  261.17   11.13
  -4   2   4  270.16   10.12
  -4   2   4  300.02   13.77
   4  -2  -4  259.55   10.56
  -4   2   4  261.49   14.73
   4  -2  -5  284.63   12.55
  -4   2   5  339.86   11.59
  -4   2   5  310.19   12.67
  -4   2   5  345.90   14.26
  -4   2   5  303.51   15.70
   4  -2  -6  344.28   14.10
  -4   2   6  391.03   14.35
  -4   2   6  379.06   12.91
  -4   2   6  378.14   15.08
  -4   2   6  400.73   16.22
   4  -2  -7   92.17   12.19
  -4   2   7  101.30   11.94
  -4   2   7   86.04   10.21
  -4   2   7   95.98   11.37
  -4   2   7   92.34   12.51
   4  -2  -8   25.38   12.02
  -4   2   8   45.25   10.13
  -4   2   8   50.22   11.78
  -4   2   8   47.19   11.02
  -4   2   8   32.09   11.83
   4  -2  -9   21.03   12.92
  -4   2   9   37.38   12.19
   4  -2  -9   37.90   11.57
   4  -2 -10   30.90   13.80
  -4   2  10   34.43   12.88
   4  -2 -10   39.00   12.69
   4  -2 -11    8.37   14.00
  -4   2  11    0.96   13.20
   4  -2 -11    3.37   13.32
   4  -2 -12   73.18   16.00
  -4   2  12   97.94   15.67
   4  -2 -12  118.91   15.92
   4  -2 -13   83.66   16.72
  -4   2  13   56.72   16.36
   4  -2 -13   38.81   16.01
   4  -2 -14    4.46   16.38
  -4   2  14   13.26   17.32
   4  -2 -14   39.07   16.96
   4  -2 -15   11.46   18.09
   4  -1  18   88.01   17.68
   4  -1  17   19.68   15.46
   4  -1  17   43.88   16.33
  -4   1 -16   49.91   16.18
   4  -1  16   40.30   14.92
   4  -1  16   24.25   14.92
  -4   1 -15   -2.59   14.59
   4  -1  15   24.66   13.63
   4  -1  15   35.20   14.42
  -4   1 -14  127.86   17.85
  -4   1 -14  133.59   15.01
   4  -1  14  128.75   13.98
   4  -1  14  151.49   15.59
  -4   1 -13   20.32   12.56
  -4   1 -13  -13.40   13.77
   4  -1  13   -0.91   11.46
   4  -1  13   21.30   12.12
  -4   1 -12   28.95   11.83
  -4   1 -12   11.92   12.51
   4  -1  12   25.12   10.78
   4  -1  12   44.60   11.46
  -4   1 -11   30.10   11.53
  -4   1 -11   16.34   10.47
   4  -1  11   37.44   10.11
   4  -1  11    4.43   10.11
  -4   1 -10   14.17    9.39
   4  -1  10   12.32    8.33
  -4   1 -10   13.57    9.76
   4  -1  10    3.25    8.62
   4  -1  10   20.22    9.48
  -4   1  -9   79.19    9.81
  -4   1  -9   80.64    9.20
   4  -1   9   82.85    8.56
   4  -1   9   93.61    8.47
  -4   1  -8  141.35    8.81
  -4   1  -8  151.04    9.12
   4  -1   8  146.13    8.30
   4  -1   8  128.78    7.25
   4  -1   8  126.61    7.77
  -4   1  -7  137.87    6.92
  -4   1  -7  152.23    7.96
   4  -1   7  164.92    7.57
   4  -1   7  154.33    6.44
  -4   1  -6  300.71    8.42
   4  -1   6  313.02    7.29
  -4   1  -6  344.15   17.03
   4  -1   6  224.81    5.24
  -4   1  -6  367.05   14.17
  -4   1  -5  177.61   12.31
  -4   1  -4   16.48    8.71
  -4   1  -3   38.00    9.31
  -4   1  -2  394.04   14.42
  -4   1  -1  172.18    7.93
  -4   1  -1  188.48   11.70
  -4   1   0   40.88    7.34
  -4   1   0   22.45    4.84
  -4   1   0   46.04    9.50
  -4   1   1  194.76    7.16
   4  -1  -1  164.25    7.20
  -4   1   1  196.65   10.90
   4  -1  -1  137.53    3.90
  -4   1   1  150.41   12.25
   4  -1  -1  154.80    3.93
   4  -1  -2  796.53   11.96
  -4   1   2  818.84   12.92
   4  -1  -2  902.91   12.08
  -4   1   2  826.69   11.08
  -4   1   2  859.21   19.25
   4  -1  -2  827.94   11.70
  -4   1   2  760.61   21.48
   4  -1  -3  586.90   12.05
  -4   1   3  592.93   11.65
  -4   1   3  664.64   12.71
   4  -1  -3  625.85   12.30
  -4   1   3  697.41   16.95
   4  -1  -3  547.88   11.58
  -4   1   3  624.98   19.52
   4  -1  -4   33.39    8.77
  -4   1   4   24.81    6.53
   4  -1  -4   32.61    6.01
  -4   1   4   38.78    8.16
  -4   1   4   29.23    8.52
   4  -1  -4   47.58    7.44
  -4   1   4   54.61   10.90
   4  -1  -5   44.29    9.24
  -4   1   5   47.00    9.08
  -4   1   5   38.52    7.69
  -4   1   5   58.40    9.27
   4  -1  -5   47.82    8.52
  -4   1   5   47.85   10.46
   4  -1  -6  180.81   12.11
  -4   1   6  228.32   11.28
  -4   1   6  215.52   11.91
  -4   1   6  219.20   14.37
   4  -1  -7  120.30   12.23
  -4   1   7  129.29   10.59
  -4   1   7  132.51   11.73
  -4   1   7  109.88   12.51
   4  -1  -8   30.25   12.00
  -4   1   8   18.57   10.29
  -4   1   8    0.23   10.68
   4  -1  -9    2.28   12.52
  -4   1   9   -2.77   11.47
   4  -1  -9    4.15   11.55
   4  -1 -10   46.25   13.54
  -4   1  10   24.97   12.84
   4  -1 -10   12.28   12.46
   4  -1 -11   65.30   14.65
  -4   1  11   71.02   14.56
   4  -1 -11   50.93   13.97
   4  -1 -12    6.47   14.69
  -4   1  12   11.28   14.21
   4  -1 -12   32.47   15.06
   4  -1 -13   29.52   15.87
  -4   1  13   12.11   16.23
   4  -1 -13   18.57   15.57
   4  -1 -14   31.42   17.57
   4  -1 -14   24.49   17.26
   4  -1 -15   39.76   18.72
   4   0  18   53.97   17.08
   4   0  17   48.10   15.58
   4   0  17   45.97   16.95
  -4   0 -16   22.00   15.77
   4   0  16   21.55   13.95
   4   0  16   30.30   15.74
  -4   0 -15   54.26   14.63
   4   0  15   35.84   14.15
  -4   0 -14   27.12   13.54
  -4   0 -14   33.39   15.59
   4   0  14    8.60   12.10
   4   0  14   41.91   13.34
  -4   0 -13  105.64   15.05
  -4   0 -13   75.15   13.30
   4   0  13  104.38   12.75
   4   0  13   73.68   13.00
  -4   0 -12    4.49   11.37
  -4   0 -12   -5.29   11.89
   4   0  12    6.92   10.29
   4   0  12    2.18   10.99
  -4   0 -11 1313.65   24.57
  -4   0 -11 1292.26   22.26
   4   0  11 1325.12   20.13
   4   0  11 1305.58   21.38
  -4   0 -10  826.55   18.45
  -4   0 -10  810.65   17.04
   4   0  10  852.69   15.42
   4   0  10  792.59   16.35
  -4   0  -9   21.78    8.42
  -4   0  -9   23.22    8.02
   4   0   9    9.79    7.39
   4   0   9   23.89    7.09
   4   0   9   10.48    7.01
  -4   0  -8   20.63    6.51
  -4   0  -8   17.17    7.36
   4   0   8   14.95    6.38
   4   0   8    8.80    5.20
   4   0   8    2.38    5.98
  -4   0  -8   -5.41    9.65
  -4   0  -7   85.78    4.77
  -4   0  -7  119.26    7.32
   4   0   7  114.98    6.45
   4   0   7   81.77    4.64
   4   0   7   85.53    4.94
   4   0   7   78.50    4.71
  -4   0  -7  118.50   11.62
  -4   0  -6   71.95   12.31
  -4   0  -6   69.17    9.79
  -4   0  -5   52.47   11.23
  -4   0  -5   60.39    9.33
  -4   0  -4  445.43   16.02
  -4   0  -4  610.72   16.66
  -4   0  -3  150.77   11.84
  -4   0  -3  150.65   11.39
  -4   0  -2  281.63   13.44
  -4   0  -1  787.82   13.32
  -4   0  -1  905.28   19.97
  -4   0   0 1015.19   17.29
  -4   0   0  871.73   19.84
   4   0  -1    9.12    5.36
  -4   0   1   23.76    5.20
  -4   0   1    6.46    6.98
  -4   0   1   15.17    8.85
   4   0  -2  972.77   12.51
   4   0  -2 1053.65   12.25
  -4   0   2  902.89   10.94
  -4   0   2 1000.67   13.06
  -4   0   2 1103.51   18.63
   4   0  -2  932.06   11.63
  -4   0   2  974.72   22.96
   4   0  -3  186.02    8.79
  -4   0   3  163.25    7.10
   4   0  -3  163.02    6.91
  -4   0   3  158.67    8.53
  -4   0   3  187.20    9.93
   4   0  -3  171.34    8.40
  -4   0   3  170.46   12.21
   4   0  -4  118.01    9.33
  -4   0   4  109.88    7.60
  -4   0   4   99.87    8.51
   4   0  -4  111.90    6.88
   4   0  -4  129.67    8.91
  -4   0   4  136.28   11.72
   4   0  -5   39.17    9.09
  -4   0   5   24.08    7.39
  -4   0   5   16.36    8.20
   4   0  -5   28.55    8.01
  -4   0   5   15.84    9.78
   4   0  -6  651.20   16.44
  -4   0   6  690.82   15.68
  -4   0   6  688.35   16.23
  -4   0   6  663.82   19.42
   4   0  -7    4.08   10.45
  -4   0   7    6.88    9.93
  -4   0   7   28.47    9.81
   4   0  -8   19.24   11.27
  -4   0   8   15.55   10.73
  -4   0   8   18.46   10.55
   4   0  -9   39.79   12.74
  -4   0   9   60.50   12.56
   4   0  -9   75.82   12.40
   4   0 -10  105.64   14.74
  -4   0  10  119.18   14.49
   4   0 -10  123.62   14.12
   4   0 -11   32.94   14.78
  -4   0  11   47.44   14.29
   4   0 -11   49.92   13.77
   4   0 -12   88.61   16.56
  -4   0  12   76.39   16.04
   4   0 -12   96.53   15.87
   4   0 -13   46.76   17.01
   4   0 -13   34.95   16.38
  -4   0  13   13.35   16.60
   4   0 -14  138.10   19.28
   4   0 -14  129.26   19.29
   4   0 -15  129.72   20.41
   4   1  18   46.51   16.53
   4   1  18   44.64   18.15
  -4  -1 -17   35.67   17.53
   4   1  17   40.98   15.78
   4   1  17   56.29   16.98
  -4  -1 -16   17.90   15.62
   4   1  16   32.28   14.64
   4   1  16   18.96   15.41
  -4  -1 -15   31.88   14.67
  -4  -1 -15   10.86   16.14
   4   1  15   15.49   12.89
   4   1  15   49.80   14.35
  -4  -1 -14   43.24   13.88
  -4  -1 -14    9.00   14.58
   4   1  14   15.61   12.58
   4   1  14   41.99   12.93
  -4  -1 -13   62.81   13.21
  -4  -1 -13   67.96   14.37
   4   1  13   62.43   12.37
   4   1  13   56.27   12.37
  -4  -1 -12  463.41   17.06
  -4  -1 -12  459.90   18.04
   4   1  12  476.53   15.38
   4   1  12  500.62   16.33
  -4  -1 -11   80.16   11.30
  -4  -1 -11  111.58   12.12
   4   1  11  107.37   10.42
  -4  -1 -10   55.07    9.63
  -4  -1 -10   49.76   10.44
   4   1  10   37.38    8.54
   4   1  10   48.42    7.97
  -4  -1  -9   29.55    7.80
  -4  -1  -9   10.74    7.94
   4   1   9   10.00    6.17
   4   1   9   19.31    7.50
   4   1   9   -1.49    7.36
  -4  -1  -9   12.04    9.91
  -4  -1  -8   45.69    7.31
  -4  -1  -8   44.08    6.22
   4   1   8   40.75    6.62
   4   1   8   32.21    5.35
   4   1   8   41.76    5.77
   4   1   8   48.32    5.72
  -4  -1  -8   30.68   10.23
   4   1   7  227.96    4.95
   4   1   7  212.99    5.18
  -4  -1  -6  361.05   16.06
  -4  -1  -6  350.90   14.40
  -4  -1  -5  552.50   17.48
  -4  -1  -5  670.95   17.44
  -4  -1  -4  914.03   19.61
  -4  -1  -4  989.82   20.17
  -4  -1  -3  113.18   10.60
  -4  -1  -3  125.46   10.62
  -4  -1  -2   34.21    9.16
  -4  -1  -2   59.92    9.90
  -4  -1  -1    6.81    4.89
  -4  -1  -1    1.79    8.68
  -4  -1   0  532.77    7.55
  -4  -1   0  534.23   16.98
   4   1  -1  806.25   10.43
  -4  -1   1  822.08   10.40
   4   1  -2    1.47    4.39
   4   1  -2   13.84    6.60
  -4  -1   2    9.97    4.09
  -4  -1   2   24.80    5.92
   4   1  -2    5.36    3.99
  -4  -1   2   17.45    5.98
  -4  -1   2   -3.03    8.27
   4   1  -3   23.15    7.32
  -4  -1   3   11.21    4.97
  -4  -1   3   12.67    6.70
   4   1  -3    8.15    4.55
  -4  -1   3   14.19    8.67
   4   1  -3    9.64    6.21
   4   1  -4   15.03    8.26
  -4  -1   4   33.20    6.65
  -4  -1   4   19.78    7.67
   4   1  -4   14.69    7.82
  -4  -1   4   24.39    8.97
   4   1  -5   17.56    9.34
  -4  -1   5   12.18    6.81
  -4  -1   5   25.58    8.48
   4   1  -5   22.05    8.63
  -4  -1   5   22.73    9.06
   4   1  -6   29.37   10.15
  -4  -1   6   35.00    9.39
  -4  -1   6    6.68    8.77
  -4  -1   6   26.62    8.53
   4   1  -7  203.23   13.44
  -4  -1   7  215.25   13.29
   4   1  -8  242.77   14.98
  -4  -1   8  281.90   14.86
  -4  -1   8  293.51   14.42
   4   1  -9  272.24   16.43
  -4  -1   9  300.89   16.19
   4   1  -9  302.67   16.08
   4   1 -10   28.85   14.20
  -4  -1  10   22.75   13.59
   4   1 -10   24.04   13.31
   4   1 -11   26.24   14.52
  -4  -1  11   48.86   15.07
   4   1 -11   23.64   14.31
   4   1 -12   51.11   16.08
  -4  -1  12   72.51   16.11
  -4  -1  12   57.05   16.31
   4   1 -12   77.55   16.21
   4   1 -13  228.17   19.28
  -4  -1  13  269.86   20.45
   4   1 -13  228.14   20.05
  -4  -1  13  254.55   20.32
   4   1 -14  212.87   20.71
   4   1 -14  187.20   20.55
   4   1 -15   16.38   18.84
   4   2  18   41.19   16.36
   4   2  18   25.36   17.62
  -4  -2 -17   89.59   18.02
   4   2  17   85.14   16.04
   4   2  17   86.10   17.51
  -4  -2 -16   28.79   16.21
   4   2  16   47.56   14.53
   4   2  16   14.75   15.06
  -4  -2 -15    7.14   14.32
  -4  -2 -15   42.96   16.36
   4   2  15    7.66   13.01
   4   2  15   45.29   14.27
  -4  -2 -14   30.49   13.85
  -4  -2 -14    8.26   14.72
   4   2  14    5.78   12.24
   4   2  14   28.61   12.84
  -4  -2 -13  117.21   13.94
  -4  -2 -13   69.49   14.30
   4   2  13   71.86   12.08
   4   2  13  119.84   13.11
  -4  -2 -12   40.06   11.64
  -4  -2 -12   31.25   12.36
   4   2  12   29.32   10.27
  -4  -2 -11   28.35   10.83
  -4  -2 -11    1.32   10.75
   4   2  11   14.39    8.65
  -4  -2 -10   49.64    9.65
   4   2  10   29.32    7.64
   4   2  10   25.15    8.24
  -4  -2 -10   39.28    9.27
  -4  -2  -9  198.17    9.60
   4   2   9  242.06    9.09
   4   2   9  239.22    8.87
   4   2   9  207.22    9.53
   4   2   9  228.12    9.35
  -4  -2  -9  255.72   14.43
  -4  -2  -9  222.06   10.23
  -4  -2  -8   98.28    6.75
   4   2   8  122.66    7.18
   4   2   8   93.22    5.89
   4   2   8  116.05    7.10
  -4  -2  -8  130.58   12.17
   4   2   7  201.97    4.75
   4   2   7  180.60    4.76
  -4  -2  -6   52.45   12.05
  -4  -2  -6   17.14   10.21
  -4  -2  -5   56.41   11.57
  -4  -2  -5   73.08   10.38
  -4  -2  -4  831.76   19.47
  -4  -2  -4  871.31   19.72
  -4  -2  -3  365.26   13.28
  -4  -2  -3  349.65   14.04
  -4  -2  -2    1.23    8.58
  -4  -2  -2   27.19    8.93
  -4  -2  -1   32.70    8.17
  -4  -2  -1   25.04    8.53
   4   2   0   95.29    5.85
  -4  -2   0   85.08    5.52
   4   2  -1   69.47    6.63
  -4  -2   1   20.08    2.70
  -4  -2   1   21.36    2.42
   4   2  -1   37.86    3.36
  -4  -2   1   48.28    6.16
  -4  -2   1   50.07    6.17
  -4  -2   1   62.81   10.62
   4   2  -1   44.44    4.02
   4   2  -2   46.82    7.40
  -4  -2   2   32.49    4.56
   4   2  -2   39.81    4.48
  -4  -2   2   44.33    6.97
  -4  -2   2   47.42    9.81
   4   2  -2   35.81    5.33
   4   2  -3   -0.02    7.65
  -4  -2   3    4.65    5.35
  -4  -2   3    9.59    7.38
   4   2  -3   -3.33    5.24
   4   2  -3    7.83    6.37
   4   2  -4  421.95   12.75
  -4  -2   4  423.78   11.27
  -4  -2   4  456.94   12.93
  -4  -2   4  470.98   16.03
   4   2  -4  436.34   13.49
   4   2  -5   34.28    9.62
  -4  -2   5   54.21    9.50
  -4  -2   5   24.35    8.96
  -4  -2   5   46.59    8.10
   4   2  -6  171.49   12.67
  -4  -2   6  170.20   12.29
  -4  -2   6  165.31   11.06
   4   2  -7   29.96   12.04
  -4  -2   7   15.82   11.04
  -4  -2   7   43.68   10.49
   4   2  -8  101.19   13.78
  -4  -2   8   96.29   13.32
  -4  -2   8  111.52   13.00
   4   2  -9   71.12   14.21
  -4  -2   9   72.06   13.63
  -4  -2   9   50.42   13.45
   4   2  -9   61.35   13.09
   4   2 -10   36.99   14.24
  -4  -2  10   31.10   13.60
  -4  -2  10   42.41   14.14
   4   2 -10   23.91   13.31
   4   2 -11  105.97   16.40
  -4  -2  11  122.88   16.23
   4   2 -11   93.45   15.84
  -4  -2  11  146.50   16.76
   4   2 -12  103.58   17.35
  -4  -2  12   93.31   16.92
   4   2 -12  134.93   17.57
   4   2 -13   85.13   17.84
  -4  -2  13   58.42   17.38
   4   2 -13   78.26   18.45
   4   2 -14   39.52   18.00
   4   3  18   37.52   16.89
   4   3  18    3.58   17.73
  -4  -3 -17   -7.18   16.75
   4   3  17   20.94   15.66
  -4  -3 -16  162.63   18.03
   4   3  16  108.86   15.63
   4   3  16  136.21   16.81
  -4  -3 -15   21.00   14.67
  -4  -3 -15   18.24   16.36
   4   3  15   16.48   12.86
   4   3  15   13.07   13.64
  -4  -3 -14   47.89   13.97
  -4  -3 -14   71.13   15.94
   4   3  14   55.46   12.65
   4   3  14   50.20   13.16
  -4  -3 -13  145.35   14.46
  -4  -3 -13  127.00   15.24
   4   3  13  171.86   13.23
   4   3  13  163.18   14.00
  -4  -3 -12   96.19   13.78
   4   3  12   98.94   11.11
  -4  -3 -12  103.07   12.79
  -4  -3 -11   26.77   10.76
  -4  -3 -11   42.71   11.14
   4   3  11   21.78    9.39
  -4  -3 -10   50.76    9.86
   4   3  10   41.66    7.53
   4   3  10   58.29    8.51
  -4  -3 -10   40.20    9.52
  -4  -3  -9   81.64    8.79
   4   3   9   89.11    7.91
   4   3   9   68.88    6.87
   4   3   9   74.70    7.89
  -4  -3  -9   84.86   12.38
  -4  -3  -9   66.80    8.76
   4   3   8   -3.96    4.96
  -4  -3  -8    7.29    5.90
   4   3   8    3.97    6.18
   4   3   8   -0.11    5.39
  -4  -3  -8    7.87    7.05
  -4  -3  -7   29.27    3.88
   4   3   7   33.87    3.82
   4   3   7   18.73    4.05
  -4  -3  -7   34.79   10.59
  -4  -3  -6  777.03   21.01
  -4  -3  -6  932.72   21.71
  -4  -3  -5  103.46   11.51
  -4  -3  -5   69.01   11.01
  -4  -3  -4    6.03    9.99
  -4  -3  -4    4.51    9.80
  -4  -3  -3  235.39   12.10
  -4  -3  -3  214.78   12.71
  -4  -3  -2  134.39   10.61
  -4  -3  -2  119.59   10.97
  -4  -3  -1  382.39   11.81
  -4  -3  -1  306.26   14.40
   4   3   0  433.56    9.23
  -4  -3   0  441.57    9.19
  -4  -3   0  432.38   16.14
   4   3  -1  371.26    9.82
  -4  -3   1  246.73    6.18
   4   3  -1  299.40    6.74
  -4  -3   1  347.04    9.53
  -4  -3   1  351.65   14.65
   4   3  -1  289.14    7.61
   4   3  -2   55.57    8.01
  -4  -3   2   46.24    5.54
   4   3  -2   50.49    5.82
  -4  -3   2   50.95    7.64
  -4  -3   2   45.20    9.79
   4   3  -2   53.26    6.52
   4   3  -3  122.68    7.74
  -4  -3   3  149.92    9.46
  -4  -3   3  156.02   12.75
   4   3  -3  131.39    8.86
  -4  -3   3  157.32    8.28
   4   3  -4   50.66    9.34
  -4  -3   4   68.70    9.54
  -4  -3   4   70.51    9.53
  -4  -3   4   84.14   10.94
   4   3  -4   46.66    8.98
  -4  -3   4   70.84    8.04
   4   3  -5   47.15   10.50
  -4  -3   5   48.06    9.64
  -4  -3   5   37.35    9.97
  -4  -3   5   47.97    9.09
   4   3  -6   83.30   11.73
  -4  -3   6   74.65   11.44
  -4  -3   6   64.78   11.49
  -4  -3   6   92.20   11.11
   4   3  -7  533.21   18.25
  -4  -3   7  512.86   17.39
  -4  -3   7  522.13   17.96
   4   3  -8   18.58   12.86
  -4  -3   8   52.48   12.88
  -4  -3   8   39.23   12.85
   4   3  -9   12.33   13.51
  -4  -3   9   31.54   12.70
   4   3  -9   39.14   13.12
   4   3 -10   14.55   14.25
  -4  -3  10    5.61   13.37
   4   3 -10   22.15   14.46
   4   3 -11   13.81   15.06
  -4  -3  11   35.58   15.32
   4   3 -11   51.46   16.09
   4   3 -12   20.49   15.55
  -4  -3  12    7.87   15.85
   4   3 -12   37.39   16.99
   4   3 -13   30.25   16.83
   4   3 -13   25.65   17.68
   4   3 -14   58.31   18.50
   4   4  18   47.42   16.61
   4   4  18   62.81   18.52
  -4  -4 -17   73.57   18.67
   4   4  17   42.61   15.88
   4   4  17   78.53   17.61
  -4  -4 -16   99.08   17.23
   4   4  16   99.83   15.57
   4   4  16   94.82   16.16
  -4  -4 -15    7.83   14.80
  -4  -4 -15   -5.63   16.09
   4   4  15   29.01   13.40
   4   4  15    8.82   13.96
  -4  -4 -14  -10.11   13.81
  -4  -4 -14   15.06   15.00
   4   4  14   16.00   11.92
   4   4  14   31.21   12.98
  -4  -4 -13   47.88   14.98
   4   4  13   32.48   11.32
   4   4  13   69.02   12.80
  -4  -4 -13   57.30   13.41
  -4  -4 -12   15.28   12.46
   4   4  12   16.74   10.12
  -4  -4 -12   15.07   11.30
  -4  -4 -11  -11.25   10.70
   4   4  11   17.85    9.40
  -4  -4 -11   17.64   10.74
  -4  -4 -10   60.79   10.29
   4   4  10   60.29    8.25
   4   4  10   76.21    9.18
  -4  -4 -10   40.43    9.83
  -4  -4  -9  316.18   12.44
   4   4   9  291.33   10.21
  -4  -4  -9  296.37   11.60
   4   4   8    2.67    6.02
  -4  -4  -8    5.01    6.49
   4   4   8   -2.63    6.81
  -4  -4  -8   19.98   11.46
  -4  -4  -8   13.26    7.53
   4   4   8   -0.82    5.31
  -4  -4  -7    3.45    5.03
   4   4   7   16.27    4.83
  -4  -4  -7    5.82   10.68
   4   4   7    2.96    4.30
  -4  -4  -6   16.74    2.75
   4   4   6   23.60    3.49
   4   4   6   20.90    3.80
  -4  -4  -6   31.34   11.49
  -4  -4  -6   33.35   10.74
  -4  -4  -6   17.56    2.57
  -4  -4  -5   80.51   11.41
  -4  -4  -5   68.19   11.12
  -4  -4  -4   88.08   10.51
  -4  -4  -4   67.07   11.31
  -4  -4  -3  723.97   15.70
  -4  -4  -3  642.95   18.54
  -4  -4  -2  278.22   11.51
  -4  -4  -2  284.13   14.20
   4   4   1   17.56    3.21
   4   4   1    9.28    3.45
  -4  -4  -1    4.57    1.94
  -4  -4  -1    7.05    1.86
  -4  -4  -1   16.84    6.38
  -4  -4  -1    1.74    9.97
   4   4   0   23.81    4.95
   4   4   0   42.01    7.74
   4   4   0   26.11    4.36
  -4  -4   0   25.66    6.90
  -4  -4   0   37.74   10.35
  -4  -4   0   21.58    4.18
   4   4  -1  123.70    9.35
   4   4  -1   99.91    6.30
  -4  -4   1  111.34    8.50
  -4  -4   1  105.03   11.14
   4   4  -1   94.15    7.20
  -4  -4   1   78.36    6.07
   4   4  -2  803.79   15.61
   4   4  -2  721.50   13.53
  -4  -4   2  816.42   15.50
  -4  -4   2  864.62   20.16
   4   4  -2  710.45   14.52
  -4  -4   2  758.90   13.54
   4   4  -3  626.97   15.35
  -4  -4   3  618.14   14.81
  -4  -4   3  653.19   18.20
  -4  -4   3  598.54   13.94
   4   4  -4  775.56   17.33
  -4  -4   4  717.81   16.73
  -4  -4   4  737.30   16.54
   4   4  -5   36.33   11.01
  -4  -4   5   19.80   10.41
  -4  -4   5   38.84   10.03
   4   4  -6   27.12   12.10
  -4  -4   6   14.39   10.43
  -4  -4   6   37.62   11.52
   4   4  -7   13.77   12.43
  -4  -4   7    2.36   11.50
  -4  -4   7    6.53   11.81
   4   4  -8    9.75   12.83
  -4  -4   8   33.93   12.95
   4   4  -9   59.02   14.71
  -4  -4   9   87.03   14.71
   4   4  -9   89.10   15.09
   4   4 -10   65.87   15.24
  -4  -4  10  111.30   15.88
   4   4 -10  121.11   16.76
   4   4 -11   33.86   15.55
  -4  -4  11   82.86   16.80
   4   4 -11   67.72   17.08
   4   4 -12   -4.39   16.10
  -4  -4  12   23.91   16.61
   4   4 -12    7.09   16.63
   4   4 -13   55.49   18.08
   4   4 -13   39.85   18.66
   4   4 -14   46.57   19.10
   4   5  18   79.17   17.34
   4   5  17   37.89   15.69
   4   5  17   74.82   17.60
  -4  -5 -16   58.53   17.02
   4   5  16   13.21   13.91
   4   5  16   61.44   16.13
  -4  -5 -15   62.88   17.78
   4   5  15  108.99   14.65
  -4  -5 -15   97.06   16.25
  -4  -5 -14   37.00   16.57
   4   5  14   73.52   12.81
   4   5  14   81.81   14.13
  -4  -5 -14   82.26   14.72
  -4  -5 -13   12.11   13.86
   4   5  13   33.88   11.61
   4   5  13   28.87   12.51
  -4  -5 -13   36.20   13.41
  -4  -5 -12  165.87   14.97
   4   5  12  123.01   11.83
  -4  -5 -12  131.29   13.85
  -4  -5 -11   -4.51   10.85
   4   5  11   24.55    9.94
  -4  -5 -11   11.95   11.14
  -4  -5 -10   16.35   10.49
   4   5  10   26.81    9.09
   4   5  10   15.12    7.23
  -4  -5 -10   29.47   10.37
  -4  -5  -9   26.46    9.20
   4   5   9   14.65    8.28
   4   5   9    8.14    6.16
  -4  -5  -9   13.23    9.59
  -4  -5  -8  158.33    9.86
   4   5   8  136.51    7.35
   4   5   8  155.23    9.19
   4   5   8  149.66    9.07
  -4  -5  -8  146.67    9.94
  -4  -5  -7    8.79    6.33
   4   5   7   21.35    7.06
   4   5   7   26.12    6.09
   4   5   7   25.00    5.09
  -4  -5  -7   28.09    8.37
  -4  -5  -7   35.70   11.79
  -4  -5  -6  125.41    6.90
   4   5   6  125.93    7.64
   4   5   6  116.22    6.35
   4   5   6  131.98    5.67
  -4  -5  -6  137.55   13.51
  -4  -5  -5   11.71    4.64
   4   5   5   42.45    6.50
  -4  -5  -5   30.47   12.02
   4   5   5   10.42    3.62
   4   5   5    7.81    4.44
  -4  -5  -5   38.10   11.56
   4   5   4   19.06    6.33
   4   5   4   16.15    4.10
  -4  -5  -4   16.71   10.90
   4   5   4   16.30    3.25
  -4  -5  -4   16.65    8.03
  -4  -5  -4   11.25   10.72
  -4  -5  -4   15.70    4.24
   4   5   3   14.11    4.01
  -4  -5  -3   21.14    4.12
   4   5   3   19.00    7.15
   4   5   3   17.21    4.23
  -4  -5  -3   12.25    9.86
  -4  -5  -3   24.76    8.44
  -4  -5  -3   22.05   10.72
   4   5   2  294.08    7.85
   4   5   2  361.91   10.46
  -4  -5  -2  330.58    7.32
   4   5   2  372.07    7.25
  -4  -5  -2  353.61   11.55
  -4  -5  -2  288.68   15.12
   4   5   1  314.21    9.32
   4   5   1  384.46   11.27
  -4  -5  -1  364.67    8.47
   4   5   1  291.54    7.87
  -4  -5  -1  369.08   11.30
  -4  -5  -1  355.04   15.75
   4   5   0   13.74    8.75
   4   5   0    4.08    5.92
  -4  -5   0    7.95    5.66
   4   5   0    2.64    4.98
  -4  -5   0   18.31    8.05
  -4  -5   0    2.80   10.10
   4   5  -1  153.81   11.11
   4   5  -1  126.68    7.57
  -4  -5   1  157.72   10.10
  -4  -5   1  158.39   13.07
   4   5  -1  151.95    9.34
  -4  -5   1  154.93    8.80
   4   5  -2  651.97   15.95
  -4  -5   2  653.19   15.71
  -4  -5   2  622.75   18.40
   4   5  -2  601.84   14.90
  -4  -5   2  687.38   14.84
   4   5  -3  127.05   11.66
  -4  -5   3  140.96   11.39
  -4  -5   3  120.08   11.85
  -4  -5   3  126.62   10.60
   4   5  -4   14.21   11.45
  -4  -5   4    9.62   10.76
  -4  -5   4    7.50    9.35
   4   5  -5  443.28   16.81
  -4  -5   5  424.53   16.67
   4   5  -6  234.08   15.69
  -4  -5   6  234.43   15.07
  -4  -5   6  246.41   15.18
   4   5  -7  143.52   14.98
  -4  -5   7  148.69   14.59
   4   5  -8   68.49   14.64
  -4  -5   8   40.17   13.61
   4   5  -9   31.94   15.01
  -4  -5   9   32.11   14.69
   4   5  -9   22.45   14.49
   4   5 -10   39.77   15.63
  -4  -5  10   12.77   15.49
   4   5 -10   15.51   15.56
   4   5 -11   32.15   16.63
  -4  -5  11   21.76   16.60
   4   5 -11   61.28   17.28
   4   5 -12   29.22   17.80
   4   5 -12   28.80   18.03
   4   5 -13   13.70   18.35
   4   6  18   74.12   17.72
   4   6  17   20.92   15.13
   4   6  17   99.22   18.14
   4   6  16   57.48   14.98
   4   6  16   39.50   16.12
  -4  -6 -16   64.56   18.22
  -4  -6 -15   12.96   15.30
   4   6  15    8.67   13.61
   4   6  15   26.40   14.74
  -4  -6 -14   25.88   16.65
   4   6  14    8.44   12.44
  -4  -6 -14   12.74   13.95
  -4  -6 -13   63.35   15.70
   4   6  13   57.84   12.72
   4   6  13   57.44   13.08
  -4  -6 -13   34.48   13.42
  -4  -6 -12  108.91   15.33
   4   6  12   71.13   11.49
  -4  -6 -12   93.39   13.38
  -4  -6 -11  211.86   15.07
   4   6  11  185.30   12.24
  -4  -6 -11  167.40   13.80
  -4  -6 -10   23.48   11.77
   4   6  10    4.30    9.48
  -4  -6 -10    9.22   11.04
  -4  -6  -9    8.31    9.96
   4   6   9   16.40    9.17
   4   6   9    8.07    6.47
  -4  -6  -9    1.87    9.63
  -4  -6  -8   25.10    8.96
   4   6   8   28.82    8.84
   4   6   8   20.22    6.02
  -4  -6  -8   34.13   10.04
  -4  -6  -7  388.85   12.35
   4   6   7  367.92   11.77
   4   6   7  398.82   11.82
  -4  -6  -6  579.63   13.00
   4   6   6  609.57   13.25
   4   6   6  575.98   11.31
   4   6   6  576.91   12.39
  -4  -6  -6  638.43   15.10
  -4  -6  -6  611.67   21.08
  -4  -6  -5  348.91   10.39
   4   6   5  289.49   10.70
   4   6   5  381.29    9.41
   4   6   5  339.68    9.81
  -4  -6  -5  403.80   12.99
  -4  -6  -5  314.83   16.51
  -4  -6  -4    7.12    5.96
   4   6   4    6.41    7.40
   4   6   4   -4.98    5.95
  -4  -6  -4   14.23    9.20
   4   6   4   -2.73    5.56
  -4  -6  -4   17.00   11.44
   4   6   3   82.80    7.09
   4   6   3   94.79    9.64
  -4  -6  -3  105.84    7.53
   4   6   3   81.29    6.26
  -4  -6  -3   70.03   10.12
  -4  -6  -3   91.90   12.38
   4   6   2   47.87    9.13
  -4  -6  -2   16.92    6.49
   4   6   2    7.70    6.31
   4   6   2   28.95    6.00
  -4  -6  -2   43.10    9.99
  -4  -6  -2   47.71   12.32
   4   6   1   31.01    9.39
  -4  -6  -1    5.02    6.85
   4   6   1   18.06    6.94
   4   6   1   24.02    6.30
  -4  -6  -1   22.17    9.21
  -4  -6  -1   28.71   11.47
   4   6   0   32.56    9.95
  -4  -6   0   30.23    7.92
  -4  -6   0   15.00    9.12
  -4  -6   0   25.92   10.82
   4   6   0   37.52    7.64
   4   6  -1   11.52    8.11
   4   6  -1   12.78   10.26
  -4  -6   1    7.90    9.46
  -4  -6   1   10.80   10.40
  -4  -6   1    7.33    8.30
   4   6  -2  316.42   14.28
  -4  -6   2  328.17   13.64
  -4  -6   2  334.55   15.72
  -4  -6   2  349.31   13.59
   4   6  -3   68.53   12.13
  -4  -6   3   64.32   11.57
  -4  -6   3   73.32   10.90
   4   6  -4   55.65   12.75
  -4  -6   4   55.42   12.17
  -4  -6   4   62.67   11.62
   4   6  -5  159.30   14.96
  -4  -6   5  152.84   14.10
  -4  -6   5  169.76   14.15
   4   6  -6   25.19   13.55
  -4  -6   6    0.40   12.38
  -4  -6   6   -0.44   12.58
   4   6  -7   46.20   14.65
  -4  -6   7   31.25   13.74
   4   6  -8   11.47   14.88
  -4  -6   8   33.22   14.51
   4   6  -8   27.57   14.92
   4   6  -9   40.32   15.95
  -4  -6   9   36.11   15.09
   4   6  -9   70.66   16.45
   4   6 -10   87.14   16.79
  -4  -6  10   68.17   17.03
   4   6 -10   86.78   17.85
   4   6 -11   48.79   17.20
  -4  -6  11   38.04   17.67
   4   6 -11   51.09   18.02
   4   6 -12   64.52   19.03
   4   6 -13  -13.94   19.65
   4   7  17    8.78   15.78
   4   7  17   41.19   17.73
  -4  -7 -16   57.46   17.97
   4   7  16   37.54   14.97
   4   7  16   61.46   16.94
   4   7  15   46.17   14.35
   4   7  15   67.88   16.10
  -4  -7 -15   85.13   17.01
  -4  -7 -14   25.16   17.30
   4   7  14   -1.77   12.87
   4   7  14   51.07   14.59
  -4  -7 -14   29.21   14.98
  -4  -7 -13   15.91   15.60
   4   7  13   41.94   12.77
   4   7  13   16.50   13.24
  -4  -7 -13   51.69   14.13
  -4  -7 -12   58.50   14.98
   4   7  12   36.76   11.97
  -4  -7 -12   36.77   13.79
   4   7  12   27.48   12.67
   4   7  11   23.18   11.25
  -4  -7 -11   -0.27   12.58
  -4  -7 -11   -4.93   12.74
  -4  -7 -10   96.07   13.75
   4   7  10   96.45   11.47
  -4  -7 -10   87.54   12.93
  -4  -7  -9  381.25   15.88
  -4  -7  -9  351.73   15.30
  -4  -7  -8 1656.71   25.36
   4   7   8 1664.52   22.52
  -4  -7  -8 1725.04   25.26
  -4  -7  -7  110.35   10.77
   4   7   7   84.64    8.97
   4   7   7  121.37   10.64
  -4  -7  -7  119.38   12.31
  -4  -7  -6  260.42   11.93
   4   7   6  273.15   11.89
   4   7   6  284.84   11.91
  -4  -7  -6  282.62   13.38
  -4  -7  -5   15.02    8.25
   4   7   5   -6.78    8.44
   4   7   5   -1.33    7.09
  -4  -7  -5    9.63    9.80
  -4  -7  -4   52.62    8.88
   4   7   4   53.73    8.11
   4   7   4   76.30    9.83
  -4  -7  -4   62.41   11.15
  -4  -7  -4   76.65   13.48
  -4  -7  -3  130.42    9.76
   4   7   3  116.05    9.19
   4   7   3  146.80   11.47
  -4  -7  -3  134.69   12.77
  -4  -7  -3  116.79   13.78
  -4  -7  -2  485.90   13.77
   4   7   2  424.57   13.63
   4   7   2  476.04   14.76
  -4  -7  -2  494.95   16.31
  -4  -7  -2  434.38   18.47
   4   7   2  533.95   17.01
  -4  -7  -1  299.28   12.22
   4   7   1  264.46   11.48
   4   7   1  296.19   13.70
  -4  -7  -1  298.95   14.19
   4   7   1  274.80   15.42
  -4  -7  -1  256.02   15.57
   4   7   0  223.38   13.63
  -4  -7   0  191.04   12.73
  -4  -7   0  185.43   14.48
  -4  -7   0  196.18   11.78
   4   7  -1   49.53   12.56
  -4  -7   1   57.81   10.95
  -4  -7   1   61.51   11.67
  -4  -7   1   47.74   10.05
   4   7  -2   75.67   13.26
  -4  -7   2   54.74   11.83
  -4  -7   2   52.05   11.02
   4   7  -3   76.05   13.34
  -4  -7   3   63.01   12.41
  -4  -7   3   87.41   12.17
   4   7  -4  192.13   15.70
  -4  -7   4  181.51   14.63
  -4  -7   4  231.38   15.55
   4   7  -5  319.35   17.74
  -4  -7   5  293.24   16.98
  -4  -7   5  328.76   17.94
   4   7  -6   31.94   14.40
  -4  -7   6   27.31   13.59
   4   7  -7  120.85   16.25
  -4  -7   7   89.66   15.17
   4   7  -8   69.34   16.71
  -4  -7   8  115.88   16.80
   4   7  -8   62.03   15.88
   4   7  -9  159.25   18.80
  -4  -7   9  133.03   17.82
   4   7  -9  134.71   18.48
   4   7 -10   71.67   18.25
  -4  -7  10   48.81   17.49
   4   7 -11  172.25   20.83
   4   7 -11  161.52   20.83
   4   7 -12   68.45   19.84
   4   8  17   36.13   16.43
   4   8  16   29.68   15.72
   4   8  16   40.18   17.31
   4   8  15   41.78   14.57
   4   8  15   32.60   15.84
  -4  -8 -15   18.62   16.70
   4   8  14   23.54   13.81
   4   8  14   68.54   15.45
  -4  -8 -14   36.49   15.85
  -4  -8 -13  106.55   18.22
   4   8  13  134.61   14.60
   4   8  13  130.38   15.92
  -4  -8 -13   99.04   16.01
  -4  -8 -12   29.47   15.50
   4   8  12   62.69   13.18
   4   8  12   60.52   13.73
  -4  -8 -12   88.06   14.97
  -4  -8 -11   12.72   13.87
   4   8  11   10.89   11.81
  -4  -8 -11   12.42   13.45
   4   8  11    0.04   12.33
  -4  -8 -10   32.15   14.41
   4   8  10   45.29   11.43
  -4  -8 -10   29.13   13.59
   4   8  10   25.26   12.19
  -4  -8  -9  101.38   13.53
   4   8   9   88.98   11.69
  -4  -8  -9  110.72   13.69
  -4  -8  -8   -5.48   10.71
   4   8   8   33.47   10.82
  -4  -8  -8   15.54   12.61
  -4  -8  -7  120.97   11.98
   4   8   7  155.68   12.00
  -4  -8  -7  120.10   13.73
  -4  -8  -6    7.78    9.84
   4   8   6   17.67    9.96
  -4  -8  -6    9.78   11.83
  -4  -8  -5  169.79   11.91
  -4  -8  -5  173.20   13.84
   4   8   4  547.23   15.93
   4   8   4  576.37   19.62
   4   8   3  214.04   13.34
  -4  -8  -3  174.88   12.03
  -4  -8  -3  197.97   14.52
   4   8   2   65.56   12.00
  -4  -8  -2   69.65   10.17
  -4  -8  -2   45.87   12.63
   4   8   2   61.46   13.50
  -4  -8  -1    7.95    9.70
   4   8   1   11.81   11.77
  -4  -8  -1   12.37   12.95
   4   8   1   10.50   13.07
  -4  -8   0  449.75   16.30
   4   8   0  463.71   17.29
  -4  -8   0  460.27   18.02
   4   8   0  425.15   18.87
  -4  -8   0  433.00   18.60
  -4  -8   1   53.95   11.73
   4   8  -1   58.15   13.42
  -4  -8   1   92.44   13.50
  -4  -8   1   88.05   13.31
  -4  -8   2   17.50   11.34
   4   8  -2    2.06   13.35
  -4  -8   2   18.55   12.35
  -4  -8   3  139.31   14.37
   4   8  -3  144.72   15.62
  -4  -8   3  127.03   14.25
   4   8  -4   43.24   15.04
  -4  -8   4    1.70   12.48
  -4  -8   4    6.00   12.95
   4   8  -5   28.20   15.49
  -4  -8   5   35.23   14.33
   4   8  -6    8.27   15.13
  -4  -8   6   26.86   14.45
   4   8  -7   10.73   16.09
  -4  -8   7   26.51   15.32
   4   8  -7   45.52   16.24
   4   8  -8   66.45   17.29
  -4  -8   8   58.33   16.91
   4   8  -8   89.97   17.52
   4   8  -9   91.28   18.53
  -4  -8   9   80.23   18.10
   4   8  -9  102.19   19.26
   4   8 -10  139.18   20.62
   4   8 -10  125.65   20.70
   4   8 -11   78.24   20.17
   4   9  16   35.57   16.64
   4   9  16   25.75   17.68
   4   9  15   66.41   16.02
   4   9  15   58.45   16.99
  -4  -9 -15   62.66   18.47
   4   9  14   53.54   14.70
   4   9  14   64.88   16.37
  -4  -9 -14   34.64   16.36
   4   9  13   38.99   13.96
   4   9  13   34.21   14.61
  -4  -9 -13    6.00   15.32
  -4  -9 -12  126.71   18.00
   4   9  12  143.00   14.84
   4   9  12   94.85   15.15
  -4  -9 -12  111.77   16.49
   4   9  11   46.84   13.11
  -4  -9 -11   17.78   15.24
  -4  -9 -11   35.32   14.21
   4   9  11   44.51   13.87
  -4  -9 -10   64.37   15.23
   4   9  10   86.52   13.22
   4   9  10   50.71   14.01
  -4  -9 -10   85.61   14.86
  -4  -9  -9    7.46   12.90
   4   9   9  -14.85   11.57
  -4  -9  -9  -11.62   13.50
   4   9   9   19.83   13.21
  -4  -9  -8   -5.76   11.90
   4   9   8   40.70   12.32
  -4  -9  -8   11.53   13.94
   4   9   8    7.43   12.39
  -4  -9  -7   58.23   12.56
   4   9   7   97.09   12.37
  -4  -9  -7   66.25   13.94
   4   9   7   76.90   13.93
  -4  -9  -6   49.65   11.81
   4   9   6  101.81   11.93
  -4  -9  -6   48.83   13.13
   4   9   6   97.45   13.88
   4   9   5   62.90   11.09
  -4  -9  -5    8.52   10.82
  -4  -9  -5    6.30   13.27
   4   9   5   72.25   13.70
   4   9   4   31.72   11.90
  -4  -9  -4    5.08   10.57
  -4  -9  -4   34.24   13.70
   4   9   4   39.12   14.75
   4   9   3   43.44   12.60
  -4  -9  -3   39.81   11.37
  -4  -9  -3   56.35   14.70
   4   9   3   79.62   16.31
   4   9   2  261.12   15.71
  -4  -9  -2  249.25   14.89
  -4  -9  -2  237.79   17.04
   4   9   1  164.30   14.63
  -4  -9  -1  165.96   13.48
  -4  -9  -1  207.16   16.48
  -4  -9   0   11.26   11.39
   4   9   0   10.65   13.56
  -4  -9   0    3.20   13.26
   4   9   0   22.22   15.11
  -4  -9   1  267.05   16.22
   4   9  -1  251.53   16.68
   4   9  -1  245.15   19.29
  -4  -9   2   21.09   12.47
   4   9  -2    9.03   14.56
  -4  -9   2   63.71   14.87
   4   9  -2   51.39   17.03
  -4  -9   3   69.82   14.33
   4   9  -3   42.29   15.51
  -4  -9   3   85.16   15.27
   4   9  -4   50.05   16.15
  -4  -9   4   39.87   14.75
   4   9  -5   36.91   16.79
  -4  -9   5   25.71   14.89
   4   9  -6   77.44   17.85
  -4  -9   6   63.43   16.43
   4   9  -7  107.00   18.62
  -4  -9   7   56.36   17.34
   4   9  -7   63.63   17.63
   4   9  -8   46.92   18.32
  -4  -9   8   17.20   17.10
   4   9  -8   30.14   18.32
   4   9  -9   10.65   18.70
   4   9  -9   24.82   19.06
   4   9 -10   45.32   19.51
   4  10  16   35.68   17.14
   4  10  15   90.80   17.12
   4  10  15   83.41   18.32
   4  10  14  100.19   16.50
   4  10  14   79.61   16.92
  -4 -10 -14   84.79   18.88
   4  10  13   92.10   15.52
   4  10  13   66.69   16.61
  -4 -10 -13   67.80   17.52
   4  10  12   27.26   14.26
  -4 -10 -12   14.86   15.38
   4  10  12   33.88   15.20
  -4 -10 -11   37.12   17.18
   4  10  11   50.84   14.28
   4  10  11   59.05   15.34
  -4 -10 -11   32.60   15.40
  -4 -10 -10  152.57   19.23
   4  10  10  114.82   14.58
   4  10  10  148.00   16.07
  -4 -10 -10  105.54   16.08
  -4 -10  -9   10.55   14.60
   4  10   9   15.90   13.03
  -4 -10  -9   24.21   15.08
   4  10   9   27.71   14.07
  -4 -10  -8   57.49   15.08
   4  10   8   24.31   13.08
  -4 -10  -8   57.00   15.33
   4  10   8   42.33   14.35
  -4 -10  -7  126.83   14.95
   4  10   7  155.30   14.09
  -4 -10  -7  119.01   15.78
   4  10   7  170.22   16.20
   4  10   6   26.96   12.31
  -4 -10  -6   22.66   12.76
  -4 -10  -6   65.90   14.88
   4  10   6   80.31   14.69
   4  10   5   23.80   12.43
  -4 -10  -5   -2.64   11.95
  -4 -10  -5   31.16   14.26
   4  10   5   38.91   15.33
   4  10   4   42.17   13.52
  -4 -10  -4   16.80   12.21
  -4 -10  -4   57.58   15.14
   4  10   4   84.01   16.56
   4  10   3   89.03   14.51
  -4 -10  -3   73.27   13.39
  -4 -10  -3   91.87   15.78
   4  10   3   58.12   17.46
   4  10   2   82.54   14.93
  -4 -10  -2  107.32   13.86
  -4 -10  -2   83.86   16.12
   4  10   2  123.55   18.37
   4  10   1  145.90   16.17
  -4 -10  -1  149.41   14.84
  -4 -10  -1  157.47   17.47
  -4 -10   0   75.00   14.31
   4  10   0   67.60   15.36
  -4 -10   0   74.88   16.61
   4  10   0  105.62   17.90
  -4 -10   1  197.87   16.90
   4  10  -1  139.76   16.44
  -4 -10   1  175.88   17.65
   4  10  -1  152.24   19.25
   4  10  -2  135.53   16.80
  -4 -10   2  126.57   17.38
   4  10  -2  137.83   19.49
   4  10  -3  142.07   17.75
  -4 -10   3  147.10   17.73
   4  10  -3  138.68   20.11
   4  10  -4   32.45   16.94
  -4 -10   4   30.00   15.98
   4  10  -4   56.96   19.42
   4  10  -5  150.35   19.38
  -4 -10   5  186.42   18.99
   4  10  -5  162.39   21.70
   4  10  -6  140.36   19.72
  -4 -10   6  142.92   19.00
   4  10  -6  172.89   19.54
   4  10  -7   34.34   18.63
  -4 -10   7   44.06   18.17
   4  10  -7   37.71   18.62
   4  10  -8   51.27   19.75
   4  10  -8   87.62   20.33
   4  10  -9   31.94   20.19
   4  11  15   52.29   16.82
   4  11  14   43.62   16.82
   4  11  14   66.09   18.21
   4  11  13   18.50   15.71
  -4 -11 -13   15.72   18.07
   4  11  13   46.36   16.95
   4  11  12   53.80   15.65
  -4 -11 -12   58.98   17.89
   4  11  12   40.08   16.41
   4  11  11   18.12   14.78
  -4 -11 -11   55.68   17.22
   4  11  11   33.45   16.01
  -4 -11 -10   38.49   17.59
   4  11  10   27.25   14.42
   4  11  10   77.58   16.50
  -4 -11 -10   21.70   16.11
   4  11   9   41.15   14.44
   4  11   9   51.25   16.06
  -4 -11  -9   22.13   16.36
  -4 -11  -8   31.07   15.33
   4  11   8   32.31   13.81
  -4 -11  -8   53.37   16.35
   4  11   8   51.31   15.58
   4  11   7   51.28   13.72
  -4 -11  -7   26.52   14.82
  -4 -11  -7   55.98   16.29
   4  11   7   56.27   15.78
   4  11   6   36.48   13.34
  -4 -11  -6   45.87   14.84
  -4 -11  -6   38.44   15.50
   4  11   6   66.09   16.45
   4  11   5   80.91   15.02
  -4 -11  -5   64.50   14.89
  -4 -11  -5   85.21   16.78
   4  11   5  100.59   17.95
   4  11   4  165.25   16.31
  -4 -11  -4  149.63   16.24
  -4 -11  -4  157.41   17.64
   4  11   3   45.72   15.45
  -4 -11  -3   31.57   13.98
  -4 -11  -3   37.82   16.29
   4  11   3   48.90   18.09
   4  11   2   83.39   16.38
  -4 -11  -2   84.46   15.16
   4  11   2  102.22   19.12
   4  11   1   68.76   16.38
  -4 -11  -1   15.56   16.51
   4  11   1   38.78   18.39
   4  11   0   96.28   17.38
  -4 -11   0   94.82   18.16
   4  11   0   80.44   19.26
   4  11  -1   24.07   16.32
  -4 -11   1  -14.28   16.87
   4  11  -1   27.66   18.55
   4  11  -2  101.43   17.67
  -4 -11   2   77.99   18.34
   4  11  -2   84.56   19.99
   4  11  -3   64.26   18.36
  -4 -11   3   53.27   18.58
   4  11  -3   57.35   20.03
   4  11  -4  104.47   18.73
   4  11  -4   94.12   21.95
   4  11  -5  166.85   20.49
  -4 -11   5  172.05   20.72
   4  11  -5  162.23   20.41
   4  11  -5  140.46   22.25
   4  11  -6  207.96   22.04
   4  11  -6  207.65   21.73
   4  11  -6  199.70   23.92
   4  11  -7   20.75   19.40
   4  11  -7   62.04   19.88
   4  11  -7   84.78   22.71
   4  11  -8   59.16   21.26
   4  12  14   31.70   17.13
   4  12  13   45.41   17.13
   4  12  13   62.28   18.20
   4  12  12   33.39   16.40
   4  12  12   35.93   17.42
   4  12  11   35.59   15.64
   4  12  11   47.45   17.24
  -4 -12 -11   52.13   18.39
   4  12  10   44.63   15.73
   4  12  10   73.72   17.52
  -4 -12 -10   37.50   18.12
   4  12   9  163.35   16.91
  -4 -12  -9  161.06   19.34
   4  12   9  129.32   18.45
   4  12   8   35.17   14.77
  -4 -12  -8   16.75   17.34
   4  12   8   55.95   16.91
   4  12   7   27.22   14.32
  -4 -12  -7   27.06   17.47
   4  12   7   65.18   16.91
   4  12   6   92.80   15.12
  -4 -12  -6   71.59   17.32
   4  12   6  122.14   17.77
   4  12   5   14.25   14.56
  -4 -12  -5   24.62   17.01
   4  12   4   29.63   15.21
  -4 -12  -4   81.30   17.93
   4  12   4   69.07   18.11
   4  12   3   73.25   16.66
  -4 -12  -3   49.35   18.01
   4  12   3   92.87   20.11
   4  12   2  137.41   18.30
  -4 -12  -2   83.36   18.71
   4  12   2  113.35   20.93
   4  12   1  131.53   18.43
  -4 -12  -1  145.23   19.77
   4  12   1  148.70   21.62
   4  12   0   27.33   17.67
  -4 -12   0    7.62   18.32
   4  12   0   48.28   20.43
   4  12  -1   49.09   17.88
  -4 -12   1   75.36   19.78
   4  12  -1   88.27   21.35
   4  12  -2   22.84   17.80
  -4 -12   2   -0.26   19.24
   4  12  -2   32.23   20.39
   4  12  -3   17.60   18.16
  -4 -12   3  -13.50   19.31
   4  12  -3  -22.35   20.50
   4  12  -4   68.26   19.37
   4  12  -4   70.26   19.37
  -4 -12   4   69.67   21.27
   4  12  -4   44.77   22.04
   4  12  -5  120.41   21.01
   4  12  -5  117.68   20.81
   4  12  -5   97.10   23.83
   4  12  -6   72.88   20.43
   4  12  -6   14.45   23.28
   4  13  13   32.87   17.98
   4  13  12   48.68   17.92
   4  13  12   67.80   18.84
   4  13  11   84.48   17.86
   4  13  11   81.66   18.79
   4  13  10  100.80   17.69
   4  13  10  172.99   20.57
   4  13   9  100.48   17.57
  -4 -13  -9  101.30   20.01
   4  13   9  130.55   19.40
   4  13   8   49.52   16.23
  -4 -13  -8   68.16   20.08
   4  13   8   74.22   18.57
   4  13   7   16.20   15.66
  -4 -13  -7    5.01   18.75
   4  13   7   48.81   18.20
   4  13   6   93.96   17.29
  -4 -13  -6  105.67   19.63
   4  13   6  156.52   20.29
   4  13   5  149.67   18.31
  -4 -13  -5  212.12   21.27
   4  13   5  203.21   22.47
   4  13   4  375.72   21.37
   4  13   4  428.95   24.68
   4  13   3  111.80   18.02
  -4 -13  -3  143.75   20.01
   4  13   3  127.99   21.30
   4  13   2   18.15   17.13
   4  13   2   12.60   20.08
   4  13   1   15.96   18.50
  -4 -13  -1   80.58   19.86
   4  13   1   80.76   21.87
   4  13   0   46.00   18.74
   4  13   0   27.77   22.34
   4  13  -1   77.73   19.39
  -4 -13   1   39.77   21.13
   4  13  -1   56.28   23.07
   4  13  -2   95.99   20.75
   4  13  -2  129.46   24.58
   4  13  -3   35.81   19.77
   4  13  -3   47.34   20.16
   4  13  -3  103.34   23.90
   4  13  -4    0.19   19.33
   4  13  -4   12.60   23.42
   4  13  -5   17.13   20.61
   4  14  11   76.97   19.06
   4  14  10   40.33   17.58
   4  14   9   75.22   18.45
   4  14   9   34.46   19.43
   4  14   8  105.84   18.30
   4  14   8   88.47   19.94
   4  14   7  134.48   18.70
   4  14   7  140.19   21.08
   4  14   6  177.57   19.45
   4  14   6  192.53   22.34
   4  14   5  171.10   18.96
   4  14   5  115.85   21.31
   4  14   4  132.85   19.17
   4  14   4   19.35   20.57
   4  14   3  121.89   19.83
   4  14   3  178.23   22.81
   4  14   2   68.02   18.86
   4  14   2   47.42   21.32
   4  14   1   14.93   19.18
   4  14   1   30.66   22.63
   4  14   0  141.47   21.39
   4  14   0  155.25   25.04
   4  14  -1  180.19   22.30
   4  14  -1  163.33   26.06
   4  14  -2   47.41   20.60
   4  15   8   79.94   18.82
   4  15   7   52.88   18.44
   4  15   6   78.26   18.85
   4  15   5   10.18   17.44
   4  15   4   63.39   17.95
   4  15   3   25.27   19.72
   4  15   2   78.03   20.48
   4  15   1  105.01   21.43
   5 -14   2   57.28   25.02
   5 -14   1   91.88   23.21
   5 -14   0   48.15   24.59
   5 -14  -1   50.18   23.70
   5 -14  -2   64.38   23.81
   5 -14  -2   40.21   24.67
   5 -14  -3  143.92   25.65
   5 -14  -4   14.61   22.72
   5 -13   6   37.27   19.31
   5 -13   5  104.20   21.48
   5 -13   4  168.32   22.64
   5 -13   3  102.13   23.75
   5 -13   2   13.98   22.37
   5 -13   1   35.00   21.39
   5 -13   0   20.87   20.33
   5 -13  -1   86.36   23.30
   5 -13  -2   38.53   21.31
   5 -13  -2  -26.12   21.38
   5 -13  -3  255.66   25.83
   5 -13  -3  196.82   25.76
   5 -13  -4  137.89   24.32
   5 -13  -5   26.07   21.42
   5 -13  -6   37.80   22.03
   5 -13  -7  113.73   23.77
   5 -12   8  166.08   20.81
   5 -12   7   60.57   18.83
   5 -12   6   89.75   17.96
   5 -12   5   44.77   17.63
   5 -12   4   47.41   18.67
  -5  12  -4   33.19   18.17
   5 -12   3   47.60   19.59
  -5  12  -3  126.79   19.37
   5 -12   2    1.62   21.82
  -5  12  -2  131.82   20.87
   5 -12   1  -31.82   22.17
  -5  12  -1  176.83   20.94
  -5  12   0  -19.70   18.52
   5 -12  -1   43.28   21.29
  -5  12   1   52.91   20.77
   5 -12  -2  115.62   21.38
  -5  12   2   82.31   20.15
   5 -12  -2   39.88   21.60
   5 -12  -3   76.07   20.54
  -5  12   3   84.62   20.17
   5 -12  -3   56.56   20.97
  -5  12   4   75.88   19.04
   5 -12  -4   24.75   20.29
  -5  12   5   13.41   17.91
   5 -12  -5   46.77   20.45
   5 -12  -6   60.32   18.31
   5 -12  -6   51.07   20.93
   5 -12  -7   58.89   20.77
   5 -12  -7   58.75   18.39
   5 -12  -8   60.16   21.21
   5 -12  -9   65.38   21.25
   5 -11  10   79.07   18.90
   5 -11   9   77.04   18.61
   5 -11   8   56.27   17.52
   5 -11   7   79.66   17.58
  -5  11  -7   36.40   16.12
   5 -11   6   61.87   17.24
  -5  11  -6   32.19   15.95
   5 -11   5   54.80   16.82
  -5  11  -5   85.20   17.39
   5 -11   4  209.59   20.38
  -5  11  -4  146.55   18.62
   5 -11   3  167.24   21.92
  -5  11  -3  188.34   21.23
   5 -11   2   -0.99   20.50
  -5  11  -2   11.55   19.94
   5 -11   2  -26.33   22.30
   5 -11   1   23.94   17.76
  -5  11  -1   -3.65   16.06
   5 -11   0  -24.49   17.61
  -5  11   0   13.93   16.46
   5 -11  -1   48.76   19.75
  -5  11   1   77.26   19.45
   5 -11  -2  185.34   21.45
  -5  11   2  171.75   21.13
   5 -11  -2  139.00   22.13
   5 -11  -3   68.34   19.16
  -5  11   3   65.55   17.97
   5 -11  -3   43.52   19.64
  -5  11   4   43.83   17.06
   5 -11  -4   38.18   19.34
  -5  11   5   49.40   17.52
   5 -11  -5   -6.23   18.50
   5 -11  -6  121.42   18.15
  -5  11   6   97.84   18.72
   5 -11  -6  119.99   20.73
   5 -11  -7   66.47   17.45
  -5  11   7   61.30   18.69
   5 -11  -7   44.33   19.99
   5 -11  -8   20.14   18.66
   5 -11  -8   20.65   17.58
   5 -11  -9   49.31   19.53
   5 -11 -10   65.06   20.69
   5 -10  11    2.65   17.00
   5 -10  10   82.76   17.95
   5 -10   9   44.29   17.01
  -5  10  -9   40.42   16.44
  -5  10  -8   39.15   15.63
   5 -10   8   57.48   16.46
   5 -10   7   24.67   15.48
  -5  10  -7   34.75   14.81
   5 -10   6   36.09   15.32
  -5  10  -6   50.45   15.02
   5 -10   5  369.59   21.15
  -5  10  -5  262.68   18.84
  -5  10  -4   25.12   14.50
   5 -10   4  -18.83   17.92
   5 -10   3   44.50   16.13
  -5  10  -3   39.74   15.15
   5 -10   2   20.57   18.48
  -5  10  -2  156.41   17.26
   5 -10   1   40.54   18.38
  -5  10  -1  125.83   16.79
   5 -10   0   46.80   17.55
  -5  10   0   11.10   16.21
   5 -10  -1   65.84   17.73
   5 -10  -1  110.50   16.60
  -5  10   1   57.58   16.51
   5 -10  -2  104.86   18.07
  -5  10   2   75.84   17.38
   5 -10  -2   92.57   19.00
   5 -10  -3   47.01   15.17
  -5  10   3   30.68   15.80
   5 -10  -3   33.43   17.45
   5 -10  -4  177.93   17.14
  -5  10   4  210.92   19.22
   5 -10  -4  174.71   20.28
   5 -10  -5  140.35   17.75
  -5  10   5  100.19   17.51
   5 -10  -5   90.79   19.73
  -5  10   6  160.55   18.77
   5 -10  -6  221.01   21.07
   5 -10  -7  117.24   17.96
   5 -10  -7   76.95   18.45
  -5  10   7   76.99   17.16
   5 -10  -8  121.38   19.82
  -5  10   8  128.41   18.33
   5 -10  -8   98.38   17.61
   5 -10  -9   28.28   18.07
   5 -10  -9   18.60   17.71
   5 -10 -10  137.76   20.45
   5 -10 -11  114.50   21.26
   5  -9  12  151.73   19.16
   5  -9  11  113.81   17.94
   5  -9  11   91.37   17.09
  -5   9 -10   39.11   16.55
   5  -9  10    1.13   15.53
   5  -9  10   26.06   14.99
   5  -9   9   37.65   15.63
  -5   9  -9   21.40   14.94
   5  -9   9   49.85   15.02
   5  -9   8   13.85   14.64
  -5   9  -8   18.14   14.34
   5  -9   7   60.69   14.97
  -5   9  -7   48.99   14.67
   5  -9   6   47.46   14.86
  -5   9  -6   53.71   13.50
  -5   9  -5   48.40   14.33
   5  -9   5   34.92   13.99
  -5   9  -5   28.48   13.02
  -5   9  -4   -5.07   13.14
  -5   9  -4  -10.78   12.81
  -5   9  -3   10.79   13.12
   5  -9   3    5.85   13.89
  -5   9  -3   10.08   13.00
   5  -9   3   48.70   16.21
   5  -9   2  163.04   16.68
  -5   9  -2  121.92   14.56
  -5   9  -1   24.21   13.97
   5  -9   1    7.13   15.38
  -5   9  -1    1.69   14.34
  -5   9   0  113.44   16.51
   5  -9   0   57.80   17.26
  -5   9   0   47.73   15.13
   5  -9   0   93.00   16.13
  -5   9   1  197.05   22.76
   5  -9  -1  263.82   20.63
  -5   9   1  239.01   19.87
  -5   9   2   32.51   14.61
   5  -9  -2   61.55   16.04
   5  -9  -2   79.40   14.66
  -5   9   2   26.82   14.40
   5  -9  -2   74.28   16.55
  -5   9   3   41.67   14.93
   5  -9  -3   62.17   17.41
   5  -9  -4    0.46   13.71
  -5   9   4   29.87   14.56
   5  -9  -5   79.78   16.68
  -5   9   5   64.22   15.63
   5  -9  -5   49.18   17.25
   5  -9  -6    4.89   16.75
   5  -9  -6    3.42   15.38
  -5   9   6   53.43   14.84
  -5   9   7   65.54   15.76
   5  -9  -7  109.90   17.94
   5  -9  -7   88.55   18.07
  -5   9   8   47.89   16.78
   5  -9  -8   69.42   16.90
   5  -9  -9   51.82   17.83
  -5   9   9   90.91   18.05
   5  -9  -9  104.92   18.77
   5  -9 -10  161.23   20.14
   5  -9 -10  139.83   18.83
   5  -9 -11   80.82   19.23
   5  -9 -12   34.99   19.63
   5  -8  13   67.34   17.10
   5  -8  13   83.73   17.72
   5  -8  12   41.65   16.34
   5  -8  12   48.35   16.12
  -5   8 -11   62.35   17.01
   5  -8  11   90.93   15.77
  -5   8 -10   40.85   15.24
   5  -8  10   95.82   15.58
   5  -8  10   67.59   14.72
   5  -8   9   59.29   14.28
  -5   8  -9   38.59   14.70
  -5   8  -8   44.87   13.56
  -5   8  -8   59.19   14.21
   5  -8   8   56.15   14.16
   5  -8   8   53.55   13.43
  -5   8  -7  128.87   15.06
   5  -8   7  166.83   15.44
  -5   8  -7  115.09   14.26
   5  -8   6   34.73   13.41
  -5   8  -6   27.24   12.41
  -5   8  -5   28.93   12.36
   5  -8   5   36.61   13.48
  -5   8  -5   24.62   11.85
  -5   8  -4  232.80   17.66
  -5   8  -4  245.71   16.24
  -5   8  -3  407.31   19.16
   5  -8   3  444.07   18.33
  -5   8  -3  390.43   17.92
  -5   8  -2   63.74   13.45
   5  -8   2   82.36   14.33
  -5   8  -2   55.93   13.50
  -5   8  -1  179.60   15.32
   5  -8   1   40.46   15.68
  -5   8  -1  159.31   14.96
   5  -8   1   15.92   15.47
  -5   8   0  168.51   17.35
   5  -8   0  139.27   17.35
  -5   8   0  167.90   16.13
   5  -8   0  152.48   17.38
  -5   8   1   40.21   13.79
   5  -8  -1   44.90   14.59
  -5   8   1   37.87   13.36
  -5   8   2  120.80   16.40
   5  -8  -2  134.67   16.41
   5  -8  -2  176.36   14.95
  -5   8   2  142.74   15.84
   5  -8  -2  143.76   16.90
  -5   8   3    9.98   13.05
   5  -8  -3   27.47   13.30
  -5   8   3   17.32   13.09
   5  -8  -3   37.07   14.93
  -5   8   4  132.57   15.28
  -5   8   4  124.01   15.34
   5  -8  -4  146.39   17.21
   5  -8  -5  119.83   16.04
  -5   8   5  109.74   15.40
   5  -8  -5  106.42   17.50
   5  -8  -6  212.36   18.11
  -5   8   6  213.63   17.10
   5  -8  -6  190.41   18.29
   5  -8  -7   65.87   16.85
  -5   8   7  124.00   16.24
   5  -8  -7   99.47   16.12
   5  -8  -8  -10.78   15.83
  -5   8   8   32.02   15.52
   5  -8  -8    5.60   14.59
   5  -8  -9   38.46   17.03
  -5   8   9   20.43   16.07
   5  -8  -9   -2.62   15.86
   5  -8 -10  -19.35   16.58
  -5   8  10    0.80   16.23
   5  -8 -10   -2.79   15.91
   5  -8 -11   51.27   18.55
   5  -8 -11   34.99   16.83
   5  -8 -12   42.59   18.97
   5  -7  14   34.23   16.79
   5  -7  13   65.77   16.46
   5  -7  13   40.24   15.20
  -5   7 -12   51.12   16.18
   5  -7  12   81.20   15.23
   5  -7  12   39.28   14.40
   5  -7  11   50.06   14.64
  -5   7 -11   21.96   15.18
   5  -7  11   20.90   13.70
  -5   7 -10   69.04   15.31
  -5   7 -10   26.59   14.90
   5  -7  10   71.15   14.08
   5  -7  10   52.90   13.22
  -5   7  -9   -1.43   13.03
  -5   7  -9    6.71   12.93
   5  -7   9   36.97   12.96
   5  -7   9   14.55   12.72
  -5   7  -8    0.19   12.06
   5  -7   8   11.68   12.12
  -5   7  -8    9.10   12.36
   5  -7   8   21.23   11.54
  -5   7  -7   28.21   11.84
   5  -7   7   37.15   11.82
  -5   7  -7   18.88   12.22
   5  -7   7   19.14   11.46
  -5   7  -6  316.91   15.78
   5  -7   6  337.62   15.46
  -5   7  -5  520.98   21.02
  -5   7  -5  729.63   18.94
  -5   7  -4  255.27   16.59
  -5   7  -4  362.47   15.41
  -5   7  -3   53.47   10.72
   5  -7   3   35.33   11.79
  -5   7  -3   26.63   11.55
  -5   7  -3   49.92   13.73
  -5   7  -2  121.21   12.79
   5  -7   2  194.01   14.11
  -5   7  -2   78.87   12.55
  -5   7  -2  200.14   16.29
  -5   7  -1  368.72   16.87
  -5   7  -1  380.77   22.09
  -5   7   0  228.00   17.74
   5  -7   0  284.03   17.50
   5  -7   0  277.49   15.94
   5  -7  -1  232.62   15.89
   5  -7  -1  213.39   14.86
  -5   7   1  192.74   15.59
   5  -7  -1  247.88   16.76
  -5   7   2   37.13   12.69
   5  -7  -2   31.58   12.20
  -5   7   2   17.64   12.01
   5  -7  -2   25.23   13.55
  -5   7   3  282.92   16.74
   5  -7  -3  261.48   15.71
  -5   7   3  302.80   16.14
   5  -7  -3  280.60   18.01
   5  -7  -4  156.90   15.32
  -5   7   4  139.04   14.98
   5  -7  -4  120.65   15.63
  -5   7   5   43.43   12.54
   5  -7  -5   40.39   12.78
  -5   7   5   56.92   13.35
   5  -7  -5   56.86   14.83
   5  -7  -6   48.01   14.79
  -5   7   6   43.47   13.46
   5  -7  -6   24.70   12.99
   5  -7  -7  167.15   16.99
  -5   7   7  185.90   16.19
   5  -7  -7  139.49   15.59
   5  -7  -8  339.00   20.07
  -5   7   8  381.91   19.69
   5  -7  -9    6.97   15.99
  -5   7   9   47.40   15.85
   5  -7  -9   36.54   15.65
   5  -7  -9   38.11   14.74
   5  -7 -10   48.58   16.73
  -5   7  10   50.03   16.85
   5  -7 -10   39.69   16.42
   5  -7 -11   46.88   17.26
  -5   7  11   41.89   17.27
   5  -7 -11   72.92   17.00
   5  -7 -12   30.00   17.98
   5  -7 -12   57.06   17.52
   5  -7 -13    7.86   19.07
   5  -6  15   79.80   17.29
   5  -6  14   28.14   15.76
   5  -6  14   32.00   15.10
  -5   6 -13   22.55   16.18
   5  -6  13   43.61   14.83
   5  -6  13   23.80   14.47
  -5   6 -12   18.44   15.47
   5  -6  12   32.41   13.97
   5  -6  12   36.63   13.69
  -5   6 -11   18.99   15.02
  -5   6 -11   20.90   14.45
   5  -6  11   70.74   13.75
   5  -6  11   41.77   12.97
  -5   6 -10   27.66   14.00
  -5   6 -10   23.28   13.63
   5  -6  10   28.07   12.29
  -5   6  -9   46.98   13.35
  -5   6  -9   61.22   12.85
   5  -6   9   49.57   12.25
  -5   6  -8    2.68   11.96
  -5   6  -8   11.84   11.89
   5  -6   8   37.70   11.50
  -5   6  -7  367.09   16.37
   5  -6   7  380.77   14.83
  -5   6  -6   51.30   10.55
   5  -6   6   70.73   10.62
  -5   6  -6   53.50   10.92
   5  -6   5  832.06   17.89
  -5   6  -5  793.35   17.45
  -5   6  -4  158.32   11.50
  -5   6  -4  170.75   11.43
  -5   6  -4  178.61   15.56
  -5   6  -3   32.57    8.62
   5  -6   3   16.78   10.35
  -5   6  -3   15.37    9.74
  -5   6  -3   34.36   13.27
  -5   6  -2  426.16   15.60
   5  -6   2  563.02   16.38
  -5   6  -2  447.36   14.94
   5  -6   2  288.96   15.91
  -5   6  -2  340.35   20.58
   5  -6   1  497.48   19.76
  -5   6  -1  499.52   19.01
   5  -6   1  624.29   18.88
  -5   6  -1  635.95   18.41
   5  -6   1  434.87   19.57
  -5   6  -1  554.10   25.79
  -5   6   0  113.05   12.29
   5  -6   0  119.64   13.45
  -5   6   0  126.63   12.73
   5  -6   0  111.53   12.44
  -5   6   0  110.75   16.76
  -5   6   1   36.26   10.33
   5  -6  -1   26.16   11.06
  -5   6   1   41.70   10.99
  -5   6   2  135.30   13.18
   5  -6  -2  140.59   13.06
  -5   6   2  136.88   13.20
   5  -6  -2  161.04   14.37
  -5   6   3    7.50   10.33
  -5   6   3   -6.54    8.74
   5  -6  -3   23.51   10.79
  -5   6   3   -7.08   11.01
  -5   6   4    6.64   10.64
   5  -6  -4   12.06   11.00
  -5   6   4   -0.48   11.67
   5  -6  -4    6.37   12.65
  -5   6   5  169.36   13.64
  -5   6   5  139.07   13.74
   5  -6  -5  168.94   14.94
   5  -6  -6  211.14   16.63
  -5   6   6  273.17   15.87
  -5   6   6  268.77   15.07
   5  -6  -6  174.54   14.35
   5  -6  -7   19.51   14.02
  -5   6   7   28.35   13.35
   5  -6  -7    1.11   12.11
   5  -6  -8   36.27   14.76
  -5   6   8   73.67   14.57
   5  -6  -9   -1.95   14.82
  -5   6   9    8.28   14.71
   5  -6 -10   94.26   16.80
  -5   6  10   85.83   16.80
   5  -6 -10  122.20   16.32
   5  -6 -11   62.57   16.88
  -5   6  11   71.58   16.78
   5  -6 -11   39.21   15.97
   5  -6 -12  123.71   18.50
   5  -6 -12  132.94   18.44
   5  -6 -13   26.88   18.08
   5  -5  15  106.68   16.61
   5  -5  15   98.19   16.75
  -5   5 -14   40.69   17.11
   5  -5  14   69.09   15.29
   5  -5  14   32.23   14.74
  -5   5 -13   20.11   15.70
   5  -5  13   31.11   13.97
  -5   5 -12  114.10   16.04
   5  -5  12  127.55   14.50
  -5   5 -11    8.80   13.42
  -5   5 -11   42.05   13.85
   5  -5  11   39.48   12.69
  -5   5 -10   41.73   13.66
  -5   5 -10   22.95   12.94
   5  -5  10   37.27   11.53
  -5   5  -9   30.50   11.77
  -5   5  -9   47.21   12.27
   5  -5   9   48.95   11.03
  -5   5  -8  148.75   12.91
  -5   5  -8  143.01   12.82
   5  -5   8  146.36   11.46
  -5   5  -7  225.93   13.14
  -5   5  -7  253.58   13.12
   5  -5   7  253.09   12.20
  -5   5  -6  651.86   17.07
   5  -5   6  669.87   15.16
  -5   5  -6  644.76   15.76
   5  -5   5   81.08    9.11
  -5   5  -5   94.41   10.16
   5  -5   5   98.49    9.78
  -5   5  -5   65.29    9.46
  -5   5  -4    8.56    8.21
   5  -5   4   30.78    9.03
   5  -5   4   18.10    7.23
  -5   5  -4   16.60    8.07
  -5   5  -3   13.87    7.43
   5  -5   3   36.11    9.19
  -5   5  -3    9.71    8.75
   5  -5   3   10.57    7.40
  -5   5  -3   26.92   12.36
   5  -5   2   23.77    7.43
  -5   5  -2    1.15    6.91
   5  -5   2   25.90   10.26
  -5   5  -2   11.64    8.98
  -5   5  -1   18.04    8.05
   5  -5   1   67.36   10.45
  -5   5  -1   39.04    9.38
   5  -5   1   33.63   10.11
   5  -5   1   15.95    8.13
  -5   5  -1   69.91   12.83
  -5   5   0   39.59    9.02
   5  -5   0   41.27   10.34
   5  -5   0   62.81    8.73
  -5   5   0   37.08    9.90
   5  -5   0   32.93   10.13
  -5   5   0   22.44   13.16
   5  -5   0   51.08   10.67
   5  -5  -1 1064.03   19.47
  -5   5   1  998.58   20.43
  -5   5   1  591.17   22.17
   5  -5  -1  987.82   20.19
  -5   5   1  905.44   21.08
  -5   5   1  703.46   29.84
   5  -5  -1  785.46   19.89
   5  -5  -2  424.77   14.84
  -5   5   2  432.39   15.42
  -5   5   2  397.60   22.78
   5  -5  -2  416.57   15.67
   5  -5  -3   37.29   11.61
  -5   5   3   38.59   10.45
  -5   5   3   37.13   10.27
   5  -5  -3   36.33   10.72
  -5   5   3   32.19   10.87
   5  -5  -4    9.85   11.19
  -5   5   4    0.10    9.81
  -5   5   4   17.35   11.15
   5  -5  -4   24.69   10.18
  -5   5   4   33.55   11.03
   5  -5  -5  120.72   13.46
  -5   5   5  141.73   12.78
  -5   5   5  131.24   11.90
   5  -5  -6  269.22   16.09
  -5   5   6  264.67   14.20
  -5   5   6  243.15   14.82
   5  -5  -7   37.96   13.66
  -5   5   7   23.86   13.13
  -5   5   7   39.28   11.70
   5  -5  -8   45.78   14.70
  -5   5   8   22.81   13.62
  -5   5   8   17.92   14.72
   5  -5  -9   21.48   14.92
  -5   5   9   13.17   13.64
  -5   5   9   29.00   14.99
   5  -5 -10   53.72   15.56
  -5   5  10   22.40   14.65
  -5   5  10   79.34   15.86
   5  -5 -11   49.75   16.08
  -5   5  11   45.32   15.85
   5  -5 -11   75.27   16.28
   5  -5 -12   21.78   16.56
  -5   5  12   -3.49   15.86
   5  -5 -12   23.15   16.34
   5  -5 -13   40.63   17.81
   5  -4  16   81.33   16.78
   5  -4  15   52.91   15.07
  -5   4 -14   28.14   15.83
   5  -4  14   25.44   13.89
  -5   4 -13   38.97   15.60
  -5   4 -13   13.49   14.65
   5  -4  13   25.31   12.76
  -5   4 -12   66.77   15.59
  -5   4 -12   60.88   14.29
   5  -4  12   79.58   12.90
  -5   4 -11  367.99   18.74
  -5   4 -11  376.06   17.53
   5  -4  11  424.49   15.78
  -5   4 -10   99.92   13.39
  -5   4 -10  118.23   13.86
   5  -4  10  129.98   12.17
  -5   4  -9  104.34   12.36
   5  -4   9  152.50   11.31
  -5   4  -8   35.29   10.29
   5  -4   8   34.87    9.41
  -5   4  -7    6.87    9.04
   5  -4   7   14.30    8.25
  -5   4  -6   53.22    8.97
   5  -4   6   63.46    7.74
  -5   4  -5    9.84    7.31
   5  -4   5   20.21    6.48
  -5   4  -5   25.97   11.31
   5  -4   5    0.94    6.34
  -5   4  -4  253.04    9.59
   5  -4   4  271.93    9.73
  -5   4  -4  324.07   16.10
   5  -4   4  303.51    9.93
   5  -4   3  538.16   12.13
  -5   4  -3  391.35   11.64
   5  -4   3  485.41   12.24
  -5   4  -3  425.08   19.00
   5  -4   2  283.09    9.55
  -5   4  -2  224.59   10.17
   5  -4   2  288.00   10.76
  -5   4  -2  235.84   16.09
   5  -4   1  358.66   10.28
  -5   4  -1  332.84   10.18
   5  -4   1  387.36   11.10
  -5   4  -1  362.26   19.62
   5  -4   0   23.68    6.55
   5  -4   0   37.11    6.55
  -5   4   0   24.43    7.07
  -5   4   0   14.30    8.49
   5  -4   0   18.70    6.88
   5  -4   0   10.55    9.30
  -5   4   0   25.97   12.45
   5  -4   0   16.53    9.45
   5  -4  -1    8.45    7.41
  -5   4   1    5.72    7.41
  -5   4   1    3.21    8.18
   5  -4  -1   16.98    7.62
   5  -4  -1   31.81    9.39
  -5   4   1   15.38    8.26
  -5   4   1   -1.68   12.57
   5  -4  -1   -6.49    9.29
   5  -4  -2  328.30   13.10
  -5   4   2  451.84   13.86
  -5   4   2  281.07   14.14
   5  -4  -2  420.83   14.02
   5  -4  -2  296.86   13.16
  -5   4   2  345.52   12.91
  -5   4   2  304.20   20.02
  -5   4   3  202.08   12.03
  -5   4   3  173.21   14.12
   5  -4  -3  123.72   11.14
   5  -4  -3  196.73   12.53
  -5   4   3  153.48   16.24
  -5   4   3  171.24   11.31
   5  -4  -3  199.07   12.15
   5  -4  -4  191.44   12.71
  -5   4   4  172.41   12.08
  -5   4   4  195.55   11.65
  -5   4   4  214.47   15.88
  -5   4   4  148.96   16.11
   5  -4  -5  195.93   13.45
  -5   4   5  190.48   11.94
  -5   4   5  219.44   13.49
  -5   4   5  212.95   15.63
  -5   4   5  189.24   16.32
   5  -4  -6   36.88   12.48
  -5   4   6   21.40   11.61
  -5   4   6    4.36    9.41
  -5   4   6   18.33   12.64
   5  -4  -7    9.73   12.27
  -5   4   7   27.09   12.46
  -5   4   7    7.62   10.37
  -5   4   7   47.41   14.33
   5  -4  -8   62.51   14.07
  -5   4   8   61.32   13.65
  -5   4   8   78.65   15.57
   5  -4  -9  248.90   17.65
  -5   4   9  257.55   16.92
  -5   4   9  305.47   19.75
   5  -4 -10  175.06   17.62
  -5   4  10  214.51   17.14
   5  -4 -11   57.91   16.08
  -5   4  11   10.19   14.61
   5  -4 -11   45.59   15.53
   5  -4 -12   65.64   16.90
  -5   4  12   92.97   17.08
   5  -4 -12   66.46   16.62
   5  -4 -13    9.43   16.92
   5  -4 -13   52.19   17.36
   5  -4 -14   53.01   18.96
   5  -3  15   21.63   14.33
  -5   3 -14   56.84   16.87
   5  -3  14   73.49   13.44
  -5   3 -13   87.97   16.82
   5  -3  13  111.71   13.35
  -5   3 -12   75.36   15.05
   5  -3  12   75.63   12.10
  -5   3 -11   19.79   12.64
   5  -3  11   31.32   10.51
  -5   3 -10   24.30   11.94
  -5   3  -9    4.50   10.22
   5  -3   9   20.17    8.79
  -5   3  -8  174.85   11.54
   5  -3   8  184.15   10.71
  -5   3  -7  152.22    9.97
   5  -3   7  156.90    8.72
   5  -3   7  129.98    9.09
  -5   3  -6   56.08    7.38
   5  -3   6   55.50    6.40
   5  -3   6   52.91    6.98
  -5   3  -5    2.13    5.68
   5  -3   5    7.31    5.01
   5  -3   5   14.30    5.34
  -5   3  -4   -1.19    4.57
   5  -3   4    6.08    4.74
   5  -3   4    9.44    4.41
  -5   3  -4    6.77   10.74
  -5   3  -3   17.23    3.69
  -5   3  -3   31.63   10.91
   5  -3   3   29.25    4.42
  -5   3  -2  114.24    5.07
   5  -3   2  109.42    6.54
   5  -3   2   99.13    5.11
   5  -3   1  141.89    6.05
  -5   3  -1  174.08    6.09
   5  -3   1  177.14    6.94
  -5   3  -1  142.01   14.32
  -5   3   0  433.44    9.13
  -5   3   0  304.54   13.69
   5  -3   0  467.70   10.24
  -5   3   0  360.06   19.73
   5  -3   0  420.64    9.55
   5  -3  -1   36.71    8.62
   5  -3  -1   31.58    6.71
  -5   3   1   42.58    6.74
  -5   3   1   26.07    8.39
   5  -3  -1   25.37    6.67
   5  -3  -1   24.89    8.77
  -5   3   1   36.91    7.78
  -5   3   1   41.83   12.78
   5  -3  -2   65.35    9.17
   5  -3  -2   58.57    7.92
  -5   3   2   49.27    8.12
  -5   3   2   56.83   10.78
   5  -3  -2   58.66    8.04
  -5   3   2   72.16   12.90
  -5   3   2   52.28    8.31
   5  -3  -3   11.46    9.19
  -5   3   3    3.82    8.31
  -5   3   3    1.92    7.92
  -5   3   3    3.92   10.56
   5  -3  -3    2.13    8.13
   5  -3  -4   15.66    9.82
  -5   3   4   27.25    9.23
  -5   3   4   -0.60    8.22
  -5   3   4   15.09   11.54
  -5   3   4   37.13   12.34
   5  -3  -5   64.35   11.67
  -5   3   5   56.43    8.99
  -5   3   5   31.56   10.39
  -5   3   5   64.36   13.32
  -5   3   5   81.99   13.50
   5  -3  -6  236.52   14.11
  -5   3   6  242.47   12.90
  -5   3   6  267.48   17.35
  -5   3   6  268.83   17.72
   5  -3  -7  270.07   15.08
  -5   3   7  312.21   15.92
  -5   3   7  279.61   14.57
   5  -3  -8   80.77   13.89
  -5   3   8  103.54   13.35
  -5   3   8  105.55   12.63
   5  -3  -9  159.81   15.81
  -5   3   9  152.35   14.87
   5  -3 -10    6.86   14.70
  -5   3  10   42.01   14.22
   5  -3 -11   46.90   15.79
   5  -3 -11   51.96   15.38
   5  -3 -12  114.81   17.66
   5  -3 -12   75.65   17.06
   5  -3 -13  167.58   19.01
   5  -3 -13  204.28   20.09
   5  -3 -14   41.69   19.05
  -5   2 -15   41.98   17.77
  -5   2 -14    0.31   15.82
  -5   2 -13   46.51   15.06
  -5   2 -12   13.41   13.44
  -5   2 -11  157.72   14.09
  -5   2 -10  215.64   13.52
  -5   2  -9  102.30   10.52
   5  -2   9  108.67    9.42
  -5   2  -8   32.64    8.01
   5  -2   8   25.55    7.03
   5  -2   8   29.74    6.82
  -5   2  -7  233.55    8.77
   5  -2   7  237.47    8.17
  -5   2  -6   86.05    5.07
   5  -2   6   85.21    5.09
   5  -2   6   85.28    5.24
  -5   2  -5  115.39   12.75
  -5   2  -4  287.35   15.69
  -5   2  -3  185.02   13.88
  -5   2  -2  298.00   15.70
  -5   2  -1   11.04   11.09
  -5   2   0   29.29    3.18
  -5   2   0   29.84    2.78
  -5   2   0   52.09    6.96
   5  -2   0   52.10    4.15
  -5   2   0   72.76   12.15
   5  -2   0   49.51    4.08
   5  -2  -1   14.49    5.52
  -5   2   1   21.77    5.37
  -5   2   1   14.37    8.01
   5  -2  -1   19.08    4.96
  -5   2   1   31.14   11.71
   5  -2  -2  183.01    9.46
  -5   2   2  188.55    9.25
   5  -2  -2  162.57    8.44
  -5   2   2  230.38    9.38
  -5   2   2  246.85   14.19
   5  -2  -2  168.39    8.27
  -5   2   2  174.69   15.73
   5  -2  -3  480.95   12.70
  -5   2   3  547.67   13.35
  -5   2   3  525.14   13.17
  -5   2   3  614.42   19.26
   5  -2  -3  504.98   13.24
  -5   2   3  593.33   21.98
   5  -2  -4  153.48   11.02
  -5   2   4  133.53    9.47
  -5   2   4  131.49   10.48
  -5   2   4  185.29   14.31
   5  -2  -4  133.36   10.21
  -5   2   4  171.32   15.13
   5  -2  -5   17.20    9.68
  -5   2   5   17.93   10.22
  -5   2   5   23.75    8.03
  -5   2   5   14.14   11.47
   5  -2  -6   15.20   10.95
  -5   2   6   17.74   10.75
  -5   2   6    6.76    9.03
  -5   2   6   30.73   11.82
  -5   2   6    5.49   12.22
   5  -2  -7   12.10   11.80
  -5   2   7    7.14   11.16
  -5   2   7   12.44    9.88
  -5   2   7    2.55   12.83
   5  -2  -8   -4.02   12.92
  -5   2   8    8.47   10.81
  -5   2   8    4.04   11.48
  -5   2   8   30.85   13.55
   5  -2  -9   42.36   13.72
  -5   2   9   72.37   13.68
   5  -2 -10  151.34   16.20
  -5   2  10  158.71   15.84
   5  -2 -11    8.26   14.74
  -5   2  11  -12.97   14.55
   5  -2 -12   60.34   17.03
  -5   2  12   79.54   16.91
   5  -2 -12   57.04   16.77
   5  -2 -13   43.63   17.25
   5  -2 -13   52.48   17.82
   5  -2 -14   43.18   18.93
  -5   1 -15   19.18   17.21
  -5   1 -14  159.94   18.05
  -5   1 -13  169.13   16.72
  -5   1 -12    4.49   12.15
  -5   1 -11   28.98   10.94
  -5   1 -10   24.72    9.88
   5  -1  10   13.44    8.67
  -5   1  -9   70.52    9.07
   5  -1   9   84.05    8.22
  -5   1  -8  209.61    9.25
   5  -1   8  221.79    8.41
   5  -1   8  199.45    8.31
  -5   1  -7   28.30    4.27
   5  -1   7   34.64    4.43
   5  -1   7   23.10    4.86
  -5   1  -7   25.96   11.51
  -5   1  -6   14.28   10.80
  -5   1  -5  158.53   13.84
  -5   1  -4   45.98   11.60
  -5   1  -3  412.92   18.30
  -5   1  -2 1249.15   26.80
  -5   1  -1  902.83   16.49
  -5   1  -1 1013.24   24.03
  -5   1   0  562.93   13.93
  -5   1   0  622.31   20.63
   5  -1  -1   72.62    5.26
  -5   1   1   79.51    9.37
   5  -1  -1   57.67    5.11
  -5   1   1   65.70   12.67
   5  -1  -2   12.38    7.02
  -5   1   2   13.90    7.15
  -5   1   2    6.09    5.88
   5  -1  -2    9.11    5.82
  -5   1   2    2.37    8.67
   5  -1  -2    7.28    5.76
   5  -1  -3   11.27    8.04
  -5   1   3    9.61    7.63
   5  -1  -3   -2.37    6.10
  -5   1   3    5.69    9.67
   5  -1  -3    6.61    6.78
  -5   1   3   12.81   11.17
   5  -1  -4  239.94   11.26
  -5   1   4  243.57   11.58
  -5   1   4  238.62   10.19
  -5   1   4  245.68   14.42
   5  -1  -4  229.09   10.91
   5  -1  -5  201.58   11.94
  -5   1   5  206.32   10.85
  -5   1   5  219.81   11.94
  -5   1   5  259.55   15.12
  -5   1   5  269.08   16.53
   5  -1  -6   14.74   10.54
  -5   1   6    3.42    9.83
  -5   1   6   -5.21    8.68
  -5   1   6   -1.58   10.54
  -5   1   6    2.85   11.79
   5  -1  -7  175.06   13.46
  -5   1   7  182.32   12.53
  -5   1   7  181.77   13.24
  -5   1   7  166.85   15.10
   5  -1  -8  125.42   13.94
  -5   1   8  121.64   13.04
  -5   1   8  135.76   13.60
   5  -1  -9   37.74   13.47
  -5   1   9   42.63   13.26
   5  -1 -10   21.82   14.87
  -5   1  10   31.02   14.00
   5  -1 -11   89.80   16.35
  -5   1  11   88.89   16.40
   5  -1 -12   29.07   16.18
  -5   1  12    7.74   16.16
   5  -1 -12   14.78   16.35
   5  -1 -13   27.03   17.24
   5  -1 -13   57.09   18.16
   5  -1 -14   22.66   18.60
  -5   0 -15    7.29   16.67
  -5   0 -14   33.92   15.52
  -5   0 -13  195.81   16.41
  -5   0 -12   22.78   12.48
  -5   0 -11   68.06   11.32
  -5   0 -10   32.25    9.54
   5   0  10   59.00    9.27
  -5   0  -9    0.64    7.71
   5   0   9   -2.06    6.29
  -5   0  -8    8.02    5.33
   5   0   8   -0.62    4.79
   5   0   8    7.86    5.58
  -5   0  -8  -10.06   11.71
  -5   0  -7    1.17   11.36
  -5   0  -6  113.29   12.79
  -5   0  -5  269.55   15.50
  -5   0  -4   66.06   11.70
  -5   0  -3 1425.30   28.35
  -5   0  -2  507.49   19.07
  -5   0  -1   92.76   12.35
  -5   0   0  658.44   21.67
   5   0  -1  153.51    5.12
  -5   0   1   74.02    3.17
  -5   0   1   83.07    3.24
   5   0  -1  143.18    4.95
  -5   0   1  210.13   14.64
  -5   0   2   69.40    6.03
   5   0  -2   71.15    6.05
  -5   0   2   90.43   10.07
   5   0  -2   63.27    6.67
  -5   0   2   75.75   12.12
   5   0  -3  294.00   10.86
  -5   0   3  279.24    9.31
   5   0  -3  242.09    8.64
  -5   0   3  268.85   10.24
  -5   0   3  355.92   14.70
   5   0  -3  307.81   11.23
  -5   0   3  363.98   17.69
   5   0  -4  117.29    9.85
  -5   0   4  107.75    8.62
  -5   0   4  111.73    9.67
  -5   0   4  121.35   11.10
   5   0  -4  114.32    9.72
  -5   0   4   97.71   13.53
   5   0  -5   44.89   10.26
  -5   0   5   24.87    8.16
  -5   0   5   25.71    9.38
  -5   0   5   14.65    9.55
   5   0  -6   47.28   11.17
  -5   0   6   38.98    9.23
  -5   0   6   26.82   10.77
  -5   0   6   43.19   10.58
  -5   0   6   39.59   11.74
   5   0  -7   28.27   11.90
  -5   0   7    8.13   10.06
  -5   0   7   21.14   11.31
   5   0  -8   78.71   12.97
  -5   0   8   88.53   13.19
  -5   0   8   74.69   12.34
   5   0  -9   37.96   13.49
  -5   0   9   52.01   13.61
   5   0 -10  205.13   16.98
  -5   0  10  185.74   16.58
   5   0 -11   63.51   16.21
  -5   0  11   78.91   16.16
   5   0 -12   63.49   17.33
  -5   0  12   64.25   17.95
   5   0 -12   71.04   17.52
   5   0 -13   49.24   18.03
   5   0 -13   -1.58   18.09
   5   0 -14   -4.17   18.11
  -5  -1 -16   67.30   19.54
  -5  -1 -15  186.36   20.10
  -5  -1 -14   25.69   14.47
  -5  -1 -13   89.83   14.82
  -5  -1 -12  149.53   14.00
  -5  -1 -11    4.54    9.99
   5   1  11   12.01    8.88
  -5  -1 -10   36.52    9.27
   5   1  10   48.94    7.59
  -5  -1  -9   95.63    8.06
   5   1   9  113.91    7.55
   5   1   9  108.67    8.18
  -5  -1  -9  128.07   14.17
  -5  -1  -8   58.42    4.50
   5   1   8   62.53    4.70
   5   1   8   60.60    5.26
  -5  -1  -7  146.79   14.47
  -5  -1  -6   28.73   11.73
  -5  -1  -5   25.02   11.36
  -5  -1  -4   20.35   12.10
  -5  -1  -4   27.16   11.60
  -5  -1  -3  336.46   16.37
  -5  -1  -2 1388.58   28.15
  -5  -1  -1   39.12   12.55
  -5  -1   0   -2.70   11.36
   5   1  -1  341.03    6.77
   5   1  -1  317.72    6.59
  -5  -1   2  234.17    7.37
   5   1  -2  211.19    7.06
   5   1  -3   47.86    9.00
  -5  -1   3   46.90    6.48
   5   1  -3   36.72    6.00
  -5  -1   3   45.50    8.05
   5   1  -3   62.05    8.08
  -5  -1   3   50.49   11.92
   5   1  -4  114.10   10.48
  -5  -1   4  116.50    8.70
  -5  -1   4  117.26    9.93
   5   1  -4  123.43   10.43
  -5  -1   4  119.88   14.10
   5   1  -5  245.82   12.82
  -5  -1   5  229.47   11.18
  -5  -1   5  240.45   12.75
  -5  -1   5  232.54   12.67
  -5  -1   5  231.28   15.68
   5   1  -6   29.04   11.36
  -5  -1   6   24.21   10.82
  -5  -1   6   47.04   11.71
  -5  -1   6   33.39    9.73
   5   1  -7   23.01   12.20
  -5  -1   7    8.34   10.25
  -5  -1   7   -2.18   11.20
   5   1  -8    2.91   12.54
  -5  -1   8    7.70   11.27
  -5  -1   8    1.48   12.08
   5   1  -9   17.56   14.00
  -5  -1   9    2.64   13.18
   5   1 -10   16.25   14.73
  -5  -1  10   37.16   15.06
   5   1 -11   42.79   15.90
  -5  -1  11   49.82   16.15
  -5  -1  11   35.12   15.47
   5   1 -12   73.06   17.74
  -5  -1  12   81.92   17.42
  -5  -1  12   88.75   17.95
   5   1 -12   22.73   17.80
   5   1 -13   27.89   17.93
  -5  -2 -16   71.43   19.11
  -5  -2 -15   25.48   15.98
  -5  -2 -14   82.73   16.27
  -5  -2 -13   89.88   14.83
  -5  -2 -12  238.66   15.34
   5   2  11   22.83    8.64
  -5  -2 -11   32.03   10.61
  -5  -2 -10   42.15    9.28
   5   2  10   17.54    7.30
  -5  -2 -10   52.95   13.59
  -5  -2  -9   20.31    7.22
   5   2   9   20.37    5.86
   5   2   9   10.99    6.15
  -5  -2  -8   24.81    3.61
   5   2   8   25.72    4.21
   5   2   8   21.68    4.60
  -5  -2  -7  696.10   22.38
  -5  -2  -6  284.76   16.76
  -5  -2  -5  244.68   15.51
  -5  -2  -4  111.40   13.03
  -5  -2  -4  114.84   13.38
  -5  -2  -3  252.12   14.27
  -5  -2  -3  250.51   15.50
  -5  -2  -2   -9.16   11.10
  -5  -2  -1  119.29   13.02
  -5  -2   0   18.70   11.57
   5   2  -1   96.27    4.66
   5   2  -1   94.12    5.69
  -5  -2   2   51.64    5.76
   5   2  -2   37.76    5.31
  -5  -2   2   60.45   12.46
   5   2  -2   60.88    6.73
   5   2  -3  127.54   10.14
  -5  -2   3  137.90    8.05
  -5  -2   3  133.29    9.71
  -5  -2   3  149.80   14.64
   5   2  -3  155.79    9.68
   5   2  -4  275.51   12.41
  -5  -2   4  236.57   10.44
  -5  -2   4  253.42   12.04
   5   2  -4  266.72   12.91
  -5  -2   4  278.19   17.05
   5   2  -5    0.40   10.35
  -5  -2   5   -5.20    8.46
  -5  -2   5    4.57   10.48
  -5  -2   5   13.51   11.62
   5   2  -6  576.15   17.50
  -5  -2   6  563.77   17.57
  -5  -2   6  532.67   16.38
   5   2  -7   89.08   13.35
  -5  -2   7   72.09   12.89
  -5  -2   7  101.44   13.31
  -5  -2   7   79.70   11.97
   5   2  -8   64.52   14.16
  -5  -2   8   91.35   13.81
  -5  -2   8   81.75   13.71
  -5  -2   8   76.13   14.04
   5   2  -9   77.18   14.86
  -5  -2   9  103.39   15.02
  -5  -2   9   76.54   14.65
   5   2 -10   23.01   14.99
  -5  -2  10    9.23   14.54
  -5  -2  10   21.93   14.35
   5   2 -11   28.41   15.85
  -5  -2  11   54.31   15.89
   5   2 -12   10.24   16.71
   5   2 -12   56.97   18.68
   5   2 -13   54.97   18.25
  -5  -3 -16   41.02   18.43
  -5  -3 -15   29.27   16.80
  -5  -3 -14   -8.84   14.49
  -5  -3 -13   85.26   14.97
  -5  -3 -12   -3.49   11.78
  -5  -3 -11   72.66   11.21
   5   3  11   70.34    9.03
  -5  -3 -10   77.88   10.05
   5   3  10   82.39    8.33
   5   3   9  365.08   10.10
   5   3   9  384.17   11.38
   5   3   8  288.72    7.16
   5   3   8  310.46    7.89
  -5  -3  -7   -3.25   12.72
  -5  -3  -6   12.58   12.25
  -5  -3  -5   11.79   12.25
  -5  -3  -4   38.67   12.12
  -5  -3  -4   84.13   13.27
  -5  -3  -3   19.90   11.67
  -5  -3  -2  166.70   14.45
  -5  -3  -1  319.33   16.72
   5   3   0   92.74    4.73
  -5  -3   0   30.71    2.97
  -5  -3   0   51.52    2.53
   5   3   0   78.63    3.72
   5   3  -1    7.60    5.49
  -5  -3   1    1.91    4.61
   5   3  -1    4.34    4.47
  -5  -3   1   14.39   11.76
   5   3  -2    3.14    6.25
   5   3  -2   32.22    8.37
  -5  -3   2   22.63    5.89
   5   3  -2    6.94    5.93
  -5  -3   2    4.26   10.97
   5   3  -3  104.17   10.44
  -5  -3   3   94.25    9.78
  -5  -3   3  116.94   13.61
   5   3  -3  101.58    9.67
  -5  -3   3  106.73    8.49
   5   3  -4  151.72   11.68
  -5  -3   4  130.46   11.82
  -5  -3   4  157.25   14.28
  -5  -3   4  127.26    9.73
  -5  -3   5  121.91   11.82
  -5  -3   5  129.82   11.10
   5   3  -6   53.46   12.28
  -5  -3   6   71.71   12.09
  -5  -3   6   47.91   11.15
   5   3  -7   11.93   12.82
  -5  -3   7   25.18   12.52
  -5  -3   7   25.79   12.13
   5   3  -8   55.47   14.00
  -5  -3   8   52.37   13.94
   5   3  -9   29.26   14.94
  -5  -3   9   60.78   14.57
   5   3 -10  110.39   17.35
  -5  -3  10   69.00   16.22
   5   3 -11  121.67   17.96
  -5  -3  11  117.57   18.02
   5   3 -12  207.26   20.32
   5   3 -12  198.92   21.18
   5   3 -13   80.40   19.86
  -5  -4 -16   18.25   18.83
  -5  -4 -15   70.44   18.39
  -5  -4 -14  105.11   16.75
  -5  -4 -13    3.25   14.04
  -5  -4 -12   77.72   13.25
  -5  -4 -11  104.05   11.88
   5   4  11  104.43   10.04
  -5  -4 -10   50.26   10.16
   5   4  10   52.53    8.19
  -5  -4  -9   -1.78    7.55
   5   4   9    1.86    7.04
  -5  -4  -9   15.71   14.18
   5   4   9   19.13    6.31
  -5  -4  -8   26.39    6.29
   5   4   8   25.81    5.19
   5   4   8   18.79    5.63
   5   4   7  108.92    4.82
   5   4   7  101.09    4.95
  -5  -4  -7  120.15   15.05
  -5  -4  -6   15.69   12.75
  -5  -4  -5  223.48   16.53
  -5  -4  -4    5.32   12.45
  -5  -4  -3  212.56   15.76
  -5  -4  -2   74.62   13.67
   5   4   1   22.42    4.07
  -5  -4  -1   15.93    2.57
   5   4   1   27.97    3.75
   5   4   0    2.67    5.32
   5   4   0    3.16    4.49
  -5  -4   0    3.99    4.29
  -5  -4   0   -2.60   11.56
   5   4  -1   41.27    6.10
   5   4  -1   43.25    7.21
  -5  -4   1   35.11    6.03
   5   4  -2  135.42   10.98
  -5  -4   2  121.87   10.50
   5   4  -2  115.99    9.06
  -5  -4   2  109.74    8.28
   5   4  -3   29.15   10.24
  -5  -4   3   37.89   10.24
  -5  -4   3   30.47   12.00
   5   4  -3   45.33    9.72
  -5  -4   3   35.99    8.59
   5   4  -4   69.22   11.79
  -5  -4   4   80.15   11.58
  -5  -4   4   77.47   10.50
   5   4  -5   11.22   11.74
  -5  -4   5    7.43   11.25
  -5  -4   5    8.74   10.13
   5   4  -6   50.95   13.21
  -5  -4   6   45.63   12.38
  -5  -4   6   19.87   11.85
   5   4  -7   30.10   13.55
  -5  -4   7   41.26   13.31
  -5  -4   7   48.33   13.56
   5   4  -8   62.01   14.85
  -5  -4   8   91.23   14.85
   5   4  -9  136.38   16.94
  -5  -4   9  112.42   16.41
   5   4 -10   66.92   16.58
  -5  -4  10   41.64   15.83
   5   4 -11   20.71   17.06
   5   4 -12   45.09   18.33
  -5  -5 -16   21.08   18.83
  -5  -5 -15   17.86   17.43
  -5  -5 -14   33.05   16.73
  -5  -5 -13   27.20   14.02
  -5  -5 -12   31.50   13.09
  -5  -5 -11   72.58   12.36
   5   5  10   29.73    7.48
  -5  -5 -10   29.00   10.63
  -5  -5  -9   37.63    9.03
   5   5   9   54.39    6.98
  -5  -5  -8   77.77    8.09
   5   5   8   67.04    6.41
   5   5   8   92.46    7.93
  -5  -5  -7   34.76    6.54
   5   5   7   34.25    4.95
   5   5   7   38.78    5.84
  -5  -5  -6   67.17    5.18
   5   5   6   58.83    5.29
   5   5   6   67.80    4.53
   5   5   5   60.43    3.94
  -5  -5  -5   50.11    3.23
   5   5   4  472.89    7.55
  -5  -5  -4  495.92   20.39
   5   5   3   98.62    5.45
   5   5   3   91.00    4.68
   5   5   2   43.89    5.43
   5   5   2   38.92    4.78
  -5  -5  -2   42.86   12.57
  -5  -5  -2   35.38    4.76
   5   5   1  104.19    7.47
   5   5   1  106.62    6.41
  -5  -5  -1   98.68   14.07
  -5  -5  -1   89.17    6.43
   5   5   0   26.29    6.14
  -5  -5   0   12.52   12.16
   5   5   0   30.16    6.97
  -5  -5   0   20.39    6.66
   5   5  -1  485.84   14.45
   5   5  -1  456.14   13.47
  -5  -5   1  448.07   12.28
   5   5  -2  201.12   12.68
  -5  -5   2  186.84   12.18
  -5  -5   2  173.06   14.76
   5   5  -2  173.19   10.84
  -5  -5   2  178.15   10.63
   5   5  -3   77.81   11.91
  -5  -5   3   79.50   11.99
  -5  -5   3   80.19   13.17
  -5  -5   3   72.80   10.27
   5   5  -4  141.89   13.66
  -5  -5   4  183.53   14.09
  -5  -5   4  144.75   12.43
  -5  -5   5   91.16   13.28
  -5  -5   5   94.56   12.91
   5   5  -6   87.45   13.94
  -5  -5   6   61.39   13.54
  -5  -5   6   79.63   13.97
   5   5  -7   25.45   14.52
  -5  -5   7   11.29   13.68
  -5  -5   7   42.73   14.91
   5   5  -8   52.88   15.49
  -5  -5   8   37.63   15.40
   5   5  -9   38.27   16.16
  -5  -5   9   25.53   16.05
   5   5 -10   20.25   16.57
  -5  -5  10   -7.62   16.05
   5   5 -11   41.96   18.23
   5   5 -11    7.40   18.39
   5   5 -12   44.07   19.21
  -5  -6 -16   18.75   19.79
  -5  -6 -15   52.69   18.66
  -5  -6 -14   16.79   16.99
  -5  -6 -13   52.59   15.40
  -5  -6 -12   52.58   13.68
  -5  -6 -11  108.11   13.72
  -5  -6 -10    1.11   10.53
  -5  -6  -9  200.52   12.38
   5   6   9  196.47    9.18
   5   6   8   14.34    6.03
  -5  -6  -8   28.02    8.70
  -5  -6  -7    0.65    7.54
   5   6   7   11.47    6.77
   5   6   7    2.53    5.62
  -5  -6  -6   61.82    7.99
   5   6   6   62.38    6.26
   5   6   6   63.97    6.98
  -5  -6  -6   84.87   15.36
  -5  -6  -5   82.53    7.52
   5   6   5   81.55    6.76
   5   6   5   81.64    6.96
  -5  -6  -5   87.88   14.02
   5   6   4   23.75    6.40
  -5  -6  -4   37.60    6.60
   5   6   4   44.41    5.89
  -5  -6  -4   49.36   13.96
   5   6   3   16.93    6.12
   5   6   3   24.18    5.79
  -5  -6  -3   31.19   13.20
  -5  -6  -3    2.75    6.60
   5   6   2   -3.66    7.28
   5   6   2    3.54    6.13
  -5  -6  -2    4.85   12.46
  -5  -6  -2   13.78    7.06
   5   6   1  225.12   10.50
  -5  -6  -1  225.92   10.36
  -5  -6   0  816.10   24.42
   5   6   0  807.23   17.17
  -5  -6   0  864.39   16.80
   5   6  -1  764.95   18.04
  -5  -6   1  707.63   17.59
  -5  -6   1  696.53   22.51
  -5  -6   1  710.46   17.09
   5   6  -2  116.40   12.72
  -5  -6   2  114.23   12.68
  -5  -6   2  109.75   14.02
  -5  -6   2  109.14   11.47
   5   6  -3   11.19   12.44
  -5  -6   3    7.17   11.51
  -5  -6   3    9.02   10.46
   5   6  -4  284.39   16.52
  -5  -6   4  255.82   15.39
  -5  -6   4  281.83   15.96
   5   6  -5   14.57   13.85
  -5  -6   5   29.04   12.86
  -5  -6   5   14.02   13.12
   5   6  -6   -6.68   13.74
  -5  -6   6   30.10   14.09
  -5  -6   6   15.63   13.53
   5   6  -7  186.13   17.46
  -5  -6   7  178.94   17.14
   5   6  -8   54.27   16.29
  -5  -6   8   70.51   16.43
   5   6  -9   14.63   16.71
  -5  -6   9   24.06   16.57
   5   6 -10   59.89   18.21
   5   6 -11   36.32   18.59
  -5  -7 -15   57.17   20.31
  -5  -7 -14   23.84   17.38
  -5  -7 -13   53.01   16.61
  -5  -7 -12    7.88   13.85
  -5  -7 -11   84.37   14.51
  -5  -7 -10  104.45   13.35
  -5  -7  -9  114.15   11.95
  -5  -7  -8  205.64   12.61
   5   7   8  240.70   11.66
  -5  -7  -7  119.51   10.87
   5   7   7  105.94   10.18
  -5  -7  -6    5.40    8.57
   5   7   6   18.74    8.13
  -5  -7  -5   69.47    9.41
   5   7   5   70.59    8.74
   5   7   4   98.94    9.21
  -5  -7  -4  113.92    9.57
  -5  -7  -4   93.59   15.41
   5   7   3  201.51   11.01
  -5  -7  -3  222.66   10.89
  -5  -7  -3  193.17   16.79
   5   7   2   42.33    8.67
  -5  -7  -2   38.18    8.95
   5   7   1   24.00    8.84
  -5  -7  -1   18.63   12.54
  -5  -7  -1   21.91    9.23
   5   7   0   80.90   12.16
  -5  -7   0   91.81   13.89
  -5  -7   0   81.30   10.69
   5   7  -1   20.51   12.17
  -5  -7   1   21.37   12.12
  -5  -7   1   33.25   12.70
  -5  -7   1    4.53   10.09
   5   7  -2  349.16   16.55
  -5  -7   2  333.72   16.12
  -5  -7   2  296.50   15.40
   5   7  -3  157.59   15.24
  -5  -7   3  141.61   14.56
  -5  -7   3  141.87   13.67
   5   7  -4   19.88   13.79
  -5  -7   4   31.06   13.07
  -5  -7   4   21.03   13.34
   5   7  -5   31.20   14.46
  -5  -7   5   35.29   14.00
  -5  -7   5    1.00   13.48
   5   7  -6  184.85   17.64
  -5  -7   6  216.10   17.62
   5   7  -7   14.49   16.24
  -5  -7   7   10.09   15.43
   5   7  -8   48.59   17.29
  -5  -7   8   65.83   16.92
   5   7  -9   35.07   17.69
   5   7 -10   62.39   19.20
  -5  -8 -15   90.12   22.01
  -5  -8 -14   96.50   19.47
  -5  -8 -13   31.65   17.17
  -5  -8 -12   25.50   15.25
  -5  -8 -11  212.11   17.89
  -5  -8 -10  250.46   17.23
  -5  -8  -9   36.75   12.20
  -5  -8  -8   23.98   11.27
  -5  -8  -7  110.78   12.17
  -5  -8  -6  215.86   12.96
   5   8   6  217.47   12.45
  -5  -8  -5   10.90    9.86
   5   8   5   -4.13    8.62
  -5  -8  -4   -2.51    9.75
   5   8   4    9.08    9.22
  -5  -8  -3  148.84   11.93
  -5  -8  -3  191.43   17.95
  -5  -8  -2  222.26   12.79
  -5  -8  -2  273.66   18.86
  -5  -8  -1   56.67   11.00
   5   8   1   75.42   12.85
  -5  -8   0   33.82   11.32
   5   8   0   31.49   12.49
  -5  -8   0   40.25   14.02
  -5  -8   0   61.62   14.63
  -5  -8   1   77.20   12.74
   5   8  -1   72.48   13.95
  -5  -8   1   44.07   14.12
  -5  -8   2   78.97   13.39
   5   8  -2   70.75   14.53
  -5  -8   2   79.49   14.36
  -5  -8   3   13.49   13.29
   5   8  -3   24.35   14.82
  -5  -8   3   34.88   13.98
   5   8  -4  173.06   17.17
  -5  -8   4  202.78   16.64
   5   8  -5   31.23   15.99
  -5  -8   5   38.57   15.62
   5   8  -6  137.32   17.64
  -5  -8   6  166.73   18.04
   5   8  -7  141.70   19.08
  -5  -8   7   92.77   17.42
   5   8  -8    9.49   17.37
   5   8  -9   71.26   19.23
  -5  -9 -14   19.11   18.52
  -5  -9 -13    7.30   17.49
  -5  -9 -12   44.54   16.80
  -5  -9 -11  195.57   19.11
  -5  -9 -10  166.20   17.38
  -5  -9  -9  131.91   15.92
  -5  -9  -8   38.16   12.39
  -5  -9  -7   14.74   12.10
  -5  -9  -6   44.03   12.12
  -5  -9  -5  237.02   15.04
  -5  -9  -4  344.15   16.10
  -5  -9  -3   45.69   12.13
   5   9   2   42.60   12.59
  -5  -9  -2   22.96   11.96
   5   9   1   71.58   13.81
  -5  -9  -1   25.13   14.61
   5   9   0   14.79   13.26
  -5  -9   0   24.02   12.80
  -5  -9   0   -3.62   14.85
  -5  -9   1   35.66   13.46
   5   9  -1   46.66   14.50
  -5  -9   1   37.21   15.26
  -5  -9   2  150.16   15.87
   5   9  -2  169.01   17.05
  -5  -9   2  146.09   17.05
   5   9  -2  114.29   18.98
  -5  -9   3   12.88   14.03
   5   9  -3   26.75   15.76
  -5  -9   3   21.54   15.33
   5   9  -4   76.48   17.14
  -5  -9   4   18.08   15.34
   5   9  -5   16.11   16.38
  -5  -9   5   25.01   16.45
   5   9  -6   52.81   17.95
  -5  -9   6   26.79   17.10
   5   9  -7   65.09   18.78
   5   9  -8  126.08   20.80
  -5 -10 -13   23.93   18.81
  -5 -10 -12   30.95   17.92
  -5 -10 -11   46.41   17.56
  -5 -10 -10   26.19   16.54
  -5 -10  -9   41.05   15.26
  -5 -10  -8  163.10   16.74
  -5 -10  -7   25.53   13.21
  -5 -10  -6  114.07   14.55
  -5 -10  -5    7.49   12.93
  -5 -10  -4   62.94   13.62
   5  10   3   29.65   13.31
  -5 -10  -3   -0.74   13.02
   5  10   2   42.44   13.88
  -5 -10  -2   58.69   16.16
   5  10   1   92.40   14.86
  -5 -10  -1   46.34   16.12
   5  10   0   29.80   14.92
  -5 -10   0   10.20   14.13
  -5 -10   0   24.40   16.22
   5  10  -1   12.89   15.54
  -5 -10   1    6.02   14.48
  -5 -10   1   28.56   17.35
   5  10  -1   62.43   18.93
   5  10  -2   16.79   16.22
  -5 -10   2   25.57   15.48
  -5 -10   2   26.51   16.34
   5  10  -2   55.13   19.07
   5  10  -3   55.46   17.04
  -5 -10   3   51.47   18.17
   5  10  -3   24.71   19.36
   5  10  -4   54.03   17.70
  -5 -10   4   54.35   18.33
   5  10  -4   95.29   21.57
   5  10  -5   92.14   18.98
  -5 -10   5   78.14   18.63
   5  10  -5   74.64   21.86
   5  10  -6   75.85   19.45
   5  10  -7   40.91   20.16
  -5 -11 -12   34.87   19.61
  -5 -11 -11   63.47   19.47
  -5 -11 -10   61.81   18.66
  -5 -11  -9   42.23   16.94
  -5 -11  -8    8.83   15.81
  -5 -11  -7   97.16   16.06
  -5 -11  -6   65.54   15.10
  -5 -11  -5   30.89   14.50
   5  11   4   38.18   13.34
  -5 -11  -4   40.44   14.51
   5  11   3   62.69   14.79
  -5 -11  -3   68.43   17.00
   5  11   2   52.72   15.40
  -5 -11  -2   35.49   15.44
  -5 -11  -2   28.38   17.27
   5  11   1   94.62   16.78
  -5 -11  -1   76.38   18.71
  -5 -11   0  247.16   20.23
   5  11   0  221.01   19.29
  -5 -11   0  219.30   21.34
   5  11  -1   48.06   17.33
  -5 -11   1   39.24   18.63
   5  11  -1   80.02   20.94
   5  11  -2   56.03   17.46
  -5 -11   2    6.87   18.09
   5  11  -2   51.22   20.98
   5  11  -3   29.62   17.40
  -5 -11   3   25.45   18.77
   5  11  -3   18.19   21.04
   5  11  -4   26.48   18.06
   5  11  -4   64.89   22.33
   5  11  -5   17.37   18.78
   5  11  -5   31.31   23.25
   5  11  -6   98.66   20.71
  -5 -12  -9   57.27   19.00
  -5 -12  -8   68.17   18.76
  -5 -12  -7   19.74   16.65
  -5 -12  -6   15.61   16.56
  -5 -12  -5   34.62   16.55
   5  12   4  121.33   15.70
  -5 -12  -4   83.42   17.40
   5  12   3   92.80   16.49
  -5 -12  -3   95.21   17.45
  -5 -12  -3   75.31   19.13
   5  12   2  108.85   18.12
  -5 -12  -2   17.06   18.93
   5  12   1  115.59   17.96
  -5 -12  -1  154.15   20.86
   5  12   1  175.87   23.75
   5  12   0   55.00   17.82
  -5 -12   0   84.37   20.11
   5  12   0   64.87   21.89
   5  12  -1   63.92   18.22
   5  12  -1   44.01   21.50
   5  12  -2   40.23   18.26
   5  12  -2   37.51   22.54
   5  12  -3  157.35   20.77
   5  12  -3  168.43   25.19
   5  12  -4  287.38   23.30
   5  13   4  113.92   16.65
  -5 -13  -4   57.71   19.68
   5  13   3   63.83   17.04
   5  13   2   76.56   17.58
   5  13   2   96.28   22.41
   5  13   1   41.20   17.67
   5  13   1   24.18   23.07
   5  13   0  109.36   19.98
   5  13   0  178.37   26.06
   5  13  -1   92.18   20.35
   5  13  -1   47.21   23.54
   5  13  -2  126.38   21.92
   5  14   4   80.13   17.21
   5  14   3  126.78   18.70
   5  14   3  179.16   24.88
   5  14   2  170.90   20.23
   6 -13   1   -1.49   21.71
   6 -13   0  190.11   26.70
   6 -13   0  136.67   27.95
   6 -13  -1  201.64   27.36
   6 -12   5   79.97   21.19
   6 -12   4   64.24   21.35
   6 -12   3   83.82   21.62
   6 -12   2  119.39   22.10
   6 -12   1  258.91   28.11
   6 -12   0   65.32   20.19
   6 -12   0   68.37   20.53
   6 -12  -1   14.47   20.36
   6 -12  -2  115.70   20.26
   6 -12  -3   44.32   20.22
   6 -12  -4  150.03   22.63
   6 -12  -5  123.57   21.50
   6 -11   8  100.83   18.58
   6 -11   7   47.53   18.10
   6 -11   6  417.49   23.36
   6 -11   5  139.99   20.11
   6 -11   4   68.81   19.05
  -6  11  -4    8.51   18.11
   6 -11   3   76.19   20.00
  -6  11  -3   63.63   17.83
   6 -11   2   70.31   18.84
  -6  11  -2   58.92   17.63
   6 -11   1   51.40   17.99
  -6  11  -1   58.40   16.95
  -6  11   0   57.08   17.80
   6 -11   0   21.91   19.57
  -6  11   1   41.97   17.16
   6 -11  -1   76.71   19.01
  -6  11   2   27.22   17.74
  -6  11   2   -4.93   19.54
   6 -11  -2   47.01   18.92
  -6  11   3   26.85   17.20
  -6  11   3   64.85   20.37
   6 -11  -3   43.84   19.32
   6 -11  -4  100.01   19.73
   6 -11  -5   70.81   19.82
   6 -11  -6   31.01   18.80
   6 -11  -7  170.61   21.44
   6 -10   7   54.05   16.49
   6 -10   6   91.21   17.65
  -6  10  -6   42.32   16.09
   6 -10   5  161.77   18.79
  -6  10  -5  124.71   17.73
   6 -10   4  105.49   18.19
  -6  10  -4  113.80   17.77
   6 -10   3  298.35   21.79
  -6  10  -3  245.97   20.47
  -6  10  -2   69.01   17.01
   6 -10   2   98.54   18.00
  -6  10  -2   84.88   16.94
  -6  10  -1   21.88   16.35
   6 -10   1   34.31   17.14
  -6  10  -1   19.77   16.35
   6 -10   0   47.36   17.06
  -6  10   0   43.17   15.57
  -6  10   0    8.28   16.73
   6 -10   0   76.17   17.51
  -6  10   1   40.59   16.14
  -6  10   1   20.83   18.16
   6 -10  -1   44.22   17.77
  -6  10   2   21.91   16.27
  -6  10   2   88.61   20.32
   6 -10  -2   71.10   19.26
  -6  10   3   63.93   16.55
   6 -10  -3   82.88   18.56
  -6  10   4   39.50   16.58
   6 -10  -4   46.08   18.57
  -6  10   5   -5.75   16.33
   6 -10  -5   41.50   18.11
   6 -10  -6   31.69   18.20
   6 -10  -7   12.86   17.77
   6 -10  -8   28.41   19.26
  -6   9  -7  130.20   18.55
  -6   9  -6  110.42   18.54
  -6   9  -5   34.72   15.36
   6  -9   5  115.23   16.35
  -6   9  -4   36.32   15.28
   6  -9   4   59.82   15.55
  -6   9  -3  125.23   15.14
   6  -9   3  109.70   16.56
   6  -9   2  182.04   18.72
  -6   9  -2  255.92   18.45
   6  -9   1  178.67   19.37
  -6   9  -1  217.92   23.59
  -6   9   0  129.31   18.92
   6  -9   0  117.83   17.72
  -6   9   0  107.24   16.88
  -6   9   0  120.86   20.70
   6  -9   0   89.09   17.78
  -6   9   1   84.93   16.80
   6  -9  -1   52.47   15.84
  -6   9   1   80.00   15.61
   6  -9  -1  100.61   16.99
  -6   9   2   48.70   15.79
   6  -9  -2   96.49   16.16
  -6   9   2   68.55   15.61
  -6   9   2   48.65   19.06
   6  -9  -3   45.33   15.56
  -6   9   3   33.87   14.93
  -6   9   3   24.39   17.51
   6  -9  -3   18.32   16.27
  -6   9   4   81.47   16.04
  -6   9   4   35.03   19.36
   6  -9  -4   65.81   17.61
  -6   9   5  291.62   19.71
   6  -9  -5  274.69   19.88
   6  -9  -6   77.50   17.53
  -6   9   6   88.02   16.78
  -6   9   6  102.81   20.40
   6  -9  -7   20.13   16.85
  -6   9   7    0.75   16.46
  -6   9   7   43.30   18.72
   6  -9  -8   51.24   17.82
   6  -9  -9   18.80   18.20
  -6   8  -9   27.41   15.06
  -6   8  -8   70.52   15.23
  -6   8  -7   45.12   14.41
  -6   8  -6   -4.34   12.87
  -6   8  -5  120.46   14.85
  -6   8  -4   80.29   15.18
  -6   8  -3  220.58   17.51
  -6   8  -2   -4.73   12.86
   6  -8   2    9.63   14.17
  -6   8  -2   17.12   16.25
  -6   8  -1   18.29   12.96
   6  -8   1   76.42   14.82
  -6   8  -1   10.61   13.65
  -6   8  -1   66.13   17.95
   6  -8   1   51.26   15.39
  -6   8   0    9.71   12.80
  -6   8   0   11.69   13.24
  -6   8   0   42.22   16.71
   6  -8   0   62.45   15.01
  -6   8   1    0.31   13.56
   6  -8  -1   51.04   14.64
  -6   8   1   51.99   14.00
  -6   8   1   -1.45   15.84
   6  -8  -1   65.06   15.62
  -6   8   2  194.07   17.86
   6  -8  -2  232.16   17.29
  -6   8   2  233.15   23.52
   6  -8  -2  172.30   17.07
  -6   8   3  200.57   17.08
   6  -8  -3  212.01   16.74
  -6   8   3  218.23   16.53
  -6   8   3  146.20   23.11
   6  -8  -3  155.13   17.54
  -6   8   4   90.66   14.70
   6  -8  -4  101.35   15.86
  -6   8   4   88.58   15.06
  -6   8   4  112.12   20.29
   6  -8  -4   96.96   16.37
   6  -8  -5  169.18   17.15
  -6   8   5  163.04   16.03
   6  -8  -5  183.55   18.45
  -6   8   5  133.91   20.80
   6  -8  -6   28.82   15.56
  -6   8   6   14.57   14.90
  -6   8   6   25.23   18.68
   6  -8  -7   27.75   15.94
  -6   8   7   26.56   15.87
  -6   8   7   28.91   17.65
   6  -8  -8  124.37   17.95
  -6   8   8  107.07   17.92
  -6   8   8   74.32   19.29
   6  -8  -9  158.92   19.06
   6  -8 -10   54.08   18.55
  -6   7 -11   14.17   15.48
  -6   7 -10   -0.34   14.21
  -6   7  -9   34.98   14.08
  -6   7  -8  244.22   16.60
  -6   7  -7   35.90   12.49
  -6   7  -6  146.17   13.80
  -6   7  -5   -7.83   11.19
  -6   7  -4  -10.97   10.86
  -6   7  -3   43.24   11.83
  -6   7  -3   37.88   15.36
  -6   7  -2  126.35   14.78
  -6   7  -2  162.95   18.66
  -6   7  -1   64.04   12.66
  -6   7  -1   48.43   16.14
  -6   7   0   30.26   11.79
  -6   7   0   62.94   16.68
  -6   7   1   31.81   13.08
   6  -7  -1   41.85   13.81
  -6   7   1   37.81   17.19
   6  -7  -1   39.37   13.62
  -6   7   2   93.82   14.87
   6  -7  -2   96.74   14.39
  -6   7   2   82.21   13.83
  -6   7   2  104.41   18.82
   6  -7  -2   99.52   15.04
   6  -7  -3   20.85   13.96
  -6   7   3   23.37   12.29
   6  -7  -3   39.63   14.57
  -6   7   3   -0.53   12.18
  -6   7   3   12.33   16.48
  -6   7   4  115.50   14.15
   6  -7  -4   79.14   15.46
  -6   7   4   91.08   18.79
  -6   7   4   52.69   13.26
   6  -7  -4   85.18   14.59
   6  -7  -5  324.17   18.07
  -6   7   5  311.48   17.23
  -6   7   5  320.95   17.72
   6  -7  -5  247.76   18.53
  -6   7   5  296.96   23.76
   6  -7  -6   83.57   15.27
  -6   7   6  112.22   15.71
   6  -7  -6   89.47   15.64
  -6   7   6   77.15   19.37
   6  -7  -7   33.77   15.44
  -6   7   7   12.39   14.67
  -6   7   7   51.61   18.05
   6  -7  -8  145.22   17.51
  -6   7   8  127.45   17.21
  -6   7   8  111.83   20.40
   6  -7  -9   26.19   16.31
  -6   7   9   12.86   16.70
  -6   7   9   63.77   18.75
   6  -7 -10   24.58   16.92
   6  -7 -11   49.46   18.44
  -6   6 -12   40.38   16.88
  -6   6 -11   43.13   15.72
  -6   6 -10  189.02   17.41
  -6   6  -9   85.25   14.51
  -6   6  -8   93.30   13.64
  -6   6  -7  816.68   21.20
  -6   6  -6   62.42   11.58
  -6   6  -5   24.04   10.13
  -6   6  -4   51.37    9.74
  -6   6  -4   98.93   14.79
  -6   6  -3   34.33    9.82
  -6   6  -3   23.77   14.57
  -6   6  -2   18.23   10.05
  -6   6  -2   25.77   15.43
  -6   6  -1   18.49   10.39
  -6   6  -1   71.33   16.42
  -6   6   0  214.88   13.89
  -6   6   0  194.94   20.60
  -6   6   1  144.75   13.49
  -6   6   1  125.97   19.14
  -6   6   2  179.06   14.83
  -6   6   2  164.83   13.74
  -6   6   3  799.96   21.93
   6  -6  -3  706.33   22.00
  -6   6   3  656.54   30.11
  -6   6   3  701.17   19.97
   6  -6  -3  764.22   20.38
   6  -6  -4  103.16   13.88
  -6   6   4  125.26   13.75
  -6   6   4  100.64   12.62
   6  -6  -4  110.31   14.23
  -6   6   4   89.09   17.79
   6  -6  -5   31.56   13.61
  -6   6   5   20.82   12.98
  -6   6   5   47.42   12.32
   6  -6  -5   28.48   13.10
  -6   6   5   42.36   17.07
   6  -6  -6   91.95   14.74
  -6   6   6   94.06   13.45
  -6   6   6   81.06   14.38
   6  -6  -6   69.68   14.13
  -6   6   6  124.99   19.23
   6  -6  -7   11.33   14.42
  -6   6   7   11.49   13.62
   6  -6  -7    6.24   14.10
  -6   6   7   -1.70   16.99
   6  -6  -8   24.80   15.05
  -6   6   8    3.66   15.21
  -6   6   8   39.85   17.34
   6  -6  -9   44.67   16.00
  -6   6   9   21.05   16.13
   6  -6 -10   80.20   17.21
  -6   6  10   68.14   18.21
   6  -6 -11   36.33   17.54
  -6   5 -13   25.74   17.39
  -6   5 -12   -4.70   15.08
  -6   5 -11   14.69   14.41
  -6   5 -10   96.20   14.70
  -6   5  -9  123.59   13.73
  -6   5  -8   26.44   11.09
  -6   5  -7   45.16   11.06
  -6   5  -6   45.95   10.26
   6  -5   5   37.77    9.26
  -6   5  -5    8.69    8.93
  -6   5  -4  161.84   10.61
   6  -5   4  178.10   11.00
  -6   5  -4  196.60   17.01
  -6   5  -3  231.97   11.90
   6  -5   3  232.20   13.14
  -6   5  -3  251.43   19.13
   6  -5   2  448.74   16.52
  -6   5  -2  394.70   15.06
  -6   5  -2  408.01   22.14
  -6   5  -1  345.21   13.77
   6  -5   1  360.89   15.02
  -6   5  -1  361.70   22.02
  -6   5   0  144.20   11.44
   6  -5   0  139.96   11.46
  -6   5   0  143.25   18.53
  -6   5   1   17.06    9.85
  -6   5   1   21.65   15.55
  -6   5   2   84.31   11.60
  -6   5   2   54.33   17.60
   6  -5  -3   84.19   12.06
  -6   5   3   95.70   11.79
   6  -5  -3   98.08   12.65
  -6   5   3   72.93   16.75
   6  -5  -4  108.39   13.40
  -6   5   4  145.79   12.62
  -6   5   4  138.36   13.50
   6  -5  -4   79.53   13.07
  -6   5   4   85.13   18.55
   6  -5  -5    2.81   12.36
  -6   5   5   13.19   12.03
  -6   5   5   -4.11   10.66
  -6   5   5   19.82   16.41
   6  -5  -6   89.39   13.85
  -6   5   6   82.21   12.39
  -6   5   6  101.00   14.13
   6  -5  -6   97.43   14.00
   6  -5  -7  164.13   15.80
  -6   5   7  212.32   15.81
  -6   5   7  168.09   15.84
   6  -5  -7  146.58   15.01
  -6   5   7  203.77   20.27
   6  -5  -8   64.57   15.53
  -6   5   8   61.84   14.63
  -6   5   8   90.08   17.10
   6  -5  -9   21.07   15.53
  -6   5   9    4.39   14.67
  -6   5   9   18.50   16.32
   6  -5 -10   65.42   16.46
  -6   5  10   26.80   16.03
   6  -5 -11   89.20   18.37
   6  -5 -12   29.63   17.79
  -6   4 -14   45.19   17.72
  -6   4 -13   84.48   16.86
  -6   4 -12   16.48   13.99
  -6   4 -11   13.91   13.16
  -6   4 -10   21.93   12.27
  -6   4  -9   16.68   10.61
  -6   4  -8   21.42   10.19
   6  -4   8   34.94   10.14
  -6   4  -7  158.45   11.11
   6  -4   7  172.45   10.99
  -6   4  -6  131.25   10.07
   6  -4   6  138.55    9.65
   6  -4   5   12.03    6.88
  -6   4  -5    0.04    7.60
   6  -4   5   25.45    7.42
   6  -4   4  396.67   12.15
  -6   4  -4  374.76   20.01
   6  -4   4  411.02   12.16
  -6   4  -3  455.90   13.48
  -6   4  -3  457.05   21.29
   6  -4   2   15.35    6.72
  -6   4  -2    9.61    6.56
   6  -4   2   -1.99    7.09
   6  -4   1  340.94   11.52
   6  -4   1  383.42   12.00
  -6   4  -1  372.89   21.59
  -6   4   0  151.73   10.05
   6  -4   0  151.70    9.79
  -6   4   0  147.33   18.01
  -6   4   1   49.26    9.36
  -6   4   1   47.99   10.78
   6  -4  -1   72.94   10.01
  -6   4   1   73.96   15.92
  -6   4   2   19.10    9.42
  -6   4   2   31.81   10.43
   6  -4  -2   18.76    9.82
  -6   4   2   21.64   14.41
  -6   4   3   67.40   10.63
   6  -4  -3   83.01   12.02
  -6   4   3   61.79   16.76
   6  -4  -4   14.62   11.07
  -6   4   4    3.77   11.07
  -6   4   4   -0.79    9.48
   6  -4  -4   13.51   10.77
  -6   4   4   23.84   14.93
   6  -4  -5    1.94   11.33
  -6   4   5   11.97   11.37
  -6   4   5   14.64   10.15
  -6   4   5   11.67   14.69
   6  -4  -6   10.15   12.50
  -6   4   6   13.63   12.46
  -6   4   6   -2.37   10.97
  -6   4   6   -5.52   14.83
   6  -4  -7   28.86   13.16
  -6   4   7   26.19   12.73
  -6   4   7    9.20   12.18
  -6   4   7   -3.05   15.37
   6  -4  -8   31.70   13.75
  -6   4   8   27.19   13.56
  -6   4   8    0.37   15.34
   6  -4  -9   86.18   15.52
  -6   4   9   67.88   15.18
  -6   4   9   56.79   16.93
   6  -4 -10  167.27   17.71
  -6   4  10   99.99   16.59
   6  -4 -11   -5.95   16.11
   6  -4 -12   91.50   18.03
  -6   3 -14   23.22   16.58
  -6   3 -13   56.47   15.89
  -6   3 -12   74.07   14.97
  -6   3 -11   36.32   13.27
  -6   3 -10   94.34   12.67
  -6   3  -9  232.91   13.59
   6  -3   9  229.95   12.27
  -6   3  -8   64.56   10.28
   6  -3   8  104.28    9.86
  -6   3  -7  147.67   10.13
   6  -3   7  153.90    9.47
  -6   3  -6   12.92    7.46
   6  -3   6    3.83    6.26
   6  -3   6   21.54    6.76
  -6   3  -5   26.46    6.53
   6  -3   5   34.78    6.10
  -6   3  -5   43.36   14.33
  -6   3  -4   85.47    6.22
   6  -3   4   94.40    6.60
  -6   3  -4  104.67   15.22
   6  -3   4  100.97    6.52
  -6   3  -3  181.59   17.02
   6  -3   3  207.42    6.98
   6  -3   2  258.81    7.97
  -6   3  -2  280.05    8.06
   6  -3   2  296.80    9.86
  -6   3  -2  287.66   18.24
  -6   3  -1   89.05    6.66
   6  -3   1  110.29    7.72
  -6   3  -1   82.76   15.57
   6  -3   1  105.34    6.95
   6  -3   0  162.78    8.95
  -6   3   0  131.23    8.34
   6  -3   0  139.88    8.98
  -6   3   0  155.09   16.53
  -6   3   1   13.21    7.71
  -6   3   1    3.25    8.72
   6  -3  -1   11.78    8.09
  -6   3   2  197.60   11.32
  -6   3   2  154.58   12.36
   6  -3  -2  201.68   11.90
  -6   3   2  154.58   17.26
  -6   3   3   85.13   10.09
  -6   3   3   85.13   12.59
   6  -3  -3  100.36   11.54
  -6   3   3   97.26   16.29
   6  -3  -4  180.90   12.28
  -6   3   4  183.34   11.85
   6  -3  -5   27.52   10.85
  -6   3   5   11.93    9.14
  -6   3   5    7.67   11.13
  -6   3   5   26.38   15.06
   6  -3  -6    1.87   11.57
  -6   3   6   -1.45   11.21
  -6   3   6   18.53   10.81
  -6   3   6    0.55   14.64
   6  -3  -7   40.03   12.84
  -6   3   7   31.81   12.46
  -6   3   7   48.19   12.00
  -6   3   7   40.71   15.37
   6  -3  -8   57.90   13.75
  -6   3   8   60.24   13.56
  -6   3   8   34.27   13.27
  -6   3   8   52.90   15.33
   6  -3  -9   62.09   15.00
  -6   3   9   39.84   14.11
   6  -3 -10   29.42   15.58
  -6   3  10   27.86   14.89
   6  -3 -11  100.37   17.44
   6  -3 -12   12.28   17.12
  -6   2 -14   82.70   17.51
  -6   2 -13   53.05   15.85
  -6   2 -12  154.45   16.29
  -6   2 -11    8.39   11.73
  -6   2 -10    2.84   10.42
   6  -2  10   18.09    9.62
  -6   2  -9   59.27   10.18
   6  -2   9   45.08    8.64
  -6   2  -8   24.88    7.88
   6  -2   8   18.74    7.31
   6  -2   8   19.32    7.36
  -6   2  -7    8.22    6.56
   6  -2   7   17.42    5.73
   6  -2   7   16.82    5.80
  -6   2  -7   33.25   13.87
   6  -2   6  294.17    7.38
   6  -2   6  297.12    7.08
   6  -2   5  197.93    3.66
   6  -2   5  200.60    3.63
  -6   2  -4  165.14   16.58
  -6   2  -3    9.65   13.14
  -6   2  -2   -1.89   13.36
   6  -2   1   51.81    4.50
  -6   2  -1   71.99   14.32
   6  -2   1   62.38    4.78
   6  -2   0   29.06    5.65
  -6   2   0   31.05    5.71
   6  -2   0   31.07    5.42
  -6   2   0   32.87   13.64
   6  -2  -1  579.87   12.66
  -6   2   1  550.34   12.23
   6  -2  -1  533.22   12.29
  -6   2   1  570.05   23.62
  -6   2   2  148.73    9.81
   6  -2  -2  124.82    9.21
  -6   2   2  108.39   15.72
  -6   2   3   11.24    8.03
   6  -2  -3   21.77    8.84
  -6   2   3    2.10   13.24
  -6   2   4   10.15    8.37
  -6   2   4   12.33   12.69
   6  -2  -5   14.05   10.97
  -6   2   5    2.08   10.28
  -6   2   5   25.56    9.28
  -6   2   5   20.16   13.81
   6  -2  -6  157.89   13.17
  -6   2   6  165.23   13.02
  -6   2   6  155.35   13.11
  -6   2   6  191.86   16.88
   6  -2  -7  310.74   16.08
  -6   2   7  319.24   15.78
  -6   2   7  319.23   15.88
   6  -2  -8  222.68   16.10
  -6   2   8  219.81   15.87
  -6   2   8  227.71   15.71
   6  -2  -9   20.17   14.14
  -6   2   9   53.27   14.72
   6  -2 -10   13.64   15.16
  -6   2  10   14.30   14.72
   6  -2 -11   10.10   16.20
   6  -2 -12   37.83   17.93
  -6   1 -15   43.86   18.77
  -6   1 -14   17.75   16.22
  -6   1 -13   27.07   14.63
  -6   1 -12   34.96   12.89
  -6   1 -11  151.29   12.82
  -6   1 -10   -1.56    9.34
   6  -1  10   13.91    8.87
  -6   1  -9   22.83    8.53
   6  -1   9   33.47    7.31
   6  -1   9   32.43    7.27
  -6   1  -8   10.98    6.75
   6  -1   8   -2.50    5.78
  -6   1  -8   17.42   14.15
   6  -1   8    7.97    5.85
   6  -1   7    2.58    3.86
   6  -1   7   13.03    4.44
  -6   1  -7   13.68   13.25
  -6   1  -6   14.24   13.33
  -6   1  -5  -11.46   13.57
  -6   1  -4    0.42   14.12
  -6   1  -3  130.90   16.11
  -6   1  -2   94.07   15.32
  -6   1  -1    2.07   12.79
   6  -1   0   17.26    4.40
  -6   1   0    7.60    3.19
   6  -1   0   13.41    4.71
  -6   1   0   22.95   13.05
  -6   1   1   28.92    6.45
   6  -1  -1   15.29    5.97
   6  -1  -1   11.39    6.10
  -6   1   1   36.26   13.05
  -6   1   2  136.41    8.72
   6  -1  -2  144.28    8.53
   6  -1  -2  135.56    8.75
  -6   1   2  155.73   15.84
  -6   1   3    9.27    7.14
   6  -1  -3    1.79    7.80
  -6   1   3  -13.11   13.00
  -6   1   4  106.11    9.20
  -6   1   4  120.83   15.59
   6  -1  -5  295.24   13.39
  -6   1   5  318.64   13.62
   6  -1  -6  115.24   12.84
  -6   1   6  140.84   12.39
  -6   1   6  126.29   12.50
   6  -1  -7    0.89   12.37
  -6   1   7   23.54   11.68
  -6   1   7   19.84   12.36
  -6   1   7   50.67   14.43
   6  -1  -8   24.62   13.83
  -6   1   8    6.19   12.83
  -6   1   8   -1.72   12.74
   6  -1  -9  106.34   15.73
  -6   1   9  102.10   15.69
   6  -1 -10  116.98   16.78
  -6   1  10  113.68   16.73
   6  -1 -11   45.90   17.04
   6  -1 -12   86.12   18.93
  -6   0 -15   76.95   17.90
  -6   0 -14    7.35   15.18
  -6   0 -13   11.08   13.66
  -6   0 -12  136.76   13.85
  -6   0 -11   12.23   10.28
  -6   0 -10   10.48    9.14
   6   0  10   12.03    8.25
  -6   0  -9   11.73    7.52
   6   0   9    8.96    6.22
   6   0   9   13.07    6.91
   6   0   8  184.46    6.53
   6   0   8  168.44    7.22
  -6   0  -7  121.11   15.94
  -6   0  -6  279.66   18.34
  -6   0  -5   58.28   14.55
  -6   0  -4  338.99   19.12
  -6   0  -3 1200.13   30.35
  -6   0  -2    6.51   13.48
  -6   0  -1   26.10   13.45
   6   0   0   83.78    4.03
   6   0   0   83.37    3.47
   6   0  -1  187.53    7.54
   6   0  -1  191.53    7.89
  -6   0   2    9.34    6.53
   6   0  -2    4.96    5.94
   6   0  -2   10.98    7.34
  -6   0   2    0.53   12.92
  -6   0   3   13.11    6.91
   6   0  -3    8.86    8.13
  -6   0   3   -3.84   12.94
  -6   0   4    6.70    8.02
  -6   0   4   32.65   13.65
  -6   0   5   42.90    9.72
  -6   0   5   61.88   14.39
   6   0  -6   77.25   12.72
  -6   0   6  107.13   11.62
  -6   0   6  105.30   12.61
   6   0  -7  166.73   14.68
  -6   0   7  164.27   14.41
  -6   0   7  171.79   14.37
   6   0  -8   80.06   14.43
  -6   0   8   59.37   14.07
  -6   0   8   64.80   13.85
   6   0  -9   43.79   14.95
  -6   0   9   16.70   14.92
   6   0 -10   28.00   15.74
  -6   0  10   39.07   16.09
   6   0 -11  134.37   18.37
   6   0 -12   -5.60   17.34
  -6  -1 -15   50.99   17.99
  -6  -1 -14   42.16   15.18
  -6  -1 -13   19.32   13.50
  -6  -1 -12   16.60   11.25
  -6  -1 -11   86.98   11.75
  -6  -1 -10   84.24    9.62
   6   1  10   83.26    8.75
  -6  -1  -9   57.97    6.99
   6   1   9   68.54    6.50
   6   1   9   66.07    7.52
  -6  -1  -9   81.42   15.90
   6   1   8    5.99    3.26
   6   1   8    8.17    3.09
  -6  -1  -8   17.37   14.12
  -6  -1  -7  -22.39   14.61
  -6  -1  -6   59.38   14.61
  -6  -1  -5 1020.97   28.09
  -6  -1  -4  889.92   26.88
  -6  -1  -3    0.99   12.88
  -6  -1  -2   18.41   14.21
  -6  -1  -1  162.06   16.36
   6   1   0   32.24    3.19
   6   1   0   31.92    3.13
  -6  -1   1   13.64    5.26
   6   1  -1   18.75    5.07
   6   1  -1   23.44    5.94
  -6  -1   1   26.73   13.67
  -6  -1   2  181.07    8.01
   6   1  -2  184.37    7.86
   6   1  -3  402.58   14.28
  -6  -1   3  478.48   21.81
  -6  -1   4   68.70    9.00
  -6  -1   4  131.89   15.82
  -6  -1   5   25.25    9.45
  -6  -1   5   33.12   14.15
   6   1  -6  112.79   12.72
  -6  -1   6   78.49   13.18
  -6  -1   6   88.29   12.03
   6   1  -7   34.63   13.70
  -6  -1   7   35.93   13.07
  -6  -1   7   25.48   11.88
   6   1  -8  100.79   14.81
  -6  -1   8  101.46   15.04
  -6  -1   8  106.83   15.17
  -6  -1   8  102.49   15.12
   6   1  -9   44.28   15.08
  -6  -1   9   34.76   15.26
  -6  -1   9   34.86   15.05
   6   1 -10   35.28   15.96
  -6  -1  10   65.80   16.43
  -6  -1  10   29.44   16.38
   6   1 -11    9.09   16.65
   6   1 -12   60.08   18.23
  -6  -2 -15   24.82   16.86
  -6  -2 -14    4.70   14.66
  -6  -2 -13    9.68   13.09
  -6  -2 -12    8.33   11.57
  -6  -2 -11   21.80   10.53
  -6  -2 -10  104.57    9.70
   6   2  10  116.27    8.57
   6   2  10  106.71    9.91
  -6  -2 -10  138.44   16.98
  -6  -2  -9   56.72    7.02
   6   2   9   68.78    6.76
   6   2   9   71.89    6.95
  -6  -2  -9   60.75   15.75
   6   2   8   33.70    2.58
   6   2   8   27.12    2.60
  -6  -2  -8   31.49   15.18
  -6  -2  -7   32.56   15.17
  -6  -2  -6   28.73   14.76
  -6  -2  -5   -2.79   13.89
  -6  -2  -4   78.22   14.73
  -6  -2  -3    2.54   12.88
  -6  -2  -2  126.32   15.26
  -6  -2  -1  652.29   23.64
   6   2   0  231.02    5.77
   6   2   0  268.11    6.83
  -6  -2   1   80.57    5.88
   6   2  -1   76.28    5.68
   6   2  -1   73.45    6.83
  -6  -2   2   47.04    6.85
  -6  -2   2   54.80   14.19
   6   2  -2   58.74    8.61
  -6  -2   3   56.52    8.05
   6   2  -3   67.97   10.29
  -6  -2   3   80.71   15.02
  -6  -2   4   25.14   13.63
  -6  -2   4   34.46    8.95
  -6  -2   5   11.19    9.75
  -6  -2   5   23.22   13.55
   6   2  -6   36.87   12.15
  -6  -2   6   16.02   12.04
  -6  -2   6   16.22   10.87
   6   2  -7   73.03   14.10
  -6  -2   7   76.03   13.91
  -6  -2   7   55.90   13.08
   6   2  -8   17.45   14.02
  -6  -2   8   18.71   14.10
  -6  -2   8   23.89   13.97
   6   2  -9   78.45   16.02
  -6  -2   9   70.44   15.87
   6   2 -10   38.75   16.03
   6   2 -11   77.01   17.79
  -6  -3 -15   57.85   17.34
  -6  -3 -14   13.19   15.09
  -6  -3 -13   65.24   14.45
  -6  -3 -12   39.91   11.85
  -6  -3 -11  134.05   12.09
  -6  -3 -10   16.56    8.86
   6   3  10   21.96    7.50
  -6  -3  -9   50.58    6.97
   6   3   9   44.83    6.05
   6   3   9   62.96    7.28
  -6  -3  -9   59.70   15.86
   6   3   8    1.54    3.73
   6   3   8    1.27    3.61
  -6  -3  -8   17.18   14.97
  -6  -3  -7   -2.73   15.07
  -6  -3  -6  158.69   17.86
  -6  -3  -5  179.52   17.79
  -6  -3  -4  117.67   16.75
  -6  -3  -3  135.66   16.39
  -6  -3  -2   14.01   13.21
   6   3   1   73.51    3.09
   6   3   1   71.72    2.70
   6   3   0    2.89    5.65
  -6  -3   0    5.62    4.38
   6   3   0    7.41    4.29
   6   3  -1  191.33    8.39
   6   3  -1  197.89    9.25
  -6  -3   2  222.64    9.43
   6   3  -2  242.82   11.71
  -6  -3   3    6.28    7.97
  -6  -3   3    6.36   13.00
   6   3  -3   14.55    9.96
  -6  -3   4    7.20    8.76
  -6  -3   4   16.97   12.84
  -6  -3   5   20.65   10.77
   6   3  -6   32.59   13.08
  -6  -3   6    3.60   12.26
   6   3  -7   28.01   13.38
  -6  -3   7   51.96   13.65
   6   3  -8   52.07   15.40
  -6  -3   8   35.23   14.41
   6   3  -9    6.05   15.12
  -6  -3   9   20.78   15.20
   6   3 -10   23.83   16.63
   6   3 -11   51.70   17.78
  -6  -4 -15   21.48   17.00
  -6  -4 -14   47.26   16.48
  -6  -4 -13   21.26   13.58
  -6  -4 -12   44.33   12.47
  -6  -4 -11   12.75   10.24
  -6  -4 -10  103.41   10.82
  -6  -4 -10  126.01   18.59
  -6  -4  -9   89.83    8.53
   6   4   9   95.29    7.27
   6   4   9   95.56    8.52
  -6  -4  -8  105.24    6.33
   6   4   8  115.55    6.23
   6   4   8  112.16    6.70
   6   4   7   67.90    2.96
   6   4   7   62.93    3.11
  -6  -4  -6   70.65   16.36
  -6  -4  -5   -1.91   15.54
  -6  -4  -4  -22.17   14.87
  -6  -4  -3   78.17   16.17
   6   4   2  129.21    4.37
   6   4   2  131.37    3.80
   6   4   1   39.16    5.57
  -6  -4  -1   22.63    4.44
   6   4   1   36.01    5.07
  -6  -4  -1   50.27   15.09
   6   4   0   63.08    6.43
  -6  -4   0   54.77   14.82
   6   4   0   47.92    7.32
  -6  -4   1   13.11    6.80
  -6  -4   1   10.66   13.14
   6   4  -1   28.21    8.17
  -6  -4   2    0.80    7.74
  -6  -4   2   23.52   13.44
   6   4  -2   18.79    8.98
  -6  -4   3   22.65   13.24
  -6  -4   3   13.69    8.94
  -6  -4   4   77.84   11.71
  -6  -4   5  221.31   14.90
   6   4  -6   62.14   14.05
  -6  -4   6   38.15   13.84
  -6  -4   6   64.77   13.76
   6   4  -7   45.74   14.62
  -6  -4   7   34.27   14.82
  -6  -4   7   37.24   14.66
   6   4  -8   44.89   15.52
  -6  -4   8   25.91   15.49
   6   4  -9   73.86   16.81
  -6  -4   9   77.98   17.67
   6   4 -10   65.01   18.12
  -6  -5 -15   29.13   17.59
  -6  -5 -14   43.24   16.96
  -6  -5 -13   97.19   15.54
  -6  -5 -12  109.69   14.57
  -6  -5 -11   58.03   12.19
  -6  -5 -10   52.30   10.71
  -6  -5  -9    9.71    8.45
  -6  -5  -9   38.96   16.90
  -6  -5  -8   15.67    7.16
   6   5   8   27.49    5.66
   6   5   8   30.15    6.80
  -6  -5  -8   20.26   16.07
  -6  -5  -7   68.04    6.60
   6   5   7   69.41    5.37
   6   5   7   73.57    6.46
  -6  -5  -6    5.64    3.70
   6   5   6   11.99    4.42
  -6  -5  -6   -2.36   15.05
   6   5   5   12.93    3.29
   6   5   5   12.79    4.14
   6   5   4   16.30    4.05
   6   5   4    0.86    3.79
  -6  -5  -4   -8.93   14.21
  -6  -5  -4    5.10    2.31
   6   5   3  331.98    8.46
   6   5   3  297.01    7.46
   6   5   2   18.38    6.33
   6   5   2    8.98    5.24
  -6  -5  -2    8.79   14.66
  -6  -5  -2   23.12    5.64
   6   5   1   49.60    6.67
  -6  -5  -1   24.33   14.70
  -6  -5  -1   35.30    6.67
   6   5   1   48.66    7.55
  -6  -5   0   51.47   15.30
   6   5   0   54.89    8.82
  -6  -5   0   37.11    7.68
  -6  -5   1   62.92   15.13
   6   5  -1   44.95    9.02
  -6  -5   1   60.84    8.77
  -6  -5   2   56.91   14.47
  -6  -5   2   48.94    9.80
  -6  -5   3   21.17   10.49
  -6  -5   4   79.50   12.71
  -6  -5   5   21.72   13.04
   6   5  -6   55.97   15.01
  -6  -5   6   17.20   14.21
  -6  -5   6   53.04   14.59
   6   5  -7   54.49   15.52
  -6  -5   7   15.64   15.36
   6   5  -8   98.64   17.17
  -6  -5   8   84.61   16.82
   6   5  -9  184.60   19.29
   6   5 -10  137.97   19.55
  -6  -6 -14   21.91   16.77
  -6  -6 -13  105.45   16.65
  -6  -6 -12    8.56   12.85
  -6  -6 -11   45.49   12.88
  -6  -6 -10   17.60   10.56
  -6  -6  -9    9.32    9.40
  -6  -6  -8   79.50    9.44
  -6  -6  -8  117.67   18.86
   6   6   7   19.43    6.94
  -6  -6  -7    2.78    7.71
   6   6   7   11.39    5.88
  -6  -6  -6   11.33    7.30
   6   6   6   20.25    6.08
  -6  -6  -6   22.89   15.61
   6   6   6    8.30    6.63
  -6  -6  -5   24.02    7.00
   6   6   5   25.39    6.49
   6   6   5   38.91    6.46
  -6  -6  -5   46.29   16.06
   6   6   4   78.91    7.78
  -6  -6  -4  102.46    7.83
   6   6   4   81.96    6.92
  -6  -6  -4   81.29   16.57
   6   6   3   37.23    7.62
   6   6   3   40.35    6.93
  -6  -6  -3   54.85   16.02
  -6  -6  -3   35.87    7.46
   6   6   2   39.63    7.91
  -6  -6  -2   39.86   15.66
  -6  -6  -2   41.27    8.09
  -6  -6  -1   -0.49    8.00
  -6  -6  -1  -14.25   14.78
   6   6   0   10.39    9.20
  -6  -6   0   29.07    8.96
  -6  -6   1   94.60   15.87
  -6  -6   1   62.53   10.33
  -6  -6   2   86.65   15.53
  -6  -6   2   52.74   11.32
  -6  -6   3   22.77   11.82
  -6  -6   4    9.88   12.74
  -6  -6   5   72.03   15.19
  -6  -6   6    6.74   15.10
  -6  -6   6    3.44   14.62
   6   6  -7   32.10   16.48
  -6  -6   7   20.22   15.37
   6   6  -8   67.85   17.42
   6   6  -9   38.95   18.10
  -6  -7 -14   74.62   18.88
  -6  -7 -13   80.88   17.08
  -6  -7 -12    1.77   14.42
  -6  -7 -11   85.85   14.93
  -6  -7 -10   60.49   12.75
  -6  -7  -9   98.02   12.16
  -6  -7  -8   25.90   10.08
  -6  -7  -7  157.45   11.45
  -6  -7  -7  182.43   20.87
  -6  -7  -6   49.02    9.86
   6   7   6   37.23    9.41
  -6  -7  -5  279.13   12.19
   6   7   5  302.62   12.18
  -6  -7  -5  259.90   21.30
  -6  -7  -4   31.85    8.91
   6   7   4   24.62    8.61
  -6  -7  -4   44.79   15.79
   6   7   3   15.26    8.90
  -6  -7  -3    9.21    8.59
   6   7   2  125.59   11.06
  -6  -7  -2  145.52   11.18
  -6  -7  -1  595.52   24.87
  -6  -7  -1  622.81   17.19
  -6  -7   0  273.47   19.68
  -6  -7   0  246.74   14.01
  -6  -7   1   27.44   15.14
  -6  -7   1   39.85   11.77
  -6  -7   2   32.93   12.59
  -6  -7   3  156.88   15.78
  -6  -7   4   32.96   14.53
  -6  -7   5   39.03   15.54
   6   7  -6  112.98   17.67
  -6  -7   6   58.39   16.86
   6   7  -7   63.25   17.53
   6   7  -8  106.18   19.40
  -6  -8 -13   47.46   17.32
  -6  -8 -12   -9.73   15.03
  -6  -8 -11   37.74   15.83
  -6  -8 -10   33.56   13.70
  -6  -8  -9   23.69   12.08
  -6  -8  -8   53.21   11.72
  -6  -8  -7    6.01   10.47
  -6  -8  -6    1.76    9.97
  -6  -8  -5   53.40   11.14
  -6  -8  -5   34.88   17.98
  -6  -8  -4   85.32   11.58
  -6  -8  -4  121.57   18.77
  -6  -8  -3   69.55   11.38
  -6  -8  -3   89.29   18.00
  -6  -8  -2  376.13   15.70
  -6  -8  -2  441.56   23.16
  -6  -8  -1  110.20   12.86
  -6  -8  -1  125.35   17.74
  -6  -8   0   25.33   12.02
  -6  -8   0   53.74   15.76
  -6  -8   1   -4.27   12.00
  -6  -8   2   18.33   13.44
  -6  -8   3  168.16   17.51
  -6  -8   4  142.95   17.65
   6   8  -6  102.98   18.68
   6   8  -7   34.32   18.22
  -6  -9 -12   53.28   17.86
  -6  -9 -11   18.14   16.93
  -6  -9 -10   25.33   14.96
  -6  -9  -9   48.17   14.15
  -6  -9  -8   25.31   13.01
  -6  -9  -7  191.56   14.92
  -6  -9  -6   58.76   12.20
  -6  -9  -5   20.96   12.13
  -6  -9  -4   36.77   12.22
  -6  -9  -3   12.76   12.31
  -6  -9  -2    4.86   12.48
  -6  -9  -1   17.20   12.53
  -6  -9   0   31.08   13.57
  -6  -9   1  186.75   17.06
  -6  -9   2  138.59   17.15
  -6  -9   3   28.64   15.88
   6   9  -6   57.68   18.59
  -6 -10 -11   70.25   19.64
  -6 -10 -10   58.12   17.51
  -6 -10  -9   66.71   16.60
  -6 -10  -8   23.39   14.75
  -6 -10  -7   35.53   14.33
  -6 -10  -6  109.54   14.97
  -6 -10  -4  108.77   15.67
  -6 -10  -3   82.10   15.39
  -6 -10  -2   -0.46   14.58
  -6 -10  -1  -19.02   14.45
  -6 -10   0   -4.46   15.09
  -6 -10   1   32.72   16.33
  -6 -10   2   42.14   16.93
  -6 -11  -9  120.33   18.86
  -6 -11  -8   53.11   17.11
  -6 -11  -7   59.69   17.04
  -6 -11  -6   94.88   16.54
  -6 -11  -5   29.06   15.80
  -6 -11  -4    7.01   15.33
  -6 -11  -3   20.73   15.86
  -6 -11  -2   22.26   16.07
  -6 -11  -1   22.82   16.59
  -6 -11   0   34.66   17.25
  -6 -12  -5   54.53   18.16
  -6 -12  -4   50.43   17.00
  -7  10  -3   41.90   16.42
  -7  10  -2   75.34   17.97
  -7  10  -1   42.51   18.78
  -7   9  -6   77.77   17.12
  -7   9  -5   55.96   16.71
  -7   9  -4  205.02   19.82
  -7   9  -3  140.26   16.70
  -7   9  -2    6.42   15.16
  -7   9  -1   37.25   16.95
  -7   9  -1   47.02   20.10
  -7   9   0    3.33   15.64
  -7   9   0   59.29   19.90
  -7   9   1   51.99   16.91
  -7   9   1   76.51   20.91
  -7   9   2   78.42   16.04
  -7   8  -7   68.96   16.01
  -7   8  -6  280.18   19.14
  -7   8  -5   81.43   15.80
  -7   8  -4   26.06   14.33
  -7   8  -3  105.36   16.21
  -7   8  -2   20.98   13.79
  -7   8  -2   45.08   17.77
  -7   8  -1   28.52   15.17
  -7   8  -1    6.98   18.02
  -7   8   0   64.20   15.83
  -7   8   0  116.86   21.54
  -7   8   1    4.77   14.53
  -7   8   1   20.55   18.54
  -7   8   2   18.99   14.01
  -7   8   2   65.75   19.25
  -7   8   3    6.19   14.34
  -7   8   3  110.61   20.51
  -7   8   4   48.33   14.68
  -7   8   4   29.91   20.78
   7  -8  -8   37.02   17.11
  -7   7  -9   64.59   14.80
  -7   7  -8   23.27   13.55
  -7   7  -7   79.03   14.20
  -7   7  -6   15.89   12.68
  -7   7  -5   29.54   12.78
  -7   7  -4   32.13   12.77
  -7   7  -3  107.05   15.80
  -7   7  -3  191.77   19.94
  -7   7  -2  107.86   15.01
  -7   7  -2  107.77   18.32
  -7   7  -1   86.81   14.15
  -7   7  -1  110.81   19.28
  -7   7   0   33.88   13.23
  -7   7   0    2.70   17.56
  -7   7   1   80.78   14.94
  -7   7   1   72.25   20.84
  -7   7   2  414.70   19.92
  -7   7   2  338.31   27.64
  -7   7   3  310.05   18.10
  -7   7   3  250.98   27.06
  -7   7   4   63.28   14.28
  -7   7   4  110.41   21.10
  -7   7   5   22.30   13.33
   7  -7  -8    1.09   15.83
  -7   6 -10   72.40   15.25
  -7   6  -9    9.45   12.88
  -7   6  -8   30.52   12.72
  -7   6  -7   39.13   12.01
  -7   6  -6  148.66   12.71
  -7   6  -5   17.27   10.45
  -7   6  -4   39.93   11.06
  -7   6  -4   82.52   17.42
  -7   6  -3   18.42   10.64
  -7   6  -3   35.39   16.14
  -7   6  -2   23.76   11.15
  -7   6  -2   87.93   17.52
  -7   6  -1   23.15   11.51
  -7   6  -1    4.63   16.49
  -7   6   0  424.25   18.33
  -7   6   0  434.17   26.19
  -7   6   1  353.12   17.56
  -7   6   1  269.06   24.06
  -7   6   2   43.55   12.75
  -7   6   2   26.72   18.26
  -7   6   3   50.72   13.12
  -7   6   3   48.19   18.65
  -7   6   4   28.70   12.35
  -7   6   4   16.44   18.28
  -7   6   5   31.06   12.64
  -7   6   5   99.15   19.49
  -7   6   6  124.27   15.34
  -7   6   6  174.35   22.27
   7  -6  -9   54.40   16.51
  -7   5 -11   63.05   16.01
  -7   5 -10   21.49   13.56
  -7   5  -9   30.36   13.45
  -7   5  -8   34.29   12.04
  -7   5  -7    1.25   10.40
  -7   5  -6   43.36   10.19
  -7   5  -5  118.75   11.11
  -7   5  -5  116.08   18.62
  -7   5  -4  171.49   11.78
  -7   5  -4  140.15   18.39
  -7   5  -3   93.15   10.91
  -7   5  -3  105.99   17.69
  -7   5  -2   12.31    9.17
  -7   5  -2   -1.87   15.56
  -7   5  -1   21.59    9.69
  -7   5  -1    9.75   16.16
  -7   5   0   47.16   10.95
  -7   5   0  104.71   18.32
  -7   5   1  246.64   14.59
  -7   5   1  203.44   21.44
  -7   5   2  117.53   12.78
  -7   5   2  141.85   20.06
  -7   5   3   13.95   11.28
  -7   5   3   16.89   17.23
  -7   5   4   78.98   12.43
  -7   5   4  109.15   18.94
  -7   5   5   94.53   13.29
  -7   5   5  124.44   20.10
  -7   5   6   50.22   13.38
  -7   5   6   47.32   18.30
  -7   5   7   41.66   14.53
  -7   5   7   58.97   18.00
  -7   4 -11    8.56   13.37
  -7   4 -10   16.30   11.81
  -7   4  -9  124.88   12.92
  -7   4  -8  196.18   13.03
  -7   4  -7   14.54    9.61
  -7   4  -6   79.91   10.04
  -7   4  -5   18.03    8.51
  -7   4  -5   11.44   16.56
  -7   4  -4  120.68    9.88
  -7   4  -4  199.35   19.88
  -7   4  -3   79.90    8.99
  -7   4  -3  110.72   18.26
  -7   4  -2  136.65   10.05
  -7   4  -2  188.39   19.60
  -7   4  -1  203.88   11.19
  -7   4  -1  178.31   19.03
  -7   4   0  130.85   10.89
  -7   4   0  128.20   18.85
  -7   4   1   91.28   11.18
  -7   4   1  110.76   18.49
  -7   4   2   97.53   11.81
  -7   4   2  104.90   18.45
  -7   4   3    0.68   10.12
  -7   4   3   17.27   16.12
  -7   4   4   29.11   10.95
  -7   4   4   23.38   16.36
  -7   4   5  102.91   12.73
  -7   4   5  128.53   19.51
  -7   4   6   43.46   13.12
  -7   4   6   49.27   17.83
  -7   4   7   56.41   14.31
  -7   4   7   40.27   17.23
   7  -4 -10   21.55   16.10
  -7   3 -12   23.30   14.49
  -7   3 -11   24.65   12.66
  -7   3 -10   18.52   11.55
  -7   3  -9   43.12   10.97
  -7   3  -8   41.09   10.18
  -7   3  -7   72.86    9.35
  -7   3  -6  161.69    9.43
  -7   3  -6  247.41   20.35
  -7   3  -5  661.33   26.77
   7  -3   5  559.95   12.26
   7  -3   4   58.34    6.95
  -7   3  -4   50.13    7.51
   7  -3   3   18.13    6.66
  -7   3  -3   21.06    6.22
  -7   3  -3    3.15   15.46
  -7   3  -2   64.12    7.43
  -7   3  -2   61.58   17.33
   7  -3   2   76.27    7.71
   7  -3   1   36.65    8.09
  -7   3  -1   11.18    7.65
   7  -3   1   33.32    9.04
  -7   3  -1   25.01   15.84
  -7   3   0   15.50    8.18
   7  -3   0   42.53   10.34
  -7   3   0   40.13   15.44
  -7   3   1   18.36    9.15
   7  -3  -1   25.84   11.01
  -7   3   1   13.58   15.26
  -7   3   2   59.14   10.00
  -7   3   2   73.96   16.94
  -7   3   3   77.11   10.29
  -7   3   3  131.67   18.78
  -7   3   4   94.76   11.05
  -7   3   4  102.51   18.02
  -7   3   5  123.88   12.63
  -7   3   5  193.59   20.43
  -7   3   6   14.21   12.16
  -7   3   6   56.37   16.22
  -7   3   7   71.43   13.99
  -7   3   7  166.74   18.96
  -7   2 -12   14.00   14.09
  -7   2 -11   18.06   11.97
  -7   2 -10   33.30   11.46
  -7   2  -9   48.61   10.54
  -7   2  -8  116.35    9.87
  -7   2  -7   16.11    7.37
  -7   2  -7   51.52   16.02
  -7   2  -6   19.48    5.48
  -7   2  -6   49.16   16.32
  -7   2  -5   67.98   16.96
  -7   2  -4   75.11   17.51
   7  -2   4   57.24    4.58
  -7   2  -3  202.30   20.25
   7  -2   3  169.26    5.66
   7  -2   2  219.65    7.76
  -7   2  -2  234.51   20.27
   7  -2   2  216.54    7.11
   7  -2   1   90.67    7.60
  -7   2  -1   65.84    6.89
   7  -2   1   78.14    7.39
  -7   2  -1   88.07   17.56
   7  -2   0    4.95    6.94
  -7   2   0   17.15    7.40
   7  -2   0    9.84    7.81
  -7   2   0   31.21   16.63
  -7   2   1   42.48    8.71
   7  -2  -1   24.66    9.03
  -7   2   1   11.54   15.46
  -7   2   2   43.34    9.00
  -7   2   2   30.67   15.67
  -7   2   3   16.43    8.77
  -7   2   3    2.78   14.69
  -7   2   4    3.85    9.14
  -7   2   4   31.03   15.37
  -7   2   5   -8.93   10.92
  -7   2   5   48.50   15.73
  -7   2   6   44.70   12.14
  -7   2   6    7.29   15.31
  -7   2   7   72.38   13.73
  -7   2   7   27.18   16.76
  -7   2   8   23.86   14.56
  -7   1 -13   55.61   15.91
  -7   1 -12   17.49   13.18
  -7   1 -11   48.33   12.24
  -7   1 -10  126.69   11.63
  -7   1  -9   28.51    8.85
  -7   1  -8    4.10    6.89
  -7   1  -8   -9.02   16.06
  -7   1  -7  280.40   20.60
  -7   1  -6  181.47   19.12
  -7   1  -5   88.93   16.86
  -7   1  -4   83.72   17.39
  -7   1  -3   91.68   17.90
  -7   1  -2   -7.06   16.17
   7  -1   1   95.08    6.25
   7  -1   1   93.33    6.08
  -7   1  -1  114.29   18.05
   7  -1   0  108.80    7.77
  -7   1   0   89.17    7.56
   7  -1   0  116.23    7.62
  -7   1   0  118.11   18.27
  -7   1   1   26.40    7.48
   7  -1  -1   17.56    7.42
  -7   1   1   11.04   15.58
  -7   1   2   68.00    8.52
  -7   1   2  110.43   17.74
  -7   1   3  105.34    9.37
  -7   1   3  198.22   19.77
  -7   1   4   32.87    9.53
  -7   1   4   92.45   17.52
  -7   1   5   86.61   11.74
  -7   1   5  150.32   18.89
  -7   1   6  125.58   13.51
  -7   1   6  169.90   19.19
  -7   1   7   41.79   13.32
  -7   1   8   12.72   13.88
  -7   0 -13   11.96   14.21
  -7   0 -12   41.89   12.61
  -7   0 -11    7.67   10.66
  -7   0 -10    6.38    9.05
  -7   0  -9   12.45    7.88
  -7   0  -8   86.23    4.02
  -7   0  -8  206.51   20.22
  -7   0  -7  260.89   20.96
  -7   0  -6   94.68   17.68
  -7   0  -5   32.52   16.00
  -7   0  -4   35.79   15.76
  -7   0  -3   34.54   16.43
  -7   0  -2  130.80   19.07
   7   0   1   31.55    4.16
   7   0   1   31.07    4.08
  -7   0  -1   29.90   16.64
  -7   0   0  113.07    7.16
   7   0   0  124.09    8.03
  -7   0   1   12.24    6.79
   7   0  -1   12.50    6.51
   7   0  -1   14.35    7.78
  -7   0   1   -4.50   15.83
  -7   0   2   18.91    7.30
  -7   0   2   31.11   16.72
  -7   0   3   73.78    8.97
  -7   0   3  119.58   17.94
  -7   0   4  246.14   12.61
  -7   0   4  345.98   22.42
  -7   0   5  258.65   14.03
  -7   0   5  353.15   22.46
  -7   0   6  115.32   18.52
  -7   0   6   61.72   12.81
  -7   0   7   66.51   13.92
  -7   0   8   44.64   15.03
  -7  -1 -13   52.41   14.50
  -7  -1 -12   44.05   12.46
  -7  -1 -11   13.93   10.45
  -7  -1 -10   16.12    8.86
  -7  -1  -9   48.13    6.82
  -7  -1  -9   56.08   18.22
  -7  -1  -8   98.41   18.69
  -7  -1  -7   31.89   17.13
  -7  -1  -6   81.65   18.40
  -7  -1  -5  102.29   17.97
  -7  -1  -4  146.75   18.50
  -7  -1  -3   51.48   16.51
  -7  -1  -2   92.54   18.02
   7   1   1   28.60    3.43
  -7  -1  -1   40.75   15.84
   7   1   1   40.11    3.49
  -7  -1   0   38.19    5.73
   7   1   0   45.16    5.80
  -7  -1   1  120.26    7.37
   7   1  -1  121.54    6.83
  -7  -1   2   14.24    7.41
  -7  -1   2   25.23   15.90
  -7  -1   3   82.74    9.34
  -7  -1   3   98.22   17.75
  -7  -1   4    3.21    8.97
  -7  -1   4   43.27   16.31
  -7  -1   5  127.35   18.22
  -7  -1   5   80.61   12.29
  -7  -1   6   11.62   11.82
  -7  -1   7   38.20   13.66
  -7  -1   8  158.76   17.87
  -7  -2 -13   34.40   13.63
  -7  -2 -12   99.52   13.19
  -7  -2 -11   44.17   10.76
  -7  -2 -10   34.13    8.65
  -7  -2 -10   77.91   18.61
  -7  -2  -9  136.44    7.32
  -7  -2  -9  204.15   20.75
  -7  -2  -8   21.17   17.30
  -7  -2  -7   53.74   17.81
  -7  -2  -6  138.66   19.90
  -7  -2  -5   74.09   18.03
  -7  -2  -4   99.99   18.06
  -7  -2  -3   90.24   17.56
  -7  -2  -2  251.97   20.33
  -7  -2  -1   11.17    2.59
   7   2   1   23.52    4.26
  -7  -2   0   28.51    5.44
   7   2   0   24.52    5.28
  -7  -2   1   92.06    7.53
  -7  -2   1  122.61   17.47
  -7  -2   2   33.11    7.69
  -7  -2   2   79.35   16.81
  -7  -2   3    8.95    8.09
  -7  -2   3  -10.76   15.60
  -7  -2   4  178.02   18.94
  -7  -2   4   93.40   11.40
  -7  -2   5    5.99   10.66
  -7  -2   6   31.86   12.62
  -7  -2   7   60.81   15.23
  -7  -3 -13   24.29   13.32
  -7  -3 -12   39.91   12.42
  -7  -3 -11   12.88   10.46
  -7  -3 -10    3.85    8.94
  -7  -3 -10   38.65   17.61
  -7  -3  -9    4.03    6.42
  -7  -3  -9   40.12   17.94
  -7  -3  -8   63.33   17.93
  -7  -3  -7  152.23   19.78
  -7  -3  -6  354.14   23.52
  -7  -3  -5   86.01   18.30
  -7  -3  -4   -0.68   17.20
  -7  -3  -3  -12.63   17.00
  -7  -3  -2  102.14   17.95
  -7  -3  -1  168.00    5.88
   7   3   1  214.37    6.90
  -7  -3   0   23.89    6.10
   7   3   0   47.30    6.87
  -7  -3   0   54.46   16.39
  -7  -3   1   35.44    7.32
  -7  -3   1   71.82   16.77
  -7  -3   2   33.02    8.44
  -7  -3   2   54.91   16.19
  -7  -3   3   32.93    9.58
  -7  -3   3   24.15   15.19
  -7  -3   4    4.87   10.44
  -7  -3   5   24.56   12.55
  -7  -3   6   65.51   14.55
  -7  -3   7   39.42   15.42
  -7  -4 -13   52.23   15.00
  -7  -4 -12   25.30   12.24
  -7  -4 -11   48.79   11.00
  -7  -4 -11   91.33   19.47
  -7  -4 -10   26.73    9.92
  -7  -4 -10   87.53   19.54
  -7  -4  -9   27.55    7.76
  -7  -4  -9   42.17   18.29
  -7  -4  -8    6.38    4.61
  -7  -4  -8   -8.52   17.27
  -7  -4  -7  -20.76   17.02
  -7  -4  -6    8.99   16.89
  -7  -4  -5   13.07   17.26
  -7  -4  -4  307.42   22.87
  -7  -4  -3  194.92   20.04
  -7  -4  -2   47.47    4.86
  -7  -4  -2   92.50   18.65
  -7  -4  -1    6.30   15.83
  -7  -4   0    8.06    7.00
  -7  -4   0    2.45   16.24
  -7  -4   1   11.36   15.88
  -7  -4   1   27.76    8.07
  -7  -4   2   35.49   16.82
  -7  -4   2   30.75    9.48
  -7  -4   3   21.73   10.79
  -7  -4   3   44.13   16.78
  -7  -4   4   31.83   12.27
  -7  -4   5   18.83   13.01
  -7  -4   6   48.95   15.48
  -7  -4   7   21.36   16.14
  -7  -5 -12   33.60   13.02
  -7  -5 -11   22.88   11.80
  -7  -5 -10   88.08   11.33
  -7  -5 -10  113.87   20.45
  -7  -5  -9   36.67    8.88
  -7  -5  -9   81.24   19.82
  -7  -5  -8   45.23    7.84
  -7  -5  -8   59.83   18.35
  -7  -5  -7   34.31    6.41
  -7  -5  -7   78.86   18.88
  -7  -5  -6  115.45   20.28
  -7  -5  -6   56.57    5.04
  -7  -5  -5   15.54    3.98
  -7  -5  -5   45.51   18.47
  -7  -5  -4    5.56    4.87
  -7  -5  -4   29.48   17.23
  -7  -5  -3   13.57    5.80
  -7  -5  -3    4.43   16.85
  -7  -5  -2    3.68   16.55
  -7  -5  -2   11.84    6.68
  -7  -5  -1  203.69   20.66
  -7  -5  -1  138.15    9.14
  -7  -5   0   84.46   17.65
  -7  -5   0   75.36    9.28
  -7  -5   1    1.77    9.22
  -7  -5   1    3.74   15.72
  -7  -5   2   -2.16   15.80
  -7  -5   2    1.04   10.40
  -7  -5   3   84.59   13.18
  -7  -5   4   44.68   13.82
  -7  -5   5   14.14   14.43
  -7  -5   6   63.49   16.56
  -7  -6 -12   41.01   13.56
  -7  -6 -11   81.52   14.03
  -7  -6 -10   21.36   11.24
  -7  -6  -9   24.05   10.01
  -7  -6  -9   77.97   20.79
  -7  -6  -8   66.86    9.76
  -7  -6  -8   59.15   19.23
  -7  -6  -7   45.93    8.89
  -7  -6  -7   66.81   19.50
  -7  -6  -6   62.69    8.47
  -7  -6  -6   60.53   19.38
  -7  -6  -5  109.90    8.82
  -7  -6  -5  132.17   20.85
  -7  -6  -4  133.26    9.23
  -7  -6  -4  119.57   19.70
  -7  -6  -3   49.48    8.65
  -7  -6  -3   29.43   17.27
  -7  -6  -2   43.96   17.56
  -7  -6  -2   23.25    9.07
  -7  -6  -1   31.29    9.56
  -7  -6  -1    5.02   16.57
  -7  -6   0   19.51   10.05
  -7  -6   0   18.68   16.69
  -7  -6   1   14.24   16.15
  -7  -6   1   18.74   11.06
  -7  -6   2  156.91   14.51
  -7  -6   3   61.23   13.99
  -7  -6   4    3.68   14.53
  -7  -6   5   47.64   16.68
  -7  -7 -11   56.24   14.70
  -7  -7 -10   71.32   13.24
  -7  -7  -9   28.62   11.43
  -7  -7  -8   21.21   10.76
  -7  -7  -7   38.81   10.20
  -7  -7  -7   44.47   19.88
  -7  -7  -6   23.91    9.87
  -7  -7  -6   59.82   19.21
  -7  -7  -5   22.29    9.47
  -7  -7  -5   74.13   18.89
  -7  -7  -4   20.41    9.28
  -7  -7  -4   73.55   19.42
  -7  -7  -3  164.35   11.82
  -7  -7  -3  214.46   21.20
  -7  -7  -2   -0.19    9.84
  -7  -7  -2   47.85   17.92
  -7  -7  -1   66.60   18.04
  -7  -7  -1   58.96   11.36
  -7  -7   0   29.62   17.14
  -7  -7   0   42.31   12.37
  -7  -7   1   87.56   13.61
  -7  -7   2   19.41   13.65
  -7  -7   3   21.50   14.62
  -7  -7   4   38.87   16.47
  -7  -8 -10   28.39   14.12
  -7  -8  -9    9.49   12.29
  -7  -8  -8  107.20   13.43
  -7  -8  -7  100.12   12.51
  -7  -8  -6   28.57   11.73
  -7  -8  -5   38.58   11.53
  -7  -8  -5   98.08   19.66
  -7  -8  -4   12.94   11.19
  -7  -8  -4   53.43   19.49
  -7  -8  -3   59.77   12.20
  -7  -8  -3  153.02   20.23
  -7  -8  -2   22.09   11.90
  -7  -8  -2   79.61   18.94
  -7  -8  -1   58.04   13.18
  -7  -8  -1  111.36   18.80
  -7  -8   0   61.85   14.01
  -7  -8   0   96.69   18.71
  -7  -8   1  161.06   16.33
  -7  -8   2   49.46   15.54
  -7  -9  -8   24.02   13.57
  -7  -9  -7    9.80   12.90
  -7  -9  -6   50.27   13.30
  -7  -9  -5  120.34   14.44
  -7  -9  -4   95.04   15.48
  -7  -9  -3  128.18   15.60
  -7  -9  -2   73.85   15.16
  -7  -9  -1   46.94   14.64
  -7  -9   0   33.85   14.95
  -8   7  -2   17.59   14.03
  -8   7  -1   56.26   15.23
  -8   6  -5   16.59   12.29
  -8   6  -4   53.38   13.29
  -8   6  -4   92.77   20.17
  -8   6  -3   66.46   13.63
  -8   6  -3   83.58   19.37
  -8   6  -2  245.54   16.31
  -8   6  -2  329.84   25.35
  -8   6  -1  -13.55   12.97
  -8   6  -1   65.71   20.32
  -8   6   0  317.64   18.03
  -8   6   1   52.74   14.00
  -8   6   2   16.58   12.73
  -8   5  -7   87.27   12.28
  -8   5  -6   83.09   11.58
  -8   5  -5   75.25   11.54
  -8   5  -4  100.87   12.06
  -8   5  -4  121.89   21.09
  -8   5  -3   29.92   10.95
  -8   5  -3   12.63   18.76
  -8   5  -2  106.04   12.19
  -8   5  -2  135.32   20.97
  -8   5  -1  136.19   13.31
  -8   5  -1  107.53   20.95
  -8   5   0   55.75   12.80
  -8   5   0  114.13   20.41
  -8   5   1   94.26   13.20
  -8   5   1  106.92   21.23
  -8   5   2   92.78   13.28
  -8   5   3  -17.20   12.06
  -8   4  -8   64.23   11.99
  -8   4  -7    5.75    9.90
  -8   4  -6   96.77   10.85
  -8   4  -5   14.29    8.97
  -8   4  -5   27.71   18.06
  -8   4  -4   55.36    9.70
  -8   4  -4   44.12   19.33
  -8   4  -3   61.38   10.34
  -8   4  -3   80.73   20.82
  -8   4  -2   68.94   10.44
  -8   4  -2   51.83   19.53
  -8   4  -1   42.39   10.84
  -8   4  -1   -0.44   18.15
  -8   4   0   26.09   11.12
  -8   4   0   55.77   20.13
  -8   4   1   13.23   11.16
  -8   4   1   23.70   18.47
  -8   4   2    5.87   10.51
  -8   4   2   22.23   18.97
  -8   4   3   83.88   12.27
  -8   4   4  314.45   16.39
  -8   3  -9   46.92   11.15
  -8   3  -8   33.75   10.45
  -8   3  -7   27.63    9.40
  -8   3  -6   35.40    8.77
  -8   3  -6   82.48   19.40
  -8   3  -5   26.49    7.79
  -8   3  -5    2.72   17.87
  -8   3  -4   -1.45    7.36
  -8   3  -4   25.76   18.79
  -8   3  -3   55.14    8.68
  -8   3  -3   53.36   19.59
  -8   3  -2   66.61    9.42
  -8   3  -2  116.06   21.16
  -8   3  -1  115.87   10.79
  -8   3  -1  139.90   22.01
  -8   3   0  162.22   12.20
  -8   3   0  181.24   22.21
  -8   3   1   54.00   10.08
  -8   3   1   25.52   18.91
  -8   3   2   38.86   10.54
  -8   3   2   42.82   19.87
  -8   3   3   31.01   10.64
  -8   3   3   15.65   18.77
  -8   3   4   31.28   11.74
  -8   2 -10   89.96   12.56
  -8   2  -9   32.09   10.65
  -8   2  -8   54.33    9.52
  -8   2  -7   18.38    8.10
  -8   2  -7   24.72   18.14
  -8   2  -6   55.94    7.41
  -8   2  -6   46.50   18.55
  -8   2  -5   91.29    7.52
  -8   2  -5  203.94   22.10
  -8   2  -4  101.43    7.36
  -8   2  -4  178.85   21.56
  -8   2  -3  101.56    7.50
  -8   2  -3   81.34   19.71
  -8   2  -2   16.92    7.64
  -8   2  -2    2.74   18.14
  -8   2  -1   69.44    9.22
  -8   2  -1   37.58   19.89
  -8   2   0   38.80    8.98
  -8   2   0   51.55   20.24
  -8   2   1   42.75    9.37
  -8   2   1   63.31   19.40
  -8   2   2  150.19   11.01
  -8   2   2  266.13   23.85
  -8   2   3   65.94   10.83
  -8   2   3   56.49   19.58
  -8   2   4   59.29   12.03
  -8   2   4   59.08   19.35
  -8   2   5   14.61   11.98
  -8   1 -10   23.28   11.04
  -8   1  -9   94.61   10.51
  -8   1  -8  192.23    9.84
  -8   1  -7   25.21    5.69
  -8   1  -7   25.30   18.92
  -8   1  -6   91.97   20.02
  -8   1  -5   19.17   17.99
  -8   1  -4   43.21   18.54
  -8   1  -3    6.39    3.46
  -8   1  -3   19.35   18.65
  -8   1  -2   10.71    6.32
  -8   1  -2   17.59   18.66
  -8   1  -1   24.08    7.91
  -8   1  -1   46.43   19.86
  -8   1   0   51.62    8.28
  -8   1   0   98.64   20.17
  -8   1   1   66.82    9.07
  -8   1   1   66.90   19.50
  -8   1   2   37.89    8.80
  -8   1   2   99.08   20.86
  -8   1   3   12.92    9.94
  -8   1   3   61.87   19.84
  -8   1   4  -13.25   10.60
  -8   1   4    2.87   18.08
  -8   1   5   43.68   12.55
  -8   0 -10   49.10   10.34
  -8   0  -9    2.29    8.03
  -8   0  -8   47.08    5.73
  -8   0  -8  109.54   20.87
  -8   0  -7   -8.55   18.63
  -8   0  -6   26.34   18.84
  -8   0  -5  325.05   24.31
  -8   0  -4   71.74   19.79
  -8   0  -3   10.49   18.23
  -8   0  -2    1.31    4.35
  -8   0  -2    3.14   17.70
  -8   0  -1   13.86    6.78
  -8   0  -1   37.02   18.62
  -8   0   0   49.58    7.74
  -8   0   0   80.67   19.15
  -8   0   1   27.48    7.71
  -8   0   1   31.95   17.96
  -8   0   2   39.46    8.85
  -8   0   2   87.06   19.28
  -8   0   3    6.91    9.71
  -8   0   3   42.20   18.34
  -8   0   4   34.25   11.15
  -8   0   4   54.12   18.91
  -8  -1 -10  141.73   10.78
  -8  -1  -9   10.98    7.19
  -8  -1  -9    8.31   18.19
  -8  -1  -8   -1.15   19.07
  -8  -1  -7   45.57   19.70
  -8  -1  -6  197.44   22.47
  -8  -1  -5   25.02   19.30
  -8  -1  -4   35.99   19.42
  -8  -1  -3  133.89   21.19
  -8  -1  -2   56.79    3.66
  -8  -1  -2  154.35   21.26
  -8  -1  -1   60.63    6.44
  -8  -1  -1  112.00   20.13
  -8  -1   0   24.85    6.81
  -8  -1   0   31.41   17.73
  -8  -1   1    4.46    7.64
  -8  -1   1   22.30   17.55
  -8  -1   2  102.20   10.00
  -8  -1   2  132.30   20.51
  -8  -1   3  291.62   13.69
  -8  -1   3  381.58   24.90
  -8  -1   4   -7.55   11.26
  -8  -1   4   18.48   17.30
  -8  -2 -10   19.37    9.00
  -8  -2  -9   32.60    6.68
  -8  -2  -9   13.06   18.76
  -8  -2  -8  107.49   20.93
  -8  -2  -7   56.14   20.24
  -8  -2  -6  -10.31   19.42
  -8  -2  -5   34.33   19.20
  -8  -2  -4   38.88   19.89
  -8  -2  -3   -3.18   18.95
  -8  -2  -2   16.89    3.95
  -8  -2  -2   20.27   18.27
  -8  -2  -1    4.77    5.72
  -8  -2  -1   12.03   17.63
  -8  -2   0   43.82    7.51
  -8  -2   0   27.70   17.86
  -8  -2   1   59.24    8.67
  -8  -2   1   66.25   18.68
  -8  -2   2   99.26   19.34
  -8  -2   2   62.44   10.06
  -8  -2   3   64.52   18.77
  -8  -2   3   58.46   11.13
  -8  -2   4   41.38   12.25
  -8  -3 -10   43.80    9.49
  -8  -3 -10   43.58   19.81
  -8  -3  -9   13.10    6.75
  -8  -3  -9   59.87   20.56
  -8  -3  -8   21.72   19.57
  -8  -3  -7   14.32   19.72
  -8  -3  -6   -6.27   19.28
  -8  -3  -5   -2.41   20.10
  -8  -3  -4  123.28   21.92
  -8  -3  -3   71.86   20.70
  -8  -3  -2   12.54    5.26
  -8  -3  -2  -11.84   18.77
  -8  -3  -1   16.49    6.48
  -8  -3  -1   -8.38   18.13
  -8  -3   0   -7.41   18.48
  -8  -3   0   54.79    8.54
  -8  -3   1    6.91    8.73
  -8  -3   1  -27.88   17.90
  -8  -3   2   10.12    9.74
  -8  -3   2   -0.58   17.15
  -8  -3   3   21.75   11.66
  -8  -3   3   15.09   17.19
  -8  -4 -10   22.77   10.56
  -8  -4  -9   73.15    8.69
  -8  -4  -9  126.83   21.88
  -8  -4  -8   41.15    5.77
  -8  -4  -8  102.82   21.93
  -8  -4  -7  140.64   22.89
  -8  -4  -6   39.72   20.69
  -8  -4  -5    7.23   19.78
  -8  -4  -4  -14.01   19.39
  -8  -4  -3   -5.40   18.90
  -8  -4  -3    3.29    5.24
  -8  -4  -2   22.68   19.36
  -8  -4  -2   37.69    6.79
  -8  -4  -1   31.75   19.35
  -8  -4  -1   27.56    8.03
  -8  -4   0  102.83   20.28
  -8  -4   0   79.91    9.97
  -8  -4   1   54.08   19.05
  -8  -4   1   67.53   10.95
  -8  -4   2   36.58   18.60
  -8  -4   2   37.51   11.67
  -8  -5  -9  130.48   10.85
  -8  -5  -8  117.13    9.47
  -8  -5  -7   31.98    7.38
  -8  -5  -7   14.12   19.67
  -8  -5  -6   74.76    7.20
  -8  -5  -6  105.46   22.51
  -8  -5  -5   90.49    7.56
  -8  -5  -5   98.02   21.65
  -8  -5  -4   42.07    7.47
  -8  -5  -4    3.18   18.76
  -8  -5  -3   60.09   19.73
  -8  -5  -3   49.19    8.21
  -8  -5  -2  104.20   20.80
  -8  -5  -2   99.87    9.67
  -8  -5  -1   22.56    9.35
  -8  -5  -1   20.14   18.54
  -8  -5   0   10.92   10.03
  -8  -5   0   18.58   18.62
  -8  -5   1   19.96   11.52
  -8  -6  -8   37.70    9.97
  -8  -6  -7   35.16   10.13
  -8  -6  -6  114.74   10.33
  -8  -6  -5   62.23    9.36
  -8  -6  -5   91.55   21.69
  -8  -6  -4   40.41    9.52
  -8  -6  -4   32.77   19.53
  -8  -6  -3   39.09   10.06
  -8  -6  -3   72.59   20.82
  -8  -6  -2   27.57   10.66
  -8  -6  -1   26.50   11.19
  -8  -6   0   23.12   12.16
  -8  -7  -5   10.99   10.68
  -8  -7  -4   44.81   11.19
  -9   0  -3   24.57    7.20
  -9  -1  -3   16.03    5.70
   0   0   0    0.00    0.00


TITL b19129_crystal2 in P-1
REM P-1 (#2 in standard setting)
CELL 0.71073   5.144726   9.311890  10.569312  80.7046  79.9173  89.9671
ZERR    1.00   0.000334   0.000467   0.000545   0.0042   0.0048   0.0046
LATT  1
SFAC C H N O S
UNIT 22.00 13.00 3.00 2.00 1.00
TREF
HKLF 4
END
_computing_structure_solution     'SHELXT 2014/5 (Sheldrick, 2014)'
;
_shelx_hkl_checksum              5500
_olex2_submission_special_instructions 'No special instructions were received'
loop_
_space_group_symop_operation_xyz
'x, y, z'
'-x, -y, -z'
loop_
_atom_site_label
_atom_site_type_symbol
_atom_site_fract_x
_atom_site_fract_y
_atom_site_fract_z
_atom_site_U_iso_or_equiv
_atom_site_adp_type
_atom_site_occupancy
_atom_site_site_symmetry_order
_atom_site_calc_flag
_atom_site_refinement_flags_posn
S1 S 0.33180(16) 0.22325(9) 0.57192(8) 0.0131(3) Uani 1 1 d .
N1 N -0.1444(6) 0.3113(3) 0.7392(3) 0.0136(7) Uani 1 1 d .
N2 N 0.6590(6) 0.4191(3) 0.2677(3) 0.0177(7) Uani 1 1 d .
C1 C 0.2181(6) 0.4696(4) 0.4126(3) 0.0101(7) Uani 1 1 d .
C2 C 0.1386(7) 0.3742(4) 0.5296(3) 0.0110(7) Uani 1 1 d .
C3 C 0.0753(7) 0.1021(4) 0.6621(3) 0.0121(7) Uani 1 1 d .
C4 C 0.0896(8) -0.0468(4) 0.6584(4) 0.0165(8) Uani 1 1 d .
H4 H 0.231883 -0.083702 0.603839 0.020 Uiso 1 1 calc R
C5 C -0.1070(8) -0.1405(4) 0.7358(4) 0.0178(8) Uani 1 1 d .
H5 H -0.096719 -0.242385 0.735882 0.021 Uiso 1 1 calc R
C6 C -0.3167(8) -0.0862(4) 0.8121(4) 0.0176(8) Uani 1 1 d .
H6 H -0.450995 -0.151072 0.863884 0.021 Uiso 1 1 calc R
C7 C -0.3343(7) 0.0637(4) 0.8144(4) 0.0162(8) Uani 1 1 d .
H7 H -0.480916 0.100572 0.866161 0.019 Uiso 1 1 calc R
C8 C -0.1339(7) 0.1581(4) 0.7397(3) 0.0135(7) Uani 1 1 d .
C9 C -0.0772(7) 0.4037(4) 0.6207(3) 0.0110(7) Uani 1 1 d .
C10 C 0.4605(7) 0.4409(4) 0.3303(3) 0.0121(7) Uani 1 1 d .
C11 C -0.2245(7) 0.3655(4) 0.8632(3) 0.0144(8) Uani 1 1 d .
H11A H -0.412852 0.339110 0.897682 0.017 Uiso 1 1 calc R
H11B H -0.205237 0.472972 0.847653 0.017 Uiso 1 1 calc R
C12 C -0.0589(8) 0.3023(4) 0.9631(4) 0.0200(8) Uani 1 1 d .
H12A H -0.114426 0.342010 1.043671 0.030 Uiso 1 1 calc GR
H12B H 0.127742 0.327981 0.928971 0.030 Uiso 1 1 calc GR
H12C H -0.083062 0.196128 0.981114 0.030 Uiso 1 1 calc GR
loop_
_atom_site_aniso_label
_atom_site_aniso_U_11
_atom_site_aniso_U_22
_atom_site_aniso_U_33
_atom_site_aniso_U_23
_atom_site_aniso_U_13
_atom_site_aniso_U_12
S1 0.0089(5) 0.0111(5) 0.0185(5) -0.0002(3) -0.0020(3) 0.0024(3)
N1 0.0155(16) 0.0101(15) 0.0151(15) -0.0027(11) -0.0024(11) 0.0008(12)
N2 0.0139(16) 0.0180(16) 0.0214(16) -0.0056(12) -0.0017(13) 0.0023(13)
C1 0.0079(16) 0.0085(16) 0.0153(17) -0.0045(13) -0.0034(13) 0.0001(13)
C2 0.0095(16) 0.0090(16) 0.0165(17) -0.0043(13) -0.0059(13) -0.0005(12)
C3 0.0110(17) 0.0104(16) 0.0158(17) -0.0002(12) -0.0061(13) -0.0007(13)
C4 0.0193(19) 0.0120(17) 0.0198(18) -0.0039(14) -0.0066(15) 0.0008(14)
C5 0.0205(19) 0.0096(17) 0.0246(19) -0.0011(14) -0.0093(15) 0.0005(14)
C6 0.0189(19) 0.0117(18) 0.0218(19) 0.0016(14) -0.0067(15) -0.0039(14)
C7 0.0132(18) 0.0157(18) 0.0193(18) -0.0013(14) -0.0030(14) -0.0009(14)
C8 0.0172(18) 0.0096(17) 0.0148(17) -0.0014(13) -0.0065(14) -0.0008(14)
C9 0.0105(16) 0.0097(16) 0.0146(16) -0.0035(12) -0.0053(13) -0.0001(13)
C10 0.0142(18) 0.0087(16) 0.0151(17) -0.0031(13) -0.0060(14) -0.0004(13)
C11 0.0129(17) 0.0127(17) 0.0174(17) -0.0041(13) -0.0004(13) 0.0005(14)
C12 0.0174(19) 0.025(2) 0.0187(19) -0.0042(15) -0.0062(15) 0.0034(16)
loop_
_atom_type_symbol
_atom_type_description
_atom_type_scat_dispersion_real
_atom_type_scat_dispersion_imag
_atom_type_scat_source
C C 0.0033 0.0016 'International Tables Vol C Tables 4.2.6.8 and 6.1.1.4'
H H 0.0000 0.0000 'International Tables Vol C Tables 4.2.6.8 and 6.1.1.4'
N N 0.0061 0.0033 'International Tables Vol C Tables 4.2.6.8 and 6.1.1.4'
S S 0.1246 0.1234 'International Tables Vol C Tables 4.2.6.8 and 6.1.1.4'
loop_
_geom_angle_atom_site_label_1
_geom_angle_atom_site_label_2
_geom_angle_atom_site_label_3
_geom_angle
_geom_angle_site_symmetry_1
_geom_angle_site_symmetry_3
C2 S1 C3 98.58(16) . .
C8 N1 C11 119.2(3) . .
C9 N1 C8 118.3(3) . .
C9 N1 C11 122.5(3) . .
C2 C1 C9 121.5(3) . 2_566
C2 C1 C10 118.0(3) . .
C9 C1 C10 120.4(3) 2_566 .
C1 C2 S1 120.0(3) . .
C9 C2 S1 118.5(3) . .
C9 C2 C1 121.2(3) . .
C4 C3 S1 120.3(3) . .
C8 C3 S1 118.5(3) . .
C8 C3 C4 121.1(3) . .
C3 C4 H4 120.4 . .
C5 C4 C3 119.1(3) . .
C5 C4 H4 120.4 . .
C4 C5 H5 119.9 . .
C6 C5 C4 120.3(3) . .
C6 C5 H5 119.9 . .
C5 C6 H6 119.6 . .
C5 C6 C7 120.8(3) . .
C7 C6 H6 119.6 . .
C6 C7 H7 120.4 . .
C8 C7 C6 119.3(3) . .
C8 C7 H7 120.4 . .
C3 C8 N1 119.6(3) . .
C3 C8 C7 119.3(3) . .
C7 C8 N1 121.0(3) . .
N1 C9 C1 122.6(3) . 2_566
N1 C9 C2 120.2(3) . .
C2 C9 C1 117.3(3) . 2_566
N2 C10 C1 177.7(4) . .
N1 C11 H11A 109.3 . .
N1 C11 H11B 109.3 . .
N1 C11 C12 111.5(3) . .
H11A C11 H11B 108.0 . .
C12 C11 H11A 109.3 . .
C12 C11 H11B 109.3 . .
C11 C12 H12A 109.5 . .
C11 C12 H12B 109.5 . .
C11 C12 H12C 109.5 . .
H12A C12 H12B 109.5 . .
H12A C12 H12C 109.5 . .
H12B C12 H12C 109.5 . .
loop_
_geom_bond_atom_site_label_1
_geom_bond_atom_site_label_2
_geom_bond_distance
_geom_bond_site_symmetry_2
S1 C2 1.765(4) .
S1 C3 1.771(3) .
N1 C8 1.426(5) .
N1 C9 1.389(4) .
N1 C11 1.472(4) .
N2 C10 1.153(5) .
C1 C2 1.398(5) .
C1 C9 1.413(5) 2_566
C1 C10 1.441(5) .
C2 C9 1.395(5) .
C3 C4 1.395(5) .
C3 C8 1.390(5) .
C4 H4 0.9500 .
C4 C5 1.391(5) .
C5 H5 0.9500 .
C5 C6 1.377(6) .
C6 H6 0.9500 .
C6 C7 1.402(5) .
C7 H7 0.9500 .
C7 C8 1.397(5) .
C11 H11A 0.9900 .
C11 H11B 0.9900 .
C11 C12 1.517(5) .
C12 H12A 0.9800 .
C12 H12B 0.9800 .
C12 H12C 0.9800 .
