#------------------------------------------------------------------------------
#$Date: 2019-11-04 13:45:33 +0200 (Mon, 04 Nov 2019) $
#$Revision: 222921 $
#$URL: file:///home/coder/svn-repositories/cod/cif/4/03/43/4034383.cif $
#------------------------------------------------------------------------------
#
# This file is available in the Crystallography Open Database (COD),
# http://www.crystallography.net/
#
# All data on this site have been placed in the public domain by the
# contributors.
#
data_4034383
loop_
_publ_author_name
'Belyaeva, Kseniya V.'
'Nikitina, Lina P.'
'Mal'kina, Anastasiya G.'
'Afonin, Andrei V.'
'Vashchenko, Alexander V.'
'Trofimov, Boris A.'
_publ_section_title
;
 Cyanoacetylenes as Triggers and Partners in KOH-Assisted Assemblies of
 Quinoline-Based Dihydropyrimido[1,2-<i>a</i>]quinolin-3-ones on Water.
;
_journal_issue                   15
_journal_name_full               'The Journal of organic chemistry'
_journal_page_first              9726
_journal_page_last               9733
_journal_paper_doi               10.1021/acs.joc.9b01482
_journal_volume                  84
_journal_year                    2019
_chemical_formula_moiety         'C18 H14 N2 O'
_chemical_formula_sum            'C18 H14 N2 O'
_chemical_formula_weight         274.31
_space_group_crystal_system      triclinic
_space_group_IT_number           2
_space_group_name_Hall           '-P 1'
_space_group_name_H-M_alt        'P -1'
_atom_sites_solution_hydrogens   geom
_audit_creation_date             2016-11-09
_audit_creation_method
;
Olex2 1.2
(compiled 2016.09.09 svn.r3337 for OlexSys, GUI svn.r5227)
;
_audit_update_record
;
2019-03-11 # Formatted by publCIF

;
_cell_angle_alpha                108.674(5)
_cell_angle_beta                 101.616(5)
_cell_angle_gamma                98.853(6)
_cell_formula_units_Z            2
_cell_length_a                   7.9945(13)
_cell_length_b                   8.1909(14)
_cell_length_c                   11.3613(19)
_cell_measurement_reflns_used    765
_cell_measurement_temperature    100(2)
_cell_measurement_theta_max      24.6
_cell_measurement_theta_min      2.5
_cell_volume                     671.0(2)
_computing_molecular_graphics    'Olex2 (Dolomanov et al., 2009)'
_computing_publication_material  'Olex2 (Dolomanov et al., 2009)'
_computing_structure_refinement  'ShelXL (Sheldrick, 2015)'
_diffrn_ambient_temperature      100.15
_diffrn_detector_area_resol_mean 0.79
_diffrn_measured_fraction_theta_full 0.989
_diffrn_measured_fraction_theta_max 0.982
_diffrn_measurement_device_type  'Bruker D8 Venture'
_diffrn_measurement_method       '\f and \w'
_diffrn_radiation_monochromator  No
_diffrn_radiation_type           MoK\a
_diffrn_radiation_wavelength     0.71073
_diffrn_reflns_av_R_equivalents  0.1011
_diffrn_reflns_av_unetI/netI     0.0748
_diffrn_reflns_Laue_measured_fraction_full 0.989
_diffrn_reflns_Laue_measured_fraction_max 0.982
_diffrn_reflns_limit_h_max       9
_diffrn_reflns_limit_h_min       -11
_diffrn_reflns_limit_k_max       11
_diffrn_reflns_limit_k_min       -11
_diffrn_reflns_limit_l_max       16
_diffrn_reflns_limit_l_min       -15
_diffrn_reflns_number            22052
_diffrn_reflns_point_group_measured_fraction_full 0.989
_diffrn_reflns_point_group_measured_fraction_max 0.982
_diffrn_reflns_theta_full        25.242
_diffrn_reflns_theta_max         30.163
_diffrn_reflns_theta_min         2.676
_diffrn_source                   IuS
_exptl_absorpt_coefficient_mu    0.086
_exptl_absorpt_correction_T_max  0.7460
_exptl_absorpt_correction_T_min  0.5022
_exptl_absorpt_correction_type   multi-scan
_exptl_absorpt_process_details
;
SADABS-2014/5 (Bruker,2014/5) was used for absorption correction.
wR2(int) was 0.1753 before and 0.1073 after correction.
The Ratio of minimum to maximum transmission is 0.6732.
The \l/2 correction factor is Not present.
;
_exptl_crystal_density_diffrn    1.358
_exptl_crystal_description       'yellow, needle, clear'
_exptl_crystal_F_000             288
_exptl_crystal_size_max          0.607
_exptl_crystal_size_mid          0.149
_exptl_crystal_size_min          0.12
_refine_diff_density_max         0.417
_refine_diff_density_min         -0.390
_refine_diff_density_rms         0.072
_refine_ls_extinction_coef       0.029(11)
_refine_ls_extinction_expression Fc^*^=kFc[1+0.001xFc^2^\l^3^/sin(2\q)]^-1/4^
_refine_ls_extinction_method     SHELXL
_refine_ls_goodness_of_fit_ref   1.055
_refine_ls_hydrogen_treatment    constr
_refine_ls_matrix_type           full
_refine_ls_number_parameters     191
_refine_ls_number_reflns         3902
_refine_ls_number_restraints     0
_refine_ls_restrained_S_all      1.055
_refine_ls_R_factor_all          0.0981
_refine_ls_R_factor_gt           0.0660
_refine_ls_shift/su_max          0.000
_refine_ls_shift/su_mean         0.000
_refine_ls_structure_factor_coef Fsqd
_refine_ls_weighting_details
'w=1/[\s^2^(Fo^2^)+(0.1076P)^2^+0.0136P] where P=(Fo^2^+2Fc^2^)/3'
_refine_ls_weighting_scheme      calc
_refine_ls_wR_factor_gt          0.1632
_refine_ls_wR_factor_ref         0.1823
_reflns_Friedel_coverage         0.000
_reflns_number_gt                2751
_reflns_number_total             3902
_reflns_threshold_expression     'I > 2\s(I)'
_cod_data_source_file            jo9b01482_si_002.cif
_cod_data_source_block           a
_cod_database_code               4034383
_shelxl_version_number           2013-4
_shelx_space_group_comment
;
The symmetry employed for this shelxl refinement is uniquely defined
by the following loop, which should always be used as a source of
symmetry information in preference to the above space-group names.
They are only intended as comments.
;
_shelx_estimated_absorpt_t_max   0.990
_shelx_estimated_absorpt_t_min   0.950
_olex2_refinement_description
;
1. Fixed Uiso
 At 1.2 times of:
  All C(H) groups, All N(H) groups
2.a Ternary CH refined with riding coordinates:
 C14(H14)
2.b Aromatic/amide H refined with riding coordinates:
 N2(H2), C1(H1), C2(H2A), C4(H4), C5(H5), C8(H8), C9(H9), C10(H10), C11(H11),
 C12(H12), C15(H15), C17(H17), C18(H18)
;
_shelx_res_file
;
TITL a in P-1
CELL 0.71073 7.9945 8.1909 11.3613 108.674 101.616 98.853
ZERR 2 0.0013 0.0014 0.0019 0.005 0.005 0.006
LATT 1
SFAC C H N O
UNIT 36 28 4 2

L.S. 50
PLAN  -10 0 0
SIZE 0.12 0.149 0.607
TEMP 0
HTAB
BOND $H
CONF
fmap 2
acta
OMIT 3 0 6
OMIT -3 -3 3
OMIT 0 1 1
OMIT 6 -8 1
OMIT 2 1 3
OMIT 6 3 0
OMIT 0 3 4
OMIT 6 -8 9
OMIT 4 -2 1
OMIT 0 2 3
OMIT 6 -8 7
OMIT 3 -7 4
OMIT 0 6 1
OMIT 6 -8 8
OMIT 6 -9 1
OMIT 3 -1 4
OMIT 4 -3 10
OMIT -8 7 3
OMIT -4 2 3
OMIT 8 0 7
OMIT 0 -3 3
OMIT -4 -2 2
OMIT 5 -6 4
OMIT 2 0 5
REM <olex2.extras>
REM <HklSrc "%.\\a.hkl">
REM </olex2.extras>

WGHT    0.107600    0.013600
EXTI    0.028626
FVAR       0.37437
O1    4    0.140826    0.356852   -0.062184    11.00000    0.04000    0.02452 =
         0.02059    0.01157    0.01576    0.01622
N1    3    0.086716    0.194162    0.229504    11.00000    0.02195    0.01719 =
         0.01734    0.00761    0.00779    0.00834
N2    3    0.047847    0.396711    0.119857    11.00000    0.02293    0.02139 =
         0.01686    0.00926    0.00823    0.01155
AFIX  43
H2    2   -0.031828    0.448552    0.097186    11.00000   -1.20000
AFIX   0
C1    1   -0.304237    0.565116    0.432446    11.00000    0.02759    0.03849 =
         0.02162    0.01204    0.01193    0.02035
AFIX  43
H1    2   -0.387896    0.606721    0.472588    11.00000   -1.20000
AFIX   0
C2    1   -0.310851    0.385580    0.388198    11.00000    0.02071    0.03406 =
         0.02443    0.01223    0.00891    0.00939
AFIX  43
H2A   2   -0.399771    0.307304    0.397882    11.00000   -1.20000
AFIX   0
C3    1   -0.184430    0.320240    0.328705    11.00000    0.02072    0.02665 =
         0.01454    0.00828    0.00498    0.00973
C4    1   -0.183818    0.132865    0.284152    11.00000    0.02109    0.02331 =
         0.02336    0.00875    0.00756    0.00391
AFIX  43
H4    2   -0.275460    0.050947    0.287525    11.00000   -1.20000
AFIX   0
C5    1   -0.052769    0.077213    0.238383    11.00000    0.02345    0.01759 =
         0.01775    0.00651    0.00547    0.00503
AFIX  43
H5    2   -0.054646   -0.043054    0.211664    11.00000   -1.20000
AFIX   0
C6    1    0.204162    0.133154    0.158920    11.00000    0.01956    0.01908 =
         0.01642    0.00578    0.00420    0.00684
C7    1    0.280041   -0.013726    0.178652    11.00000    0.01916    0.01867 =
         0.02206    0.00894    0.00638    0.00729
C8    1    0.313392   -0.033418    0.298067    11.00000    0.02492    0.02356 =
         0.02202    0.00942    0.00607    0.00737
AFIX  43
H8    2    0.281765    0.042329    0.366009    11.00000   -1.20000
AFIX   0
C9    1    0.393681   -0.165755    0.315922    11.00000    0.02662    0.02727 =
         0.02719    0.01601    0.00197    0.00637
AFIX  43
H9    2    0.417333   -0.176813    0.396218    11.00000   -1.20000
AFIX   0
C10   1    0.438720   -0.281320    0.214893    11.00000    0.02396    0.02045 =
         0.04093    0.01446    0.00321    0.00880
AFIX  43
H10   2    0.492077   -0.369943    0.227226    11.00000   -1.20000
AFIX   0
C11   1   -0.174451    0.683344    0.417580    11.00000    0.03206    0.02601 =
         0.02133    0.00758    0.00896    0.01666
AFIX  43
H11   2   -0.171012    0.803946    0.447286    11.00000   -1.20000
AFIX   0
C12   1   -0.049490    0.621399    0.358228    11.00000    0.02652    0.02211 =
         0.02037    0.00763    0.00795    0.00944
AFIX  43
H12   2    0.037789    0.700550    0.347758    11.00000   -1.20000
AFIX   0
C13   1   -0.054202    0.441425    0.314321    11.00000    0.02073    0.02327 =
         0.01236    0.00694    0.00379    0.00919
C14   1    0.081135    0.378440    0.246001    11.00000    0.02010    0.01661 =
         0.01527    0.00627    0.00446    0.00611
AFIX  13
H14   2    0.196887    0.454370    0.298181    11.00000   -1.20000
AFIX   0
C15   1    0.248529    0.213278    0.079113    11.00000    0.02297    0.02285 =
         0.02181    0.00935    0.01056    0.01067
AFIX  43
H15   2    0.345902    0.194373    0.048275    11.00000   -1.20000
AFIX   0
C16   1    0.144955    0.330404    0.040025    11.00000    0.02448    0.01604 =
         0.01848    0.00591    0.00778    0.00555
C17   1    0.404022   -0.264430    0.095480    11.00000    0.02276    0.02001 =
         0.03325    0.00773    0.01051    0.00926
AFIX  43
H17   2    0.433372   -0.342465    0.027374    11.00000   -1.20000
AFIX   0
C18   1    0.325382   -0.131099    0.076999    11.00000    0.02201    0.02221 =
         0.02133    0.00835    0.00717    0.00748
AFIX  43
H18   2    0.302904   -0.120042   -0.003310    11.00000   -1.20000
AFIX   0
HKLF 4

REM  a in P-1
REM R1 =  0.0660 for    2751 Fo > 4sig(Fo)  and  0.0981 for all    3902 data
REM    191 parameters refined using      0 restraints

END

WGHT      0.1076      0.0136

REM Instructions for potential hydrogen bonds
EQIV $1 -x, -y+1, -z
HTAB N2 O1_$1
EQIV $2 -x, -y, -z
HTAB C5 O1_$2

REM Highest difference peak  0.417,  deepest hole -0.390,  1-sigma level  0.072
Q1    1   0.1913  0.2695  0.0585  11.00000  0.05    0.42
Q2    1   0.0877  0.2986  0.2385  11.00000  0.05    0.41
Q3    1   0.2424  0.0647  0.1724  11.00000  0.05    0.40
Q4    1   0.3832 -0.1867  0.0950  11.00000  0.05    0.36
Q5    1   0.3559 -0.0929  0.3013  11.00000  0.05    0.34
Q6    1  -0.0064  0.4179  0.2800  11.00000  0.05    0.33
Q7    1   0.0912  0.3576  0.0857  11.00000  0.05    0.32
Q8    1   0.3002 -0.0380  0.2389  11.00000  0.05    0.31
Q9    1   0.0320  0.5069  0.1131  11.00000  0.05    0.31
Q10   1   0.0687  0.3770  0.1785  11.00000  0.05    0.29
;
_shelx_res_checksum              27283
_shelx_hkl_file
;
  -1   0   0  304.29   26.92
  -1   0   0  288.25   26.93
  -1   0   0  245.14   26.89
  -1   0   0  284.78   26.90
   1   0   0  289.33   26.92
   1   0   0  284.35   26.90
  -2   0   0   56.59    4.92
  -2   0   0   43.38    4.97
  -2   0   0   55.05    4.87
  -2   0   0   48.21    4.90
   2   0   0   44.88    4.85
   2   0   0   50.77    4.87
   2   0   0   50.08    4.87
   2   0   0   56.99    4.92
  -3   0   0   15.67    1.63
  -3   0   0   17.44    1.67
  -3   0   0   15.56    1.74
  -3   0   0   15.73    1.58
  -3   0   0   16.69    1.60
   3   0   0   16.37    1.60
   3   0   0   16.01    1.58
   3   0   0   15.87    1.62
   3   0   0   15.10    1.68
   3   0   0   16.93    1.66
  -4   0   0   15.77    1.54
  -4   0   0   14.22    1.61
  -4   0   0   15.84    1.60
  -4   0   0   13.64    1.74
   4   0   0   14.49    1.58
   4   0   0   17.33    1.55
   4   0   0   15.54    1.68
   4   0   0   17.16    1.62
   4   0   0   13.45    1.50
  -5   0   0    2.01    0.65
  -5   0   0    1.77    0.43
  -5   0   0    2.48    0.51
  -5   0   0    2.32    0.36
  -5   0   0    2.87    0.42
   5   0   0    1.94    0.43
   5   0   0    2.22    0.38
   5   0   0    2.66    0.47
   5   0   0    2.07    0.54
   5   0   0    2.29    0.33
  -6   0   0    0.38    0.38
  -6   0   0    0.68    0.64
  -6   0   0    0.45    0.37
  -6   0   0    0.34    0.25
  -6   0   0    0.32    0.20
   6   0   0    0.31    0.28
   6   0   0    0.26    0.18
   6   0   0    0.90    0.34
   6   0   0    0.36    0.26
   6   0   0    0.31    0.51
  -7   0   0   -0.31    0.48
  -7   0   0   -0.06    0.44
  -7   0   0    0.11    0.32
  -7   0   0    0.33    0.26
  -7   0   0    0.80    0.85
   7   0   0   -0.18    0.42
   7   0   0    0.00    0.51
   7   0   0   -0.24    0.32
   7   0   0   -0.20    0.68
  -8   0   0   53.59    5.10
  -8   0   0   51.39    5.23
   8   0   0   51.10    5.17
   8   0   0   48.33    5.46
  -9   0   0    9.66    2.18
  -9   0   0    7.69    1.71
  -9   0   0   13.61    1.51
  -9   0   0   12.31    1.79
   9   0   0   14.15    1.84
 -10   0   0    0.93    0.67
 -10   0   0    1.57    1.88
 -10   0   0   -0.39    1.03
 -10   1   0    0.38    0.91
 -10   1   0   -0.09    0.59
 -10   1   0    2.67    1.70
   9  -1   0   10.65    1.60
   9  -1   0    8.27    1.78
  -9   1   0   12.51    1.82
  -9   1   0   10.01    1.59
  -9   1   0    9.57    1.26
  -9   1   0    7.27    1.86
   8  -1   0    1.05    0.85
   8  -1   0    0.34    0.50
  -8   1   0    0.53    0.39
  -8   1   0    0.42    0.35
  -8   1   0   -0.19    0.51
  -8   1   0   -0.67    0.59
  -8   1   0    0.00    0.92
   7  -1   0    4.99    1.03
   7  -1   0    5.52    0.70
  -7   1   0    5.67    0.96
  -7   1   0    5.01    0.68
  -7   1   0    3.92    1.07
  -7   1   0    4.08    0.77
  -7   1   0    5.84    0.75
   6  -1   0    2.10    0.33
   6  -1   0    1.74    0.41
   6  -1   0    1.03    0.52
  -6   1   0    1.03    0.39
  -6   1   0    1.07    0.56
  -6   1   0    1.28    0.47
  -6   1   0    2.02    0.30
   5  -1   0    1.08    0.25
   5  -1   0    1.05    0.21
   5  -1   0    1.26    0.29
   5  -1   0    0.58    0.34
  -5   1   0    0.62    0.43
  -5   1   0    0.98    0.21
  -5   1   0    1.10    0.24
  -5   1   0    1.47    0.35
  -5   1   0    0.60    0.27
   4  -1   0   47.12    5.21
   4  -1   0   60.75    5.27
   4  -1   0   48.90    5.14
  -4   1   0   58.46    5.20
  -4   1   0   52.93    5.26
  -4   1   0   53.42    5.14
  -4   1   0   52.09    5.16
   3  -1   0    2.08    0.32
   3  -1   0    1.72    0.26
   3  -1   0    2.28    0.25
  -3   1   0    1.69    0.28
  -3   1   0    1.93    0.31
  -3   1   0    2.05    0.25
  -3   1   0    1.72    0.24
  -3   1   0    2.12    0.34
   2  -1   0  226.66   20.30
  -2   1   0  192.21   20.28
  -2   1   0  212.82   20.27
  -2   1   0  213.18   20.29
  -2   1   0  219.94   20.28
   1  -1   0   63.53    5.47
   1  -1   0   55.44    5.46
   1  -1   0   52.99    5.47
  -1   1   0   54.75    5.47
  -1   1   0   53.26    5.45
  -1   1   0   63.92    5.48
   0  -1   0   30.08    2.83
   0  -1   0   28.08    2.83
   0  -1   0   27.97    2.85
   0  -1   0   32.27    2.84
   0   1   0   27.68    2.82
   0   1   0   32.80    2.84
   0   1   0   26.75    2.85
   0   1   0   30.36    2.83
  -1  -1   0  198.46   19.02
  -1  -1   0  194.27   18.98
  -1  -1   0  204.97   19.05
  -1  -1   0  218.80   19.01
   1   1   0  199.50   18.98
   1   1   0  200.81   19.06
   1   1   0  184.53   19.07
   1   1   0  192.01   19.00
   1   1   0  201.19   19.01
  -2  -1   0 1000.00   88.30
   2   1   0  916.03   88.34
   2   1   0  900.51   88.27
   2   1   0  894.04   88.35
  -3  -1   0   10.64    1.10
  -3  -1   0    9.15    1.35
  -3  -1   0   12.03    1.23
  -3  -1   0   10.42    1.20
   3   1   0   11.55    1.26
   3   1   0   11.75    1.15
   3   1   0   11.14    1.16
   3   1   0   10.41    1.27
  -4  -1   0    2.80    0.37
  -4  -1   0    3.37    0.43
  -4  -1   0    2.55    0.68
  -4  -1   0    2.09    0.46
  -4  -1   0    2.57    0.49
   4   1   0    3.08    0.35
   4   1   0    3.35    0.58
   4   1   0    2.22    0.41
   4   1   0    2.36    0.55
   4   1   0    3.24    0.45
  -5  -1   0   -0.57    0.54
  -5  -1   0    0.24    0.32
  -5  -1   0    0.15    0.17
  -5  -1   0   -0.41    0.21
  -5  -1   0    0.12    0.33
   5   1   0   -0.24    0.13
   5   1   0    0.14    0.25
   5   1   0   -0.27    0.46
   5   1   0    0.12    0.31
   5   1   0    0.53    0.29
  -6  -1   0    0.16    0.21
  -6  -1   0    0.46    0.45
  -6  -1   0   -0.12    0.41
  -6  -1   0    0.11    0.32
  -6  -1   0    0.93    0.79
   6   1   0    0.01    0.29
   6   1   0    0.31    0.39
   6   1   0    0.11    0.39
   6   1   0   -0.11    0.19
  -7  -1   0    1.43    1.03
  -7  -1   0    1.57    0.64
  -7  -1   0    1.97    0.47
  -7  -1   0    1.65    0.42
   7   1   0    1.05    0.98
   7   1   0    3.83    0.69
  -8  -1   0    3.03    0.92
  -8  -1   0    3.80    0.99
  -8  -1   0    4.74    0.75
  -8  -1   0    3.28    1.52
  -8  -1   0    4.73    0.81
   8   1   0    4.64    1.46
   8   1   0    4.46    0.98
  -9  -1   0    0.82    0.57
  -9  -1   0    0.46    1.70
  -9  -1   0    2.72    1.01
   9   1   0   -0.01    0.90
 -10  -1   0    0.73    2.39
 -10  -1   0    2.67    1.42
 -10  -1   0    3.77    0.90
 -11   2   0   -1.19    0.72
 -10   2   0   -0.32    0.78
 -10   2   0    1.25    0.51
 -10   2   0    1.01    1.41
   9  -2   0    4.32    1.27
  -9   2   0    5.15    1.07
  -9   2   0    3.69    0.66
  -9   2   0    3.52    0.84
  -9   2   0    4.12    0.75
  -9   2   0    2.66    1.22
   8  -2   0   24.47    2.84
   8  -2   0   23.50    2.51
  -8   2   0   23.13    2.53
  -8   2   0   26.61    2.48
  -8   2   0   18.75    3.22
   7  -2   0    9.17    0.97
   7  -2   0    8.10    1.35
   7  -2   0    7.70    1.08
  -7   2   0    9.12    1.42
  -7   2   0    8.55    1.12
  -7   2   0   11.10    1.25
  -7   2   0    9.11    1.01
   6  -2   0    3.17    0.59
   6  -2   0    4.85    0.51
   6  -2   0    4.11    0.73
  -6   2   0    3.45    0.75
  -6   2   0    3.48    0.63
  -6   2   0    4.93    0.59
  -6   2   0    5.51    0.56
   5  -2   0   16.36    1.67
   5  -2   0   16.69    1.52
   5  -2   0   15.08    1.56
  -5   2   0   15.11    1.57
  -5   2   0   15.36    1.69
  -5   2   0   14.05    1.55
   4  -2   0    2.97    0.34
   4  -2   0    2.57    0.45
  -4   2   0    3.69    0.47
  -4   2   0    3.20    0.37
  -4   2   0    3.18    0.47
  -4   2   0    2.90    0.39
  -4   2   0    3.70    0.39
   3  -2   0   22.80    2.23
   3  -2   0   20.55    2.22
   3  -2   0   24.24    2.26
   3  -2   0   25.44    2.30
  -3   2   0   20.62    2.23
  -3   2   0   23.56    2.25
  -3   2   0   24.47    2.25
  -3   2   0   23.83    2.29
   2  -2   0   68.17    6.60
  -2   2   0   76.48    6.59
  -2   2   0   67.85    6.63
  -2   2   0   60.91    6.61
  -2   2   0   72.03    6.64
   1  -2   0   51.91    4.96
   1  -2   0   51.61    4.93
   1  -2   0   48.44    4.98
   1  -2   0   48.83    4.95
  -1   2   0   56.11    4.94
  -1   2   0   56.63    4.96
  -1   2   0   55.06    4.96
  -1   2   0   43.80    4.98
   0  -2   0   44.69    4.52
   0  -2   0   49.05    4.50
   0  -2   0   46.22    4.49
   0  -2   0   52.29    4.53
   0  -2   0   50.33    4.55
   0   2   0   49.06    4.49
   0   2   0   41.35    4.60
   0   2   0   46.35    4.52
   0   2   0   41.34    4.52
  -1  -2   0  179.42   17.24
  -1  -2   0  187.01   17.21
  -1  -2   0  199.17   17.28
   1   2   0  163.67   17.32
   1   2   0  174.15   17.21
   1   2   0  172.43   17.30
   1   2   0  199.88   17.24
   1   2   0  166.77   17.18
  -2  -2   0   21.03    2.04
  -2  -2   0   17.93    1.97
  -2  -2   0   17.05    2.18
   2   2   0   20.89    1.94
   2   2   0   20.48    2.00
   2   2   0   20.99    2.14
   2   2   0   20.88    2.00
   2   2   0   19.27    2.11
  -3  -2   0  239.50   27.50
  -3  -2   0  273.44   27.35
  -3  -2   0  294.21   27.29
  -3  -2   0  304.81   27.40
  -3  -2   0  314.60   27.27
   3   2   0  315.17   27.26
   3   2   0  269.69   27.44
   3   2   0  274.51   27.31
   3   2   0  285.30   27.44
  -4  -2   0   90.11    9.11
  -4  -2   0   93.03    8.99
  -4  -2   0  100.11    9.15
  -4  -2   0  104.42    9.04
   4   2   0   90.57    9.03
   4   2   0   89.59    9.06
   4   2   0   84.20    9.21
   4   2   0   95.86    9.19
  -5  -2   0   55.18    5.69
  -5  -2   0   54.93    5.65
  -5  -2   0   61.20    5.85
  -5  -2   0   59.72    5.84
   5   2   0   57.21    5.62
   5   2   0   50.88    5.94
   5   2   0   66.01    5.74
   5   2   0   57.28    5.75
   5   2   0   62.57    5.88
  -6  -2   0    3.06    0.79
  -6  -2   0    5.22    0.92
  -6  -2   0    3.59    0.65
  -6  -2   0    3.67    0.59
  -6  -2   0    2.65    1.16
   6   2   0    3.36    0.76
   6   2   0    3.05    1.00
   6   2   0    3.53    0.67
   6   2   0    3.48    0.74
   6   2   0    3.80    0.54
  -7  -2   0    2.44    1.32
  -7  -2   0    3.37    0.69
  -7  -2   0    1.67    0.71
  -7  -2   0    3.13    0.60
   7   2   0    4.09    1.27
   7   2   0    2.52    0.77
  -8  -2   0    0.91    0.90
  -8  -2   0    1.16    0.72
  -8  -2   0    0.88    1.57
  -8  -2   0    1.22    0.57
  -8  -2   0    1.85    1.02
   8   2   0    1.37    1.41
   8   2   0    1.22    0.75
  -9  -2   0   -1.79    2.12
  -9  -2   0   -0.33    0.63
  -9  -2   0   -0.83    1.14
   9   2   0    0.84    1.03
 -10  -2   0   -2.40    0.88
 -10  -2   0   -0.61    2.89
 -10  -2   0    0.38    1.65
 -11   3   0    0.64    0.66
 -11   3   0    2.04    1.11
 -10   3   0    0.25    0.48
 -10   3   0    1.56    1.27
 -10   3   0    0.83    0.76
   9  -3   0    3.99    0.84
  -9   3   0    3.34    1.25
  -9   3   0    5.53    0.92
  -9   3   0    6.74    0.92
  -9   3   0    6.46    0.86
  -9   3   0    6.09    1.23
   8  -3   0    0.21    0.73
   8  -3   0    0.25    0.26
  -8   3   0    0.10    0.41
  -8   3   0    0.55    0.58
  -8   3   0    0.39    0.38
   7  -3   0   11.46    1.58
   7  -3   0   12.59    1.27
  -7   3   0   12.16    1.30
  -7   3   0   12.96    1.37
  -7   3   0   10.59    1.58
  -7   3   0   12.69    1.55
  -7   3   0   13.16    1.35
   6  -3   0   14.95    1.52
   6  -3   0   14.85    1.64
   6  -3   0   13.20    1.47
  -6   3   0   15.90    1.67
  -6   3   0   14.03    1.90
  -6   3   0   15.67    1.54
  -6   3   0   15.21    1.53
   5  -3   0    0.80    0.33
   5  -3   0    0.55    0.28
   5  -3   0    0.80    0.16
   5  -3   0    0.69    0.19
  -5   3   0    0.68    0.22
  -5   3   0    0.97    0.26
  -5   3   0    0.74    0.19
  -5   3   0    1.10    0.34
  -5   3   0    0.58    0.16
   4  -3   0   47.47    4.54
   4  -3   0   41.14    4.54
  -4   3   0   51.82    4.57
  -4   3   0   49.15    4.54
   3  -3   0   11.97    1.01
   3  -3   0    9.34    1.01
  -3   3   0    9.83    0.99
  -3   3   0    8.70    1.06
  -3   3   0   11.09    1.07
   2  -3   0   -0.03    0.15
   2  -3   0    0.03    0.15
   2  -3   0    0.14    0.11
   2  -3   0    0.09    0.13
   2  -3   0   -0.04    0.09
  -2   3   0    0.04    0.11
  -2   3   0    0.04    0.25
  -2   3   0    0.23    0.17
  -2   3   0   -0.01    0.13
  -2   3   0    0.32    0.19
  -2   3   0   -0.13    0.08
   1  -3   0    6.73    0.80
   1  -3   0    7.91    0.82
   1  -3   0    7.68    0.74
   1  -3   0    6.90    0.76
  -1   3   0    7.11    0.84
  -1   3   0    6.37    0.78
  -1   3   0    7.43    0.79
  -1   3   0    7.65    0.76
  -1   3   0    5.86    0.89
   0  -3   0   77.68    6.95
   0  -3   0   72.61    7.00
   0  -3   0   78.32    6.96
   0  -3   0   77.49    7.02
   0   3   0   64.52    7.08
   0   3   0   70.78    6.96
   0   3   0   64.51    6.93
   0   3   0   78.15    6.98
   0   3   0   66.45    7.04
  -1  -3   0   23.30    2.75
  -1  -3   0   27.41    2.79
  -1  -3   0   28.67    2.70
  -1  -3   0   28.61    2.69
   1   3   0   28.50    2.74
   1   3   0   31.19    2.68
   1   3   0   24.95    2.83
   1   3   0   26.04    2.72
  -2  -3   0    0.73    0.55
  -2  -3   0   -0.11    0.23
  -2  -3   0    0.13    0.28
  -2  -3   0    0.38    0.28
  -2  -3   0    0.09    0.17
   2   3   0    0.24    0.34
   2   3   0    0.14    0.33
   2   3   0    0.01    0.18
   2   3   0    0.07    0.18
   2   3   0    0.06    0.12
  -3  -3   0   53.13    5.43
  -3  -3   0   55.82    5.46
  -3  -3   0   53.33    5.31
   3   3   0   59.81    5.57
   3   3   0   48.00    5.52
   3   3   0   61.60    5.38
   3   3   0   50.61    5.36
   3   3   0   55.50    5.27
  -4  -3   0    6.57    1.47
  -4  -3   0    9.44    1.17
  -4  -3   0    7.48    0.94
  -4  -3   0    8.41    0.95
  -4  -3   0    7.16    1.14
   4   3   0    7.24    1.30
   4   3   0    6.55    1.01
   4   3   0    8.41    0.85
   4   3   0    7.22    0.98
   4   3   0    7.45    1.25
  -5  -3   0   10.50    1.93
  -5  -3   0    9.46    1.45
  -5  -3   0   10.22    1.43
  -5  -3   0    9.39    1.15
  -5  -3   0    9.17    1.18
   5   3   0    8.54    1.67
   5   3   0    9.59    1.04
   5   3   0    9.07    1.27
   5   3   0   11.85    1.54
   5   3   0    9.74    1.24
  -6  -3   0    2.56    0.93
  -6  -3   0    3.24    1.26
  -6  -3   0    2.01    0.52
  -6  -3   0    2.37    0.79
  -6  -3   0    3.78    0.87
   6   3   0    5.72    1.26
   6   3   0    3.79    0.58
   6   3   0    3.20    0.89
  -7  -3   0   16.56    2.20
  -7  -3   0   14.46    2.92
  -7  -3   0   13.95    1.76
  -7  -3   0   14.86    1.93
  -7  -3   0   16.90    2.28
   7   3   0   13.78    2.67
   7   3   0   14.66    2.02
  -8  -3   0    0.43    1.91
  -8  -3   0    0.98    0.67
  -8  -3   0    3.26    1.34
   8   3   0    2.81    0.91
   8   3   0    4.23    1.75
  -9  -3   0    1.39    2.71
  -9  -3   0   -0.17    0.80
  -9  -3   0    1.81    1.56
   9   3   0    0.55    1.20
 -10   4   0   -0.08    1.16
 -10   4   0    0.32    0.45
 -10   4   0   -0.03    0.72
  -9   4   0    8.10    1.22
  -9   4   0    5.96    1.28
  -9   4   0    5.66    1.28
   8  -4   0   22.60    2.03
   8  -4   0   21.11    2.08
  -8   4   0   15.93    2.11
  -8   4   0   19.02    2.08
   7  -4   0    7.72    0.81
   7  -4   0    7.67    0.84
  -7   4   0    6.58    0.94
  -7   4   0    6.72    0.85
  -7   4   0    6.93    0.80
  -7   4   0    6.10    1.02
  -7   4   0    5.19    1.12
   6  -4   0   14.23    1.38
   6  -4   0   13.71    1.37
  -6   4   0   15.76    1.41
  -6   4   0   12.84    1.46
  -6   4   0   12.52    1.39
  -6   4   0   12.77    1.46
   5  -4   0   32.13    2.92
  -5   4   0   28.44    2.92
  -5   4   0   31.21    2.95
  -5   4   0   31.13    3.05
  -5   4   0   31.99    2.96
  -5   4   0   28.98    3.02
  -5   4   0   27.69    2.99
   4  -4   0    1.57    0.21
   4  -4   0    1.59    0.25
  -4   4   0    1.60    0.34
  -4   4   0    1.52    0.34
  -4   4   0    1.13    0.48
   3  -4   0    9.12    0.93
   3  -4   0    8.72    0.94
  -3   4   0    8.58    1.02
  -3   4   0    9.17    1.05
  -3   4   0    9.78    0.93
  -3   4   0    9.89    1.01
   2  -4   0    2.45    0.40
   2  -4   0    2.26    0.37
   2  -4   0    2.27    0.32
  -2   4   0    1.71    0.44
  -2   4   0    2.42    0.44
  -2   4   0    2.13    0.36
  -2   4   0    2.54    0.39
  -2   4   0    2.11    0.37
  -2   4   0    1.81    0.50
   1  -4   0  210.58   20.61
   1  -4   0  228.05   20.55
   1  -4   0  231.26   20.58
   1  -4   0  210.70   20.67
  -1   4   0  216.52   20.58
  -1   4   0  204.40   20.62
  -1   4   0  235.00   20.57
  -1   4   0  183.73   20.65
  -1   4   0  216.69   20.55
   0  -4   0  134.43   12.27
   0  -4   0  129.74   12.34
   0  -4   0  143.41   12.38
   0  -4   0  126.22   12.28
   0   4   0  115.91   12.39
   0   4   0  128.07   12.25
   0   4   0  125.76   12.28
   0   4   0  138.83   12.31
   0   4   0  109.12   12.43
  -1  -4   0   20.43    2.08
  -1  -4   0   22.38    2.16
  -1  -4   0   20.49    2.07
  -1  -4   0   19.78    2.18
  -1  -4   0   23.16    2.22
   1   4   0   20.49    2.12
   1   4   0   17.57    2.30
   1   4   0   19.20    2.10
   1   4   0   21.80    2.05
   1   4   0   19.44    2.27
  -2  -4   0    3.42    0.52
  -2  -4   0    2.38    0.83
  -2  -4   0    3.78    0.74
  -2  -4   0    2.95    0.59
  -2  -4   0    3.48    0.55
   2   4   0    3.72    0.76
   2   4   0    3.58    0.65
   2   4   0    3.57    0.60
   2   4   0    3.60    0.82
   2   4   0    3.65    0.47
  -3  -4   0    0.77    0.46
  -3  -4   0    0.62    0.32
  -3  -4   0    1.67    0.52
  -3  -4   0    0.68    0.27
  -3  -4   0    0.17    0.69
   3   4   0   -0.05    0.28
   3   4   0    0.30    0.35
   3   4   0    0.90    0.23
   3   4   0    0.74    0.71
   3   4   0    0.66    0.59
  -4  -4   0   22.16    3.39
  -4  -4   0   29.47    3.07
  -4  -4   0   26.94    2.86
  -4  -4   0   30.09    3.07
  -4  -4   0   26.91    2.85
   4   4   0   29.68    3.23
   4   4   0   30.74    2.92
   4   4   0   30.74    2.77
   4   4   0   26.74    2.93
   4   4   0   23.71    3.21
  -5  -4   0   12.85    1.92
  -5  -4   0   12.61    1.57
  -5  -4   0   10.78    2.38
  -5  -4   0   11.61    1.61
  -5  -4   0   12.59    1.90
   5   4   0   15.64    1.76
   5   4   0   15.89    1.72
   5   4   0   16.28    1.49
   5   4   0   14.04    2.05
   5   4   0   14.28    2.26
  -6  -4   0    7.12    2.05
  -6  -4   0    6.36    1.05
  -6  -4   0    8.65    1.49
   6   4   0    7.82    1.50
   6   4   0    9.60    1.39
   6   4   0    8.25    1.79
  -7  -4   0    6.42    2.30
  -7  -4   0    7.90    1.61
  -7  -4   0    8.67    1.38
  -7  -4   0    9.02    1.75
   7   4   0    9.16    2.15
  -8  -4   0    3.08    2.70
  -8  -4   0    4.07    1.61
  -8  -4   0    1.14    0.80
   8   4   0    3.46    2.23
   8   4   0    1.76    1.10
  -9  -4   0   -3.85    3.18
  -9  -4   0   -1.29    0.99
  -9  -4   0    2.55    2.18
   9   4   0    1.41    1.46
 -10   5   0   -1.16    1.08
 -10   5   0    0.15    0.45
 -10   5   0    0.99    0.69
  -9   5   0    3.66    0.58
  -9   5   0    2.67    0.88
  -9   5   0    2.78    0.96
  -9   5   0    4.57    0.70
  -9   5   0    2.19    1.03
  -8   5   0    0.39    0.61
  -8   5   0    0.05    0.64
  -8   5   0    0.25    0.75
  -8   5   0    0.25    0.54
  -8   5   0    1.09    0.38
  -8   5   0    1.34    0.32
  -7   5   0    0.69    0.72
  -7   5   0    1.06    0.45
  -7   5   0    1.50    0.31
  -7   5   0    0.88    0.65
  -7   5   0    1.42    0.44
  -7   5   0    1.17    0.29
  -6   5   0   18.45    2.28
  -6   5   0   22.19    2.14
  -6   5   0   20.32    2.09
  -6   5   0   23.92    2.16
  -5   5   0   87.83    9.00
  -5   5   0   94.56    8.92
  -5   5   0   98.12    9.03
   4  -5   0    1.23    0.27
   4  -5   0    1.76    0.23
  -4   5   0    1.13    0.34
  -4   5   0    1.87    0.40
  -4   5   0    1.26    0.33
  -4   5   0    1.74    0.41
  -4   5   0    0.52    0.55
  -4   5   0    1.28    0.20
   3  -5   0    0.73    0.25
   3  -5   0    0.51    0.18
   3  -5   0    0.51    0.26
  -3   5   0    1.00    0.32
  -3   5   0    1.12    0.66
  -3   5   0    0.76    0.28
  -3   5   0    0.43    0.18
  -3   5   0    0.34    0.35
   2  -5   0   37.43    3.35
   2  -5   0   28.61    3.32
   2  -5   0   30.98    3.31
   2  -5   0   34.45    3.26
  -2   5   0   35.03    3.32
  -2   5   0   35.02    3.29
  -2   5   0   34.28    3.33
  -2   5   0   30.85    3.43
   1  -5   0   -0.10    0.27
   1  -5   0    0.46    0.49
   1  -5   0   -0.33    0.19
   1  -5   0    0.14    0.30
   1  -5   0    0.23    0.18
   1  -5   0    0.46    0.35
  -1   5   0    0.08    0.26
  -1   5   0    0.39    0.39
  -1   5   0   -0.04    0.21
  -1   5   0    0.23    0.49
  -1   5   0   -0.18    0.27
   0  -5   0   20.48    2.05
   0  -5   0   18.02    2.05
   0  -5   0   18.88    1.92
   0  -5   0   19.02    1.91
   0   5   0   16.05    2.19
   0   5   0   17.20    1.92
   0   5   0   18.49    1.94
   0   5   0   17.89    2.13
   0   5   0   20.41    1.98
  -1  -5   0   25.95    2.85
  -1  -5   0   25.58    2.90
  -1  -5   0   27.50    2.75
  -1  -5   0   30.80    2.93
  -1  -5   0   30.17    2.79
  -1  -5   0   28.23    2.77
   1   5   0   24.62    2.79
   1   5   0   28.99    2.82
   1   5   0   25.87    3.07
   1   5   0   29.13    2.73
   1   5   0   24.30    2.99
  -2  -5   0   34.82    3.62
  -2  -5   0   35.09    3.46
  -2  -5   0   33.10    3.45
  -2  -5   0   41.33    3.63
  -2  -5   0   34.41    3.61
   2   5   0   33.42    3.38
   2   5   0   30.80    3.49
   2   5   0   30.26    3.72
   2   5   0   37.55    3.53
   2   5   0   35.48    3.81
  -3  -5   0   85.27    9.84
  -3  -5   0  105.93    9.91
  -3  -5   0  101.62    9.72
  -3  -5   0   97.21    9.88
  -3  -5   0  101.54    9.71
   3   5   0   88.39   10.02
   3   5   0  109.38   10.33
   3   5   0  105.56    9.63
   3   5   0  112.99    9.79
   3   5   0   95.35    9.77
  -4  -5   0    5.97    1.67
  -4  -5   0    7.89    1.44
  -4  -5   0    5.97    0.86
  -4  -5   0    4.52    1.09
  -4  -5   0    5.50    0.85
   4   5   0    6.52    1.34
   4   5   0    5.81    1.36
   4   5   0    5.62    0.75
   4   5   0    4.58    0.89
   4   5   0    3.78    0.84
  -5  -5   0    7.97    1.13
  -5  -5   0    5.60    1.82
  -5  -5   0    6.82    1.34
  -5  -5   0    4.35    1.09
   5   5   0    4.08    0.91
   5   5   0    5.32    1.59
   5   5   0    7.29    1.47
  -6  -5   0    5.26    1.44
  -6  -5   0    6.15    1.44
  -6  -5   0    6.01    1.06
  -6  -5   0    4.60    2.27
   6   5   0    6.25    1.22
   6   5   0    6.00    1.93
  -7  -5   0    1.26    0.83
  -7  -5   0    2.74    1.47
  -7  -5   0   -2.16    2.43
   7   5   0   -1.42    1.88
   7   5   0    1.40    1.08
  -8  -5   0    2.16    1.95
  -8  -5   0    8.52    3.46
  -8  -5   0    2.62    1.07
   8   5   0    0.87    1.54
 -10   6   0    0.73    0.51
  -9   6   0    0.89    0.39
  -8   6   0    2.20    0.44
  -7   6   0    0.99    0.44
  -7   6   0    0.91    0.29
  -6   6   0   37.14    3.53
  -6   6   0   33.54    3.46
  -5   6   0   25.17    2.57
   4  -6   0    3.98    0.52
   4  -6   0    4.81    0.51
  -4   6   0    2.94    0.87
  -4   6   0    4.03    0.79
  -4   6   0    4.29    0.66
  -4   6   0    4.76    0.49
  -4   6   0    2.86    0.60
   3  -6   0    3.63    0.63
   3  -6   0    4.55    0.69
   3  -6   0    4.29    0.58
  -3   6   0    3.23    0.75
  -3   6   0    4.28    0.58
  -3   6   0    3.94    0.69
  -3   6   0    5.41    0.70
   2  -6   0    0.26    0.54
   2  -6   0    0.21    0.26
   2  -6   0   -0.23    0.36
   2  -6   0   -0.12    0.25
   2  -6   0    0.22    0.47
   2  -6   0    0.05    0.36
  -2   6   0   -0.17    0.24
  -2   6   0   -0.15    1.16
  -2   6   0    0.05    0.47
  -2   6   0    0.57    0.34
  -2   6   0   -0.10    0.30
  -2   6   0   -0.18    0.30
   1  -6   0   11.00    1.45
   1  -6   0   12.78    1.40
   1  -6   0    9.70    1.25
   1  -6   0   12.40    1.43
   1  -6   0   12.85    1.27
  -1   6   0   10.72    1.29
  -1   6   0    8.55    1.68
  -1   6   0    8.93    1.50
  -1   6   0   11.96    1.29
  -1   6   0   12.38    1.43
   0  -6   0    8.97    1.17
   0  -6   0    7.21    0.91
   0  -6   0    7.80    0.92
   0  -6   0    5.48    1.05
   0  -6   0    6.52    1.10
   0   6   0   10.51    1.45
   0   6   0    6.46    0.93
   0   6   0    6.96    1.25
   0   6   0    5.16    1.17
   0   6   0    5.91    0.94
  -1  -6   0    5.95    1.02
  -1  -6   0    6.36    1.00
  -1  -6   0    7.55    1.16
  -1  -6   0    5.87    0.82
  -1  -6   0    6.02    0.85
   1   6   0    5.41    0.88
   1   6   0    3.33    0.99
   1   6   0    4.32    1.12
   1   6   0    5.17    0.80
  -2  -6   0   70.93    6.53
  -2  -6   0   66.60    6.34
  -2  -6   0   54.60    6.44
  -2  -6   0   64.15    6.29
  -2  -6   0   69.24    6.47
   2   6   0   71.92    6.23
   2   6   0   70.49    6.39
   2   6   0   55.25    6.33
   2   6   0   52.26    6.60
   2   6   0   63.83    6.69
  -3  -6   0   77.46    8.92
  -3  -6   0   88.96    8.74
  -3  -6   0   95.19    8.98
   3   6   0   78.21    8.79
   3   6   0  103.53    9.23
   3   6   0   81.09    9.14
   3   6   0  101.07    8.84
   3   6   0   91.73    8.65
  -4  -6   0    4.81    1.25
  -4  -6   0    7.19    1.07
  -4  -6   0    4.04    1.91
   4   6   0    5.69    0.98
   4   6   0    9.90    1.75
   4   6   0    7.14    1.17
   4   6   0    6.21    1.58
   4   6   0    7.06    1.28
  -5  -6   0    4.99    0.93
  -5  -6   0    2.72    2.05
  -5  -6   0    2.11    1.18
   5   6   0    3.23    1.71
   5   6   0    3.00    0.95
   5   6   0    1.76    1.49
  -6  -6   0   -0.57    2.63
  -6  -6   0   -0.23    1.50
  -6  -6   0   -0.33    0.77
   6   6   0    3.17    2.02
   6   6   0   -0.29    0.99
  -7  -6   0    1.01    1.02
  -7  -6   0   -3.13    1.89
  -7  -6   0   -3.21    3.24
   7   6   0    3.03    1.18
   7   6   0    2.23    2.51
  -9   7   0    0.35    0.43
  -8   7   0   14.43    1.57
  -7   7   0    0.50    0.29
  -5   7   0    2.14    0.55
  -5   7   0    0.95    0.33
  -5   7   0    1.62    0.24
   4  -7   0    2.28    0.37
   4  -7   0    2.35    0.45
  -4   7   0    2.61    0.48
  -4   7   0    2.58    0.70
  -4   7   0    2.77    0.93
  -4   7   0    2.85    0.41
   3  -7   0    0.31    0.57
   3  -7   0    1.11    0.35
   3  -7   0    1.31    0.45
   3  -7   0    1.24    0.40
   3  -7   0    2.05    0.69
   3  -7   0    0.89    0.46
  -3   7   0    1.57    0.43
  -3   7   0    0.99    0.34
  -3   7   0    0.47    0.61
  -3   7   0    1.21    0.48
  -3   7   0    0.94    0.52
   2  -7   0    4.13    0.59
   2  -7   0    2.34    0.59
   2  -7   0    2.81    0.70
   2  -7   0    4.23    0.76
   2  -7   0    3.27    0.78
  -2   7   0    4.32    0.65
  -2   7   0    2.21    0.99
  -2   7   0    3.17    0.84
  -2   7   0    5.65    0.72
  -2   7   0    4.55    0.71
   1  -7   0   15.94    1.83
   1  -7   0   17.78    1.83
  -1   7   0   18.63    1.93
  -1   7   0   16.58    1.87
  -1   7   0   15.91    2.35
  -1   7   0   14.56    2.16
  -1   7   0   17.25    1.88
   0  -7   0    2.14    0.76
   0  -7   0    1.47    0.46
   0  -7   0    1.15    0.51
   0  -7   0    2.69    0.73
   0  -7   0    0.93    1.01
   0   7   0    2.97    0.61
   0   7   0    1.66    0.87
   0   7   0    3.40    0.62
   0   7   0    3.80    1.18
  -1  -7   0   17.11    2.02
  -1  -7   0   15.61    2.10
  -1  -7   0   13.42    1.75
   1   7   0   18.33    2.51
   1   7   0   14.67    2.27
   1   7   0   14.41    1.81
   1   7   0   15.06    1.70
  -2  -7   0    1.14    0.92
  -2  -7   0    1.44    1.41
   2   7   0    2.12    1.16
   2   7   0    1.88    0.76
   2   7   0    2.04    0.50
   2   7   0    1.72    0.76
   2   7   0    3.09    1.21
  -3  -7   0    0.41    0.95
  -3  -7   0    0.42    1.55
  -3  -7   0    0.12    0.50
  -3  -7   0    1.39    0.63
   3   7   0   -1.98    1.71
   3   7   0    0.14    0.69
   3   7   0    1.60    1.37
   3   7   0    0.30    0.45
   3   7   0    1.04    0.81
  -4  -7   0    7.72    1.56
  -4  -7   0    4.60    1.01
  -4  -7   0    3.86    2.10
   4   7   0    3.44    1.76
   4   7   0    5.23    1.84
   4   7   0    5.20    1.16
  -5  -7   0   12.25    2.29
  -5  -7   0   14.21    2.15
  -5  -7   0    7.23    3.26
   5   7   0   19.89    2.32
   5   7   0   13.15    2.96
  -6  -7   0    5.38    3.49
  -6  -7   0    6.92    2.24
  -6  -7   0    7.40    1.49
   6   7   0    8.34    2.92
   6   7   0   11.16    1.85
  -9   8   0    2.75    0.59
  -8   8   0    1.44    0.48
  -7   8   0    3.21    0.53
  -5   8   0    1.72    0.90
  -5   8   0    2.59    0.40
   4  -8   0    3.76    0.67
   4  -8   0    3.98    0.72
  -4   8   0    5.19    0.70
  -4   8   0    6.24    0.81
  -4   8   0    5.08    1.23
   3  -8   0    0.29    0.60
   3  -8   0    1.32    0.47
   3  -8   0    1.24    0.95
   3  -8   0    2.30    0.49
  -3   8   0    1.47    1.12
  -3   8   0    2.37    0.54
  -3   8   0    2.68    0.71
  -3   8   0    1.78    0.47
   2  -8   0    0.47    0.68
   2  -8   0    1.50    0.85
   2  -8   0   -0.12    1.00
  -2   8   0    2.53    1.36
  -2   8   0    1.17    0.68
  -2   8   0    1.87    0.56
  -2   8   0    3.33    0.66
  -2   8   0    1.83    1.07
   1  -8   0   15.63    2.65
   1  -8   0   24.90    2.43
   1  -8   0   20.13    2.59
  -1   8   0   21.53    2.43
  -1   8   0   20.67    2.84
  -1   8   0   27.23    3.11
  -1   8   0   21.45    2.41
   0  -8   0    1.64    0.95
   0  -8   0    1.54    0.86
   0  -8   0    1.46    0.53
   0  -8   0   -1.59    1.35
   0   8   0    1.82    0.65
   0   8   0    2.51    0.87
   0   8   0    0.59    0.59
   0   8   0    2.93    1.28
   0   8   0    0.72    0.94
  -1  -8   0    4.31    1.30
  -1  -8   0    0.83    1.67
  -1  -8   0    6.37    1.01
   1   8   0    4.25    0.85
   1   8   0    7.00    1.74
   1   8   0    8.59    1.22
   1   8   0    8.31    1.16
   1   8   0    6.38    1.58
  -2  -8   0    9.20    1.47
  -2  -8   0    8.25    1.67
   2   8   0    7.73    1.98
   2   8   0    9.35    1.44
   2   8   0   12.03    1.88
   2   8   0    7.34    1.79
  -3  -8   0   -1.67    1.30
  -3  -8   0    1.92    0.78
  -3  -8   0   -0.39    2.07
   3   8   0    0.50    0.86
   3   8   0    2.00    1.54
  -4  -8   0    0.48    0.96
  -4  -8   0   -0.23    0.95
  -4  -8   0    3.34    1.67
  -4  -8   0   -0.79    2.50
   4   8   0   -1.22    1.81
   4   8   0    1.09    0.97
  -5  -8   0    2.05    1.24
  -5  -8   0    0.19    1.98
  -5  -8   0    1.77    1.22
   5   8   0    4.01    1.37
   5   8   0    1.17    2.44
  -8   9   0    0.96    0.51
  -7   9   0    1.70    0.48
  -5   9   0    0.75    0.30
  -5   9   0    0.06    0.25
  -5   9   0    0.86    0.77
  -5   9   0    0.50    0.91
  -4   9   0   -0.13    0.44
  -4   9   0    1.11    0.89
  -4   9   0    0.51    0.42
  -4   9   0    0.19    1.08
   3  -9   0    1.91    0.67
   3  -9   0    1.72    1.31
   3  -9   0    0.90    0.89
   3  -9   0    1.56    1.22
  -3   9   0    1.36    0.55
  -3   9   0    1.55    1.05
  -3   9   0    1.26    1.32
  -3   9   0    1.81    0.63
   2  -9   0    0.77    0.97
   2  -9   0    2.49    2.24
   2  -9   0    2.68    0.66
   2  -9   0    2.53    1.26
  -2   9   0    2.27    1.44
  -2   9   0    5.09    1.05
  -2   9   0    2.94    0.84
  -2   9   0    4.76    0.81
   1  -9   0    0.58    1.06
   1  -9   0    0.28    0.62
  -1   9   0    1.62    0.68
  -1   9   0    0.61    0.82
  -1   9   0   -0.32    1.45
  -1   9   0   -0.72    1.10
   0  -9   0   -0.05    0.57
   0  -9   0   -0.43    1.20
   0   9   0    0.17    0.70
   0   9   0   -0.22    1.24
  -1  -9   0    7.98    1.34
  -1  -9   0    8.37    1.72
   1   9   0    7.57    1.34
   1   9   0    7.24    1.80
  -2  -9   0   21.27    3.75
  -2  -9   0   22.88    2.89
   2   9   0   26.98    3.03
   2   9   0   22.87    3.79
  -3  -9   0    9.40    2.13
  -3  -9   0    6.24    1.41
   3   9   0    6.77    1.48
   3   9   0    3.36    2.10
  -4  -9   0   -0.39    1.38
  -5  10   0    3.05    1.12
  -4  10   0    2.60    0.64
  -4  10   0    3.28    1.26
   3 -10   0    0.01    0.63
  -3  10   0    0.79    1.29
  -3  10   0   -0.09    0.64
   2 -10   0    0.95    0.72
  -2  10   0    1.72    0.76
  -2  10   0    0.91    1.41
   1 -10   0    1.49    0.77
  -1  10   0    1.71    0.89
  -1  10   0   -0.82    1.45
   0 -10   0    0.89    0.80
   0  10   0    1.79    1.72
   0  10   0    0.16    0.95
  -1 -10   0    1.31    1.00
   1  10   0    0.88    1.75
   1  10   0   -0.18    1.05
  -2 -10   0    3.23    1.33
  -1  11  -1    0.97    2.03
  -1  11  -1    0.32    1.08
   1 -11   1    1.28    0.91
  -2  11  -1    0.19    1.84
  -2  11  -1    0.41    0.93
   2 -11   1    1.06    0.83
  -3  11  -1    7.52    2.11
  -3  11  -1    9.90    1.39
  -4  11  -1    0.41    1.49
  -4  11  -1    0.23    0.66
   2  10  -1    0.76    1.95
   2  10  -1    0.85    1.20
  -2 -10   1    0.55    1.09
   1  10  -1   -1.99    1.68
  -1 -10   1    1.92    0.87
   0  10  -1   -1.26    0.88
   0  10  -1   -1.46    1.48
   0 -10   1   -1.47    0.74
  -1  10  -1    1.63    0.90
  -1  10  -1    3.57    1.53
   1 -10   1    0.58    0.69
  -2  10  -1   -0.18    1.32
  -2  10  -1    0.28    0.74
   2 -10   1   -0.38    0.63
  -3  10  -1    4.32    1.49
  -3  10  -1    3.08    0.76
   3 -10   1    2.90    0.80
  -4  10  -1    2.61    1.31
  -4  10  -1    3.21    0.67
  -5  10  -1   10.46    1.27
  -5  10  -1   14.74    2.18
   4   9  -1    1.00    2.21
   4   9  -1    2.93    1.36
  -4  -9   1    1.30    1.14
  -4  -9   1    3.60    2.08
   3   9  -1   17.54    2.30
   3   9  -1    8.11    2.36
  -3  -9   1   11.69    1.74
   2   9  -1   11.99    1.88
   2   9  -1    7.96    2.03
  -2  -9   1    8.85    1.90
  -2  -9   1    9.63    1.49
   1   9  -1    4.33    1.57
   1   9  -1    3.28    0.98
  -1  -9   1    3.19    2.27
  -1  -9   1    2.66    0.79
  -1  -9   1    5.72    1.46
   0   9  -1    3.56    1.00
   0   9  -1    2.76    2.02
   0   9  -1    1.90    0.79
   0   9  -1    3.59    1.46
   0  -9   1    2.31    1.22
   0  -9   1    3.84    1.81
   0  -9   1    2.43    0.71
  -1   9  -1    0.40    1.56
  -1   9  -1    0.55    0.65
  -1   9  -1   -0.76    1.09
  -1   9  -1   -0.07    0.85
   1  -9   1    1.17    1.05
   1  -9   1    0.07    0.52
   1  -9   1    1.99    1.09
   1  -9   1    0.65    1.53
  -2   9  -1    0.66    1.51
  -2   9  -1   -0.19    1.01
  -2   9  -1   -0.11    0.77
  -2   9  -1    1.02    0.58
   2  -9   1    1.07    0.52
   2  -9   1    0.53    1.01
   2  -9   1   -0.06    1.29
   2  -9   1    1.30    0.94
  -3   9  -1    0.36    0.65
  -3   9  -1    0.11    0.44
  -3   9  -1   -0.20    0.95
   3  -9   1    0.84    0.47
   3  -9   1   -0.32    1.02
   3  -9   1    0.10    1.29
  -4   9  -1    7.15    1.36
  -4   9  -1    6.48    1.70
  -4   9  -1    6.29    0.96
  -4   9  -1    7.42    1.21
  -5   9  -1    0.34    0.82
  -5   9  -1   -0.72    1.23
  -5   9  -1   -0.50    0.27
  -6   9  -1    8.37    1.60
  -8   9  -1    5.64    0.85
   5   8  -1    0.92    2.13
   5   8  -1    4.52    1.30
  -5  -8   1    0.35    3.04
  -5  -8   1    2.63    1.17
  -5  -8   1    0.23    1.90
   4   8  -1   -0.96    1.68
   4   8  -1   -1.48    0.88
  -4  -8   1    1.93    1.57
  -4  -8   1   -1.52    0.86
  -4  -8   1   -2.62    2.51
  -4  -8   1   -1.26    0.79
   3   8  -1    1.45    0.77
   3   8  -1    0.85    1.36
   3   8  -1    2.03    1.23
   3   8  -1    0.05    1.93
  -3  -8   1    1.25    1.33
  -3  -8   1    0.95    0.67
  -3  -8   1    1.72    1.93
   2   8  -1    1.19    1.59
   2   8  -1    1.09    0.93
   2   8  -1    0.37    1.11
   2   8  -1   -0.11    0.65
  -2  -8   1    1.08    0.64
  -2  -8   1   -1.92    1.74
  -2  -8   1   -0.27    1.09
   1   8  -1   16.79    1.91
   1   8  -1   14.14    2.47
   1   8  -1   19.68    3.06
   1   8  -1   17.40    2.09
   1   8  -1   12.61    1.82
  -1  -8   1    9.63    3.15
  -1  -8   1   14.84    2.37
  -1  -8   1   14.07    1.81
   0   8  -1    0.20    0.66
   0   8  -1   -0.28    1.33
   0   8  -1   -0.25    0.57
   0   8  -1   -0.08    1.29
   0  -8   1   -0.44    0.42
   0  -8   1   -1.37    1.22
   0  -8   1   -0.17    0.81
   0  -8   1    0.81    0.77
  -1   8  -1    3.67    0.82
  -1   8  -1    2.50    1.42
  -1   8  -1    2.98    0.72
  -1   8  -1    1.78    1.28
  -1   8  -1    3.33    0.79
   1  -8   1    1.66    1.27
   1  -8   1    4.95    0.95
   1  -8   1    3.87    0.96
   1  -8   1    4.52    1.12
  -2   8  -1    7.45    1.06
  -2   8  -1    6.28    0.96
  -2   8  -1    6.48    0.99
  -2   8  -1    6.90    1.39
  -2   8  -1    5.06    1.52
   2  -8   1    4.15    1.01
   2  -8   1    5.63    0.97
   2  -8   1    8.55    1.32
  -3   8  -1    1.76    0.45
  -3   8  -1    1.55    0.87
  -3   8  -1    1.51    0.62
  -3   8  -1    0.75    0.64
  -3   8  -1    1.95    1.30
   3  -8   1    1.48    0.81
   3  -8   1    0.51    0.79
   3  -8   1    2.24    0.53
  -4   8  -1   -0.13    0.51
  -4   8  -1    0.51    1.10
  -4   8  -1   -0.03    0.28
   4  -8   1   -0.01    0.41
   4  -8   1   -0.57    0.47
  -5   8  -1    0.02    1.07
  -5   8  -1    0.04    0.20
  -5   8  -1    0.35    0.68
  -5   8  -1    0.58    0.52
   5  -8   1    0.01    0.30
  -6   8  -1   29.57    3.19
  -7   8  -1    0.68    0.36
  -8   8  -1    7.11    1.02
  -9   8  -1    1.56    0.54
   6   7  -1   -1.11    2.15
   6   7  -1   -0.32    1.10
  -6  -7   1    0.67    1.04
  -6  -7   1   -3.41    2.93
  -6  -7   1    1.20    1.75
   5   7  -1    4.60    1.95
   5   7  -1    4.25    1.05
  -5  -7   1    4.30    1.03
  -5  -7   1    2.95    1.56
  -5  -7   1    2.46    2.27
   4   7  -1    0.60    0.68
   4   7  -1   -0.23    1.56
  -4  -7   1   -0.29    1.20
  -4  -7   1   -0.18    0.68
  -4  -7   1   -0.05    1.88
   3   7  -1    1.12    1.15
   3   7  -1    1.20    1.40
   3   7  -1   -0.54    0.77
   3   7  -1   -0.27    0.53
  -3  -7   1    1.82    0.99
  -3  -7   1   -1.98    1.34
  -3  -7   1    1.39    0.61
  -3  -7   1    0.73    0.48
   2   7  -1   -0.97    1.10
   2   7  -1    0.84    0.94
   2   7  -1    0.14    0.41
   2   7  -1   -0.91    0.68
   2   7  -1    0.59    0.48
  -2  -7   1   -0.02    0.75
  -2  -7   1    0.13    0.42
  -2  -7   1    0.46    1.38
  -2  -7   1   -1.03    0.74
   1   7  -1    0.03    0.60
   1   7  -1    0.38    0.45
   1   7  -1    0.41    1.05
   1   7  -1   -0.19    0.72
   1   7  -1    0.08    0.42
  -1  -7   1   -0.18    1.33
  -1  -7   1    0.60    0.40
  -1  -7   1   -0.09    0.73
  -1  -7   1    1.44    0.68
  -1  -7   1    0.88    0.72
   0   7  -1    8.38    1.24
   0   7  -1    9.30    1.21
   0   7  -1    8.71    1.63
   0   7  -1   10.20    1.82
   0  -7   1    7.88    1.34
   0  -7   1    7.75    1.12
   0  -7   1   10.68    1.34
  -1   7  -1    4.74    0.73
  -1   7  -1    4.39    0.78
  -1   7  -1    3.88    0.69
  -1   7  -1    3.76    1.20
  -1   7  -1    3.14    0.90
   1  -7   1    3.50    0.61
   1  -7   1    3.76    0.64
   1  -7   1    5.59    0.84
   1  -7   1    2.96    0.84
   1  -7   1    1.76    0.97
  -2   7  -1   14.73    2.32
  -2   7  -1   17.53    1.84
  -2   7  -1   19.74    1.91
  -2   7  -1   15.75    1.78
  -2   7  -1   15.02    2.07
   2  -7   1   17.95    1.77
   2  -7   1   16.91    1.99
   2  -7   1   15.47    1.77
   2  -7   1   13.01    1.86
  -3   7  -1    2.73    0.58
  -3   7  -1    1.50    1.03
  -3   7  -1    0.88    0.48
  -3   7  -1    1.40    0.67
  -3   7  -1    2.24    0.43
   3  -7   1    2.37    0.45
   3  -7   1    2.08    0.62
   3  -7   1    2.62    0.50
   3  -7   1    3.32    0.65
   3  -7   1    0.63    0.63
  -4   7  -1    0.24    0.89
  -4   7  -1   -0.40    0.45
  -4   7  -1    0.02    0.53
  -4   7  -1    0.48    0.22
   4  -7   1    0.64    0.43
   4  -7   1    0.33    0.33
   4  -7   1    0.51    0.35
  -5   7  -1    0.10    0.15
  -5   7  -1   -0.13    0.50
  -5   7  -1    0.62    0.94
  -5   7  -1    0.12    0.49
   5  -7   1    0.27    0.21
   5  -7   1   -0.36    0.27
  -6   7  -1    1.54    0.60
  -6   7  -1    0.88    0.20
  -6   7  -1    0.03    0.94
  -6   7  -1    1.50    0.53
  -7   7  -1   13.07    1.42
  -8   7  -1    3.63    0.55
  -8   7  -1    2.47    0.64
  -9   7  -1    1.80    0.51
   7   6  -1    0.43    1.24
   7   6  -1    5.24    2.45
  -7  -6   1    0.97    0.94
  -7  -6   1    1.78    1.71
  -7  -6   1   -1.70    2.96
   6   6  -1    0.11    1.70
   6   6  -1   -0.13    0.93
  -6  -6   1    0.95    1.34
  -6  -6   1   -0.96    2.20
  -6  -6   1   -1.12    0.75
   5   6  -1    7.70    1.86
   5   6  -1    4.86    1.08
   5   6  -1    4.98    1.72
  -5  -6   1    1.60    1.76
  -5  -6   1    6.74    1.01
   4   6  -1    0.21    1.00
   4   6  -1   -0.76    1.14
   4   6  -1    0.28    0.59
   4   6  -1    0.17    0.37
  -4  -6   1    0.44    0.92
  -4  -6   1    0.99    1.51
  -4  -6   1    0.99    0.98
  -4  -6   1    0.07    0.51
   3   6  -1    2.90    0.70
   3   6  -1    3.36    1.24
   3   6  -1    3.21    0.67
   3   6  -1    2.82    1.04
   3   6  -1    3.45    0.54
  -3  -6   1    5.18    0.73
  -3  -6   1    1.17    1.15
  -3  -6   1    3.16    0.83
  -3  -6   1    4.20    0.93
  -3  -6   1    4.10    0.70
   2   6  -1    2.36    0.48
   2   6  -1    2.53    1.08
   2   6  -1    3.68    0.76
   2   6  -1    2.02    0.80
   2   6  -1    2.01    0.54
  -2  -6   1    2.07    1.00
  -2  -6   1    3.23    0.58
  -2  -6   1    3.92    0.78
  -2  -6   1    1.83    0.72
  -2  -6   1    1.44    0.66
  -2  -6   1    2.67    0.53
   1   6  -1    3.42    0.61
   1   6  -1    3.24    0.84
   1   6  -1    3.33    0.55
   1   6  -1    4.23    1.10
  -1  -6   1    3.34    0.56
  -1  -6   1    2.93    0.55
  -1  -6   1    4.80    0.90
  -1  -6   1    4.66    0.77
  -1  -6   1    1.10    1.01
  -1  -6   1    2.97    0.74
   0   6  -1    1.72    0.63
   0   6  -1    1.59    0.96
   0   6  -1    1.98    0.54
   0   6  -1    2.21    0.47
   0   6  -1    2.16    0.49
   0  -6   1    2.93    0.59
   0  -6   1    1.99    0.46
   0  -6   1    2.28    0.67
   0  -6   1    2.02    0.78
   0  -6   1    1.80    0.60
  -1   6  -1    6.44    0.89
  -1   6  -1    5.88    0.90
  -1   6  -1    6.54    1.19
  -1   6  -1    8.54    1.04
  -1   6  -1    5.76    1.27
   1  -6   1    5.91    0.83
   1  -6   1    7.12    1.11
   1  -6   1    6.45    1.01
   1  -6   1    7.57    0.88
  -2   6  -1    1.23    0.75
  -2   6  -1    0.46    0.50
  -2   6  -1    0.62    0.26
   2  -6   1    0.14    0.39
   2  -6   1    0.21    0.21
   2  -6   1    0.42    0.46
   2  -6   1    0.45    0.29
   2  -6   1    0.66    0.56
   2  -6   1    0.55    0.36
  -3   6  -1    0.43    0.46
  -3   6  -1    1.27    0.43
  -3   6  -1    0.71    0.25
  -3   6  -1    0.26    0.34
  -3   6  -1    1.08    0.73
   3  -6   1    1.00    0.47
   3  -6   1    0.51    0.44
   3  -6   1    0.84    0.32
  -4   6  -1   26.44    2.56
  -4   6  -1   22.55    2.39
  -4   6  -1   23.26    2.54
   4  -6   1   24.34    2.43
   4  -6   1   26.21    2.44
  -5   6  -1   90.42    8.40
  -5   6  -1   83.81    8.52
   5  -6   1   88.91    8.43
  -6   6  -1   15.80    1.86
  -6   6  -1   16.01    1.59
   6  -6   1   16.23    1.59
  -7   6  -1    7.40    0.91
  -7   6  -1    6.06    0.77
  -8   6  -1    0.82    0.54
  -8   6  -1    0.68    0.35
  -8   6  -1    0.13    0.75
  -8   6  -1    0.86    0.31
  -8   6  -1    0.84    1.03
  -9   6  -1    6.82    0.87
  -9   6  -1    4.13    1.43
  -9   6  -1    4.74    1.02
  -9   6  -1    4.56    0.85
 -10   6  -1    0.28    0.66
 -10   6  -1   -0.08    1.09
 -10   6  -1   -0.10    0.51
   8   5  -1    9.54    2.96
   8   5  -1    4.74    1.50
  -8  -5   1    5.66    1.28
  -8  -5   1    6.46    2.13
  -8  -5   1    5.38    2.95
   7   5  -1    3.31    1.89
   7   5  -1    3.09    1.00
  -7  -5   1    3.57    1.51
  -7  -5   1    2.86    0.86
  -7  -5   1    2.39    2.52
   6   5  -1    1.15    0.88
   6   5  -1    1.63    1.35
  -6  -5   1    1.12    1.12
  -6  -5   1    1.04    1.76
  -6  -5   1    3.57    1.19
  -6  -5   1    1.63    0.65
   5   5  -1    0.69    0.85
   5   5  -1   -0.17    0.53
   5   5  -1    1.66    1.20
   5   5  -1    0.49    1.05
  -5  -5   1    0.06    0.85
  -5  -5   1   -0.25    1.40
  -5  -5   1   -0.65    0.82
  -5  -5   1    0.24    0.50
  -5  -5   1   -0.09    0.49
   4   5  -1    1.07    0.55
   4   5  -1    0.73    0.30
   4   5  -1    0.58    0.49
   4   5  -1    0.55    0.79
  -4  -5   1    2.18    0.50
  -4  -5   1   -0.27    0.58
  -4  -5   1    1.57    1.18
  -4  -5   1    1.22    0.76
  -4  -5   1    2.23    0.54
   3   5  -1    5.24    0.82
   3   5  -1    3.67    0.97
   3   5  -1    3.50    1.05
   3   5  -1    4.23    0.61
   3   5  -1    4.56    0.78
  -3  -5   1    3.77    0.63
  -3  -5   1    3.51    0.89
  -3  -5   1    4.88    0.71
  -3  -5   1    3.75    0.87
   2   5  -1   62.59    6.70
   2   5  -1   57.29    6.60
   2   5  -1   63.13    6.29
   2   5  -1   60.08    6.38
   2   5  -1   74.46    6.45
  -2  -5   1   65.32    6.35
  -2  -5   1   65.34    6.50
  -2  -5   1   71.76    6.55
  -2  -5   1   66.11    6.35
   1   5  -1  118.56   12.11
   1   5  -1  114.34   12.38
   1   5  -1  117.86   12.30
   1   5  -1  132.26   12.06
  -1  -5   1  126.14   12.10
  -1  -5   1  144.83   12.28
  -1  -5   1  112.29   12.19
  -1  -5   1  130.39   12.08
  -1  -5   1  132.81   12.10
   0   5  -1    8.07    0.94
   0   5  -1    8.25    0.91
   0   5  -1    5.85    1.09
   0   5  -1    8.22    1.02
   0   5  -1    5.81    1.20
   0  -5   1    7.42    0.88
   0  -5   1    7.95    1.08
   0  -5   1    6.93    1.11
   0  -5   1    9.28    0.92
  -1   5  -1    9.95    1.73
  -1   5  -1   12.62    1.44
  -1   5  -1   12.77    1.43
  -1   5  -1   11.43    1.62
  -1   5  -1   15.01    1.53
  -1   5  -1   16.19    1.47
   1  -5   1   12.71    1.54
   1  -5   1   14.82    1.45
   1  -5   1   14.08    1.57
   1  -5   1   14.72    1.43
  -2   5  -1    9.47    1.05
  -2   5  -1    7.67    1.10
  -2   5  -1    9.39    0.98
  -2   5  -1    5.79    1.19
  -2   5  -1    7.55    0.91
   2  -5   1    7.43    1.05
   2  -5   1    8.45    0.92
   2  -5   1    8.35    0.95
   2  -5   1    9.33    1.02
  -3   5  -1   13.03    1.27
  -3   5  -1   13.24    1.41
  -3   5  -1   12.52    1.35
  -3   5  -1   10.99    1.42
   3  -5   1   11.13    1.39
   3  -5   1   13.00    1.29
   3  -5   1   12.53    1.42
  -4   5  -1    4.24    0.65
  -4   5  -1    3.51    0.44
  -4   5  -1    3.80    0.64
  -4   5  -1    4.09    0.53
   4  -5   1    3.96    0.54
   4  -5   1    3.63    0.64
   4  -5   1    3.77    0.48
   4  -5   1    4.71    0.54
  -5   5  -1    6.63    0.70
  -5   5  -1    6.62    0.96
  -5   5  -1    5.11    0.92
   5  -5   1    6.36    0.78
   5  -5   1    7.61    0.72
  -6   5  -1    1.72    0.70
  -6   5  -1    1.94    0.56
  -6   5  -1    2.41    0.36
  -6   5  -1    2.77    0.40
  -6   5  -1    2.49    0.45
   6  -5   1    1.85    0.32
   6  -5   1    2.44    0.41
  -7   5  -1   -0.18    0.19
  -7   5  -1   -0.09    0.24
  -7   5  -1   -0.35    0.51
  -7   5  -1    0.21    0.37
  -7   5  -1    0.29    0.66
   7  -5   1    0.20    0.33
   7  -5   1    0.28    0.27
  -8   5  -1    0.75    0.38
  -8   5  -1    0.59    0.60
  -8   5  -1    0.96    0.32
  -8   5  -1    0.81    0.86
  -8   5  -1    1.72    0.67
   8  -5   1    1.61    0.48
   8  -5   1    1.18    0.44
  -9   5  -1    1.51    0.86
  -9   5  -1    0.64    0.53
  -9   5  -1    0.07    1.07
  -9   5  -1    1.45    0.39
 -10   5  -1    0.60    1.17
 -10   5  -1    2.30    0.59
 -10   5  -1    1.94    0.75
   9   4  -1    3.36    1.55
  -9  -4   1    1.79    1.83
  -9  -4   1    4.44    3.18
  -9  -4   1    0.75    0.99
   8   4  -1    5.57    2.09
   8   4  -1    3.79    1.12
  -8  -4   1    6.98    1.72
  -8  -4   1    3.92    2.57
  -8  -4   1    6.16    1.09
   7   4  -1   -0.17    1.30
   7   4  -1    0.70    0.84
  -7  -4   1    0.21    0.58
  -7  -4   1    0.07    2.43
  -7  -4   1    1.33    1.07
  -7  -4   1    0.33    1.05
   6   4  -1    0.20    0.63
   6   4  -1    1.07    1.10
   6   4  -1    0.77    0.95
  -6  -4   1    1.11    0.92
  -6  -4   1    0.04    0.44
  -6  -4   1    1.02    0.80
  -6  -4   1    2.41    1.53
   5   4  -1   34.22    3.43
   5   4  -1   32.64    4.00
   5   4  -1   40.68    4.03
   5   4  -1   37.66    3.63
   5   4  -1   32.52    3.60
  -5  -4   1   35.41    3.82
  -5  -4   1   32.94    3.52
  -5  -4   1   35.73    3.56
  -5  -4   1   33.43    3.76
   4   4  -1    0.46    0.39
   4   4  -1    0.32    0.20
   4   4  -1    0.90    0.74
   4   4  -1   -0.11    0.36
   4   4  -1    0.68    0.64
  -4  -4   1    0.41    0.48
  -4  -4   1    0.17    0.44
  -4  -4   1    0.33    0.33
  -4  -4   1    0.58    0.82
  -4  -4   1    0.30    0.39
   3   4  -1    1.13    0.22
   3   4  -1    0.87    0.68
   3   4  -1    0.86    0.57
   3   4  -1    0.58    0.29
   3   4  -1    0.97    0.39
  -3  -4   1    0.71    0.42
  -3  -4   1    0.95    0.33
  -3  -4   1    1.20    0.51
  -3  -4   1   -0.11    0.64
  -3  -4   1    0.22    0.29
   2   4  -1    9.92    1.53
   2   4  -1   11.90    1.25
   2   4  -1   13.96    1.37
   2   4  -1   11.45    1.32
   2   4  -1   10.76    1.66
  -2  -4   1   13.45    1.49
  -2  -4   1   11.92    1.30
  -2  -4   1   12.48    1.30
  -2  -4   1   11.09    1.43
   1   4  -1    4.06    0.54
   1   4  -1    3.48    0.71
   1   4  -1    2.05    0.68
   1   4  -1    3.85    0.61
   1   4  -1    3.72    0.50
  -1  -4   1    3.64    0.51
  -1  -4   1    2.88    0.50
  -1  -4   1    3.82    0.70
  -1  -4   1    2.89    0.60
   0   4  -1   47.12    4.75
   0   4  -1   53.14    4.84
   0   4  -1   53.65    4.79
   0   4  -1   41.46    4.89
   0  -4   1   52.04    4.80
   0  -4   1   49.01    4.86
   0  -4   1   47.02    4.76
  -1   4  -1  155.33   14.54
  -1   4  -1  169.91   14.61
  -1   4  -1  139.03   14.65
   1  -4   1  134.36   14.69
   1  -4   1  155.61   14.53
   1  -4   1  157.75   14.55
   1  -4   1  151.25   14.60
  -2   4  -1    3.95    0.49
  -2   4  -1    4.07    0.62
  -2   4  -1    3.25    0.64
  -2   4  -1    4.46    0.53
  -2   4  -1    2.83    0.66
   2  -4   1    4.63    0.53
   2  -4   1    3.34    0.55
   2  -4   1    4.43    0.49
  -3   4  -1    9.08    0.93
  -3   4  -1   10.89    1.10
  -3   4  -1   10.80    0.97
  -3   4  -1    8.44    1.06
   3  -4   1    8.92    0.96
   3  -4   1    9.19    1.03
   3  -4   1    8.03    1.07
   3  -4   1    8.24    1.01
  -4   4  -1    6.20    0.60
  -4   4  -1    4.98    0.72
  -4   4  -1    5.75    0.78
  -4   4  -1    5.06    0.89
   4  -4   1    5.98    0.66
   4  -4   1    5.83    0.83
  -5   4  -1   -0.16    0.41
  -5   4  -1   -0.59    0.27
  -5   4  -1   -0.04    0.14
  -5   4  -1    0.06    0.12
   5  -4   1   -0.06    0.22
   5  -4   1   -0.05    0.13
   5  -4   1    0.12    0.19
   5  -4   1   -0.18    0.41
  -6   4  -1    2.06    0.32
  -6   4  -1    0.93    0.40
  -6   4  -1    1.53    0.63
  -6   4  -1    2.04    0.41
  -6   4  -1    1.64    0.29
   6  -4   1    1.79    0.43
   6  -4   1    2.41    0.33
   6  -4   1    1.74    0.33
   6  -4   1    1.34    0.60
  -7   4  -1    0.20    0.20
  -7   4  -1   -0.25    0.27
  -7   4  -1    0.21    0.43
  -7   4  -1    0.24    0.39
   7  -4   1    0.05    0.27
   7  -4   1    0.13    0.48
   7  -4   1    0.45    0.70
   7  -4   1    0.25    0.30
  -8   4  -1    1.01    0.33
  -8   4  -1    1.40    0.68
  -8   4  -1    0.27    0.39
  -8   4  -1    0.80    0.53
  -8   4  -1    0.86    1.18
   8  -4   1    1.32    0.44
  -9   4  -1    2.69    0.67
  -9   4  -1    1.20    0.94
  -9   4  -1    3.73    0.55
  -9   4  -1    2.97    1.22
 -10   4  -1    5.60    1.47
 -10   4  -1    3.59    0.70
 -10   4  -1    3.61    0.93
  -9  -3   1    0.29    1.40
  -9  -3   1    5.12    2.57
  -9  -3   1    2.19    0.85
   8   3  -1   -0.64    0.85
   8   3  -1   -1.40    1.46
  -8  -3   1   -0.16    0.84
  -8  -3   1   -0.66    1.07
  -8  -3   1   -0.28    1.01
  -8  -3   1    0.95    1.84
  -8  -3   1   -0.21    0.58
   7   3  -1    1.67    1.22
   7   3  -1    0.69    0.64
  -7  -3   1    2.18    0.58
  -7  -3   1    0.63    0.82
  -7  -3   1    0.44    0.63
  -7  -3   1    1.92    0.94
  -7  -3   1   -0.65    1.39
   6   3  -1   28.93    3.07
   6   3  -1   31.80    3.04
   6   3  -1   22.82    3.40
   6   3  -1   34.47    3.34
  -6  -3   1   26.87    3.19
  -6  -3   1   22.65    3.66
  -6  -3   1   27.33    3.16
  -6  -3   1   32.80    3.27
  -6  -3   1   28.64    2.96
   5   3  -1   12.55    1.64
   5   3  -1   13.21    2.00
   5   3  -1   14.03    1.97
   5   3  -1   16.65    1.69
  -5  -3   1   15.86    1.59
  -5  -3   1   12.62    1.76
  -5  -3   1   15.40    1.95
   4   3  -1    1.43    0.59
   4   3  -1    2.48    0.71
   4   3  -1    1.99    0.42
   4   3  -1    1.37    0.40
   4   3  -1    1.53    0.27
  -4  -3   1    2.22    0.59
  -4  -3   1    1.00    0.35
  -4  -3   1    2.04    0.38
  -4  -3   1    1.38    0.47
  -4  -3   1    1.60    0.79
   3   3  -1   57.59    6.15
   3   3  -1   65.26    6.18
   3   3  -1   64.04    6.38
   3   3  -1   69.74    6.08
   3   3  -1   56.79    6.32
  -3  -3   1   62.07    6.23
  -3  -3   1   70.05    6.15
  -3  -3   1   58.80    6.11
   2   3  -1    9.87    1.43
   2   3  -1   11.28    1.12
   2   3  -1   11.45    1.23
   2   3  -1   10.04    1.35
  -2  -3   1   10.94    1.26
  -2  -3   1   10.94    1.17
  -2  -3   1   10.65    1.29
  -2  -3   1   11.89    1.17
   1   3  -1    3.81    0.45
   1   3  -1    3.51    0.64
   1   3  -1    3.63    0.54
   1   3  -1    3.58    0.48
   1   3  -1    3.41    0.72
  -1  -3   1    2.56    0.67
  -1  -3   1    3.59    0.60
  -1  -3   1    3.39    0.45
  -1  -3   1    3.42    0.58
  -1  -3   1    3.14    0.46
   0   3  -1   74.98    6.49
   0   3  -1   70.46    6.44
   0   3  -1   56.18    6.51
   0   3  -1   68.75    6.42
   0  -3   1   69.18    6.49
   0  -3   1   66.13    6.43
   0  -3   1   68.76    6.52
   0  -3   1   60.65    6.42
  -1   3  -1   69.84    7.18
  -1   3  -1   82.07    7.24
  -1   3  -1   79.31    7.18
  -1   3  -1   67.23    7.26
   1  -3   1   80.11    7.18
   1  -3   1   72.98    7.25
   1  -3   1   74.22    7.22
   1  -3   1   72.47    7.17
  -2   3  -1  309.09   26.81
  -2   3  -1  310.45   26.70
  -2   3  -1  288.87   26.77
  -2   3  -1  257.46   26.70
   2  -3   1  248.04   26.77
   2  -3   1  268.36   26.71
  -3   3  -1    3.90    0.60
  -3   3  -1    5.34    0.64
  -3   3  -1    4.99    0.49
   3  -3   1    4.95    0.53
   3  -3   1    4.45    0.66
  -4   3  -1   84.81    9.32
  -4   3  -1  104.14    9.28
   4  -3   1   92.64    9.39
   4  -3   1  106.09    9.33
  -5   3  -1    0.07    0.20
  -5   3  -1    0.08    0.14
  -5   3  -1    0.46    0.22
  -5   3  -1    0.01    0.12
  -5   3  -1    0.54    0.32
   5  -3   1   -0.16    0.12
   5  -3   1   -0.05    0.24
   5  -3   1    0.03    0.15
   5  -3   1   -0.06    0.34
  -6   3  -1    2.21    0.35
  -6   3  -1    1.75    0.38
  -6   3  -1    2.13    0.48
  -6   3  -1    1.65    0.35
  -6   3  -1    2.08    0.55
   6  -3   1    2.77    0.62
   6  -3   1    2.07    0.35
   6  -3   1    1.73    0.31
   6  -3   1    1.68    0.47
  -7   3  -1    1.68    0.59
  -7   3  -1    1.64    0.34
  -7   3  -1    1.60    0.41
  -7   3  -1    1.47    0.38
  -7   3  -1    1.26    0.57
   7  -3   1    1.49    0.76
   7  -3   1    1.61    0.40
   7  -3   1    1.72    0.33
   7  -3   1    1.56    0.57
  -8   3  -1   -0.12    0.27
  -8   3  -1    0.20    0.44
  -8   3  -1   -0.33    0.69
  -8   3  -1    0.81    0.46
  -8   3  -1    0.44    0.66
   8  -3   1    0.11    0.41
   8  -3   1    0.80    0.79
  -9   3  -1    7.93    1.34
  -9   3  -1    6.40    1.59
  -9   3  -1   10.95    1.17
  -9   3  -1    9.50    1.85
   9  -3   1    9.29    1.42
 -10   3  -1    2.33    0.59
 -10   3  -1    1.11    0.84
 -10   3  -1    1.48    1.41
 -10  -2   1    0.32    2.55
 -10  -2   1   -0.34    1.55
 -10  -2   1    0.79    0.96
   9   2  -1    0.92    0.90
  -9  -2   1    1.30    1.83
  -9  -2   1    0.38    0.67
  -9  -2   1   -1.44    1.06
   8   2  -1    0.07    1.31
   8   2  -1    0.00    0.74
  -8  -2   1    0.72    0.70
  -8  -2   1   -0.39    0.94
  -8  -2   1    2.31    1.60
  -8  -2   1   -0.08    0.49
  -8  -2   1    0.03    0.86
   7   2  -1    2.64    0.73
   7   2  -1    2.71    1.08
  -7  -2   1    2.49    0.62
  -7  -2   1    3.17    0.87
  -7  -2   1    2.75    1.33
  -7  -2   1    2.84    0.83
  -7  -2   1    3.29    0.58
   6   2  -1    5.77    0.99
   6   2  -1    7.93    1.08
   6   2  -1    5.95    1.25
   6   2  -1    5.92    1.21
   6   2  -1    8.52    0.82
  -6  -2   1    4.06    1.36
  -6  -2   1    8.04    1.27
  -6  -2   1    7.10    1.18
  -6  -2   1    6.66    0.96
  -6  -2   1    7.34    0.92
   5   2  -1   11.24    1.38
   5   2  -1   13.25    1.27
   5   2  -1   11.67    1.42
   5   2  -1   12.56    1.78
   5   2  -1   15.32    1.65
  -5  -2   1   12.25    1.53
  -5  -2   1   13.33    1.57
  -5  -2   1   12.36    1.33
  -5  -2   1    8.17    1.79
   4   2  -1   18.23    1.98
   4   2  -1   20.95    1.89
   4   2  -1   18.03    2.16
   4   2  -1   18.21    2.21
   4   2  -1   17.77    1.98
  -4  -2   1   18.00    2.08
  -4  -2   1   22.36    1.94
  -4  -2   1   18.93    2.07
  -4  -2   1   18.37    1.95
   3   2  -1  217.01   21.45
   3   2  -1  230.03   21.30
   3   2  -1  206.78   21.52
   3   2  -1  216.09   21.29
   3   2  -1  212.08   21.22
  -3  -2   1  219.54   21.34
  -3  -2   1  236.56   21.25
  -3  -2   1  211.89   21.27
  -3  -2   1  253.26   21.40
   2   2  -1   23.00    2.91
   2   2  -1   24.57    2.72
   2   2  -1   30.14    2.68
   2   2  -1   31.75    2.77
   2   2  -1   23.17    2.86
  -2  -2   1   29.09    2.78
  -2  -2   1   29.89    2.73
  -2  -2   1   27.04    2.81
  -2  -2   1   29.08    2.70
   1   2  -1   82.19    8.64
   1   2  -1   98.43    8.54
   1   2  -1   91.45    8.60
   1   2  -1   85.77    8.57
  -1  -2   1   92.92    8.61
  -1  -2   1   87.10    8.56
  -1  -2   1   87.09    8.63
   0   2  -1   33.71    3.20
   0   2  -1   29.60    3.26
   0   2  -1   34.51    3.19
   0   2  -1   35.34    3.24
   0  -2   1   32.00    3.19
   0  -2   1   30.81    3.25
   0  -2   1   35.40    3.24
  -1   2  -1   17.92    1.62
  -1   2  -1   17.42    1.57
  -1   2  -1   13.33    1.67
  -1   2  -1   14.36    1.57
   1  -2   1   16.66    1.57
   1  -2   1   14.97    1.62
   1  -2   1   17.00    1.60
  -2   2  -1   19.43    2.01
  -2   2  -1   18.95    2.05
   2  -2   1   21.20    2.10
   2  -2   1   18.88    2.02
   2  -2   1   23.28    2.04
   2  -2   1   23.92    2.08
  -3   2  -1    3.61    0.38
  -3   2  -1    3.37    0.42
  -3   2  -1    3.03    0.51
   3  -2   1    4.04    0.40
   3  -2   1    3.85    0.46
   3  -2   1    2.96    0.38
  -4   2  -1    0.39    0.23
  -4   2  -1    0.26    0.14
  -4   2  -1    0.83    0.16
  -4   2  -1    0.28    0.18
  -4   2  -1    0.40    0.14
   4  -2   1    0.43    0.20
   4  -2   1    0.21    0.13
   4  -2   1    1.26    0.36
  -5   2  -1  139.96   14.43
  -5   2  -1  146.86   14.53
  -5   2  -1  168.80   14.45
  -5   2  -1  169.11   14.43
   5  -2   1  147.56   14.43
   5  -2   1  141.69   14.51
   5  -2   1  142.07   14.40
  -6   2  -1   38.61    3.35
  -6   2  -1   31.91    3.50
  -6   2  -1   40.04    3.49
  -6   2  -1   30.11    3.34
   6  -2   1   32.96    3.28
   6  -2   1   30.90    3.33
   6  -2   1   31.63    3.46
  -7   2  -1   17.69    2.32
  -7   2  -1   19.57    2.08
  -7   2  -1   18.19    2.02
  -7   2  -1   17.03    2.17
  -7   2  -1   21.34    1.98
   7  -2   1   17.61    2.23
   7  -2   1   22.17    1.96
  -8   2  -1    1.09    0.86
  -8   2  -1    2.40    0.66
  -8   2  -1    1.92    0.42
  -8   2  -1    1.59    0.51
  -8   2  -1    3.54    0.81
   8  -2   1    1.80    0.60
   8  -2   1    2.87    0.97
  -9   2  -1    2.71    0.49
  -9   2  -1    1.85    1.09
  -9   2  -1    1.68    1.21
  -9   2  -1    0.97    0.70
   9  -2   1    1.80    0.75
 -10   2  -1    0.41    0.49
 -10   2  -1    1.01    0.88
 -10   2  -1    1.42    1.55
 -10  -1   1    3.80    0.85
 -10  -1   1    0.30    2.08
 -10  -1   1    2.84    1.37
   9   1  -1    5.17    1.11
  -9  -1   1    7.02    1.01
  -9  -1   1    5.51    1.25
  -9  -1   1    5.52    1.98
   8   1  -1   10.21    1.54
   8   1  -1   11.26    1.91
  -8  -1   1   11.93    1.37
  -8  -1   1   10.66    1.72
  -8  -1   1    9.53    1.66
  -8  -1   1   13.26    1.48
  -8  -1   1    6.60    1.86
   7   1  -1   12.82    1.54
   7   1  -1    8.82    1.69
   7   1  -1    9.99    1.43
  -7  -1   1   11.64    1.63
  -7  -1   1   14.48    1.41
  -7  -1   1   11.23    1.58
  -7  -1   1   10.58    1.31
   6   1  -1    3.21    0.52
   6   1  -1    3.42    0.67
   6   1  -1    2.64    0.43
   6   1  -1    1.82    0.48
   6   1  -1    2.48    0.77
  -6  -1   1    2.05    0.85
  -6  -1   1    4.01    0.76
  -6  -1   1    3.03    0.46
  -6  -1   1    1.92    0.57
  -6  -1   1    3.74    0.53
   5   1  -1   18.34    2.32
   5   1  -1   22.43    2.05
   5   1  -1   21.24    2.12
   5   1  -1   20.51    2.24
   5   1  -1   20.06    2.15
  -5  -1   1   20.13    2.21
  -5  -1   1   17.23    2.41
  -5  -1   1   22.75    2.26
  -5  -1   1   19.32    2.09
  -5  -1   1   22.91    2.08
   4   1  -1   91.89    8.05
   4   1  -1   83.94    8.05
   4   1  -1   74.64    7.97
   4   1  -1   80.22    8.18
   4   1  -1   87.49    8.18
  -4  -1   1   79.47    8.09
  -4  -1   1   93.07    8.00
  -4  -1   1   81.80    8.12
  -4  -1   1   77.93    8.02
   3   1  -1    0.88    0.30
   3   1  -1    0.42    0.12
   3   1  -1    0.89    0.32
   3   1  -1    0.64    0.19
   3   1  -1    0.69    0.23
  -3  -1   1    0.52    0.33
  -3  -1   1    1.01    0.15
  -3  -1   1    1.24    0.31
  -3  -1   1    0.70    0.19
  -3  -1   1    0.68    0.22
   2   1  -1  588.68   57.75
   2   1  -1  598.28   57.83
   2   1  -1  549.27   57.85
   2   1  -1  635.33   57.77
  -2  -1   1  649.37   57.83
  -2  -1   1  619.24   57.78
   1   1  -1  354.22   31.76
   1   1  -1  324.57   31.73
   1   1  -1  311.98   31.71
   1   1  -1  321.07   31.78
  -1  -1   1  367.97   31.76
  -1  -1   1  316.30   31.73
  -1  -1   1  342.44   31.78
  -1  -1   1  327.85   31.71
   0   1  -1  158.60   15.22
   0   1  -1  173.27   15.25
   0   1  -1  165.17   15.21
   0   1  -1  142.87   15.28
   0  -1   1  156.28   15.22
   0  -1   1  149.68   15.26
   0  -1   1  173.16   15.33
  -1   1  -1   80.12    7.58
  -1   1  -1   77.59    7.55
   1  -1   1   77.24    7.56
   1  -1   1   82.10    7.57
  -2   1  -1   32.76    2.79
  -2   1  -1   28.29    2.74
  -2   1  -1   29.98    2.73
  -2   1  -1   26.62    2.72
   2  -1   1   26.78    2.72
   2  -1   1   25.26    2.71
  -3   1  -1   55.89    5.16
  -3   1  -1   51.02    5.10
  -3   1  -1   49.59    5.08
  -3   1  -1   55.48    5.16
  -3   1  -1   57.83    5.11
   3  -1   1   48.26    5.09
  -4   1  -1    2.52    0.44
  -4   1  -1    2.36    0.38
  -4   1  -1    1.85    0.43
  -4   1  -1    2.42    0.34
   4  -1   1    2.48    0.32
   4  -1   1    1.78    0.33
  -5   1  -1    7.23    0.90
  -5   1  -1    6.48    0.81
  -5   1  -1    8.76    0.87
  -5   1  -1    8.51    1.11
   5  -1   1    7.32    0.96
   5  -1   1    7.13    1.01
   5  -1   1    8.34    0.84
  -6   1  -1    4.28    0.65
  -6   1  -1    3.34    0.60
  -6   1  -1    3.64    0.81
  -6   1  -1    3.31    0.50
  -6   1  -1    4.06    0.77
   6  -1   1    3.14    0.56
   6  -1   1    3.53    0.52
   6  -1   1    3.50    0.72
  -7   1  -1   47.69    4.24
  -7   1  -1   38.91    4.57
  -7   1  -1   41.41    4.30
  -7   1  -1   48.57    4.42
   7  -1   1   40.72    4.26
   7  -1   1   37.43    4.43
  -8   1  -1   24.67    2.11
  -8   1  -1   19.91    2.28
  -8   1  -1   19.99    2.29
  -8   1  -1   16.16    2.74
   8  -1   1   16.07    2.22
  -9   1  -1    4.26    0.68
  -9   1  -1    2.39    1.47
  -9   1  -1    4.21    0.98
   9  -1   1    4.46    0.99
 -10   1  -1    1.77    1.02
 -10   1  -1   -0.42    1.74
 -10   1  -1    1.75    0.62
 -10   0   1    2.23    1.09
 -10   0   1   -2.51    1.65
 -10   0   1    1.94    0.73
   9   0  -1    0.32    0.72
  -9   0   1    0.51    0.47
  -9   0   1    0.54    0.90
  -9   0   1    3.01    1.34
  -9   0   1   -0.21    0.62
  -9   0   1   -0.44    0.74
   8   0  -1   -0.84    1.02
   8   0  -1    1.34    0.61
  -8   0   1    0.64    0.65
  -8   0   1    0.78    0.98
  -8   0   1    0.30    0.39
  -8   0   1    0.50    0.43
   7   0  -1   14.86    1.93
   7   0  -1   17.38    1.85
  -7   0   1   18.99    1.85
  -7   0   1   14.28    1.99
  -7   0   1   19.48    2.06
  -7   0   1   20.04    1.89
   6   0  -1   24.70    2.70
   6   0  -1   30.22    2.73
   6   0  -1   29.59    2.61
   6   0  -1   23.98    2.63
  -6   0   1   23.20    2.64
  -6   0   1   24.73    2.74
  -6   0   1   23.34    2.77
  -6   0   1   30.76    2.64
   5   0  -1   12.47    1.22
   5   0  -1   11.59    1.31
   5   0  -1   10.73    1.31
   5   0  -1   12.35    1.26
  -5   0   1    9.62    1.32
  -5   0   1   12.15    1.24
  -5   0   1   12.58    1.26
  -5   0   1   14.08    1.40
   4   0  -1   -0.12    0.15
   4   0  -1    0.01    0.16
   4   0  -1    0.54    0.38
  -4   0   1   -0.09    0.19
  -4   0   1    0.13    0.33
  -4   0   1   -0.04    0.12
  -4   0   1   -0.03    0.10
  -4   0   1    0.14    0.18
   3   0  -1    0.35    0.12
   3   0  -1    0.12    0.17
   3   0  -1    0.21    0.12
  -3   0   1    0.24    0.16
  -3   0   1    0.19    0.11
  -3   0   1    0.36    0.09
  -3   0   1    0.30    0.25
  -3   0   1    0.22    0.16
   2   0  -1  119.97   10.91
   2   0  -1  107.11   10.89
   2   0  -1  118.26   10.97
  -2   0   1  126.58   10.91
  -2   0   1  101.96   10.98
  -2   0   1  115.43   10.95
  -2   0   1  110.41   10.92
   1   0  -1   80.90    8.89
   1   0  -1  101.64    8.92
  -1   0   1   88.75    8.93
  -1   0   1   92.00    8.90
  -1   0   1  103.98    8.92
  -1   0  -1   25.45    2.41
  -1   0  -1   20.81    2.39
  -1   0  -1   22.29    2.36
  -1   0  -1   26.81    2.42
  -1   0  -1   24.13    2.38
   1   0   1   23.56    2.36
   1   0   1   27.57    2.42
   1   0   1   26.97    2.40
   1   0   1   25.09    2.38
  -2   0  -1  150.93   15.68
  -2   0  -1  173.05   15.66
  -2   0  -1  153.10   15.62
  -2   0  -1  167.67   15.59
  -2   0  -1  162.40   15.61
   2   0   1  165.00   15.61
   2   0   1  161.37   15.61
   2   0   1  172.44   15.64
   2   0   1  170.06   15.67
   2   0   1  160.07   15.59
  -3   0  -1   53.49    5.67
  -3   0  -1   53.12    5.76
  -3   0  -1   57.18    5.62
  -3   0  -1   58.86    5.65
  -3   0  -1   62.55    5.72
   3   0   1   62.31    5.62
   3   0   1   62.32    5.69
   3   0   1   55.57    5.73
   3   0   1   61.75    5.65
  -4   0  -1    9.14    1.23
  -4   0  -1    8.18    1.05
  -4   0  -1   10.24    1.10
  -4   0  -1    8.25    0.96
  -4   0  -1    9.51    1.00
   4   0   1    9.75    1.05
   4   0   1    9.80    0.96
   4   0   1    9.19    0.99
   4   0   1    8.57    1.13
   4   0   1   11.16    1.06
  -5   0  -1    8.23    1.19
  -5   0  -1   10.26    1.11
  -5   0  -1   10.85    1.24
  -5   0  -1    8.45    1.44
  -5   0  -1    8.83    1.06
   5   0   1    8.86    1.16
   5   0   1   12.20    1.19
   5   0   1   11.94    1.12
   5   0   1   11.25    1.07
   5   0   1   10.01    1.33
  -6   0  -1    0.47    0.42
  -6   0  -1    1.03    0.26
  -6   0  -1    0.53    0.41
  -6   0  -1   -0.41    0.62
   6   0   1    0.73    0.30
   6   0   1    0.73    0.23
   6   0   1    0.99    0.38
   6   0   1    1.13    0.37
   6   0   1    1.18    0.56
  -7   0  -1   30.21    3.15
  -7   0  -1   35.24    3.37
  -7   0  -1   29.74    3.77
   7   0   1   30.43    3.58
   7   0   1   32.57    3.29
  -8   0  -1   21.44    2.11
  -8   0  -1   16.30    2.96
  -8   0  -1   19.73    2.37
  -8   0  -1   20.72    2.22
   8   0   1   19.56    2.31
   8   0   1   17.97    2.78
  -9   0  -1    3.25    1.67
  -9   0  -1    1.92    1.03
  -9   0  -1    4.87    0.75
   9   0   1    4.16    1.01
 -10   0  -1    4.36    2.17
 -10   0  -1    2.60    1.30
 -10   0  -1    2.22    0.78
 -11   1   1   -2.99    2.04
 -11   1   1    1.76    1.27
 -11   1   1   -1.74    0.81
 -10   1   1    0.85    1.45
 -10   1   1    0.39    0.95
 -10   1   1    1.01    0.57
   9  -1  -1   -0.22    0.70
   9  -1  -1    0.54    1.22
  -9   1   1   -0.14    1.09
  -9   1   1    1.43    0.54
  -9   1   1    0.75    0.70
  -9   1   1    1.44    0.46
  -9   1   1    0.99    0.79
   8  -1  -1   -0.36    0.85
   8  -1  -1   -0.09    0.50
  -8   1   1    0.51    0.36
  -8   1   1   -0.04    0.52
  -8   1   1   -0.04    0.35
  -8   1   1    0.32    0.53
   7  -1  -1   12.83    1.57
   7  -1  -1   15.79    1.47
   7  -1  -1   11.64    1.84
  -7   1   1   13.29    1.62
  -7   1   1   13.28    1.48
  -7   1   1   14.98    1.49
  -7   1   1   17.27    1.67
  -7   1   1   10.55    1.89
   6  -1  -1    2.61    0.37
   6  -1  -1    2.51    0.45
   6  -1  -1    1.61    0.59
   6  -1  -1    1.43    0.39
  -6   1   1    2.45    0.70
  -6   1   1    2.93    0.54
  -6   1   1    3.64    0.42
  -6   1   1    1.69    0.45
  -6   1   1    2.66    0.44
   5  -1  -1    5.25    0.60
   5  -1  -1    4.64    0.64
   5  -1  -1    5.99    0.64
   5  -1  -1    5.72    0.59
   5  -1  -1    4.63    0.82
  -5   1   1    5.39    0.70
  -5   1   1    5.89    0.62
  -5   1   1    4.34    0.69
   4  -1  -1   16.04    1.78
   4  -1  -1   18.90    1.68
   4  -1  -1   17.08    1.68
  -4   1   1   17.94    1.75
  -4   1   1   14.67    1.71
  -4   1   1   17.95    1.69
  -4   1   1   13.95    1.80
  -4   1   1   19.43    1.69
   3  -1  -1    9.27    1.03
   3  -1  -1   10.64    0.97
  -3   1   1    8.53    1.04
  -3   1   1    9.82    0.99
  -3   1   1   10.14    0.96
  -3   1   1    9.81    1.00
   2  -1  -1    0.10    0.04
   2  -1  -1    0.08    0.04
  -2   1   1   -0.01    0.10
  -2   1   1    0.11    0.05
  -2   1   1   -0.03    0.06
  -2   1   1    0.15    0.04
   1  -1  -1    2.43    0.30
   1  -1  -1    2.77    0.28
   1  -1  -1    2.87    0.28
  -1   1   1    3.30    0.28
  -1   1   1    2.78    0.31
  -1   1   1    2.50    0.33
   0  -1  -1    0.34    0.07
   0  -1  -1    0.45    0.08
   0  -1  -1    0.41    0.12
   0  -1  -1    0.41    0.09
   0  -1  -1    0.43    0.11
   0   1   1    0.40    0.08
   0   1   1    0.46    0.11
   0   1   1    0.50    0.07
   0   1   1    0.28    0.07
   0   1   1    0.35    0.10
   0   1   1    0.37    0.11
  -2  -1  -1   18.92    1.90
  -2  -1  -1   22.75    1.95
  -2  -1  -1   18.29    1.97
  -2  -1  -1   17.56    2.08
   2   1   1   20.24    2.02
   2   1   1   21.74    1.97
   2   1   1   18.01    1.90
   2   1   1   19.33    1.94
   2   1   1   19.97    2.04
  -3  -1  -1  161.89   16.23
  -3  -1  -1  174.28   16.32
  -3  -1  -1  148.51   16.44
  -3  -1  -1  179.06   16.27
  -3  -1  -1  173.44   16.35
   3   1   1  176.16   16.35
   3   1   1  178.85   16.28
   3   1   1  169.63   16.29
   3   1   1  169.28   16.23
  -4  -1  -1    1.22    0.23
  -4  -1  -1    2.11    0.43
  -4  -1  -1    1.33    0.58
  -4  -1  -1    1.95    0.44
   4   1   1    1.92    0.53
   4   1   1    1.19    0.35
   4   1   1    1.26    0.22
   4   1   1    1.19    0.33
   4   1   1    1.54    0.28
  -5  -1  -1    2.63    0.58
  -5  -1  -1    2.21    0.42
  -5  -1  -1    2.40    0.76
  -5  -1  -1    2.16    0.50
  -5  -1  -1    2.80    0.41
   5   1   1    3.29    0.60
   5   1   1    1.99    0.46
   5   1   1    2.87    0.75
   5   1   1    1.95    0.33
   5   1   1    2.61    0.43
  -6  -1  -1    6.82    1.45
  -6  -1  -1    8.43    1.19
  -6  -1  -1    7.80    1.18
  -6  -1  -1    9.36    1.12
  -6  -1  -1    7.20    0.90
   6   1   1    8.10    1.00
   6   1   1    9.62    1.13
   6   1   1    6.45    0.85
   6   1   1    7.20    1.09
   6   1   1    5.80    1.24
  -7  -1  -1    6.97    1.24
  -7  -1  -1    7.37    0.97
  -7  -1  -1    6.67    1.75
  -7  -1  -1    8.80    1.37
  -7  -1  -1    9.75    1.12
   7   1   1    5.61    1.06
   7   1   1    7.49    1.52
  -8  -1  -1    1.59    1.07
  -8  -1  -1    2.04    0.90
  -8  -1  -1    1.82    1.43
  -8  -1  -1    1.88    0.71
   8   1   1    1.57    0.79
   8   1   1    1.10    1.26
  -9  -1  -1    0.95    1.87
  -9  -1  -1    0.26    0.55
  -9  -1  -1    2.11    1.07
   9   1   1    0.18    0.93
 -10  -1  -1    0.51    1.37
 -10  -1  -1   -0.25    2.48
 -10  -1  -1    0.14    0.80
 -11   2   1    1.89    1.99
 -11   2   1    6.03    0.96
 -11   2   1    3.66    1.30
 -10   2   1    0.40    0.51
 -10   2   1    2.83    0.88
 -10   2   1    0.42    1.35
   9  -2  -1    6.52    0.97
   9  -2  -1    3.86    1.41
  -9   2   1    5.75    1.03
  -9   2   1    5.68    0.92
  -9   2   1    6.48    0.90
  -9   2   1    6.97    1.18
   8  -2  -1    0.71    0.24
   8  -2  -1    0.56    0.42
   8  -2  -1    0.46    0.82
  -8   2   1   -0.47    0.48
  -8   2   1   -0.10    0.27
  -8   2   1    0.03    0.49
  -8   2   1    0.25    0.32
  -8   2   1    1.02    0.86
   7  -2  -1    0.96    0.59
   7  -2  -1    0.27    0.18
   7  -2  -1    1.05    0.33
   7  -2  -1    2.09    0.62
  -7   2   1    0.35    0.36
  -7   2   1    0.44    0.24
  -7   2   1   -0.15    0.54
  -7   2   1    0.37    0.23
  -7   2   1    0.42    0.36
   6  -2  -1    6.56    0.67
   6  -2  -1    6.29    1.01
  -6   2   1    8.15    0.86
  -6   2   1    6.61    0.74
  -6   2   1    5.62    0.81
  -6   2   1    4.51    0.94
   5  -2  -1    3.47    0.64
   5  -2  -1    3.39    0.46
   5  -2  -1    3.75    0.39
  -5   2   1    3.27    0.44
  -5   2   1    4.60    0.44
  -5   2   1    2.65    0.50
  -5   2   1    4.68    0.53
  -5   2   1    2.52    0.56
   4  -2  -1   34.16    3.26
   4  -2  -1   34.03    3.24
  -4   2   1   32.77    3.28
  -4   2   1   39.05    3.28
  -4   2   1   29.38    3.32
  -3   2   1   56.62    5.17
  -3   2   1   51.47    5.18
  -2   2   1    2.91    0.34
  -2   2   1    2.40    0.37
   1  -2  -1   14.59    1.41
   1  -2  -1   14.29    1.47
  -1   2   1   13.68    1.45
  -1   2   1   15.25    1.42
  -1   2   1   14.54    1.42
  -1   2   1   17.35    1.49
  -1   2   1   12.53    1.46
   0  -2  -1   73.31    6.25
   0  -2  -1   61.06    6.22
   0  -2  -1   73.24    6.21
   0  -2  -1   70.16    6.22
   0  -2  -1   54.69    6.19
   0  -2  -1   59.80    6.25
   0   2   1   67.69    6.22
   0   2   1   59.68    6.28
   0   2   1   65.12    6.21
   0   2   1   58.84    6.19
   0   2   1   69.90    6.26
   0   2   1   63.96    6.27
  -1  -2  -1    4.62    0.53
  -1  -2  -1    3.91    0.55
  -1  -2  -1    3.45    0.50
  -1  -2  -1    3.05    0.44
  -1  -2  -1    3.07    0.64
  -1  -2  -1    3.88    0.44
   1   2   1    4.02    0.47
   1   2   1    3.57    0.40
   1   2   1    4.01    0.46
   1   2   1    3.42    0.56
  -2  -2  -1   34.07    3.46
  -2  -2  -1   41.71    3.60
  -2  -2  -1   35.83    3.55
  -2  -2  -1   29.69    3.69
   2   2   1   35.55    3.52
   2   2   1   37.33    3.51
   2   2   1   36.65    3.62
   2   2   1   35.17    3.45
  -3  -2  -1  207.00   19.58
  -3  -2  -1  207.88   19.45
  -3  -2  -1  201.95   19.56
  -3  -2  -1  183.88   19.74
   3   2   1  198.67   19.66
   3   2   1  212.50   19.62
   3   2   1  208.21   19.50
   3   2   1  209.39   19.52
  -4  -2  -1    5.20    1.19
  -4  -2  -1    7.17    1.00
  -4  -2  -1    8.24    0.85
  -4  -2  -1    6.51    1.00
  -4  -2  -1    6.62    0.79
   4   2   1    6.51    0.91
   4   2   1    6.37    1.16
   4   2   1    6.73    0.86
   4   2   1    7.65    1.02
   4   2   1    7.59    0.76
  -5  -2  -1    0.96    0.79
  -5  -2  -1    0.29    0.23
  -5  -2  -1    0.00    0.41
  -5  -2  -1   -0.16    0.29
   5   2   1   -0.59    0.60
   5   2   1    0.15    0.31
   5   2   1   -0.09    0.32
   5   2   1   -0.10    0.43
   5   2   1    0.06    0.17
  -6  -2  -1   -0.16    0.54
  -6  -2  -1    0.10    0.30
  -6  -2  -1    0.66    0.53
  -6  -2  -1    0.78    0.58
  -6  -2  -1    0.54    1.08
   6   2   1    0.41    0.52
   6   2   1    0.49    0.50
   6   2   1    0.55    0.80
   6   2   1    0.24    0.26
   6   2   1    0.63    0.43
  -7  -2  -1    1.39    1.37
  -7  -2  -1    0.20    0.51
  -7  -2  -1    0.68    0.74
  -7  -2  -1    0.38    0.77
   7   2   1    0.46    0.65
   7   2   1    0.79    1.05
  -8  -2  -1    1.60    1.74
  -8  -2  -1   -0.36    0.91
  -8  -2  -1    1.01    1.13
  -8  -2  -1    0.33    0.51
  -8  -2  -1   -0.19    0.70
   8   2   1    1.26    0.79
   8   2   1    0.99    1.44
  -9  -2  -1   -0.39    1.22
  -9  -2  -1   -0.40    0.65
  -9  -2  -1   -0.77    2.19
 -11   3   1   -0.03    0.66
 -11   3   1   -0.62    1.64
 -11   3   1   -0.57    1.00
 -10   3   1    0.75    0.51
 -10   3   1    0.27    0.77
 -10   3   1    0.23    1.23
   9  -3  -1   -0.70    0.54
   9  -3  -1    0.36    1.07
  -9   3   1    0.66    0.35
  -9   3   1    0.10    0.45
  -9   3   1    0.41    0.92
  -9   3   1   -0.15    0.68
   8  -3  -1   52.20    4.97
   8  -3  -1   46.75    5.13
   8  -3  -1   48.25    4.88
  -8   3   1   51.88    4.95
  -8   3   1   51.07    4.95
  -8   3   1   48.12    5.00
  -8   3   1   56.01    5.12
   7  -3  -1   35.76    3.33
   7  -3  -1   34.19    3.38
  -7   3   1   36.27    3.38
  -7   3   1   31.76    3.41
  -7   3   1   36.86    3.50
  -7   3   1   31.24    3.37
   6  -3  -1    0.42    0.22
   6  -3  -1    0.41    0.14
  -6   3   1    0.41    0.36
  -6   3   1    0.08    0.18
  -6   3   1    0.36    0.19
  -6   3   1    0.33    0.24
  -6   3   1    0.50    0.31
   5  -3  -1    5.30    0.59
   5  -3  -1    5.79    0.57
  -5   3   1    5.02    0.70
  -5   3   1    6.62    0.62
  -5   3   1    5.80    0.73
  -5   3   1    5.35    0.62
  -5   3   1    4.82    0.61
  -4   3   1   17.52    1.60
  -4   3   1   14.58    1.66
  -3   3   1    0.11    0.19
  -3   3   1    0.31    0.16
   2  -3  -1    4.23    0.56
   2  -3  -1    3.18    0.44
   2  -3  -1    4.19    0.47
   2  -3  -1    4.32    0.39
  -2   3   1    3.54    0.41
  -2   3   1    4.37    0.54
  -2   3   1    3.45    0.42
  -2   3   1    3.26    0.46
  -2   3   1    3.18    0.49
   1  -3  -1   35.14    3.00
   1  -3  -1   26.76    2.98
   1  -3  -1   33.26    2.95
  -1   3   1   31.07    2.96
  -1   3   1   26.62    3.04
  -1   3   1   28.73    2.96
  -1   3   1   35.22    3.00
  -1   3   1   28.21    3.02
  -1   3   1   29.43    3.02
   0  -3  -1   41.59    4.50
   0  -3  -1   42.07    4.47
   0  -3  -1   50.64    4.46
   0   3   1   47.68    4.48
   0   3   1   51.12    4.48
   0   3   1   47.40    4.44
   0   3   1   44.65    4.56
   0   3   1   43.59    4.58
  -1  -3  -1    0.29    0.22
  -1  -3  -1   -0.02    0.22
  -1  -3  -1    0.19    0.16
  -1  -3  -1    0.39    0.26
  -1  -3  -1    0.04    0.36
  -1  -3  -1   -0.01    0.22
   1   3   1    0.33    0.29
   1   3   1    0.14    0.17
   1   3   1    0.02    0.16
   1   3   1    0.26    0.12
   1   3   1    0.26    0.27
  -2  -3  -1    0.91    0.24
  -2  -3  -1    1.16    0.28
  -2  -3  -1    0.67    0.33
  -2  -3  -1    0.69    0.55
   2   3   1    0.95    0.18
   2   3   1    0.84    0.23
   2   3   1    0.87    0.27
   2   3   1    0.54    0.35
   2   3   1    0.74    0.37
  -3  -3  -1   14.97    1.71
  -3  -3  -1   14.22    1.57
  -3  -3  -1   16.08    1.72
  -3  -3  -1   11.68    1.96
  -3  -3  -1   14.55    1.56
   3   3   1   14.20    1.63
   3   3   1   15.94    1.61
   3   3   1   16.48    1.50
   3   3   1   15.52    1.77
   3   3   1   13.90    1.83
  -4  -3  -1   10.53    1.14
  -4  -3  -1   10.90    1.35
  -4  -3  -1    8.15    1.11
  -4  -3  -1    8.21    1.28
   4   3   1   10.12    1.35
   4   3   1    9.03    1.54
   4   3   1    9.50    1.22
   4   3   1    9.97    1.18
   4   3   1   10.46    1.02
  -5  -3  -1   10.31    2.26
  -5  -3  -1   16.64    1.62
  -5  -3  -1   12.84    1.54
  -5  -3  -1   13.17    1.85
   5   3   1   13.19    2.11
   5   3   1   12.14    1.69
   5   3   1   14.78    1.47
   5   3   1   15.48    1.65
   5   3   1   15.81    1.87
  -6  -3  -1    3.32    1.35
  -6  -3  -1    2.05    0.72
  -6  -3  -1    2.17    0.89
  -6  -3  -1    2.71    0.57
   6   3   1    2.46    1.14
   6   3   1    1.87    0.83
   6   3   1    2.32    0.65
  -7  -3  -1    4.20    1.18
  -7  -3  -1    3.35    1.23
  -7  -3  -1    4.35    0.75
   7   3   1    4.12    1.53
   7   3   1    4.12    1.02
  -8  -3  -1    7.85    1.64
  -8  -3  -1    3.68    2.37
  -8  -3  -1    2.59    0.84
   8   3   1    4.41    1.13
   8   3   1    4.31    1.95
  -9  -3  -1    0.88    0.87
  -9  -3  -1   -2.70    2.82
  -9  -3  -1   -3.00    1.57
   9   3   1    2.14    1.33
 -11   4   1    2.27    0.73
 -10   4   1    2.29    0.79
 -10   4   1    1.23    0.47
 -10   4   1    0.96    1.19
   9  -4  -1    0.78    0.38
  -9   4   1    0.02    0.84
  -9   4   1    0.82    0.63
  -9   4   1    0.95    0.80
  -9   4   1    1.14    0.60
  -9   4   1    0.55    0.35
  -8   4   1    1.89    0.50
  -8   4   1    2.00    0.66
  -8   4   1    1.89    0.43
  -8   4   1    2.16    0.54
  -8   4   1    1.67    0.74
  -7   4   1    4.85    0.85
  -7   4   1    4.49    0.80
  -7   4   1    5.00    0.89
  -7   4   1    6.72    0.74
  -6   4   1  118.42   11.40
  -6   4   1  117.63   11.30
  -5   4   1   20.61    2.12
  -5   4   1   20.01    2.11
  -4   4   1    5.07    0.74
  -4   4   1    7.20    0.81
  -3   4   1    0.25    0.24
  -3   4   1    0.10    0.23
  -3   4   1    0.14    0.10
  -3   4   1    0.32    0.24
  -3   4   1   -0.06    0.12
   2  -4  -1    0.62    0.33
   2  -4  -1    2.34    0.41
   2  -4  -1    1.10    0.28
   2  -4  -1    1.66    0.23
   2  -4  -1    1.28    0.26
   2  -4  -1    1.64    0.30
  -2   4   1    1.53    0.26
  -2   4   1    0.67    0.37
  -2   4   1    1.25    0.28
  -2   4   1    1.30    0.36
  -2   4   1    1.72    0.35
  -2   4   1    1.31    0.23
   1  -4  -1   14.69    1.59
   1  -4  -1   15.74    1.57
  -1   4   1   15.65    1.54
  -1   4   1   16.02    1.65
  -1   4   1   13.52    1.68
  -1   4   1   16.54    1.56
  -1   4   1   13.85    1.67
  -1   4   1   15.18    1.55
   0  -4  -1   20.28    1.93
   0  -4  -1   17.00    1.93
   0  -4  -1   18.33    2.01
   0  -4  -1   22.05    2.03
   0   4   1   17.83    1.94
   0   4   1   17.89    2.08
   0   4   1   18.51    1.91
   0   4   1   18.90    2.12
   0   4   1   21.49    1.96
  -1  -4  -1   21.48    2.25
  -1  -4  -1   20.64    2.14
  -1  -4  -1   21.39    2.13
  -1  -4  -1   21.11    2.24
  -1  -4  -1   24.08    2.27
   1   4   1   21.29    2.17
   1   4   1   20.15    2.34
   1   4   1   21.01    2.18
   1   4   1   20.80    2.10
   1   4   1   20.34    2.34
  -2  -4  -1    1.53    0.47
  -2  -4  -1    1.60    0.32
  -2  -4  -1    0.58    0.72
  -2  -4  -1    2.23    0.55
  -2  -4  -1    1.12    0.42
  -2  -4  -1    2.06    0.38
   2   4   1    1.66    0.43
   2   4   1    1.56    0.55
   2   4   1    2.67    0.66
   2   4   1    1.37    0.25
   2   4   1    1.41    0.38
  -3  -4  -1   12.02    1.54
  -3  -4  -1   13.75    1.38
  -3  -4  -1   13.05    1.57
  -3  -4  -1   11.63    1.35
  -3  -4  -1   12.66    1.60
   3   4   1   13.03    1.40
   3   4   1   11.00    1.71
   3   4   1   10.96    1.25
   3   4   1   12.18    1.44
  -4  -4  -1    4.74    0.73
  -4  -4  -1    4.98    0.98
  -4  -4  -1    4.10    0.98
  -4  -4  -1    5.21    0.82
   4   4   1    5.25    0.64
   4   4   1    4.04    0.96
   4   4   1    5.72    0.84
   4   4   1    4.68    1.15
   4   4   1    3.51    0.72
  -5  -4  -1   -1.04    1.26
  -5  -4  -1    1.27    0.46
  -5  -4  -1    0.53    0.62
  -5  -4  -1    2.67    0.58
  -5  -4  -1    2.19    0.91
   5   4   1    1.08    0.54
   5   4   1    1.88    0.83
   5   4   1    1.40    0.34
   5   4   1    1.72    1.07
   5   4   1    0.98    0.58
  -6  -4  -1    0.48    0.96
  -6  -4  -1    0.17    0.71
  -6  -4  -1    0.16    1.63
   6   4   1   -0.51    0.70
   6   4   1    2.66    1.31
  -7  -4  -1    2.55    2.34
  -7  -4  -1    2.49    1.24
  -7  -4  -1    2.95    1.28
  -7  -4  -1    1.47    0.72
   7   4   1    1.74    1.70
   7   4   1    2.67    0.92
  -8  -4  -1    3.57    1.70
  -8  -4  -1    4.12    2.86
  -8  -4  -1    3.12    0.95
   8   4   1    3.80    1.17
   8   4   1    3.35    2.42
 -10   5   1    1.27    0.52
  -9   5   1    1.18    0.40
  -9   5   1    0.28    0.71
  -8   5   1    6.26    1.17
  -8   5   1    7.94    0.97
  -7   5   1    0.29    0.20
  -7   5   1   -0.20    0.40
  -6   5   1   11.96    1.32
  -6   5   1    8.75    1.40
  -6   5   1   11.79    1.17
  -5   5   1   20.45    2.26
  -5   5   1   21.99    2.24
  -4   5   1   48.51    5.26
  -4   5   1   58.27    5.28
   3  -5  -1   14.23    1.73
   3  -5  -1   20.37    1.82
  -3   5   1   17.44    1.72
  -3   5   1   17.00    1.93
  -3   5   1   16.50    1.86
  -3   5   1   16.94    1.72
  -3   5   1   19.96    1.85
   2  -5  -1    0.71    0.28
   2  -5  -1    1.14    0.30
   2  -5  -1    0.16    0.43
   2  -5  -1    1.07    0.24
   2  -5  -1    1.36    0.49
  -2   5   1    0.78    0.48
  -2   5   1    1.61    0.37
  -2   5   1    1.02    0.29
  -2   5   1    2.04    0.43
  -2   5   1    1.04    0.41
  -2   5   1    1.23    0.27
   1  -5  -1    0.84    0.54
   1  -5  -1    0.88    0.26
   1  -5  -1    1.09    0.35
   1  -5  -1    1.46    0.41
   1  -5  -1    1.81    0.29
   1  -5  -1    1.78    0.49
  -1   5   1    0.54    0.45
  -1   5   1    1.27    0.31
  -1   5   1    0.85    0.32
  -1   5   1    1.56    0.52
  -1   5   1    1.17    0.31
   0  -5  -1    4.01    0.70
   0  -5  -1    3.50    0.53
   0  -5  -1    3.05    0.63
   0  -5  -1    3.83    0.65
   0  -5  -1    3.19    0.86
   0  -5  -1    2.86    0.54
   0   5   1    3.72    0.55
   0   5   1    3.14    0.73
   0   5   1    3.92    0.61
   0   5   1    3.20    0.54
   0   5   1    3.30    0.73
  -1  -5  -1   -0.62    0.67
  -1  -5  -1    0.25    0.44
  -1  -5  -1    0.46    0.43
  -1  -5  -1    0.33    0.28
  -1  -5  -1    0.69    0.43
  -1  -5  -1    0.19    0.27
  -1  -5  -1    0.72    0.31
   1   5   1   -0.20    0.46
   1   5   1   -0.04    0.52
   1   5   1    0.06    0.21
   1   5   1    0.18    0.30
   1   5   1    0.74    0.32
  -2  -5  -1   40.24    3.82
  -2  -5  -1   40.11    3.81
  -2  -5  -1   36.35    3.62
  -2  -5  -1   34.22    3.78
  -2  -5  -1   33.81    3.61
   2   5   1   32.50    3.67
   2   5   1   37.30    3.93
   2   5   1   36.67    3.55
   2   5   1   38.34    3.67
   2   5   1   33.29    3.93
  -3  -5  -1    6.89    1.71
  -3  -5  -1    9.74    1.24
  -3  -5  -1    9.60    1.51
  -3  -5  -1    8.62    1.24
  -3  -5  -1   10.53    1.56
  -3  -5  -1   11.67    1.56
   3   5   1   10.86    1.80
   3   5   1   10.58    1.10
   3   5   1   10.01    1.30
   3   5   1    9.14    1.31
   3   5   1   11.98    1.77
  -4  -5  -1    7.15    1.12
  -4  -5  -1   10.08    1.50
  -4  -5  -1    5.75    1.16
  -4  -5  -1    3.42    1.65
   4   5   1    7.00    1.31
   4   5   1    7.82    1.57
   4   5   1    9.59    1.28
   4   5   1    8.27    0.92
   4   5   1    5.52    1.01
  -5  -5  -1    2.42    0.68
  -5  -5  -1    3.89    1.13
  -5  -5  -1    3.35    1.70
  -5  -5  -1    3.80    1.16
   5   5   1    1.72    0.78
   5   5   1    1.07    1.23
   5   5   1    2.91    1.15
  -6  -5  -1    2.92    1.22
  -6  -5  -1    2.43    0.76
  -6  -5  -1    0.86    2.08
   6   5   1    3.04    0.95
   6   5   1    3.01    1.76
  -7  -5  -1   -1.76    2.65
  -7  -5  -1    0.69    0.84
  -7  -5  -1   -0.70    1.58
   7   5   1   -0.40    0.92
   8   5   1    2.52    1.65
 -10   6   1    1.37    0.53
  -9   6   1    0.55    0.84
  -9   6   1    0.66    0.40
  -8   6   1    1.39    0.58
  -8   6   1    0.88    0.34
  -7   6   1    1.46    0.31
  -6   6   1    4.01    0.52
  -6   6   1    3.26    0.64
  -5   6   1    0.75    0.50
  -5   6   1    0.36    0.41
  -4   6   1   46.39    4.62
  -4   6   1   51.19    4.60
  -4   6   1   56.40    4.81
  -4   6   1   44.08    4.75
  -4   6   1   46.41    4.74
  -4   6   1   43.77    4.76
   3  -6  -1    2.49    0.48
   3  -6  -1    2.34    0.38
   3  -6  -1    2.32    0.43
   3  -6  -1    1.69    0.61
  -3   6   1    2.22    0.51
  -3   6   1    2.26    0.58
  -3   6   1    1.13    0.54
  -3   6   1    1.95    0.36
  -3   6   1    1.62    0.68
  -3   6   1    2.16    0.38
   2  -6  -1   41.59    4.53
   2  -6  -1   40.11    4.44
   2  -6  -1   48.09    4.38
   2  -6  -1   51.73    4.46
  -2   6   1   46.24    4.43
  -2   6   1   43.12    4.62
  -2   6   1   49.69    4.42
  -2   6   1   41.25    4.41
  -2   6   1   40.93    4.59
   1  -6  -1   39.75    4.46
   1  -6  -1   36.52    4.51
   1  -6  -1   51.89    4.55
   1  -6  -1   42.60    4.56
   1  -6  -1   52.00    4.44
  -1   6   1   47.70    4.45
  -1   6   1   43.36    4.47
  -1   6   1   52.13    4.48
  -1   6   1   39.15    4.65
  -1   6   1   44.43    4.70
   0  -6  -1    0.35    0.48
   0  -6  -1    1.00    0.55
   0  -6  -1    0.56    0.29
   0  -6  -1    0.26    0.31
   0  -6  -1    0.96    0.53
   0  -6  -1    0.32    0.74
   0   6   1    0.32    0.68
   0   6   1    0.74    0.35
   0   6   1    0.37    0.38
   0   6   1    0.43    0.35
   0   6   1    0.45    0.59
  -1  -6  -1    5.50    1.01
  -1  -6  -1    6.68    1.18
  -1  -6  -1    3.82    1.22
  -1  -6  -1    6.17    1.15
  -1  -6  -1    5.92    0.88
   1   6   1    6.94    0.82
   1   6   1    5.13    0.88
   1   6   1    5.64    0.92
   1   6   1    7.68    1.48
   1   6   1    6.30    1.19
  -2  -6  -1    1.40    0.73
  -2  -6  -1    0.28    1.05
  -2  -6  -1    3.16    0.62
  -2  -6  -1    2.03    0.52
  -2  -6  -1    1.53    0.79
  -2  -6  -1    1.36    0.71
   2   6   1    2.01    0.91
   2   6   1    1.73    0.55
   2   6   1    1.94    0.97
   2   6   1    1.31    0.49
   2   6   1    2.12    0.42
  -3  -6  -1    1.77    1.48
  -3  -6  -1    4.25    0.72
  -3  -6  -1    2.10    0.89
   3   6   1    3.03    0.85
   3   6   1    2.37    0.74
   3   6   1    1.61    1.11
   3   6   1    3.48    0.53
   3   6   1    3.97    1.13
  -4  -6  -1   10.62    1.83
  -4  -6  -1    8.11    2.24
  -4  -6  -1   12.14    1.61
   4   6   1   12.09    1.36
   4   6   1   11.03    1.68
   4   6   1    9.50    2.03
   4   6   1   12.07    1.99
   4   6   1   11.97    1.89
  -5  -6  -1   -0.51    2.09
  -5  -6  -1    1.10    0.74
  -5  -6  -1    0.26    1.26
   5   6   1   -0.22    1.41
   5   6   1   -0.75    1.56
   5   6   1    0.85    0.89
  -6  -6  -1   18.40    2.79
  -6  -6  -1   20.43    2.35
   6   6   1   14.31    3.20
   6   6   1   15.17    2.62
  -7  -6  -1   -2.98    2.03
  -7  -6  -1   -3.83    3.58
  -7  -6  -1    0.36    1.05
   7   6   1   -0.22    2.77
   7   6   1    2.28    1.39
  -9   7   1    0.72    0.44
  -8   7   1   -0.43    0.30
  -7   7   1    0.90    0.58
  -7   7   1    1.90    0.41
  -6   7   1   -0.11    0.53
  -5   7   1   -0.09    0.49
  -4   7   1    0.27    0.22
  -4   7   1    0.31    0.49
  -4   7   1   -0.33    0.54
  -4   7   1   -0.17    0.22
   3  -7  -1   36.04    3.26
   3  -7  -1   27.97    3.34
   3  -7  -1   32.13    3.39
   3  -7  -1   38.57    3.63
  -3   7   1   29.53    3.55
  -3   7   1   29.80    3.31
  -3   7   1   34.02    3.40
  -3   7   1   33.22    3.61
  -3   7   1   38.32    3.31
   2  -7  -1   14.32    1.49
   2  -7  -1   13.34    1.48
   2  -7  -1    9.19    1.53
   2  -7  -1   13.42    1.36
  -2   7   1   12.91    1.87
  -2   7   1    9.79    1.73
  -2   7   1   10.73    1.39
  -2   7   1   11.48    1.42
  -2   7   1   13.51    1.50
   1  -7  -1   -0.32    0.79
   1  -7  -1    0.16    0.40
   1  -7  -1    1.21    0.68
   1  -7  -1    0.15    0.36
   1  -7  -1   -0.24    0.88
  -1   7   1    0.18    0.73
  -1   7   1    0.05    0.65
  -1   7   1   -0.62    0.45
  -1   7   1    0.24    0.41
  -1   7   1   -0.58    0.42
   0  -7  -1    0.34    0.73
   0  -7  -1    0.18    1.03
   0  -7  -1    0.84    0.43
   0  -7  -1    0.06    0.68
   0   7   1   -0.33    0.41
   0   7   1    0.46    0.46
   0   7   1    0.92    0.77
   0   7   1    0.87    0.84
   0   7   1    0.41    0.43
  -1  -7  -1   10.40    1.66
  -1  -7  -1   10.64    1.48
   1   7   1   10.18    2.05
   1   7   1   10.95    1.33
   1   7   1   13.12    1.56
   1   7   1   14.87    2.22
   1   7   1    9.62    1.59
  -2  -7  -1    2.13    1.50
  -2  -7  -1    2.30    0.70
  -2  -7  -1    1.46    0.93
   2   7   1    1.03    1.22
   2   7   1    3.67    0.79
   2   7   1    3.15    0.55
   2   7   1    3.87    0.79
   2   7   1    2.23    1.22
  -3  -7  -1    0.98    0.68
  -3  -7  -1    0.51    1.07
  -3  -7  -1   -0.65    1.83
  -3  -7  -1    1.71    0.74
   3   7   1   -0.90    1.24
   3   7   1    0.22    0.77
   3   7   1    1.27    0.49
   3   7   1    0.36    1.22
   3   7   1   -0.75    0.64
  -4  -7  -1    2.79    2.26
  -4  -7  -1    3.67    0.96
   4   7   1    4.40    1.06
   4   7   1    2.45    1.73
  -5  -7  -1    2.64    1.78
  -5  -7  -1    1.29    1.00
  -5  -7  -1   -0.47    2.95
   5   7   1   -1.17    1.88
   5   7   1    0.64    1.14
  -6  -7  -1   -0.46    1.16
  -6  -7  -1   -3.48    4.49
  -6  -7  -1    3.13    2.31
   6   7   1   -0.66    2.74
   6   7   1   -1.62    1.40
  -9   8   1    9.04    1.23
  -8   8   1    6.98    0.97
  -7   8   1   19.00    1.97
  -4   8   1    1.65    0.35
  -4   8   1    1.43    0.85
  -4   8   1    1.66    0.40
  -4   8   1    1.79    0.70
  -4   8   1    1.11    0.74
   3  -8  -1    1.86    1.08
   3  -8  -1   -0.89    0.83
   3  -8  -1    0.84    0.64
   3  -8  -1    1.97    0.44
   3  -8  -1    0.64    0.46
  -3   8   1    1.96    0.50
  -3   8   1    0.53    0.68
  -3   8   1    1.92    0.44
  -3   8   1    0.95    0.89
  -3   8   1    1.11    0.83
   2  -8  -1   -0.63    1.07
   2  -8  -1    3.08    0.67
   2  -8  -1    1.94    0.78
   2  -8  -1    1.99    1.05
  -2   8   1    3.17    0.75
  -2   8   1    1.66    0.62
  -2   8   1    3.62    0.62
  -2   8   1    3.66    1.09
  -2   8   1    2.06    1.01
   1  -8  -1    4.91    0.90
   1  -8  -1    5.94    1.27
   1  -8  -1    3.23    1.12
  -1   8   1    8.50    1.13
  -1   8   1    3.91    0.92
  -1   8   1    5.53    1.33
  -1   8   1    5.70    0.92
  -1   8   1    5.12    1.39
   0  -8  -1   26.03    3.29
   0  -8  -1   28.65    2.98
   0   8   1   22.97    3.39
   0   8   1   28.41    2.99
   0   8   1   29.14    2.89
  -1  -8  -1    1.20    1.03
  -1  -8  -1    1.22    1.69
  -1  -8  -1    1.30    0.68
   1   8   1    2.80    0.61
   1   8   1    1.36    0.71
   1   8   1    1.30    1.24
   1   8   1    3.15    1.44
   1   8   1    2.89    0.89
  -2  -8  -1    1.71    1.25
  -2  -8  -1   -0.11    1.99
  -2  -8  -1    1.49    0.84
   2   8   1    1.07    1.00
   2   8   1   -0.01    0.71
   2   8   1   -0.03    1.34
  -3  -8  -1    0.14    1.51
  -3  -8  -1    1.38    2.69
  -3  -8  -1    2.44    0.93
   3   8   1    0.59    0.90
   3   8   1   -0.19    1.51
  -4  -8  -1    4.22    1.88
  -4  -8  -1    3.80    1.16
  -4  -8  -1    4.09    1.25
   4   8   1    3.06    1.13
   4   8   1   -0.59    2.07
  -8   9   1    2.13    0.55
  -7   9   1    1.24    0.46
   4  -9  -1    0.45    0.37
  -4   9   1    0.62    0.92
  -4   9   1   -0.06    1.36
  -4   9   1    1.21    0.83
  -4   9   1    0.64    0.43
   3  -9  -1    0.38    0.59
   3  -9  -1    1.48    1.58
  -3   9   1    0.93    1.02
  -3   9   1    2.43    1.10
  -3   9   1    2.53    0.98
  -3   9   1    1.74    0.61
   2  -9  -1   -0.35    0.55
  -2   9   1    0.36    1.30
  -2   9   1    1.37    1.10
  -2   9   1   -2.32    1.11
  -2   9   1    0.77    0.60
   1  -9  -1   -0.36    0.60
   1  -9  -1    0.43    1.16
  -1   9   1    1.09    1.15
  -1   9   1   -0.39    0.78
  -1   9   1    0.09    0.66
   0  -9  -1    9.57    1.80
   0  -9  -1    9.66    1.53
   0   9   1    8.92    1.33
   0   9   1    9.07    1.39
   0   9   1    5.17    1.71
  -1  -9  -1    0.99    0.87
  -1  -9  -1    2.32    1.57
   1   9   1    2.76    0.89
   1   9   1    0.76    1.50
  -2  -9  -1    2.29    1.01
  -2  -9  -1    2.99    1.78
   2   9   1    2.00    1.64
   2   9   1    0.20    0.96
  -3  -9  -1   13.57    2.08
  -3  -9  -1   13.94    2.80
   3   9   1   12.24    2.91
   3   9   1   17.33    2.33
  -4  10   1    3.14    0.69
  -4  10   1    4.25    1.33
   3 -10  -1   25.80    2.89
  -3  10   1   27.27    2.82
  -3  10   1   22.36    3.52
   2 -10  -1    7.01    1.21
  -2  10   1    7.36    1.26
  -2  10   1   10.02    2.05
   1 -10  -1    2.23    0.92
  -1  10   1    1.16    0.97
  -1  10   1    1.45    1.56
   0 -10  -1   -0.61    0.86
   0  10   1    1.60    1.73
   0  10   1    0.03    0.99
  -1 -10  -1    0.43    1.13
   1  10   1    1.37    1.19
   1  10   1   -0.56    1.96
   0  11  -2    4.08    1.23
   0  11  -2    0.74    2.06
   0 -11   2   -0.27    0.98
  -1  11  -2    4.13    2.09
   1 -11   2    2.08    0.89
  -2  11  -2   -0.93    0.83
  -2  11  -2    1.21    1.81
   2 -11   2   -1.13    0.76
  -3  11  -2   16.73    2.11
  -3  11  -2   16.13    3.14
  -4  11  -2    8.27    1.92
  -4  11  -2    9.27    1.39
   3  10  -2   -2.67    2.17
   3  10  -2   -0.56    1.24
  -3 -10   2   -2.04    2.20
  -3 -10   2    0.66    1.14
   2  10  -2    6.28    2.28
   2  10  -2    5.44    1.37
  -2 -10   2    5.48    2.13
  -2 -10   2    5.14    1.32
   1  10  -2    6.37    1.98
   1  10  -2    5.13    1.24
  -1 -10   2    1.72    1.80
  -1 -10   2    5.22    1.05
   0  10  -2    1.19    1.55
   0  10  -2    1.23    0.87
   0 -10   2    0.53    0.74
   0 -10   2    1.35    1.55
  -1  10  -2   -0.68    0.74
  -1  10  -2   -0.20    1.42
   1 -10   2    0.45    0.69
  -2  10  -2    0.83    1.34
  -2  10  -2    1.94    0.71
   2 -10   2    0.75    0.58
  -3  10  -2    1.76    0.65
  -3  10  -2    1.06    1.23
   3 -10   2    3.13    0.76
  -4  10  -2    1.75    0.53
  -4  10  -2    0.35    1.10
  -5  10  -2   -0.61    1.07
  -5  10  -2    0.30    0.38
  -6  10  -2    2.87    1.22
   4   9  -2   -0.69    2.00
   4   9  -2   -1.60    1.15
  -4  -9   2   -0.26    0.95
  -4  -9   2    0.97    1.92
   3   9  -2    1.73    0.99
   3   9  -2    1.17    1.73
  -3  -9   2    2.36    0.96
   2   9  -2    3.41    1.44
   2   9  -2    0.39    1.45
   2   9  -2    0.80    0.84
  -2  -9   2    0.44    0.70
  -2  -9   2   -1.49    2.26
  -2  -9   2    3.03    1.42
   1   9  -2    2.70    1.25
   1   9  -2    2.58    1.38
   1   9  -2    2.54    0.87
  -1  -9   2    2.82    1.33
  -1  -9   2    2.39    0.77
  -1  -9   2    2.46    2.25
   0   9  -2    0.30    1.18
   0   9  -2    0.89    0.97
   0   9  -2   -2.19    1.83
   0   9  -2    0.98    0.67
   0  -9   2   -0.13    0.98
   0  -9   2    1.59    1.65
   0  -9   2   -0.46    0.49
   0  -9   2    0.61    1.09
  -1   9  -2    5.15    1.94
  -1   9  -2    3.77    1.30
  -1   9  -2    2.04    1.03
  -1   9  -2    4.92    0.87
   1  -9   2    1.07    1.11
   1  -9   2    3.26    0.75
   1  -9   2    1.89    1.48
   1  -9   2    6.54    1.20
  -2   9  -2    1.30    0.86
  -2   9  -2    1.87    1.10
  -2   9  -2    0.60    1.58
  -2   9  -2    1.85    0.64
   2  -9   2    3.85    0.95
   2  -9   2    1.47    0.50
   2  -9   2   -0.45    1.43
  -3   9  -2    1.96    0.55
  -3   9  -2    3.49    0.89
  -3   9  -2    2.51    1.05
  -3   9  -2    1.26    1.67
   3  -9   2    2.18    0.90
   3  -9   2    0.23    0.78
   3  -9   2    0.38    1.08
   3  -9   2    1.54    0.52
  -4   9  -2    0.33    0.76
  -4   9  -2   -0.61    1.53
  -4   9  -2    0.45    0.87
   4  -9   2    1.18    0.97
   4  -9   2    0.40    0.69
  -5   9  -2    0.58    0.81
  -5   9  -2    0.05    0.34
  -5   9  -2    0.63    1.47
  -5   9  -2   -0.59    0.82
  -8   9  -2   -0.39    0.50
   6   8  -2    3.39    2.69
   6   8  -2    0.40    1.31
  -6  -8   2    0.32    2.26
  -6  -8   2   -5.04    3.82
  -6  -8   2    4.28    1.26
   5   8  -2    1.25    1.07
   5   8  -2   -0.02    2.07
  -5  -8   2   -1.22    1.62
  -5  -8   2    1.08    1.04
  -5  -8   2    3.81    3.13
   4   8  -2   -0.31    0.87
   4   8  -2    1.50    1.62
  -4  -8   2   -0.79    0.80
  -4  -8   2    3.01    2.39
  -4  -8   2    0.14    0.72
  -4  -8   2   -1.61    1.39
   3   8  -2    2.63    1.38
   3   8  -2    2.16    1.07
   3   8  -2    1.49    1.97
   3   8  -2    3.85    0.97
  -3  -8   2   -0.23    1.16
  -3  -8   2    3.83    2.05
  -3  -8   2    4.34    0.85
   2   8  -2    9.20    1.52
   2   8  -2   10.11    2.25
   2   8  -2    9.14    1.97
   2   8  -2    9.77    1.58
  -2  -8   2   10.97    1.81
  -2  -8   2   10.47    1.40
  -2  -8   2    6.30    2.12
   1   8  -2   10.00    1.55
   1   8  -2    8.07    1.36
   1   8  -2    8.43    2.12
   1   8  -2   11.61    1.72
  -1  -8   2    9.53    1.64
  -1  -8   2    4.18    1.93
  -1  -8   2    8.41    1.54
  -1  -8   2    9.01    1.25
   0   8  -2   -0.64    1.33
   0   8  -2    0.62    0.52
   0   8  -2    0.65    0.72
   0   8  -2    0.91    0.90
   0   8  -2   -0.16    0.64
   0  -8   2   -0.14    0.43
   0  -8   2    0.05    0.81
   0  -8   2    0.22    0.66
   0  -8   2    0.10    1.22
  -1   8  -2   -0.57    0.80
  -1   8  -2    1.23    0.61
  -1   8  -2    0.62    0.51
  -1   8  -2    0.44    0.72
  -1   8  -2    0.96    1.27
   1  -8   2    0.63    0.64
   1  -8   2    0.76    0.44
   1  -8   2    0.03    1.34
   1  -8   2    1.55    0.76
  -2   8  -2    9.00    1.10
  -2   8  -2    6.48    1.59
  -2   8  -2    6.31    1.35
  -2   8  -2    8.50    1.25
  -2   8  -2    6.87    1.01
   2  -8   2    6.28    1.20
   2  -8   2    6.35    0.97
   2  -8   2    6.71    1.16
   2  -8   2    4.33    0.94
  -3   8  -2    1.48    1.26
  -3   8  -2    2.02    0.77
  -3   8  -2    1.88    0.45
  -3   8  -2    1.00    0.60
  -3   8  -2    1.17    0.78
   3  -8   2    1.38    0.63
   3  -8   2    1.84    0.62
   3  -8   2    1.45    0.57
   3  -8   2    0.58    0.82
   3  -8   2    1.15    0.57
  -4   8  -2    7.21    1.99
  -4   8  -2   12.88    1.31
  -4   8  -2   13.07    1.67
   4  -8   2   11.82    1.45
  -5   8  -2    1.17    0.71
  -5   8  -2    1.54    1.29
  -5   8  -2    0.40    0.23
  -5   8  -2   -0.04    0.66
   5  -8   2    1.12    0.49
   5  -8   2    1.15    0.39
  -6   8  -2    3.84    0.89
  -6   8  -2    2.17    1.44
   6  -8   2    3.50    0.59
   6  -8   2    3.41    0.57
  -7   8  -2    4.73    1.54
  -7   8  -2    5.28    0.76
  -7   8  -2    4.16    0.87
  -7   8  -2    3.47    0.60
  -8   8  -2    0.89    0.48
  -8   8  -2    1.47    0.56
  -9   8  -2    1.49    0.53
   7   7  -2    3.11    2.96
   7   7  -2   -1.08    1.44
  -7  -7   2    0.66    2.11
  -7  -7   2    0.64    1.13
  -7  -7   2    0.90    3.41
   6   7  -2    0.48    0.96
   6   7  -2    2.04    2.04
  -6  -7   2   -2.00    2.99
  -6  -7   2    0.76    0.91
  -6  -7   2   -1.91    1.53
   5   7  -2    7.66    3.58
   5   7  -2    3.51    1.01
   5   7  -2    0.32    2.71
  -5  -7   2    3.29    1.50
  -5  -7   2    1.71    2.14
  -5  -7   2    4.33    0.95
   4   7  -2    9.49    2.11
   4   7  -2   18.95    3.35
   4   7  -2   11.41    1.69
  -4  -7   2   12.67    1.64
  -4  -7   2    9.47    2.50
  -4  -7   2    9.37    1.80
   3   7  -2    7.24    1.35
   3   7  -2    7.15    1.62
   3   7  -2    6.53    1.84
  -3  -7   2    5.29    1.81
  -3  -7   2   10.74    1.68
  -3  -7   2    9.52    1.36
  -3  -7   2    8.01    1.28
   2   7  -2    0.71    0.45
   2   7  -2   -0.37    1.42
   2   7  -2    0.15    0.68
   2   7  -2    0.89    0.53
   2   7  -2   -0.54    0.78
  -2  -7   2    0.74    1.38
  -2  -7   2    1.27    0.44
  -2  -7   2    0.10    0.71
  -2  -7   2   -0.32    0.81
  -2  -7   2    2.13    0.90
   1   7  -2    8.02    1.15
   1   7  -2    9.75    1.18
   1   7  -2    8.14    1.71
   1   7  -2    9.36    1.67
   1   7  -2    9.54    1.38
  -1  -7   2    6.54    1.01
  -1  -7   2    7.09    1.26
  -1  -7   2    5.31    1.09
  -1  -7   2    8.32    1.60
   0   7  -2    0.35    0.98
   0   7  -2    1.03    0.55
   0   7  -2    0.10    0.48
   0   7  -2    0.44    0.40
   0   7  -2    0.58    0.66
   0  -7   2    1.01    0.47
   0  -7   2    0.69    0.66
   0  -7   2    1.22    0.54
   0  -7   2   -0.03    0.89
   0  -7   2   -0.28    0.67
   0  -7   2    0.99    0.38
  -1   7  -2    3.35    0.65
  -1   7  -2    5.41    0.92
  -1   7  -2    3.63    0.66
  -1   7  -2    2.93    1.08
  -1   7  -2    2.89    0.91
   1  -7   2    3.25    0.81
   1  -7   2    3.27    0.60
   1  -7   2    4.23    0.74
   1  -7   2    4.48    0.69
  -2   7  -2    0.11    0.41
  -2   7  -2    0.80    0.64
  -2   7  -2    0.48    0.93
  -2   7  -2    0.66    0.57
  -2   7  -2    0.94    0.35
   2  -7   2    0.81    0.42
   2  -7   2    0.84    0.55
   2  -7   2    1.40    0.69
   2  -7   2    0.51    0.71
   2  -7   2    0.62    0.40
   2  -7   2    0.86    0.32
  -3   7  -2    7.53    1.25
  -3   7  -2    4.43    1.36
  -3   7  -2    6.54    1.24
  -3   7  -2    8.11    0.91
   3  -7   2    6.81    1.13
   3  -7   2    6.89    1.07
   3  -7   2    8.34    1.01
  -4   7  -2    4.28    0.88
  -4   7  -2    3.49    0.56
  -4   7  -2    2.94    1.35
  -4   7  -2    4.29    0.82
   4  -7   2    3.66    0.84
   4  -7   2    4.57    0.66
   4  -7   2    3.77    0.70
   4  -7   2    4.25    0.77
  -5   7  -2   12.42    1.26
  -5   7  -2   10.88    1.61
   5  -7   2   13.56    1.33
   5  -7   2   10.58    1.82
  -6   7  -2    0.69    0.23
  -6   7  -2    0.43    0.66
  -6   7  -2    1.85    1.19
  -6   7  -2   -0.05    1.04
   6  -7   2    0.58    0.28
   6  -7   2    0.59    0.44
  -7   7  -2   -0.26    0.82
  -7   7  -2    1.33    0.35
  -7   7  -2    0.28    1.18
  -7   7  -2    1.06    0.38
  -7   7  -2    0.52    0.27
   7  -7   2    0.59    0.48
   7  -7   2    1.46    0.36
  -8   7  -2    1.07    1.31
  -8   7  -2   -0.05    0.53
  -8   7  -2    0.17    0.35
  -8   7  -2    0.61    0.36
  -9   7  -2    4.08    0.64
  -9   7  -2    1.97    0.92
  -9   7  -2    3.62    0.61
   8   6  -2    2.74    1.62
  -8  -6   2    2.68    1.19
  -8  -6   2    1.16    3.38
  -8  -6   2    8.64    2.21
   7   6  -2    1.64    2.21
   7   6  -2    1.42    1.02
  -7  -6   2    0.64    0.85
  -7  -6   2    0.77    1.62
  -7  -6   2    1.02    2.68
   6   6  -2   -1.62    0.79
   6   6  -2   -0.19    1.62
  -6  -6   2    0.87    0.71
  -6  -6   2   -1.30    1.21
  -6  -6   2    0.24    2.09
   5   6  -2    1.51    1.29
   5   6  -2    1.29    1.50
  -5  -6   2   -0.55    0.92
  -5  -6   2   -0.08    0.57
  -5  -6   2   -0.63    1.61
  -5  -6   2    0.83    1.20
   4   6  -2    5.82    1.04
   4   6  -2    2.57    0.69
   4   6  -2    3.82    1.17
   4   6  -2    2.81    0.56
   4   6  -2    3.88    1.42
  -4  -6   2    1.66    1.46
  -4  -6   2    3.49    1.11
  -4  -6   2    5.37    1.14
  -4  -6   2    4.88    0.82
   3   6  -2    2.73    1.21
   3   6  -2    1.63    0.50
   3   6  -2    1.78    0.41
   3   6  -2    1.66    0.82
   3   6  -2    1.62    0.70
  -3  -6   2    1.58    0.51
  -3  -6   2    0.99    0.72
  -3  -6   2    1.48    0.79
  -3  -6   2    1.99    1.14
  -3  -6   2    3.22    0.56
   2   6  -2   93.52    9.46
   2   6  -2   89.15    9.82
   2   6  -2   95.08    9.97
   2   6  -2   97.90    9.57
  -2  -6   2  102.77    9.72
  -2  -6   2   95.46    9.51
  -2  -6   2  104.89    9.77
  -2  -6   2  106.91    9.55
  -2  -6   2   97.40    9.53
   1   6  -2   12.03    1.35
   1   6  -2   13.48    1.63
   1   6  -2    9.59    1.66
   1   6  -2   10.82    1.37
  -1  -6   2   10.19    1.59
  -1  -6   2   12.03    1.31
  -1  -6   2   11.44    1.35
  -1  -6   2   13.19    1.69
   0   6  -2   12.14    1.39
   0   6  -2   10.08    1.92
   0   6  -2   11.44    1.70
   0   6  -2   12.55    1.41
   0   6  -2   12.20    1.56
   0  -6   2   11.30    1.39
   0  -6   2   12.23    1.36
   0  -6   2   11.76    1.61
   0  -6   2   12.04    1.62
   0  -6   2   15.27    1.45
  -1   6  -2   19.91    1.95
  -1   6  -2   17.98    2.19
  -1   6  -2   18.92    1.93
  -1   6  -2   15.80    2.38
  -1   6  -2   21.28    2.10
   1  -6   2   18.20    2.12
   1  -6   2   15.58    1.89
   1  -6   2   18.19    1.92
  -2   6  -2    0.27    0.28
  -2   6  -2   -0.38    0.45
  -2   6  -2   -0.07    0.52
  -2   6  -2    1.51    0.81
  -2   6  -2    0.19    0.25
   2  -6   2    0.03    0.29
   2  -6   2    0.46    0.49
   2  -6   2    0.12    0.52
   2  -6   2    0.00    0.21
   2  -6   2    0.79    0.41
   2  -6   2    0.40    0.28
  -3   6  -2    0.20    0.47
  -3   6  -2    0.20    0.30
  -3   6  -2   -0.06    0.19
  -3   6  -2   -0.23    0.40
   3  -6   2   -0.13    0.43
   3  -6   2   -0.08    0.49
   3  -6   2   -0.59    0.28
   3  -6   2   -0.34    0.31
  -4   6  -2    7.97    1.02
  -4   6  -2    3.56    1.13
  -4   6  -2    5.19    0.86
  -4   6  -2    6.43    1.05
  -4   6  -2    5.73    0.65
   4  -6   2    5.41    0.95
   4  -6   2    5.24    0.79
   4  -6   2    6.13    0.87
  -5   6  -2    0.20    0.52
  -5   6  -2    0.25    0.14
  -5   6  -2    0.49    0.50
  -5   6  -2    0.02    0.85
   5  -6   2   -0.30    0.34
   5  -6   2    0.34    0.22
   5  -6   2    0.23    0.29
   5  -6   2    0.09    0.62
  -6   6  -2    1.93    0.73
  -6   6  -2    3.76    0.49
   6  -6   2    3.49    0.65
   6  -6   2    3.84    0.52
  -7   6  -2    9.76    1.18
  -7   6  -2    9.33    1.06
  -7   6  -2   11.71    1.12
  -7   6  -2    8.82    1.35
   7  -6   2    9.27    1.10
   7  -6   2    8.79    1.23
  -8   6  -2   -0.95    1.08
  -8   6  -2    0.38    0.53
  -8   6  -2    0.81    0.33
  -8   6  -2    1.19    0.39
  -8   6  -2    1.32    0.86
  -9   6  -2    1.96    0.50
  -9   6  -2    1.32    0.89
  -9   6  -2    1.75    0.55
 -10   6  -2    1.12    1.25
 -10   6  -2    1.96    0.76
 -10   6  -2    3.02    0.61
   8   5  -2    0.36    1.15
   8   5  -2    0.95    2.23
  -8  -5   2    0.89    0.90
  -8  -5   2    1.74    1.68
  -8  -5   2    0.86    2.59
   7   5  -2    0.69    0.81
   7   5  -2   -1.15    1.60
  -7  -5   2   -0.60    1.85
  -7  -5   2   -0.05    1.44
  -7  -5   2    0.37    1.26
  -7  -5   2   -0.59    0.70
   6   5  -2   11.36    1.62
   6   5  -2    8.89    1.88
  -6  -5   2    7.62    1.50
  -6  -5   2   11.53    2.23
  -6  -5   2    9.92    1.45
  -6  -5   2    7.03    2.11
   5   5  -2    0.06    0.70
   5   5  -2   -0.69    0.97
   5   5  -2   -0.14    0.52
   5   5  -2    1.32    2.17
  -5  -5   2    0.93    0.76
  -5  -5   2   -0.32    0.76
  -5  -5   2    1.16    0.50
  -5  -5   2    0.45    0.55
  -5  -5   2   -1.55    1.17
   4   5  -2    6.17    0.96
   4   5  -2    7.23    1.51
   4   5  -2    7.48    1.49
   4   5  -2    6.25    1.04
   4   5  -2    6.44    0.83
  -4  -5   2    7.87    1.03
  -4  -5   2    4.64    1.05
  -4  -5   2    4.14    1.38
  -4  -5   2    7.84    1.05
  -4  -5   2    7.47    1.37
   3   5  -2    0.73    0.42
   3   5  -2    1.29    0.67
   3   5  -2    0.91    0.34
   3   5  -2    1.39    0.29
   3   5  -2    0.01    0.82
  -3  -5   2    0.52    0.39
  -3  -5   2    0.23    0.62
  -3  -5   2    0.90    0.81
  -3  -5   2    0.66    0.51
  -3  -5   2    1.13    0.41
   2   5  -2   -0.26    0.41
   2   5  -2    0.48    0.24
   2   5  -2    0.58    0.29
   2   5  -2   -0.23    0.44
   2   5  -2    1.07    0.77
  -2  -5   2    0.25    0.31
  -2  -5   2    1.07    0.70
  -2  -5   2    0.83    0.44
  -2  -5   2    0.46    0.28
  -2  -5   2    1.35    0.50
   1   5  -2    8.59    1.03
   1   5  -2    8.16    0.89
   1   5  -2    5.65    1.11
   1   5  -2    5.79    0.88
   1   5  -2    6.68    1.35
  -1  -5   2    6.95    1.09
  -1  -5   2    5.48    0.98
  -1  -5   2    7.11    0.83
  -1  -5   2    7.96    0.90
  -1  -5   2    5.29    1.58
   0   5  -2   10.16    1.45
   0   5  -2   14.00    1.41
   0   5  -2   10.39    1.24
   0   5  -2    8.85    1.61
   0   5  -2   12.21    1.23
   0  -5   2   11.34    1.42
   0  -5   2   11.62    1.24
   0  -5   2   11.11    1.20
   0  -5   2   10.01    1.41
  -1   5  -2    3.83    0.77
  -1   5  -2    2.69    0.84
  -1   5  -2    3.95    0.58
  -1   5  -2    3.44    0.56
  -1   5  -2    4.70    0.56
  -1   5  -2    3.42    0.62
   1  -5   2    2.19    0.59
   1  -5   2    3.68    0.53
   1  -5   2    3.23    0.66
   1  -5   2    3.71    0.55
  -2   5  -2   80.40    7.69
  -2   5  -2   74.33    7.71
  -2   5  -2   78.52    7.87
  -2   5  -2   86.53    7.81
   2  -5   2   79.24    7.76
   2  -5   2   80.85    7.84
   2  -5   2   78.76    7.70
  -3   5  -2    1.49    0.34
  -3   5  -2    1.26    0.23
  -3   5  -2    0.22    0.56
  -3   5  -2    1.48    0.44
  -3   5  -2    1.05    0.42
   3  -5   2    1.03    0.40
   3  -5   2    1.21    0.47
   3  -5   2    1.74    0.35
   3  -5   2    1.00    0.29
  -4   5  -2    1.46    0.47
  -4   5  -2    2.94    0.58
  -4   5  -2    2.22    0.46
  -4   5  -2    0.27    0.58
  -4   5  -2    1.90    0.29
   4  -5   2    1.72    0.37
   4  -5   2    1.74    0.58
   4  -5   2    3.08    0.50
  -5   5  -2    1.98    0.52
  -5   5  -2    0.72    0.63
  -5   5  -2   -0.21    0.32
  -5   5  -2    0.05    0.40
   5  -5   2   -0.13    0.55
   5  -5   2    0.65    0.30
   5  -5   2    0.63    0.29
  -6   5  -2   20.18    1.98
  -6   5  -2   18.50    1.96
   6  -5   2   15.92    2.31
   6  -5   2   23.74    2.06
   6  -5   2   18.97    2.03
   6  -5   2   20.03    2.07
  -7   5  -2    9.25    1.51
  -7   5  -2   11.10    1.25
  -7   5  -2   13.25    1.43
  -7   5  -2   11.31    1.27
   7  -5   2   11.43    1.51
   7  -5   2   12.80    1.29
   7  -5   2   10.45    1.35
  -8   5  -2    5.89    1.24
  -8   5  -2    9.64    1.15
  -8   5  -2   11.60    1.07
  -8   5  -2    6.74    1.55
  -8   5  -2    9.51    1.40
   8  -5   2    9.60    1.59
   8  -5   2    7.68    1.14
  -9   5  -2   -0.75    0.50
  -9   5  -2    0.78    0.35
  -9   5  -2    0.37    0.87
 -10   5  -2   -0.43    1.26
 -10   5  -2    0.56    0.51
 -10   5  -2    0.58    0.74
   9   4  -2    3.27    1.34
  -9  -4   2   -1.02    0.93
  -9  -4   2    1.67    1.62
   8   4  -2   -0.07    1.00
   8   4  -2    1.95    1.83
  -8  -4   2   -0.42    0.67
  -8  -4   2   -0.23    2.12
  -8  -4   2   -0.49    1.21
   7   4  -2   67.78    7.49
   7   4  -2   68.91    6.97
  -7  -4   2   66.36    7.17
  -7  -4   2   66.23    6.82
  -7  -4   2   76.52    6.90
  -7  -4   2   67.19    7.16
   6   4  -2    0.63    1.08
   6   4  -2    0.32    0.99
   6   4  -2    0.93    0.63
  -6  -4   2   -0.18    0.48
  -6  -4   2    0.08    0.80
  -6  -4   2   -0.52    0.44
  -6  -4   2   -1.25    1.14
  -6  -4   2    0.70    0.87
   5   4  -2    5.17    1.19
   5   4  -2    6.40    0.90
   5   4  -2    6.31    1.30
   5   4  -2    3.88    0.77
   5   4  -2    4.62    0.68
  -5  -4   2    5.39    0.79
  -5  -4   2    5.47    1.07
  -5  -4   2    6.62    0.96
  -5  -4   2    4.70    1.02
  -5  -4   2    3.46    1.34
   4   4  -2   11.13    1.40
   4   4  -2   12.35    1.45
   4   4  -2   11.55    1.86
   4   4  -2   10.56    1.73
  -4  -4   2   12.46    1.35
  -4  -4   2   11.60    1.57
  -4  -4   2   11.51    1.36
   3   4  -2   13.91    1.41
   3   4  -2   10.93    1.30
   3   4  -2   10.38    1.17
   3   4  -2   11.05    1.60
  -3  -4   2   11.12    1.28
  -3  -4   2   11.18    1.47
  -3  -4   2   12.67    1.28
  -3  -4   2    9.41    1.40
   2   4  -2   26.91    2.72
   2   4  -2   23.08    2.81
   2   4  -2   23.49    2.95
   2   4  -2   24.36    2.64
   2   4  -2   29.05    2.59
  -2  -4   2   28.30    2.65
  -2  -4   2   28.89    2.63
  -2  -4   2   22.75    2.72
   1   4  -2    1.92    0.73
   1   4  -2    4.61    0.70
   1   4  -2    4.03    0.55
   1   4  -2    2.22    0.62
  -1  -4   2    4.12    0.48
  -1  -4   2    2.65    0.76
  -1  -4   2    2.91    0.63
  -1  -4   2    5.40    0.77
  -1  -4   2    4.23    0.54
  -1  -4   2    3.48    0.50
   0   4  -2   57.79    5.08
   0   4  -2   56.41    5.18
   0   4  -2   51.52    5.09
   0   4  -2   49.86    5.23
   0  -4   2   47.26    5.12
   0  -4   2   49.36    5.06
   0  -4   2   53.59    5.22
  -1   4  -2  150.88   15.20
  -1   4  -2  166.34   15.21
  -1   4  -2  135.29   15.31
  -1   4  -2  167.35   15.29
   1  -4   2  170.28   15.18
   1  -4   2  158.76   15.20
   1  -4   2  149.15   15.26
   1  -4   2  172.10   15.22
  -2   4  -2  162.00   15.51
  -2   4  -2  164.56   15.36
  -2   4  -2  170.56   15.47
  -2   4  -2  171.55   15.40
   2  -4   2  154.64   15.41
   2  -4   2  142.38   15.47
   2  -4   2  159.63   15.38
  -3   4  -2    0.20    0.28
  -3   4  -2    0.16    0.39
  -3   4  -2    0.00    0.19
  -3   4  -2   -0.27    0.26
  -3   4  -2    0.01    0.09
   3  -4   2    0.34    0.18
   3  -4   2    0.19    0.25
   3  -4   2   -0.01    0.16
   3  -4   2   -0.03    0.35
  -4   4  -2   24.02    2.68
  -4   4  -2   29.32    2.60
   4  -4   2   25.14    2.81
   4  -4   2   29.90    2.64
   4  -4   2   24.67    2.64
  -5   4  -2    2.93    0.39
  -5   4  -2    3.32    0.45
   5  -4   2    2.77    0.41
   5  -4   2    2.74    0.53
   5  -4   2    2.30    0.65
   5  -4   2    2.35    0.42
  -6   4  -2    3.21    0.53
  -6   4  -2    2.40    0.40
  -6   4  -2    2.79    0.42
  -6   4  -2    1.86    0.67
  -6   4  -2    2.34    0.54
   6  -4   2    2.89    0.54
   6  -4   2    2.14    0.43
   6  -4   2    3.07    0.78
   6  -4   2    2.81    0.41
  -7   4  -2    7.67    1.10
  -7   4  -2    8.13    1.18
  -7   4  -2    9.28    0.93
  -7   4  -2    7.58    0.96
  -7   4  -2    5.65    1.21
   7  -4   2    7.82    0.98
   7  -4   2    8.57    0.99
   7  -4   2    8.19    1.24
  -8   4  -2    4.57    1.21
  -8   4  -2    5.62    0.95
  -8   4  -2    5.71    0.77
   8  -4   2    6.37    0.95
   8  -4   2    6.45    1.14
  -9   4  -2    8.51    1.06
  -9   4  -2    7.59    1.51
  -9   4  -2    7.94    1.28
 -10   4  -2    1.39    1.41
 -10   4  -2    0.10    0.77
 -10   4  -2   -0.20    0.48
 -10  -3   2    3.06    1.91
 -10  -3   2   -1.07    1.06
   9   3  -2    2.13    1.09
  -9  -3   2    0.41    0.76
  -9  -3   2    0.58    2.35
  -9  -3   2    1.00    1.32
   8   3  -2    2.89    1.56
   8   3  -2   -0.01    0.68
  -8  -3   2   -0.77    0.77
  -8  -3   2    0.45    1.02
  -8  -3   2    1.19    1.21
  -8  -3   2   -1.05    1.65
  -8  -3   2    1.60    0.65
   7   3  -2    0.59    1.11
   7   3  -2    0.75    0.67
  -7  -3   2   -0.86    0.79
  -7  -3   2   -0.87    1.35
  -7  -3   2    2.28    0.68
  -7  -3   2    1.67    0.61
  -7  -3   2    0.68    0.92
   6   3  -2    0.36    0.52
   6   3  -2    0.68    0.83
   6   3  -2    0.65    0.51
   6   3  -2    0.46    0.24
   6   3  -2    0.98    0.83
  -6  -3   2    1.26    1.04
  -6  -3   2    0.59    0.40
  -6  -3   2   -0.16    0.58
   5   3  -2   31.37    4.01
   5   3  -2   37.26    3.77
   5   3  -2   38.73    3.78
   5   3  -2   38.27    4.05
  -5  -3   2   36.44    3.73
  -5  -3   2   38.65    3.93
  -5  -3   2   36.30    3.88
  -5  -3   2   39.68    3.72
   4   3  -2   86.92    8.29
   4   3  -2   87.29    8.55
   4   3  -2   81.55    8.17
   4   3  -2   99.06    8.33
   4   3  -2   76.61    8.47
  -4  -3   2   87.67    8.42
  -4  -3   2   81.20    8.36
  -4  -3   2   81.70    8.23
   3   3  -2   15.72    2.16
   3   3  -2   19.56    1.81
   3   3  -2   16.92    2.09
   3   3  -2   18.56    1.90
   3   3  -2   18.31    1.94
  -3  -3   2   16.94    1.97
  -3  -3   2   16.54    1.93
  -3  -3   2   18.50    1.86
  -3  -3   2   20.97    2.06
   2   3  -2   13.75    1.33
   2   3  -2    9.78    1.50
   2   3  -2   10.34    1.24
   2   3  -2   11.00    1.19
  -2  -3   2   11.69    1.24
  -2  -3   2   12.96    1.41
  -2  -3   2   11.74    1.35
  -2  -3   2   12.17    1.22
   1   3  -2   13.94    1.83
   1   3  -2   19.40    1.81
   1   3  -2   18.41    1.74
   1   3  -2   13.23    1.91
   1   3  -2   19.29    1.70
  -1  -3   2   17.11    1.85
  -1  -3   2   16.55    1.70
  -1  -3   2   19.58    1.85
  -1  -3   2   15.52    1.71
   0   3  -2   24.77    2.20
   0   3  -2   20.67    2.19
   0   3  -2   24.19    2.28
   0   3  -2   19.05    2.30
   0  -3   2   23.44    2.18
   0  -3   2   21.49    2.27
   0  -3   2   23.01    2.20
   0  -3   2   20.34    2.30
  -1   3  -2   53.48    5.12
  -1   3  -2   54.38    5.05
  -1   3  -2   49.95    5.16
   1  -3   2   52.27    5.05
   1  -3   2   51.38    5.16
   1  -3   2   52.17    5.10
  -2   3  -2  123.61   13.35
  -2   3  -2  134.61   13.29
  -2   3  -2  160.85   13.33
   2  -3   2  140.10   13.33
   2  -3   2  143.34   13.31
   2  -3   2  132.54   13.41
  -3   3  -2   46.04    4.77
  -3   3  -2   46.85    4.85
   3  -3   2   49.06    4.80
   3  -3   2   57.20    4.81
  -4   3  -2   -0.12    0.29
  -4   3  -2    0.12    0.10
  -4   3  -2   -0.13    0.20
   4  -3   2    0.25    0.32
   4  -3   2    0.08    0.14
   4  -3   2    0.05    0.13
   4  -3   2    0.19    0.20
  -5   3  -2   22.82    2.30
  -5   3  -2   20.22    2.30
  -5   3  -2   21.80    2.23
  -5   3  -2   19.45    2.42
  -5   3  -2   23.30    2.25
   5  -3   2   24.05    2.26
   5  -3   2   24.82    2.35
   5  -3   2   23.91    2.25
  -6   3  -2    1.50    0.26
  -6   3  -2    1.06    0.41
  -6   3  -2    0.88    0.50
  -6   3  -2    1.50    0.32
  -6   3  -2    1.02    0.38
   6  -3   2    1.02    0.27
   6  -3   2    1.50    0.44
   6  -3   2    2.67    0.71
   6  -3   2    1.34    0.32
  -7   3  -2    0.35    0.33
  -7   3  -2    0.11    0.58
  -7   3  -2    0.24    0.54
  -7   3  -2    0.30    0.39
   7  -3   2   -0.26    0.53
   7  -3   2    0.24    0.27
   7  -3   2   -0.63    0.36
  -8   3  -2    1.10    0.32
  -8   3  -2    1.07    0.57
  -8   3  -2    1.13    0.57
  -8   3  -2    1.31    0.84
  -8   3  -2    0.94    0.75
   8  -3   2    1.15    0.83
   8  -3   2    1.07    0.53
  -9   3  -2    2.95    1.21
  -9   3  -2    3.06    0.56
  -9   3  -2    4.25    0.79
   9  -3   2    2.75    0.84
 -10   3  -2    0.95    1.52
 -10   3  -2    2.72    0.59
 -10   3  -2    2.93    0.96
 -10  -2   2    6.90    1.79
 -10  -2   2    6.59    2.56
 -10  -2   2   10.33    1.45
   9   2  -2   12.10    1.78
  -9  -2   2    6.99    2.35
  -9  -2   2   15.31    2.31
  -9  -2   2   12.35    1.65
   8   2  -2    1.78    1.45
   8   2  -2    0.42    0.64
  -8  -2   2    0.39    0.63
  -8  -2   2    0.39    0.83
  -8  -2   2    0.16    0.46
  -8  -2   2   -0.28    0.86
  -8  -2   2    1.62    1.41
   7   2  -2    0.24    0.49
   7   2  -2    0.38    1.04
  -7  -2   2   -0.21    0.64
  -7  -2   2    0.10    0.72
  -7  -2   2    0.54    0.41
  -7  -2   2    1.08    0.43
  -7  -2   2    0.14    1.05
   6   2  -2   28.11    2.91
   6   2  -2   28.71    2.69
   6   2  -2   24.96    2.69
   6   2  -2   25.51    3.08
  -6  -2   2   25.52    2.61
  -6  -2   2   25.36    2.84
  -6  -2   2   22.53    2.69
  -6  -2   2   24.07    2.79
   5   2  -2    0.05    0.31
   5   2  -2    0.21    0.15
   5   2  -2   -0.01    0.28
   5   2  -2    0.49    0.52
  -5  -2   2   -0.05    0.24
  -5  -2   2    0.34    0.24
  -5  -2   2    0.42    0.37
  -5  -2   2    0.52    0.64
  -5  -2   2    0.27    0.40
   4   2  -2    0.44    0.24
   4   2  -2    0.36    0.14
   4   2  -2    0.01    0.45
   4   2  -2    0.16    0.25
   4   2  -2    0.43    0.46
  -4  -2   2    0.22    0.34
  -4  -2   2    0.07    0.31
  -4  -2   2    0.75    0.23
  -4  -2   2    0.25    0.22
  -4  -2   2    0.24    0.52
   3   2  -2   48.60    4.31
   3   2  -2   40.96    4.26
   3   2  -2   43.14    4.20
   3   2  -2   37.01    4.43
   3   2  -2   41.29    4.42
  -3  -2   2   46.22    4.27
  -3  -2   2   49.65    4.24
  -3  -2   2   43.24    4.38
  -3  -2   2   41.46    4.32
   2   2  -2    5.60    0.95
   2   2  -2    7.29    0.80
   2   2  -2    6.27    0.86
   2   2  -2    6.57    0.68
  -2  -2   2    6.80    0.73
  -2  -2   2    5.52    0.84
  -2  -2   2    7.44    0.72
  -2  -2   2    5.64    0.79
   1   2  -2  103.09    9.38
   1   2  -2  105.62    9.47
   1   2  -2   91.62    9.50
  -1  -2   2  103.61    9.39
  -1  -2   2   91.49    9.40
  -1  -2   2   93.31    9.50
   0   2  -2    8.24    1.05
   0   2  -2    9.43    1.13
   0   2  -2   10.96    1.03
   0   2  -2   11.12    1.02
   0   2  -2   10.97    1.11
   0  -2   2    9.48    1.12
   0  -2   2   10.09    1.03
   0  -2   2   10.65    1.10
   0  -2   2   10.16    1.01
  -1   2  -2   56.33    5.80
  -1   2  -2   63.93    5.86
  -1   2  -2   56.66    5.75
   1  -2   2   60.35    5.85
   1  -2   2   60.15    5.79
   1  -2   2   62.39    5.76
  -2   2  -2   15.36    1.58
  -2   2  -2   14.42    1.63
   2  -2   2   15.02    1.59
   2  -2   2   18.68    1.73
   2  -2   2   18.30    1.62
  -3   2  -2   51.01    5.44
  -3   2  -2   49.81    5.52
  -3   2  -2   61.28    5.41
   3  -2   2   60.68    5.42
   3  -2   2   57.93    5.41
  -4   2  -2   67.13    6.18
  -4   2  -2   57.37    6.01
  -4   2  -2   60.38    6.03
  -4   2  -2   64.31    6.07
  -4   2  -2   66.72    6.09
   4  -2   2   63.18    6.04
   4  -2   2   59.57    6.01
  -5   2  -2   22.60    2.46
  -5   2  -2   24.60    2.39
  -5   2  -2   23.01    2.32
  -5   2  -2   22.30    2.36
  -5   2  -2   27.28    2.54
   5  -2   2   23.44    2.32
   5  -2   2   22.33    2.45
  -6   2  -2    2.75    0.64
  -6   2  -2    1.53    0.39
  -6   2  -2    1.52    0.54
  -6   2  -2    1.84    0.43
   6  -2   2    1.64    0.42
   6  -2   2    1.85    0.33
  -7   2  -2    4.04    0.54
  -7   2  -2    2.54    0.81
  -7   2  -2    3.58    0.78
  -7   2  -2    2.44    0.57
  -7   2  -2    2.81    0.54
   7  -2   2    2.11    0.53
   7  -2   2    2.84    0.44
  -8   2  -2   -0.55    0.47
  -8   2  -2    0.18    0.86
  -8   2  -2   -0.65    0.27
  -8   2  -2   -0.24    0.81
  -8   2  -2    0.08    0.48
   8  -2   2   -0.88    0.49
  -9   2  -2    2.44    1.26
  -9   2  -2    2.12    0.78
  -9   2  -2    1.95    0.50
   9  -2   2    3.38    0.86
 -10   2  -2    3.15    0.66
 -10   2  -2    2.28    1.73
 -10   2  -2    3.10    1.04
 -10  -1   2    3.66    2.22
 -10  -1   2    7.79    1.18
 -10  -1   2    4.19    1.46
   9   1  -2    0.59    1.46
   9   1  -2   -0.12    0.79
  -9  -1   2    0.43    0.95
  -9  -1   2    0.53    1.54
  -9  -1   2    0.79    0.55
  -9  -1   2    0.57    0.76
   8   1  -2    9.20    1.79
   8   1  -2    9.29    1.46
  -8  -1   2    9.85    1.49
  -8  -1   2   10.22    1.70
  -8  -1   2   11.08    1.38
  -8  -1   2    5.98    1.71
  -8  -1   2   11.58    1.30
   7   1  -2   81.80    8.61
   7   1  -2   78.30    8.87
   7   1  -2   92.54    8.58
  -7  -1   2  103.10    8.57
  -7  -1   2   92.61    8.76
  -7  -1   2   88.54    8.65
  -7  -1   2   79.38    8.69
   6   1  -2   24.29    2.47
   6   1  -2   24.65    2.32
   6   1  -2   19.82    2.34
   6   1  -2   20.73    2.58
   6   1  -2   22.34    2.23
  -6  -1   2   24.20    2.28
  -6  -1   2   19.92    2.41
  -6  -1   2   22.60    2.32
   5   1  -2    2.12    0.28
   5   1  -2    1.35    0.38
   5   1  -2    1.64    0.47
   5   1  -2    1.58    0.36
   5   1  -2    1.42    0.54
  -5  -1   2    0.98    0.40
  -5  -1   2    1.69    0.35
  -5  -1   2    1.04    0.38
  -5  -1   2    1.68    0.31
  -5  -1   2    1.20    0.64
   4   1  -2   36.07    3.09
   4   1  -2   26.70    2.99
   4   1  -2   26.74    3.19
   4   1  -2   36.21    3.25
   4   1  -2   28.45    3.11
  -4  -1   2   31.42    3.02
  -4  -1   2   29.17    3.12
  -4  -1   2   33.85    3.06
   3   1  -2   16.42    2.00
   3   1  -2   19.73    1.87
   3   1  -2   18.03    1.98
  -3  -1   2   18.77    1.92
  -3  -1   2   14.86    2.03
  -3  -1   2   22.66    2.00
  -3  -1   2   19.13    1.86
   2   1  -2   34.26    3.26
   2   1  -2   27.88    3.29
   2   1  -2   30.75    3.22
   2   1  -2   35.74    3.19
  -2  -1   2   35.38    3.28
  -2  -1   2   30.28    3.22
  -2  -1   2   35.70    3.21
  -2  -1   2   35.38    3.32
   1   1  -2   25.73    2.40
   1   1  -2   26.13    2.42
   1   1  -2   21.92    2.47
   1   1  -2   26.70    2.47
  -1  -1   2   24.75    2.42
  -1  -1   2   23.06    2.48
  -1  -1   2   24.24    2.46
  -1  -1   2   25.91    2.40
   0   1  -2  102.88    9.07
   0   1  -2   89.60    9.12
   0   1  -2  100.42    9.16
   0  -1   2   93.77    9.09
   0  -1   2   88.55    9.12
  -1   1  -2  413.70   40.19
   1  -1   2  462.20   40.18
   1  -1   2  384.79   40.16
   1  -1   2  420.77   40.23
   1  -1   2  428.63   40.16
  -2   1  -2   73.23    7.63
  -2   1  -2   79.33    7.64
  -2   1  -2   82.37    7.72
  -2   1  -2   75.64    7.61
   2  -1   2   87.94    7.69
   2  -1   2   76.48    7.61
   2  -1   2   82.68    7.63
  -3   1  -2   30.78    3.27
  -3   1  -2   30.06    3.29
  -3   1  -2   36.36    3.41
  -3   1  -2   36.41    3.36
  -3   1  -2   34.83    3.31
   3  -1   2   31.80    3.28
   3  -1   2   35.98    3.31
   3  -1   2   35.73    3.38
  -4   1  -2   11.45    1.32
  -4   1  -2   12.79    1.21
  -4   1  -2   10.19    1.14
  -4   1  -2    9.97    1.19
   4  -1   2   12.64    1.16
   4  -1   2   11.11    1.21
   4  -1   2   11.40    1.30
  -5   1  -2    3.96    0.75
  -5   1  -2    5.14    0.53
  -5   1  -2    4.78    0.61
  -5   1  -2    4.70    0.88
  -5   1  -2    4.09    0.65
   5  -1   2    3.35    0.52
   5  -1   2    4.84    0.78
   5  -1   2    4.00    0.62
  -6   1  -2    3.43    0.54
  -6   1  -2    4.15    0.80
  -6   1  -2    2.94    0.59
  -6   1  -2    4.43    0.54
  -6   1  -2    3.75    0.89
   6  -1   2    3.46    0.78
   6  -1   2    3.53    0.53
   6  -1   2    3.34    0.61
  -7   1  -2    0.92    0.49
  -7   1  -2    1.74    0.88
  -7   1  -2    0.88    0.63
  -7   1  -2    0.67    0.29
  -7   1  -2    0.46    0.43
   7  -1   2    0.65    0.47
   7  -1   2    0.66    0.68
  -8   1  -2   27.85    3.94
  -8   1  -2   39.60    3.80
  -8   1  -2   34.57    3.37
  -8   1  -2   33.55    3.55
   8  -1   2   32.60    3.52
   8  -1   2   31.71    3.84
  -9   1  -2    0.84    1.38
  -9   1  -2    2.08    0.86
  -9   1  -2    0.84    0.45
   9  -1   2    0.22    0.82
 -10   1  -2    1.48    1.13
 -10   1  -2    0.67    1.95
 -10   1  -2    0.68    0.61
 -11   0   2    3.68    1.49
 -11   0   2    2.37    0.95
 -10   0   2    2.79    1.17
 -10   0   2    1.33    1.74
 -10   0   2    2.63    0.77
   9   0  -2    1.60    1.38
   9   0  -2    0.98    0.75
  -9   0   2    0.32    0.79
  -9   0   2    0.13    1.29
  -9   0   2    1.56    0.85
  -9   0   2    0.30    0.49
  -9   0   2    1.22    0.65
   8   0  -2   35.17    4.03
   8   0  -2   35.56    3.65
   7   0  -2   81.57    9.28
   7   0  -2  101.91    9.00
   7   0  -2   87.29    9.06
  -7   0   2  100.31    9.17
  -7   0   2   78.27    9.10
  -7   0   2   96.94    9.01
  -7   0   2  104.00    9.01
   6   0  -2   54.54    5.96
   6   0  -2   59.91    6.19
   6   0  -2   64.84    5.92
  -6   0   2   62.58    6.03
  -6   0   2   62.66    5.94
   5   0  -2   25.33    2.70
   5   0  -2   25.19    2.63
   5   0  -2   25.96    2.87
   5   0  -2   25.35    2.67
   5   0  -2   28.35    2.77
  -5   0   2   25.85    2.75
  -5   0   2   30.68    2.81
  -5   0   2   29.46    2.66
   4   0  -2    0.83    0.30
   4   0  -2    0.74    0.19
   4   0  -2    0.49    0.17
   4   0  -2    0.38    0.11
  -4   0   2    0.64    0.14
  -4   0   2    0.60    0.26
  -4   0   2    0.35    0.23
  -4   0   2    0.62    0.17
  -4   0   2    0.48    0.40
   3   0  -2    7.94    0.99
   3   0  -2    8.90    0.91
   3   0  -2    8.40    1.01
   3   0  -2   10.12    0.93
  -3   0   2    7.05    1.05
  -3   0   2    8.24    0.95
  -3   0   2    8.91    0.99
  -3   0   2    8.69    0.90
  -3   0   2    9.86    0.89
   2   0  -2   27.39    3.11
   2   0  -2   29.54    3.14
   2   0  -2   32.44    3.20
   2   0  -2   34.96    3.17
  -2   0   2   36.02    3.19
  -2   0   2   34.99    3.14
  -2   0   2   33.43    3.20
   1   0  -2  271.44   25.57
   1   0  -2  256.66   25.60
  -1   0   2  277.10   25.57
  -1   0   2  272.42   25.62
  -1   0   2  265.36   25.60
   0   0  -2  214.90   20.33
   0   0  -2  206.05   20.35
   0   0  -2  229.51   20.37
   0   0   2  225.42   20.33
   0   0   2  195.39   20.38
   0   0   2  216.06   20.37
   0   0   2  207.44   20.35
  -2   0  -2  170.50   15.47
  -2   0  -2  153.47   15.52
  -2   0  -2  145.71   15.46
   2   0   2  173.69   15.50
   2   0   2  169.05   15.54
   2   0   2  153.88   15.46
   2   0   2  167.12   15.46
  -3   0  -2    1.94    0.29
  -3   0  -2    2.14    0.41
  -3   0  -2    1.30    0.21
  -3   0  -2    0.90    0.35
  -3   0  -2    1.50    0.29
   3   0   2    1.84    0.32
   3   0   2    1.10    0.20
   3   0   2    1.57    0.38
   3   0   2    1.65    0.27
   3   0   2    1.36    0.26
  -4   0  -2   30.99    2.89
  -4   0  -2   26.86    2.81
  -4   0  -2   24.48    2.94
  -4   0  -2   25.64    2.72
  -4   0  -2   29.62    2.78
   4   0   2   32.39    2.83
   4   0   2   27.37    2.72
   4   0   2   30.51    2.76
   4   0   2   25.89    2.91
   4   0   2   25.22    2.78
  -5   0  -2   16.17    2.18
  -5   0  -2   16.89    1.95
  -5   0  -2   20.54    2.05
  -5   0  -2   20.80    1.95
   5   0   2   19.87    1.88
   5   0   2   15.22    1.92
  -6   0  -2    2.68    0.61
  -6   0  -2    3.05    0.47
  -6   0  -2    3.40    0.70
  -6   0  -2    1.84    0.82
  -6   0  -2    2.21    0.52
   6   0   2    2.90    0.81
   6   0   2    3.60    0.59
   6   0   2    1.81    0.46
  -7   0  -2    0.23    0.29
  -7   0  -2    0.60    0.91
  -7   0  -2   -0.04    0.43
  -7   0  -2    0.77    0.70
  -7   0  -2    0.33    0.55
   7   0   2    0.74    0.93
   7   0   2    1.00    0.56
  -8   0  -2    4.33    0.89
  -8   0  -2    9.10    1.39
  -8   0  -2    6.53    0.94
  -8   0  -2    6.79    1.15
  -8   0  -2    4.34    1.55
   8   0   2    5.85    1.05
   8   0   2    6.72    1.56
  -9   0  -2   11.04    1.36
  -9   0  -2    9.27    2.17
  -9   0  -2    9.09    1.60
   9   0   2    8.74    1.58
 -10   0  -2    0.09    2.27
 -10   0  -2    2.62    1.32
 -10   0  -2    0.74    0.77
 -11   1   2   -0.86    0.75
 -11   1   2   -0.50    1.21
 -11   1   2    1.27    2.04
 -10   1   2    0.34    1.46
 -10   1   2   -0.46    0.89
 -10   1   2   -0.14    0.57
   9  -1  -2   17.35    2.93
   9  -1  -2   19.09    2.28
  -9   1   2   21.68    2.12
  -9   1   2   19.95    2.13
  -9   1   2   16.45    2.79
  -9   1   2   19.75    2.37
   8  -1  -2    1.96    0.92
   8  -1  -2    1.22    0.36
   8  -1  -2    1.62    0.53
  -8   1   2    1.01    0.37
  -8   1   2    0.48    0.97
  -8   1   2    1.46    0.55
  -8   1   2    0.97    0.37
  -8   1   2    1.15    0.58
   7  -1  -2    1.08    0.68
   7  -1  -2    1.38    0.35
   7  -1  -2    1.52    0.30
   7  -1  -2    1.10    0.37
  -7   1   2    1.42    0.32
  -7   1   2    0.93    0.42
  -7   1   2    1.51    0.71
  -7   1   2    0.32    0.46
  -7   1   2    1.12    0.33
   6  -1  -2    5.93    0.79
   6  -1  -2    7.31    0.77
   6  -1  -2    6.18    0.70
   6  -1  -2    6.61    0.72
   6  -1  -2    6.36    1.06
  -6   1   2    5.47    0.78
  -6   1   2    5.82    0.89
  -6   1   2    7.21    0.88
  -6   1   2    5.89    0.74
  -6   1   2    5.61    1.06
   5  -1  -2   27.07    2.62
   5  -1  -2   22.46    2.75
   5  -1  -2   27.06    2.64
   5  -1  -2   29.72    2.62
  -5   1   2   29.87    2.63
  -5   1   2   26.03    2.70
  -5   1   2   24.38    2.68
   4  -1  -2  256.68   26.48
   4  -1  -2  308.05   26.43
   4  -1  -2  269.12   26.40
   4  -1  -2  270.14   26.40
  -4   1   2  283.51   26.47
  -4   1   2  264.45   26.45
  -4   1   2  279.94   26.41
  -4   1   2  285.21   26.41
   3  -1  -2   96.92    8.85
   3  -1  -2   85.67    8.83
   3  -1  -2   99.71    8.83
   3  -1  -2   86.01    8.87
   3  -1  -2   96.11    8.83
  -3   1   2  100.41    8.84
  -3   1   2   89.20    8.86
  -3   1   2   85.99    8.87
   2  -1  -2   91.35    7.52
   2  -1  -2   84.10    7.52
   2  -1  -2   75.19    7.53
  -2   1   2   78.53    7.53
  -2   1   2   74.65    7.56
  -2   1   2   68.15    7.52
  -2   1   2   80.28    7.54
   1  -1  -2   11.44    1.13
   1  -1  -2   10.75    1.13
   1  -1  -2   12.74    1.14
  -1   1   2   13.30    1.16
  -1   1   2   10.20    1.13
  -1   1   2   11.75    1.11
  -1   1   2   10.15    1.18
   0  -1  -2  293.49   25.44
   0  -1  -2  272.92   25.38
   0  -1  -2  240.12   25.38
   0   1   2  269.88   25.35
   0   1   2  257.54   25.40
   0   1   2  265.29   25.38
  -1  -1  -2  193.33   20.09
  -1  -1  -2  220.50   20.01
  -1  -1  -2  194.00   20.03
   1   1   2  215.43   20.02
   1   1   2  217.58   20.05
   1   1   2  219.10   20.01
   1   1   2  188.40   19.97
   1   1   2  230.47   20.09
  -2  -1  -2    2.90    0.48
  -2  -1  -2    2.69    0.44
  -2  -1  -2    3.63    0.40
  -2  -1  -2    2.75    0.33
  -2  -1  -2    3.20    0.48
  -2  -1  -2    3.23    0.63
   2   1   2    2.69    0.39
   2   1   2    3.33    0.45
   2   1   2    2.61    0.32
   2   1   2    3.01    0.54
   2   1   2    2.97    0.42
  -3  -1  -2   34.44    3.59
  -3  -1  -2   37.96    3.73
  -3  -1  -2   33.75    3.84
  -3  -1  -2   41.11    3.65
  -3  -1  -2   36.22    3.69
   3   1   2   36.09    3.64
   3   1   2   38.09    3.59
   3   1   2   39.97    3.72
   3   1   2   37.99    3.80
   3   1   2   36.43    3.67
  -4  -1  -2   92.37    7.97
  -4  -1  -2   76.53    7.90
  -4  -1  -2   86.91    7.85
  -4  -1  -2   66.09    8.07
   4   1   2   86.33    7.92
   4   1   2   79.47    7.88
   4   1   2   74.87    7.82
   4   1   2   88.93    7.79
   4   1   2   77.11    8.02
  -5  -1  -2   13.15    1.35
  -5  -1  -2    9.73    1.81
  -5  -1  -2   11.40    1.48
  -5  -1  -2   11.71    1.50
  -5  -1  -2   11.99    1.27
   5   1   2   11.58    1.42
   5   1   2   12.24    1.34
   5   1   2   10.80    1.64
   5   1   2   13.02    1.26
   5   1   2   13.65    1.44
  -6  -1  -2    2.33    1.02
  -6  -1  -2    4.89    0.95
  -6  -1  -2    4.41    0.60
  -6  -1  -2    2.43    0.70
   6   1   2    5.18    1.14
   6   1   2    3.70    0.70
   6   1   2    5.05    0.83
   6   1   2    3.47    0.58
   6   1   2    3.76    0.61
  -7  -1  -2    0.34    0.35
  -7  -1  -2   -0.25    0.45
  -7  -1  -2    0.56    0.64
  -7  -1  -2   -0.46    1.14
  -7  -1  -2    0.81    0.74
   7   1   2   -0.12    0.57
   7   1   2    0.71    0.93
  -8  -1  -2    2.84    1.67
  -8  -1  -2    3.16    0.89
  -8  -1  -2    2.32    1.19
  -8  -1  -2    3.55    0.60
  -8  -1  -2    0.51    0.92
   8   1   2    0.49    1.33
   8   1   2    1.96    0.88
  -9  -1  -2   -1.66    1.92
  -9  -1  -2   -0.22    0.59
  -9  -1  -2    0.51    1.17
   9   1   2    0.20    1.12
 -11   2   2    3.25    0.83
 -11   2   2    3.62    1.24
 -11   2   2    1.46    1.77
 -10   2   2    4.74    1.04
 -10   2   2    2.58    1.54
 -10   2   2    4.79    0.78
  -9   2   2    0.42    0.37
  -9   2   2   -0.56    0.99
  -9   2   2    0.35    0.42
   8  -2  -2    1.60    0.81
   8  -2  -2    1.82    0.30
  -8   2   2    1.26    0.90
  -8   2   2    1.63    0.38
  -8   2   2    1.96    0.62
  -8   2   2    0.92    0.37
  -8   2   2    1.76    0.60
   7  -2  -2    2.90    0.52
   7  -2  -2    3.80    0.75
  -7   2   2    4.59    0.54
  -7   2   2    3.32    0.48
  -7   2   2    2.26    0.79
  -7   2   2    2.80    0.61
  -7   2   2    2.83    0.60
   6  -2  -2    4.75    0.62
   6  -2  -2    5.61    0.85
  -6   2   2    5.04    0.78
  -6   2   2    4.88    0.59
  -6   2   2    5.01    0.72
  -6   2   2    3.38    0.79
   5  -2  -2   12.84    1.44
  -5   2   2   13.68    1.50
  -5   2   2   16.71    1.43
  -4   2   2   81.68    8.45
  -4   2   2   84.90    8.45
  -4   2   2   98.06    8.42
  -3   2   2    7.09    0.80
  -3   2   2    7.74    0.75
  -2   2   2   20.13    2.16
  -2   2   2   22.18    2.11
  -2   2   2   22.35    2.22
  -2   2   2   23.18    2.11
   1  -2  -2   37.11    3.63
   1  -2  -2   43.79    3.73
   1  -2  -2   42.31    3.67
   1  -2  -2   31.81    3.65
  -1   2   2   40.70    3.63
  -1   2   2   40.12    3.67
  -1   2   2   33.14    3.63
  -1   2   2   38.98    3.67
  -1   2   2   34.54    3.71
  -1   2   2   35.89    3.66
   0  -2  -2   49.48    5.40
   0  -2  -2   57.98    5.42
   0  -2  -2   54.32    5.49
   0  -2  -2   58.00    5.45
   0   2   2   62.10    5.51
   0   2   2   59.56    5.49
   0   2   2   57.20    5.43
   0   2   2   58.87    5.50
   0   2   2   52.57    5.39
   0   2   2   55.51    5.43
  -1  -2  -2   69.60    7.40
  -1  -2  -2   85.48    7.35
  -1  -2  -2   64.15    7.48
  -1  -2  -2   75.44    7.38
   1   2   2   77.46    7.42
   1   2   2   80.83    7.35
   1   2   2   74.06    7.36
   1   2   2   75.64    7.30
   1   2   2   84.93    7.47
  -2  -2  -2   85.08    8.99
  -2  -2  -2   86.89    9.11
  -2  -2  -2   97.67    9.10
  -2  -2  -2  109.61    9.14
  -2  -2  -2   83.54    9.24
   2   2   2   92.19    9.12
   2   2   2  101.71    9.07
   2   2   2   89.81    8.98
   2   2   2   98.95    9.04
   2   2   2   95.09    9.19
  -3  -2  -2    3.19    0.58
  -3  -2  -2    2.66    0.37
  -3  -2  -2    2.29    0.51
  -3  -2  -2    1.68    0.64
  -3  -2  -2    2.87    0.59
  -3  -2  -2    2.19    0.37
   3   2   2    2.04    0.51
   3   2   2    1.99    0.43
   3   2   2    3.21    0.57
   3   2   2    3.07    0.47
   3   2   2    2.06    0.33
  -4  -2  -2   30.70    3.37
  -4  -2  -2   28.14    3.78
  -4  -2  -2   38.22    3.62
  -4  -2  -2   40.36    3.59
  -4  -2  -2   31.98    3.53
  -4  -2  -2   33.58    3.42
   4   2   2   39.46    3.56
   4   2   2   32.76    3.48
   4   2   2   34.66    3.71
   4   2   2   36.18    3.43
   4   2   2   33.12    3.35
  -5  -2  -2   15.13    1.88
  -5  -2  -2   14.88    1.60
  -5  -2  -2   13.52    1.95
  -5  -2  -2   13.07    2.27
  -5  -2  -2   16.42    2.17
  -5  -2  -2   13.37    1.67
   5   2   2   15.96    1.69
   5   2   2   13.37    2.05
   5   2   2   17.50    1.80
   5   2   2   17.29    1.57
   5   2   2   16.03    1.81
  -6  -2  -2    1.24    0.71
  -6  -2  -2    1.65    0.76
  -6  -2  -2    0.80    0.36
  -6  -2  -2    1.51    1.20
  -6  -2  -2    1.29    0.92
   6   2   2    0.99    0.91
   6   2   2    0.77    0.53
   6   2   2    1.64    0.34
   6   2   2    1.49    0.65
  -7  -2  -2    1.10    0.81
  -7  -2  -2    1.75    0.95
  -7  -2  -2    0.70    0.43
  -7  -2  -2    0.03    2.58
  -7  -2  -2   -0.04    0.62
   7   2   2   -0.01    0.65
   7   2   2    0.82    1.16
  -8  -2  -2    3.39    1.19
  -8  -2  -2    2.28    2.06
  -8  -2  -2    2.62    0.65
   8   2   2    0.25    1.66
   8   2   2    2.73    0.99
  -9  -2  -2   -1.40    2.44
  -9  -2  -2   -0.02    0.70
   9   2   2    1.38    1.24
 -11   3   2    2.33    1.09
 -11   3   2    2.46    1.67
 -11   3   2    3.10    0.75
 -10   3   2    4.43    1.52
 -10   3   2    7.72    1.22
 -10   3   2    8.35    1.10
   9  -3  -2    0.96    0.32
   9  -3  -2    1.16    0.55
  -9   3   2    0.54    0.40
  -9   3   2   -0.01    0.97
  -9   3   2    1.04    0.67
  -9   3   2    0.47    0.42
  -9   3   2    1.08    0.67
   8  -3  -2   62.68    5.78
   8  -3  -2   62.18    5.84
  -8   3   2   55.29    5.82
  -8   3   2   55.30    5.91
  -8   3   2   64.71    5.95
   7  -3  -2    3.43    0.42
   7  -3  -2    3.66    0.54
  -7   3   2    3.64    0.51
  -7   3   2    2.52    0.75
  -7   3   2    3.90    0.60
  -7   3   2    3.88    0.55
  -7   3   2    4.27    0.67
  -6   3   2   20.19    1.85
  -6   3   2   16.66    1.87
  -5   3   2    0.84    0.18
  -4   3   2   13.30    1.55
  -4   3   2   16.52    1.49
  -4   3   2   14.87    1.65
  -3   3   2   16.02    1.64
   2  -3  -2   14.49    1.26
   2  -3  -2   13.61    1.44
   2  -3  -2   12.90    1.33
   2  -3  -2   11.38    1.29
  -2   3   2   11.94    1.32
  -2   3   2   15.65    1.33
  -2   3   2   11.25    1.32
  -2   3   2   12.06    1.28
   1  -3  -2   54.84    5.91
   1  -3  -2   59.51    5.99
   1  -3  -2   70.17    5.89
   1  -3  -2   62.33    5.93
  -1   3   2   57.63    5.96
  -1   3   2   61.69    5.90
  -1   3   2   57.72    5.99
  -1   3   2   66.90    5.90
  -1   3   2   60.47    5.96
  -1   3   2   61.91    5.88
   0  -3  -2    0.18    0.34
   0  -3  -2    0.25    0.21
   0  -3  -2    0.24    0.17
   0  -3  -2    0.42    0.16
   0  -3  -2    0.05    0.20
   0   3   2    0.12    0.22
   0   3   2    0.07    0.21
   0   3   2    0.36    0.18
   0   3   2    0.25    0.23
   0   3   2    0.25    0.13
   0   3   2    0.44    0.15
  -1  -3  -2    4.56    0.67
  -1  -3  -2    4.46    0.55
  -1  -3  -2    5.22    0.66
  -1  -3  -2    4.52    0.55
  -1  -3  -2    3.67    0.67
  -1  -3  -2    3.93    0.83
   1   3   2    4.52    0.57
   1   3   2    4.24    0.48
   1   3   2    4.43    0.59
   1   3   2    4.27    0.69
   1   3   2    4.96    0.75
  -2  -3  -2    8.76    1.51
  -2  -3  -2   10.82    1.25
  -2  -3  -2   10.96    1.21
  -2  -3  -2    8.88    1.19
  -2  -3  -2   11.35    1.10
  -2  -3  -2    9.40    1.07
   2   3   2    9.41    1.32
   2   3   2    9.97    1.02
   2   3   2    9.44    1.10
   2   3   2   10.85    1.26
   2   3   2    9.64    1.15
  -3  -3  -2   92.23    8.46
  -3  -3  -2   88.71    8.46
  -3  -3  -2   84.39    8.47
  -3  -3  -2   81.24    8.30
  -3  -3  -2   84.13    8.33
   3   3   2   90.37    8.63
   3   3   2   86.23    8.40
   3   3   2   80.90    8.57
   3   3   2   85.10    8.34
   3   3   2   88.85    8.26
  -4  -3  -2   20.81    2.99
  -4  -3  -2   22.10    2.65
  -4  -3  -2   21.54    2.37
  -4  -3  -2   20.03    2.41
  -4  -3  -2   22.63    2.61
  -4  -3  -2   27.38    2.62
   4   3   2   26.54    2.62
   4   3   2   26.40    2.45
   4   3   2   23.48    2.32
   4   3   2   22.26    2.50
   4   3   2   24.71    2.82
  -5  -3  -2   -0.15    0.32
  -5  -3  -2    0.31    1.04
  -5  -3  -2    0.64    0.80
  -5  -3  -2    0.41    0.45
  -5  -3  -2    0.41    0.69
  -5  -3  -2    0.26    0.59
   5   3   2    0.46    0.61
   5   3   2   -0.19    0.49
   5   3   2    0.53    0.45
   5   3   2    0.60    0.85
   5   3   2    0.60    0.26
  -6  -3  -2   -0.33    0.65
  -6  -3  -2   -0.64    1.38
  -6  -3  -2    0.94    0.82
  -6  -3  -2    0.16    0.43
   6   3   2    0.43    1.05
   6   3   2    0.65    0.75
   6   3   2   -0.62    0.62
  -7  -3  -2    2.93    1.15
  -7  -3  -2   -0.20    0.51
  -7  -3  -2   -1.31    1.84
  -7  -3  -2    0.77    1.14
   7   3   2    0.09    1.44
  -8  -3  -2    0.58    2.56
  -8  -3  -2    3.27    1.43
   8   3   2    3.32    1.27
   8   3   2    4.59    2.13
 -11   4   2    0.66    1.46
 -11   4   2   -0.73    0.59
 -11   4   2   -0.10    0.87
 -10   4   2   -0.52    0.94
 -10   4   2    0.37    0.45
 -10   4   2   -0.33    0.69
 -10   4   2   -1.15    1.09
  -9   4   2    0.21    0.49
  -9   4   2    0.04    0.54
  -9   4   2   -0.12    0.85
  -9   4   2   -0.34    0.63
  -9   4   2    0.22    0.36
  -8   4   2    2.70    0.47
  -7   4   2   53.66    5.12
  -7   4   2   49.23    4.97
  -6   4   2   76.49    7.02
  -6   4   2   66.92    7.04
  -5   4   2    8.46    1.08
  -5   4   2    8.69    0.91
  -5   4   2    9.03    1.06
  -4   4   2    8.52    1.04
  -3   4   2    6.60    0.93
  -3   4   2    8.96    1.00
  -3   4   2    8.30    0.79
   2  -4  -2   13.82    1.66
  -2   4   2   17.88    1.62
  -2   4   2   16.99    1.70
  -2   4   2   15.66    1.64
  -2   4   2   18.93    1.78
  -2   4   2   15.18    1.73
   1  -4  -2    3.39    0.78
   1  -4  -2    4.46    0.75
   1  -4  -2    5.74    0.63
   1  -4  -2    4.24    0.66
  -1   4   2    5.11    0.61
  -1   4   2    4.91    0.72
  -1   4   2    5.48    0.58
  -1   4   2    5.08    0.59
  -1   4   2    4.06    0.73
  -1   4   2    4.72    0.73
   0  -4  -2   12.46    1.32
   0  -4  -2   10.43    1.45
   0  -4  -2   14.04    1.30
   0  -4  -2   12.31    1.42
   0   4   2   12.86    1.30
   0   4   2   12.59    1.47
   0   4   2   11.34    1.31
   0   4   2   12.34    1.26
   0   4   2   12.14    1.47
  -1  -4  -2    0.81    0.38
  -1  -4  -2    0.21    0.58
  -1  -4  -2    0.34    0.25
  -1  -4  -2   -0.03    0.36
  -1  -4  -2    0.32    0.23
  -1  -4  -2    0.27    0.32
   1   4   2    0.11    0.24
   1   4   2    0.33    0.22
   1   4   2    0.58    0.37
   1   4   2    0.45    0.42
   1   4   2    0.49    0.17
  -2  -4  -2    1.47    0.34
  -2  -4  -2    1.34    0.43
  -2  -4  -2    1.62    0.59
  -2  -4  -2    0.05    0.79
  -2  -4  -2    1.44    0.51
  -2  -4  -2    1.54    0.38
   2   4   2    1.91    0.57
   2   4   2    2.34    0.44
   2   4   2    2.07    0.69
   2   4   2    1.66    0.43
   2   4   2    2.12    0.29
  -3  -4  -2   12.19    1.51
  -3  -4  -2    9.80    1.32
  -3  -4  -2   11.18    1.61
  -3  -4  -2   10.97    1.32
  -3  -4  -2   10.25    1.53
   3   4   2   12.42    1.37
   3   4   2   13.02    1.65
   3   4   2   10.61    1.41
   3   4   2   13.53    1.22
   3   4   2   10.62    1.76
  -4  -4  -2   11.66    1.62
  -4  -4  -2   10.08    1.42
  -4  -4  -2   12.15    1.72
  -4  -4  -2   11.12    1.38
  -4  -4  -2    8.87    1.92
   4   4   2   12.99    1.53
   4   4   2    9.43    1.98
   4   4   2   13.20    1.49
   4   4   2   12.55    1.69
   4   4   2   12.56    1.25
  -5  -4  -2   10.26    2.43
  -5  -4  -2   11.47    1.49
  -5  -4  -2   14.93    1.98
  -5  -4  -2    8.95    1.84
   5   4   2   13.23    2.39
   5   4   2   11.61    1.85
   5   4   2   10.25    1.68
   5   4   2   15.17    1.56
  -6  -4  -2    0.71    0.62
  -6  -4  -2   -1.02    1.01
  -6  -4  -2    2.63    1.82
  -6  -4  -2   -0.34    1.00
   6   4   2    0.06    1.42
   6   4   2    0.17    0.74
  -7  -4  -2    0.86    1.30
  -7  -4  -2    1.19    2.30
  -7  -4  -2   -0.66    0.68
   7   4   2   -0.39    0.94
   7   4   2    3.06    2.01
  -8  -4  -2   -2.41    1.57
  -8  -4  -2   -1.21    0.86
  -8  -4  -2    2.67    3.38
   8   4   2   -3.13    3.09
   8   4   2   -0.25    1.38
 -10   5   2    0.69    0.47
 -10   5   2    1.77    1.36
  -9   5   2    1.40    0.41
  -9   5   2    1.92    0.83
  -8   5   2    1.48    0.36
  -8   5   2    0.76    0.59
  -7   5   2    0.20    0.22
  -7   5   2    0.34    0.45
  -6   5   2    5.41    0.93
  -6   5   2    7.14    0.75
  -6   5   2    6.80    0.98
  -5   5   2  323.28   31.65
  -5   5   2  338.03   31.65
  -4   5   2  384.24   32.99
  -4   5   2  305.02   32.94
   3  -5  -2    4.31    0.42
   3  -5  -2    2.82    0.47
  -3   5   2    2.98    0.60
  -3   5   2    3.53    0.50
  -3   5   2    4.11    0.70
  -3   5   2    3.71    0.42
  -3   5   2    3.58    0.62
  -3   5   2    3.91    0.65
   2  -5  -2    0.15    0.46
   2  -5  -2    0.11    0.43
   2  -5  -2    0.55    0.25
   2  -5  -2    0.54    0.18
   2  -5  -2    0.64    0.27
  -2   5   2    0.67    0.38
  -2   5   2    0.54    0.39
  -2   5   2    0.59    0.24
  -2   5   2    0.49    0.27
  -2   5   2    0.16    0.16
  -2   5   2    0.25    0.39
   1  -5  -2    1.15    0.36
   1  -5  -2    0.49    0.56
   1  -5  -2    0.65    0.28
   1  -5  -2    0.58    0.31
   1  -5  -2    1.04    0.46
   1  -5  -2    0.57    0.24
  -1   5   2    0.78    0.29
  -1   5   2    0.45    0.24
  -1   5   2    0.35    0.26
  -1   5   2    0.20    0.43
  -1   5   2    0.46    0.42
   0  -5  -2    0.21    0.33
   0  -5  -2    0.02    0.24
   0  -5  -2    0.52    0.45
   0  -5  -2    0.02    0.25
   0  -5  -2    0.00    0.40
   0  -5  -2   -0.13    0.61
   0   5   2   -0.55    0.75
   0   5   2    0.66    0.45
   0   5   2   -0.26    0.24
   0   5   2    0.42    0.28
   0   5   2   -0.11    0.22
  -1  -5  -2    1.51    0.38
  -1  -5  -2    0.90    0.49
  -1  -5  -2    0.67    0.55
  -1  -5  -2    1.56    0.47
  -1  -5  -2    1.18    0.36
  -1  -5  -2    1.56    0.81
  -1  -5  -2    1.51    0.45
   1   5   2    1.49    0.37
   1   5   2    1.26    0.59
   1   5   2    1.78    0.62
   1   5   2    1.95    0.30
   1   5   2    2.07    0.45
  -2  -5  -2   12.82    1.48
  -2  -5  -2   13.70    1.68
  -2  -5  -2   12.65    1.72
  -2  -5  -2    9.48    2.07
  -2  -5  -2   15.30    1.76
   2   5   2   11.77    1.55
   2   5   2   13.81    1.92
   2   5   2   13.80    1.78
   2   5   2   14.69    1.61
  -3  -5  -2    2.30    0.80
  -3  -5  -2    2.32    0.68
  -3  -5  -2    2.70    0.81
  -3  -5  -2    3.37    0.60
  -3  -5  -2    1.54    1.18
   3   5   2    1.59    0.59
   3   5   2    1.69    0.76
   3   5   2    2.27    0.97
   3   5   2    1.71    0.78
   3   5   2    2.26    0.39
  -4  -5  -2   61.81    6.25
  -4  -5  -2   69.80    6.41
  -4  -5  -2   54.94    5.94
   4   5   2   64.75    6.24
   4   5   2   55.75    5.83
   4   5   2   66.98    6.02
   4   5   2   52.39    6.21
   4   5   2   56.11    6.50
  -5  -5  -2    3.07    0.75
  -5  -5  -2    0.62    1.78
   5   5   2    1.46    1.44
   5   5   2    1.85    1.07
   5   5   2    3.39    0.99
  -6  -5  -2    0.05    0.71
  -6  -5  -2    2.72    1.34
  -6  -5  -2    3.25    2.56
   6   5   2    0.96    0.88
  -7  -5  -2   -1.38    3.11
  -7  -5  -2    4.65    1.72
  -7  -5  -2    2.50    0.98
   7   5   2    1.26    2.37
   7   5   2   -1.23    1.26
 -10   6   2   -0.40    0.49
  -9   6   2    7.43    1.43
  -9   6   2    8.83    1.09
  -8   6   2    0.81    0.61
  -8   6   2    0.57    0.31
  -7   6   2    5.69    0.72
  -7   6   2    5.81    0.95
  -6   6   2    2.47    0.64
  -6   6   2    2.26    0.36
  -5   6   2   17.76    2.03
  -5   6   2   19.01    2.11
  -4   6   2   11.99    1.51
  -4   6   2   12.32    1.48
   3  -6  -2  127.70   11.86
  -3   6   2  122.82   11.74
  -3   6   2  125.24   11.82
  -3   6   2  121.42   11.78
  -3   6   2  124.08   11.87
  -3   6   2  112.69   11.93
  -3   6   2  125.82   11.90
   2  -6  -2    0.17    0.45
   2  -6  -2    2.26    0.45
   2  -6  -2    2.85    0.73
   2  -6  -2    1.61    0.43
   2  -6  -2    1.74    0.34
   2  -6  -2    0.28    0.66
  -2   6   2    1.45    0.38
  -2   6   2    1.78    0.44
  -2   6   2    1.35    0.62
  -2   6   2    1.73    0.58
  -2   6   2    1.69    0.34
   1  -6  -2    3.38    0.82
   1  -6  -2    4.19    0.65
   1  -6  -2    3.98    0.69
   1  -6  -2    3.15    0.70
  -1   6   2    4.19    0.68
  -1   6   2    4.61    0.66
  -1   6   2    4.72    0.64
  -1   6   2    3.86    0.85
  -1   6   2    3.28    0.84
   0  -6  -2    5.71    0.81
   0  -6  -2    3.43    0.85
   0  -6  -2    4.50    0.86
   0  -6  -2    4.92    0.77
   0   6   2    4.55    0.69
   0   6   2    3.98    0.71
   0   6   2    4.56    0.70
   0   6   2    4.42    1.05
   0   6   2    5.87    1.02
  -1  -6  -2    1.82    0.71
  -1  -6  -2    2.44    0.76
  -1  -6  -2    1.89    0.67
  -1  -6  -2    0.27    1.09
  -1  -6  -2    1.11    0.42
   1   6   2    2.07    0.85
   1   6   2    2.11    0.50
   1   6   2    1.19    0.34
   1   6   2    1.60    0.76
   1   6   2    1.99    0.53
  -2  -6  -2    0.02    0.45
  -2  -6  -2   -1.45    1.16
  -2  -6  -2    0.00    0.71
  -2  -6  -2    1.01    0.48
   2   6   2   -0.19    0.28
   2   6   2   -0.11    0.49
   2   6   2   -0.48    0.82
   2   6   2    0.48    0.74
   2   6   2   -0.07    0.46
  -3  -6  -2    8.08    1.22
  -3  -6  -2    4.26    1.22
   3   6   2    5.44    1.03
   3   6   2    7.35    1.70
   3   6   2    8.26    1.15
   3   6   2    7.26    0.93
  -4  -6  -2   -0.43    1.71
  -4  -6  -2    0.40    0.68
  -4  -6  -2    0.82    1.08
   4   6   2   -0.06    1.15
   4   6   2    0.58    0.52
   4   6   2    0.63    0.71
   4   6   2    0.34    1.35
  -5  -6  -2    2.10    0.88
  -5  -6  -2    2.48    2.41
  -5  -6  -2    2.48    1.49
   5   6   2    2.76    1.09
   5   6   2    5.76    1.97
  -6  -6  -2    9.41    3.63
  -6  -6  -2    4.05    1.18
  -6  -6  -2    4.86    1.89
   6   6   2    5.60    1.52
   6   6   2    7.75    2.68
  -9   7   2   12.67    1.48
  -8   7   2    0.53    0.71
  -8   7   2    0.02    0.34
  -7   7   2    1.56    0.66
  -7   7   2    0.93    0.32
  -6   7   2    6.20    1.24
  -6   7   2    8.34    0.88
  -5   7   2   17.71    2.09
  -4   7   2    5.08    0.57
  -4   7   2    4.81    0.91
  -4   7   2    4.73    0.80
  -4   7   2    7.31    1.12
  -4   7   2    4.81    0.65
   3  -7  -2   10.31    1.29
   3  -7  -2   10.74    1.86
   3  -7  -2   10.30    1.10
   3  -7  -2    7.79    1.30
  -3   7   2   10.34    1.38
  -3   7   2    9.68    1.41
  -3   7   2   10.22    1.19
  -3   7   2   11.98    1.11
   2  -7  -2   11.16    1.41
   2  -7  -2    9.91    1.50
   2  -7  -2   12.82    1.29
   2  -7  -2   13.27    1.84
  -2   7   2   10.53    1.37
  -2   7   2   11.57    1.28
  -2   7   2   12.09    1.45
  -2   7   2    8.26    1.67
  -2   7   2   13.44    1.70
   1  -7  -2   84.86    7.98
  -1   7   2   74.19    7.94
  -1   7   2   76.75    8.22
  -1   7   2   89.11    7.90
   0  -7  -2    3.97    0.75
   0  -7  -2    3.02    0.92
   0  -7  -2    1.68    1.01
   0   7   2    4.36    0.79
   0   7   2    6.39    0.93
   0   7   2    3.98    0.63
   0   7   2    6.06    1.15
  -1  -7  -2    1.26    0.66
  -1  -7  -2    1.05    1.34
  -1  -7  -2    1.29    0.88
   1   7   2    1.30    0.64
   1   7   2    2.16    0.43
   1   7   2    1.74    1.03
   1   7   2    1.86    0.95
   1   7   2    1.46    0.65
  -2  -7  -2    6.82    1.18
  -2  -7  -2    5.17    1.91
  -2  -7  -2    9.64    1.56
   2   7   2    8.71    1.80
   2   7   2    8.58    1.05
   2   7   2    6.50    1.20
   2   7   2    7.23    1.85
   2   7   2    8.42    1.23
  -3  -7  -2   -0.18    1.94
  -3  -7  -2    4.20    0.87
  -3  -7  -2    1.89    0.79
  -3  -7  -2    3.47    1.31
   3   7   2    3.76    1.55
   3   7   2    2.50    0.85
   3   7   2    2.80    0.61
   3   7   2    4.79    1.10
   3   7   2    4.01    1.89
  -4  -7  -2    4.59    1.67
  -4  -7  -2    1.56    2.37
  -4  -7  -2    2.49    0.99
   4   7   2    2.34    1.09
   4   7   2    5.77    1.96
  -5  -7  -2   -0.28    1.85
  -5  -7  -2    0.89    1.09
   5   7   2    1.74    2.26
   5   7   2    0.93    1.04
  -8   8   2    0.31    0.39
  -7   8   2    0.96    0.79
  -7   8   2    0.76    0.35
  -6   8   2    2.09    0.41
  -4   8   2    3.44    0.52
  -4   8   2    3.06    0.90
  -4   8   2    3.37    0.86
  -4   8   2    3.91    0.68
   3  -8  -2    3.08    1.39
   3  -8  -2    2.24    0.65
   3  -8  -2    2.20    0.43
   3  -8  -2    1.48    0.73
  -3   8   2    2.71    0.82
  -3   8   2    2.29    0.76
  -3   8   2    2.47    0.43
  -3   8   2    2.26    0.95
  -3   8   2    1.86    0.55
   2  -8  -2   10.20    1.89
   2  -8  -2   16.81    2.40
   2  -8  -2   14.00    1.74
  -2   8   2   14.06    2.00
  -2   8   2   11.42    1.76
  -2   8   2   16.58    1.60
  -2   8   2   12.71    2.15
  -2   8   2   16.52    2.13
   1  -8  -2    1.20    1.02
   1  -8  -2    0.57    0.54
   1  -8  -2    0.66    1.49
  -1   8   2   -0.68    0.48
  -1   8   2   -0.56    0.92
  -1   8   2    0.21    0.56
  -1   8   2   -0.26    0.84
  -1   8   2    0.14    0.56
   0  -8  -2    0.48    0.96
   0  -8  -2   -1.89    2.01
   0  -8  -2    0.09    0.55
   0   8   2   -0.72    0.60
   0   8   2   -0.45    0.63
   0   8   2   -1.12    0.97
   0   8   2    0.00    1.02
   0   8   2   -0.63    0.50
  -1  -8  -2    2.22    0.78
  -1  -8  -2    1.33    1.86
  -1  -8  -2    2.75    1.20
   1   8   2    3.89    1.36
   1   8   2    2.72    0.81
   1   8   2    2.47    1.35
   1   8   2    1.41    0.59
  -2  -8  -2   12.78    2.27
  -2  -8  -2   17.48    2.23
   2   8   2   16.04    3.07
   2   8   2   17.53    2.26
  -3  -8  -2    0.50    0.94
  -3  -8  -2    1.40    1.62
   3   8   2    1.35    1.72
   3   8   2    1.20    1.11
  -4  -8  -2    2.09    1.24
  -4  -8  -2    3.39    2.06
   4   8   2    1.29    1.30
   4   8   2    0.09    2.21
  -7   9   2    0.86    0.42
  -4   9   2    9.50    1.89
  -4   9   2    8.96    1.22
  -4   9   2   10.45    1.39
   3  -9  -2    3.85    0.89
  -3   9   2    5.12    0.88
  -3   9   2    6.46    1.25
  -3   9   2    4.28    1.32
   2  -9  -2    0.75    0.64
  -2   9   2    0.01    0.66
  -2   9   2   -0.77    1.12
   1  -9  -2    2.67    0.82
  -1   9   2    1.72    0.76
  -1   9   2   -0.40    1.25
   0  -9  -2   12.51    1.70
   0   9   2    8.56    2.06
   0   9   2   10.47    1.56
  -1  -9  -2    2.19    1.05
   1   9   2   -1.94    1.57
   1   9   2    0.98    0.90
  -2  -9  -2    0.60    1.14
   2   9   2   -0.89    1.83
   2   9   2    0.69    1.06
  -4  10   2    6.20    0.97
  -4  10   2    7.90    1.67
   3 -10  -2    0.67    0.80
  -3  10   2    2.07    1.46
  -3  10   2    1.32    0.78
   2 -10  -2    7.59    1.37
  -2  10   2    9.89    2.09
  -2  10   2    8.04    1.36
   1 -10  -2    9.04    1.57
  -1  10   2   10.63    2.38
  -1  10   2   10.07    1.62
   0 -10  -2   -0.15    1.03
   0  10   2    0.20    1.94
   0  10   2    1.62    1.14
  -1 -11   3    2.60    1.17
   0  11  -3   -0.60    1.98
   0  11  -3    0.73    1.11
   0 -11   3    0.50    0.89
  -1  11  -3   -0.58    1.91
  -1  11  -3    2.25    1.05
   1 -11   3    2.19    0.85
  -2  11  -3    0.89    1.68
  -2  11  -3    3.17    0.87
   2 -11   3   -0.33    0.71
  -3  11  -3    4.52    1.76
  -3  11  -3    5.33    1.00
  -4  11  -3    7.39    1.07
  -4  11  -3    6.30    1.80
  -5  11  -3    8.50    1.93
   3  10  -3   -0.56    2.25
   3  10  -3    1.94    1.25
  -3 -10   3   -1.89    0.99
  -3 -10   3   -0.53    2.10
   2  10  -3    0.21    1.84
   2  10  -3    2.70    1.13
  -2 -10   3    1.66    0.98
  -2 -10   3    1.42    1.95
   1  10  -3    3.14    1.08
   1  10  -3    4.35    1.79
  -1 -10   3    3.79    0.97
  -1 -10   3    2.74    1.83
   0  10  -3    0.95    1.49
   0  10  -3    2.31    0.92
   0 -10   3    0.48    0.72
   0 -10   3   -0.23    1.50
  -1  10  -3    1.29    0.79
  -1  10  -3    0.73    1.38
   1 -10   3    0.58    0.63
   1 -10   3    2.49    1.38
  -2  10  -3   -0.65    0.63
  -2  10  -3    2.57    1.33
   2 -10   3   -0.07    0.54
  -3  10  -3    0.65    1.19
  -3  10  -3   -0.55    0.52
  -4  10  -3   -1.20    1.04
  -4  10  -3    0.54    0.48
  -5  10  -3    0.85    1.14
  -5  10  -3    0.40    0.41
  -6  10  -3   18.02    1.86
  -7  10  -3   14.82    1.59
   5   9  -3   -0.56    2.53
   5   9  -3    0.64    1.34
  -5  -9   3    1.18    1.27
  -5  -9   3    2.95    2.43
  -5  -9   3    1.81    1.21
   4   9  -3   -1.86    1.98
   4   9  -3    0.72    1.05
  -4  -9   3    0.70    1.88
  -4  -9   3    1.07    0.90
   3   9  -3    2.04    1.69
   3   9  -3    1.60    0.95
  -3  -9   3    1.52    0.84
  -3  -9   3    5.68    2.28
  -3  -9   3   -1.25    2.50
   2   9  -3    0.75    1.23
   2   9  -3    0.43    1.37
   2   9  -3   -0.06    0.78
  -2  -9   3    2.00    0.73
  -2  -9   3   -0.95    1.33
  -2  -9   3    0.66    2.09
   1   9  -3   16.10    2.60
   1   9  -3   13.36    2.49
   1   9  -3   17.39    2.03
   1   9  -3   16.57    3.12
  -1  -9   3   10.75    2.13
  -1  -9   3   13.95    1.82
   0   9  -3   -1.10    1.07
   0   9  -3    0.94    0.69
   0   9  -3   -1.94    1.01
   0   9  -3    1.53    1.82
   0  -9   3    2.95    1.12
   0  -9   3   -0.27    0.48
   0  -9   3   -0.37    0.85
   0  -9   3    0.44    1.53
  -1   9  -3    0.09    0.59
  -1   9  -3    2.66    1.77
  -1   9  -3    1.45    1.08
  -1   9  -3    2.08    1.16
   1  -9   3    0.41    0.79
   1  -9   3   -0.53    0.96
   1  -9   3    0.50    0.46
  -2   9  -3    6.03    1.42
  -2   9  -3    4.38    1.90
  -2   9  -3    6.72    1.31
  -2   9  -3    5.13    0.91
   2  -9   3    7.97    1.36
   2  -9   3    2.54    1.38
   2  -9   3    5.88    1.25
  -3   9  -3    0.41    1.00
  -3   9  -3    1.93    1.65
  -3   9  -3    1.07    0.94
  -3   9  -3   -0.17    0.42
   3  -9   3   -0.65    0.75
   3  -9   3    0.30    1.06
  -4   9  -3    1.39    0.95
  -4   9  -3    1.04    0.93
  -4   9  -3    1.39    0.42
  -4   9  -3    1.66    2.21
   4  -9   3   -1.08    0.76
  -5   9  -3   -0.15    0.31
  -5   9  -3   -1.90    1.64
  -5   9  -3    0.15    0.90
  -6   9  -3    1.12    1.80
  -6   9  -3    3.69    1.14
  -6   9  -3    1.34    0.34
  -7   9  -3    2.11    0.44
  -8   9  -3    0.51    0.41
  -8   9  -3    0.46    0.54
  -8   9  -3    0.79    0.66
   6   8  -3    1.91    1.29
   6   8  -3   -3.29    2.36
  -6  -8   3    1.22    1.15
  -6  -8   3   -1.19    2.09
  -6  -8   3   -2.83    3.23
   5   8  -3   14.57    2.47
   5   8  -3   22.32    3.87
  -5  -8   3   14.53    2.18
  -5  -8   3    6.66    3.44
  -5  -8   3   21.12    2.91
  -5  -8   3   15.74    2.33
   4   8  -3    0.94    2.50
   4   8  -3    1.49    1.62
   4   8  -3    1.99    0.91
  -4  -8   3    3.34    0.87
  -4  -8   3    2.25    2.35
  -4  -8   3    3.08    1.54
  -4  -8   3    2.73    0.86
   3   8  -3    1.14    0.74
   3   8  -3    1.46    1.24
   3   8  -3    1.40    1.98
   3   8  -3    1.78    1.28
  -3  -8   3    0.90    0.56
  -3  -8   3    1.31    1.85
  -3  -8   3    3.33    1.30
   2   8  -3    1.19    0.66
   2   8  -3    0.27    1.01
   2   8  -3    2.04    1.82
  -2  -8   3    2.40    0.63
  -2  -8   3   -2.02    1.54
  -2  -8   3    1.61    1.00
   1   8  -3   12.54    1.73
   1   8  -3    8.56    1.88
   1   8  -3   11.19    2.15
   1   8  -3   10.51    1.74
  -1  -8   3    9.77    1.74
  -1  -8   3   10.85    1.67
   0   8  -3    0.67    0.90
   0   8  -3    0.70    0.86
   0   8  -3   -0.36    0.50
   0   8  -3   -0.33    1.35
   0   8  -3   -0.39    0.61
   0  -8   3    0.77    0.66
   0  -8   3    0.87    1.23
   0  -8   3    0.33    0.39
   0  -8   3   -1.05    0.80
  -1   8  -3    4.18    0.95
  -1   8  -3    2.59    0.66
  -1   8  -3    0.23    1.29
  -1   8  -3    3.16    0.73
  -1   8  -3    2.75    1.02
   1  -8   3    2.18    0.71
   1  -8   3    2.09    0.51
   1  -8   3    2.46    0.87
  -2   8  -3   13.63    1.93
  -2   8  -3   12.93    1.51
  -2   8  -3   10.74    2.15
  -2   8  -3   10.47    1.63
  -2   8  -3   11.61    2.01
   2  -8   3   10.42    1.70
   2  -8   3   15.47    1.66
   2  -8   3   13.26    1.48
  -3   8  -3    2.61    0.87
  -3   8  -3    1.86    0.46
  -3   8  -3    3.01    1.34
  -3   8  -3    1.27    0.93
  -3   8  -3    1.73    0.89
   3  -8   3    1.74    0.64
   3  -8   3    2.35    0.68
  -4   8  -3   -0.04    0.30
  -4   8  -3    0.95    0.76
  -4   8  -3    0.36    0.88
  -4   8  -3   -0.86    1.38
   4  -8   3   -0.47    0.51
   4  -8   3    0.66    0.59
   4  -8   3   -1.09    0.72
  -5   8  -3    0.32    0.25
  -5   8  -3    0.32    1.49
  -5   8  -3    0.37    0.78
  -5   8  -3    0.57    0.74
   5  -8   3   -0.21    0.42
   5  -8   3    0.56    0.58
  -6   8  -3    0.12    0.83
  -6   8  -3   -2.18    1.37
  -6   8  -3    0.64    0.84
   6  -8   3    0.33    0.39
  -7   8  -3    0.92    0.34
  -7   8  -3   -0.22    1.49
  -7   8  -3    0.37    0.43
  -8   8  -3    3.08    0.58
  -8   8  -3    5.61    1.06
  -8   8  -3    3.51    0.66
  -9   8  -3    9.67    1.25
  -9   8  -3    6.68    1.00
   7   7  -3   -3.57    2.44
   7   7  -3    1.16    1.40
  -7  -7   3    1.41    3.33
  -7  -7   3   -1.59    1.04
  -7  -7   3    3.46    1.89
   6   7  -3   -0.11    1.00
   6   7  -3    0.49    2.18
  -6  -7   3   -0.25    0.86
  -6  -7   3    1.45    2.54
  -6  -7   3    2.86    1.61
   5   7  -3    1.87    2.55
   5   7  -3    3.24    1.72
   5   7  -3    0.05    0.77
  -5  -7   3    1.66    1.27
  -5  -7   3    2.09    0.79
  -5  -7   3    2.05    2.11
   4   7  -3    2.02    1.86
   4   7  -3    1.71    0.68
   4   7  -3    0.33    1.23
  -4  -7   3    2.13    0.70
  -4  -7   3    1.42    1.70
  -4  -7   3    0.29    0.99
   3   7  -3   20.71    3.44
   3   7  -3   19.19    2.23
   3   7  -3   17.96    2.73
   3   7  -3   16.90    2.44
  -3  -7   3   18.95    2.13
  -3  -7   3   16.34    2.14
  -3  -7   3   21.18    2.81
  -3  -7   3   22.14    2.66
   2   7  -3    5.57    1.33
   2   7  -3    5.31    0.97
   2   7  -3    4.83    0.82
   2   7  -3    8.06    1.22
   2   7  -3    5.15    1.88
  -2  -7   3    7.54    1.41
  -2  -7   3    2.26    1.45
  -2  -7   3    5.89    1.17
  -2  -7   3    5.98    0.90
   1   7  -3    0.99    0.73
   1   7  -3   -0.09    0.72
   1   7  -3    0.63    0.52
   1   7  -3   -0.23    1.15
   1   7  -3    0.28    0.42
  -1  -7   3   -1.34    1.04
  -1  -7   3   -0.13    0.71
  -1  -7   3    0.28    0.31
  -1  -7   3    0.86    0.82
   0   7  -3    1.39    0.48
   0   7  -3    0.81    0.76
   0   7  -3    1.77    0.77
   0   7  -3    0.96    0.47
   0   7  -3   -0.08    1.02
   0  -7   3    0.03    0.96
   0  -7   3    1.61    0.72
   0  -7   3    1.65    0.51
   0  -7   3    1.53    0.49
   0  -7   3    0.84    0.36
   0  -7   3    2.50    0.79
  -1   7  -3    2.56    0.78
  -1   7  -3    3.57    0.66
  -1   7  -3    2.24    0.54
  -1   7  -3    3.07    1.15
  -1   7  -3    1.98    0.83
   1  -7   3    1.87    0.82
   1  -7   3    2.55    0.76
   1  -7   3    3.51    0.65
   1  -7   3    1.69    0.88
   1  -7   3    3.78    0.61
  -2   7  -3    0.03    0.61
  -2   7  -3   -0.45    0.93
  -2   7  -3   -0.04    0.31
  -2   7  -3   -0.30    0.58
  -2   7  -3    0.18    0.40
  -2   7  -3    0.35    0.40
   2  -7   3    0.30    0.67
   2  -7   3    0.31    0.36
   2  -7   3   -0.23    0.72
   2  -7   3   -0.01    0.41
   2  -7   3    0.18    0.29
  -3   7  -3    6.37    0.81
  -3   7  -3    7.63    1.16
  -3   7  -3    6.50    1.24
  -3   7  -3    3.74    1.27
   3  -7   3    6.54    0.95
   3  -7   3    4.84    0.88
   3  -7   3    6.62    1.18
  -4   7  -3    4.27    0.63
  -4   7  -3    4.90    0.96
  -4   7  -3    7.67    1.17
  -4   7  -3    2.52    1.24
   4  -7   3    4.68    0.73
   4  -7   3    4.70    0.78
   4  -7   3    4.90    0.89
   4  -7   3    4.48    1.08
  -5   7  -3    6.42    1.20
  -5   7  -3    8.15    0.82
  -5   7  -3    4.83    1.54
   5  -7   3    7.43    1.08
   5  -7   3    7.30    1.02
  -6   7  -3    9.84    1.02
  -6   7  -3    7.23    1.36
   6  -7   3    8.20    1.07
   6  -7   3   10.30    1.24
   6  -7   3    9.29    1.31
  -7   7  -3    1.71    1.32
  -7   7  -3    2.13    0.98
  -7   7  -3    3.82    0.61
  -7   7  -3    2.36    0.49
  -7   7  -3    2.72    0.46
   7  -7   3    2.61    0.53
  -8   7  -3    3.36    0.77
  -8   7  -3    2.85    0.57
  -8   7  -3    4.92    0.68
  -9   7  -3    2.37    0.93
  -9   7  -3    3.19    0.67
  -9   7  -3    1.55    0.56
   8   6  -3    3.32    1.40
  -8  -6   3    4.30    1.21
  -8  -6   3    1.04    3.11
  -8  -6   3    3.10    2.12
   7   6  -3    1.64    1.96
   7   6  -3    0.27    0.97
  -7  -6   3    0.59    1.50
  -7  -6   3   -2.78    2.35
  -7  -6   3    0.01    0.84
   6   6  -3   -0.23    1.44
   6   6  -3    0.42    0.75
  -6  -6   3   -0.31    1.93
  -6  -6   3    0.00    1.32
  -6  -6   3   -0.16    1.17
  -6  -6   3    0.75    0.68
   5   6  -3    1.52    1.66
   5   6  -3    0.26    1.18
   5   6  -3    0.75    0.67
  -5  -6   3    0.21    1.00
  -5  -6   3   -1.67    1.49
  -5  -6   3    0.14    0.60
  -5  -6   3   -1.04    1.00
   4   6  -3   -0.76    0.42
   4   6  -3   -0.19    0.88
   4   6  -3    0.49    0.57
   4   6  -3    0.20    0.67
   4   6  -3    1.27    1.40
  -4  -6   3   -1.87    1.17
  -4  -6   3   -0.49    0.90
  -4  -6   3    0.71    0.72
  -4  -6   3    0.04    0.48
  -4  -6   3   -0.22    0.60
   3   6  -3    0.55    0.34
   3   6  -3    0.24    0.73
   3   6  -3    0.92    1.18
   3   6  -3    0.05    0.41
   3   6  -3    1.14    0.64
  -3  -6   3    0.31    0.50
  -3  -6   3   -0.54    0.66
  -3  -6   3   -0.40    0.39
  -3  -6   3    0.74    0.67
  -3  -6   3   -0.25    1.04
   2   6  -3   72.71    7.47
   2   6  -3   65.02    7.07
   2   6  -3   74.18    7.18
  -2  -6   3   72.30    7.12
  -2  -6   3   76.76    7.35
  -2  -6   3   71.78    7.11
  -2  -6   3   71.94    7.15
  -2  -6   3   80.24    7.42
   1   6  -3   42.97    4.31
   1   6  -3   42.23    4.26
   1   6  -3   41.05    4.59
  -1  -6   3   40.72    4.25
  -1  -6   3   44.68    4.31
  -1  -6   3   46.77    4.55
  -1  -6   3   42.64    4.48
   0   6  -3   22.56    3.43
   0   6  -3   35.16    3.17
   0   6  -3   26.11    2.98
   0   6  -3   33.67    2.99
   0   6  -3   25.87    3.23
   0  -6   3   30.59    3.18
   0  -6   3   29.86    2.95
   0  -6   3   29.05    2.99
   0  -6   3   30.48    3.23
  -1   6  -3   -0.10    0.48
  -1   6  -3    0.24    0.25
  -1   6  -3   -0.90    0.50
  -1   6  -3    0.34    0.32
  -1   6  -3    1.02    0.80
  -1   6  -3    0.15    0.24
   1  -6   3   -0.10    0.31
   1  -6   3    0.43    0.49
   1  -6   3   -0.12    0.20
   1  -6   3    0.05    0.63
   1  -6   3    0.12    0.29
   1  -6   3   -0.33    0.54
  -2   6  -3    1.18    0.35
  -2   6  -3    0.86    0.85
  -2   6  -3    1.03    0.31
  -2   6  -3    1.69    0.58
  -2   6  -3    1.12    0.60
   2  -6   3    0.79    0.57
   2  -6   3    0.32    0.58
   2  -6   3    1.95    0.34
   2  -6   3    0.95    0.37
   2  -6   3    1.22    0.51
   2  -6   3    0.94    0.29
  -3   6  -3   14.75    1.79
  -3   6  -3   15.27    1.51
  -3   6  -3   16.39    1.83
  -3   6  -3   12.94    1.58
   3  -6   3   12.83    1.85
   3  -6   3   13.19    1.60
   3  -6   3   15.05    1.59
  -4   6  -3    0.51    0.18
  -4   6  -3    0.61    0.49
  -4   6  -3    0.56    0.55
  -4   6  -3    0.23    0.33
  -4   6  -3    0.24    0.74
   4  -6   3    0.05    0.28
   4  -6   3    0.22    0.40
   4  -6   3   -0.46    0.66
   4  -6   3    0.23    0.36
  -5   6  -3   19.45    2.59
  -5   6  -3   25.97    2.34
   5  -6   3   20.17    2.74
   5  -6   3   26.05    2.39
   5  -6   3   19.38    2.44
   5  -6   3   28.09    2.50
  -6   6  -3   93.95    8.89
   6  -6   3  103.09    8.99
   6  -6   3   80.03    8.95
  -7   6  -3    4.24    0.77
  -7   6  -3    3.66    0.61
  -7   6  -3    1.61    1.24
  -7   6  -3    3.94    0.58
  -7   6  -3    2.65    0.95
  -8   6  -3    0.17    0.31
  -8   6  -3   -0.17    1.30
  -8   6  -3    0.49    0.58
  -8   6  -3   -0.07    0.39
  -9   6  -3    1.15    0.41
  -9   6  -3    1.23    0.92
  -9   6  -3    0.26    0.58
 -10   6  -3    1.10    0.57
   9   5  -3   23.57    3.40
  -9  -5   3   13.65    4.03
  -9  -5   3   22.91    3.42
  -9  -5   3   20.89    2.96
   8   5  -3    3.40    2.23
   8   5  -3   -1.54    0.97
  -8  -5   3    1.06    0.88
  -8  -5   3   -2.38    2.47
  -8  -5   3    1.46    1.49
   7   5  -3    1.24    1.57
   7   5  -3    0.07    0.91
  -7  -5   3   -0.79    1.46
  -7  -5   3   -2.21    1.86
  -7  -5   3   -0.09    1.11
  -7  -5   3   -1.20    0.63
   6   5  -3   -0.80    0.56
   6   5  -3   -0.45    1.09
  -6  -5   3    1.19    0.64
  -6  -5   3    1.36    0.71
  -6  -5   3   -0.30    0.92
  -6  -5   3   -0.36    1.10
  -6  -5   3    0.58    1.57
   5   5  -3   -0.01    0.51
   5   5  -3    2.23    0.86
   5   5  -3    0.53    0.87
   5   5  -3    0.39    1.19
  -5  -5   3    1.39    0.63
  -5  -5   3    1.07    1.08
  -5  -5   3    1.29    0.93
  -5  -5   3    0.94    0.51
  -5  -5   3    1.31    0.84
   4   5  -3    0.45    0.27
   4   5  -3   -0.09    0.72
   4   5  -3    0.80    0.52
   4   5  -3   -0.18    0.35
   4   5  -3   -0.10    1.06
  -4  -5   3    0.05    0.60
  -4  -5   3    1.18    0.68
  -4  -5   3    0.83    0.50
  -4  -5   3    1.10    0.41
  -4  -5   3   -0.06    1.01
   3   5  -3    4.23    1.18
   3   5  -3    4.07    0.85
   3   5  -3    3.28    0.52
   3   5  -3    4.77    0.76
   3   5  -3    3.43    0.94
  -3  -5   3    2.38    1.04
  -3  -5   3    3.50    0.62
  -3  -5   3    3.24    0.75
  -3  -5   3    4.83    0.69
  -3  -5   3    3.77    0.78
   2   5  -3    0.26    0.26
   2   5  -3   -0.27    0.47
   2   5  -3    0.27    0.75
   2   5  -3    0.24    0.31
   2   5  -3   -0.10    0.52
  -2  -5   3    0.10    0.45
  -2  -5   3    0.16    0.77
  -2  -5   3   -0.22    0.27
  -2  -5   3   -0.19    0.29
  -2  -5   3    0.05    0.45
   1   5  -3   34.89    3.50
   1   5  -3   40.17    3.63
   1   5  -3   32.36    3.70
   1   5  -3   35.99    3.46
   1   5  -3   28.66    3.84
  -1  -5   3   35.42    3.45
  -1  -5   3   32.79    3.67
  -1  -5   3   32.67    3.62
  -1  -5   3   39.72    3.51
   0   5  -3    6.33    0.95
   0   5  -3    3.67    0.81
   0   5  -3    6.87    0.76
   0   5  -3    4.82    0.70
   0   5  -3    2.74    0.97
   0  -5   3    5.54    0.71
   0  -5   3    5.36    0.64
   0  -5   3    5.53    0.99
   0  -5   3    5.50    0.87
   0  -5   3    3.90    0.98
  -1   5  -3   32.04    3.54
  -1   5  -3   33.91    3.34
  -1   5  -3   36.77    3.49
  -1   5  -3   32.40    3.32
   1  -5   3   32.32    3.52
   1  -5   3   32.20    3.32
   1  -5   3   35.70    3.35
  -2   5  -3    0.67    0.63
  -2   5  -3    1.95    0.37
  -2   5  -3    2.59    0.57
  -2   5  -3    1.97    0.56
  -2   5  -3    1.87    0.34
   2  -5   3    1.81    0.39
   2  -5   3    2.55    0.51
   2  -5   3    2.77    0.42
   2  -5   3    1.41    0.59
  -3   5  -3   -0.01    0.13
  -3   5  -3    0.30    0.41
  -3   5  -3    0.43    0.57
  -3   5  -3    0.33    0.27
  -3   5  -3   -0.05    0.34
   3  -5   3    0.38    0.27
   3  -5   3   -0.11    0.37
   3  -5   3    0.05    0.26
   3  -5   3    0.01    0.48
  -4   5  -3    0.26    0.65
  -4   5  -3    1.88    0.42
  -4   5  -3    1.19    0.47
  -4   5  -3    0.80    0.19
   4  -5   3    1.20    0.36
   4  -5   3    1.14    0.28
   4  -5   3    0.71    0.29
   4  -5   3    0.31    0.59
  -5   5  -3    1.93    0.47
  -5   5  -3    2.53    0.61
  -5   5  -3    0.87    0.66
   5  -5   3    2.53    0.47
   5  -5   3    2.14    0.80
   5  -5   3    2.60    0.38
   5  -5   3    1.62    0.45
  -6   5  -3    1.54    0.30
  -6   5  -3    0.31    0.75
  -6   5  -3    1.29    0.35
  -6   5  -3    1.08    0.30
  -6   5  -3    2.12    0.62
   6  -5   3    1.11    0.45
   6  -5   3    1.27    0.45
   6  -5   3    0.74    0.82
   6  -5   3    1.47    0.34
  -7   5  -3    0.96    0.29
  -7   5  -3    1.20    0.47
  -7   5  -3    0.18    0.65
  -7   5  -3    1.16    0.34
  -7   5  -3    0.80    0.85
   7  -5   3    0.95    0.37
   7  -5   3    1.09    0.59
  -8   5  -3    4.05    1.02
  -8   5  -3    4.78    0.94
  -8   5  -3    4.82    0.70
  -8   5  -3    4.31    0.69
  -8   5  -3    1.80    1.26
   8  -5   3    4.69    0.75
   8  -5   3    4.49    1.00
  -9   5  -3    3.93    0.79
  -9   5  -3    2.86    0.57
  -9   5  -3    4.91    1.17
 -10   5  -3    3.05    0.70
 -10   5  -3    4.16    0.96
 -10   5  -3    2.82    1.54
   9   4  -3    3.32    1.31
  -9  -4   3    5.19    2.67
  -9  -4   3    0.54    1.64
  -9  -4   3    4.02    1.09
   8   4  -3    3.58    1.79
   8   4  -3    2.81    1.06
  -8  -4   3    2.83    1.32
  -8  -4   3    2.45    2.04
  -8  -4   3    3.04    0.84
   7   4  -3   12.34    2.36
   7   4  -3   15.21    1.90
  -7  -4   3   18.04    2.49
  -7  -4   3   13.87    1.72
  -7  -4   3   10.99    1.89
  -7  -4   3    9.96    1.79
   6   4  -3   -0.32    0.99
   6   4  -3    0.58    0.56
   6   4  -3    0.16    1.02
  -6  -4   3   -0.60    0.77
  -6  -4   3   -0.78    0.53
  -6  -4   3    1.02    1.29
  -6  -4   3   -0.29    0.71
  -6  -4   3    0.05    0.46
   5   4  -3   10.66    1.44
   5   4  -3   12.86    1.56
   5   4  -3    9.69    1.88
   5   4  -3   11.17    2.12
   5   4  -3   13.21    1.25
  -5  -4   3   12.88    1.79
  -5  -4   3   12.34    1.41
  -5  -4   3    8.49    1.61
  -5  -4   3   10.54    1.45
   4   4  -3    1.22    0.82
   4   4  -3    1.59    0.41
   4   4  -3    1.50    0.67
   4   4  -3    1.54    0.30
   4   4  -3    0.93    0.52
  -4  -4   3    0.59    0.69
  -4  -4   3    0.48    0.37
  -4  -4   3    0.81    0.51
  -4  -4   3    2.24    0.46
  -4  -4   3    2.08    0.66
   3   4  -3    2.91    1.01
   3   4  -3    4.59    0.55
   3   4  -3    5.68    0.86
   3   4  -3    3.42    0.60
   3   4  -3    3.46    0.83
  -3  -4   3    2.74    0.94
  -3  -4   3    5.29    0.71
  -3  -4   3    3.24    0.74
  -3  -4   3    4.40    0.64
   2   4  -3    0.53    0.28
   2   4  -3    1.29    0.28
   2   4  -3    0.51    0.62
   2   4  -3    1.08    0.49
  -2  -4   3    0.81    0.27
  -2  -4   3    0.60    0.31
  -2  -4   3    1.70    0.52
  -2  -4   3    1.00    0.64
  -2  -4   3    0.19    0.36
   1   4  -3    4.67    0.64
   1   4  -3    3.99    0.85
   1   4  -3    6.86    0.87
   1   4  -3    4.07    0.97
   1   4  -3    4.86    0.65
  -1  -4   3    2.81    0.92
  -1  -4   3    5.24    0.66
  -1  -4   3    5.87    0.88
  -1  -4   3    4.52    0.63
  -1  -4   3    5.61    0.60
  -1  -4   3    5.26    0.90
   0   4  -3   23.18    2.35
   0   4  -3   25.59    2.48
   0   4  -3   21.49    2.50
   0  -4   3   25.30    2.32
   0  -4   3   22.10    2.45
   0  -4   3   21.74    2.50
  -1   4  -3    0.81    0.36
  -1   4  -3    1.28    0.24
  -1   4  -3    0.89    0.35
  -1   4  -3    0.70    0.45
  -1   4  -3    1.73    0.30
   1  -4   3    1.53    0.27
   1  -4   3    0.63    0.37
   1  -4   3    0.83    0.46
  -2   4  -3    0.36    0.15
  -2   4  -3    0.73    0.23
  -2   4  -3    0.01    0.31
  -2   4  -3    0.27    0.43
  -2   4  -3    0.47    0.31
   2  -4   3    0.66    0.23
   2  -4   3    0.67    0.38
   2  -4   3    0.26    0.25
  -3   4  -3   26.19    2.55
  -3   4  -3   25.13    2.68
   3  -4   3   28.42    2.73
   3  -4   3   23.90    2.76
   3  -4   3   25.13    2.60
   3  -4   3   27.86    2.62
  -4   4  -3    5.69    0.60
  -4   4  -3    4.27    0.76
  -4   4  -3    5.87    0.73
   4  -4   3    5.05    0.68
   4  -4   3    4.76    0.97
   4  -4   3    5.38    0.66
   4  -4   3    6.50    0.78
  -5   4  -3    0.92    0.22
  -5   4  -3    0.37    0.52
  -5   4  -3    1.33    0.42
   5  -4   3    1.39    0.58
   5  -4   3    1.50    0.28
   5  -4   3    0.47    0.34
   5  -4   3    1.02    0.29
  -6   4  -3    1.31    0.26
  -6   4  -3    1.42    0.65
  -6   4  -3    0.66    0.25
  -6   4  -3    1.19    0.37
  -6   4  -3    1.11    0.49
   6  -4   3    1.84    0.76
   6  -4   3    0.61    0.29
   6  -4   3    0.85    0.44
   6  -4   3    1.05    0.34
  -7   4  -3    0.58    0.33
  -7   4  -3    0.38    0.27
  -7   4  -3    0.14    0.39
  -7   4  -3    0.65    0.54
  -7   4  -3    0.61    0.77
  -7   4  -3    0.66    0.57
   7  -4   3    0.46    0.59
   7  -4   3    0.58    0.39
  -8   4  -3    0.97    0.45
  -8   4  -3   -0.07    0.25
  -8   4  -3    0.72    0.72
  -8   4  -3    1.48    0.95
  -8   4  -3    0.56    0.58
  -8   4  -3    0.48    0.72
   8  -4   3   -0.26    0.85
  -9   4  -3   11.26    2.14
  -9   4  -3   12.71    1.63
  -9   4  -3   10.63    1.34
 -10   4  -3    4.02    1.61
 -10   4  -3    1.45    0.58
 -10   4  -3    2.92    0.94
 -10  -3   3    3.55    1.74
 -10  -3   3    3.31    1.17
 -10  -3   3   -0.05    2.67
   9   3  -3    0.55    1.07
  -9  -3   3    0.44    0.81
  -9  -3   3   -0.72    1.27
  -9  -3   3    0.05    2.07
   8   3  -3   -0.74    0.72
   8   3  -3   -0.98    1.37
  -8  -3   3   -0.59    1.59
  -8  -3   3   -0.18    0.96
  -8  -3   3    0.26    0.79
  -8  -3   3   -0.56    0.58
  -8  -3   3    0.94    1.17
   7   3  -3   -0.40    0.50
   7   3  -3    1.20    1.10
  -7  -3   3   -0.07    1.19
  -7  -3   3   -0.31    0.60
   6   3  -3   22.34    2.81
   6   3  -3   21.88    2.79
   6   3  -3   20.99    2.39
   6   3  -3   22.65    2.39
  -6  -3   3   19.62    2.30
  -6  -3   3   23.21    2.61
  -6  -3   3   21.98    2.49
  -6  -3   3   22.08    2.56
   5   3  -3    9.15    1.11
   5   3  -3    8.76    1.56
   5   3  -3    5.99    1.26
   5   3  -3    7.05    1.03
  -5  -3   3    7.50    1.04
  -5  -3   3    8.38    1.30
  -5  -3   3    6.86    0.99
  -5  -3   3    9.18    1.27
   4   3  -3    0.35    0.25
   4   3  -3    0.98    0.41
   4   3  -3    0.76    0.20
   4   3  -3    0.65    0.50
   4   3  -3    0.29    0.61
  -4  -3   3    0.12    0.39
  -4  -3   3    0.99    0.49
  -4  -3   3    0.51    0.29
  -4  -3   3    0.12    0.31
  -4  -3   3    0.26    0.67
   3   3  -3    1.76    0.41
   3   3  -3    1.54    0.65
   3   3  -3    1.79    0.50
  -3  -3   3    1.84    0.37
  -3  -3   3    1.09    0.57
  -3  -3   3    3.07    0.54
  -3  -3   3    2.03    0.52
   2   3  -3   16.79    1.61
   2   3  -3   14.53    1.46
   2   3  -3   12.90    1.68
   2   3  -3   10.82    1.76
   2   3  -3   13.92    1.51
  -2  -3   3   16.60    1.49
  -2  -3   3   14.96    1.51
  -2  -3   3   13.67    1.61
  -2  -3   3   13.64    1.66
   1   3  -3    0.32    0.27
   1   3  -3    0.47    0.46
   1   3  -3    0.25    0.28
   1   3  -3    0.19    0.17
   1   3  -3    0.31    0.16
  -1  -3   3    0.22    0.28
  -1  -3   3    0.04    0.15
  -1  -3   3    0.21    0.11
  -1  -3   3    0.35    0.31
  -1  -3   3   -0.01    0.15
   0   3  -3    8.77    0.96
   0   3  -3    9.23    1.13
   0   3  -3    9.01    1.08
   0   3  -3    9.75    0.96
   0   3  -3    8.66    0.93
   0  -3   3    8.51    0.96
   0  -3   3    8.77    1.09
   0  -3   3    8.94    1.12
   0  -3   3    8.90    0.93
  -1   3  -3   58.39    5.07
  -1   3  -3   49.15    5.15
  -1   3  -3   52.82    5.21
  -1   3  -3   49.11    5.07
   1  -3   3   51.83    5.14
   1  -3   3   51.05    5.08
   1  -3   3   60.21    5.07
   1  -3   3   46.50    5.19
  -2   3  -3    1.59    0.24
  -2   3  -3    1.73    0.27
  -2   3  -3    1.67    0.40
  -2   3  -3    0.71    0.31
   2  -3   3    1.38    0.40
   2  -3   3    1.78    0.33
   2  -3   3    1.64    0.27
   2  -3   3    0.87    0.32
  -3   3  -3   54.26    5.09
  -3   3  -3   45.48    5.17
   3  -3   3   57.72    5.14
   3  -3   3   53.41    5.29
   3  -3   3   53.60    5.13
  -4   3  -3   19.16    1.96
   4  -3   3   17.49    1.97
   4  -3   3   21.78    1.99
   4  -3   3   21.38    2.21
  -5   3  -3    2.77    0.50
  -5   3  -3    1.66    1.03
  -5   3  -3    2.33    0.36
  -5   3  -3    2.69    0.49
  -5   3  -3    2.47    0.42
  -5   3  -3    2.53    0.51
   5  -3   3    2.63    0.44
   5  -3   3    2.82    0.68
  -6   3  -3    4.31    0.76
  -6   3  -3    2.75    0.61
  -6   3  -3    3.09    0.81
  -6   3  -3    4.53    0.52
  -6   3  -3    4.23    0.60
  -6   3  -3    3.79    0.70
   6  -3   3    4.03    0.60
   6  -3   3    3.43    0.59
  -7   3  -3    0.35    0.53
  -7   3  -3    0.59    0.47
  -7   3  -3    0.56    0.47
  -7   3  -3    0.37    0.22
  -7   3  -3   -0.01    0.35
  -7   3  -3    0.03    0.69
   7  -3   3    0.56    0.40
   7  -3   3    0.66    0.60
  -8   3  -3   -0.12    0.49
  -8   3  -3    0.01    0.89
  -8   3  -3   -0.58    0.25
  -8   3  -3    0.68    0.66
  -8   3  -3    0.74    0.67
  -8   3  -3   -1.05    0.76
   8  -3   3    0.92    0.55
   8  -3   3    0.14    0.82
  -9   3  -3    2.48    0.76
  -9   3  -3    1.85    1.26
  -9   3  -3    2.92    0.52
   9  -3   3    2.06    0.84
 -10   3  -3    2.22    1.00
 -10   3  -3    1.36    0.56
 -10   3  -3    1.12    1.63
 -10  -2   3   -0.47    2.07
 -10  -2   3    2.31    1.46
 -10  -2   3   -0.57    0.87
   9   2  -3    0.43    0.89
  -9  -2   3    0.76    1.04
  -9  -2   3    1.54    0.70
  -9  -2   3    1.71    1.73
   8   2  -3   -0.29    0.60
   8   2  -3    0.52    1.26
  -8  -2   3   -0.36    1.33
  -8  -2   3    0.50    0.57
  -8  -2   3   -0.31    0.48
  -8  -2   3    0.30    0.97
  -8  -2   3   -0.24    0.75
   7   2  -3   -0.35    0.95
   7   2  -3    0.42    0.46
  -7  -2   3   -0.59    0.68
  -7  -2   3   -0.26    0.43
  -7  -2   3   -0.06    0.38
  -7  -2   3   -0.48    0.63
  -7  -2   3   -0.33    1.09
   6   2  -3    0.14    0.73
   6   2  -3    0.82    0.22
   6   2  -3    0.98    0.42
   6   2  -3    0.45    0.66
   6   2  -3    0.49    0.42
  -6  -2   3    0.72    0.33
  -6  -2   3   -0.22    0.82
  -6  -2   3    0.83    0.53
  -6  -2   3    0.40    0.53
   5   2  -3    0.63    0.19
   5   2  -3    0.73    0.58
   5   2  -3    0.74    0.34
   5   2  -3    1.19    0.34
   5   2  -3    1.10    0.61
  -5  -2   3    1.35    0.33
  -5  -2   3    0.82    0.49
  -5  -2   3    1.37    0.35
  -5  -2   3    0.78    0.44
  -5  -2   3    0.97    0.70
   4   2  -3   32.04    2.92
   4   2  -3   26.66    3.17
   4   2  -3   29.55    3.01
   4   2  -3   32.88    3.06
   4   2  -3   27.05    3.24
  -4  -2   3   28.09    2.99
  -4  -2   3   32.28    3.18
  -4  -2   3   30.78    2.97
  -4  -2   3   29.79    3.10
   3   2  -3   26.89    2.56
   3   2  -3   25.67    2.78
   3   2  -3   21.76    2.82
   3   2  -3   29.61    2.71
   3   2  -3   24.62    2.62
  -3  -2   3   26.08    2.59
  -3  -2   3   26.26    2.71
  -3  -2   3   28.89    2.79
   2   2  -3   91.43   10.55
   2   2  -3  101.72   10.45
   2   2  -3  122.50   10.53
   2   2  -3  111.59   10.41
  -2  -2   3  116.11   10.54
  -2  -2   3  116.29   10.46
  -2  -2   3  110.18   10.43
  -2  -2   3  101.96   10.57
   1   2  -3    2.33    0.42
   1   2  -3    1.12    0.45
   1   2  -3    2.10    0.33
   1   2  -3    1.95    0.44
   1   2  -3    2.57    0.31
  -1  -2   3    0.90    0.51
  -1  -2   3    1.50    0.39
  -1  -2   3    2.39    0.33
  -1  -2   3    2.17    0.32
  -1  -2   3    2.16    0.44
   0   2  -3    5.80    0.81
   0   2  -3    6.47    0.75
   0   2  -3    6.28    0.67
   0   2  -3    6.81    0.64
   0  -2   3    7.11    0.79
   0  -2   3    6.21    0.67
   0  -2   3    5.44    0.79
   0  -2   3    4.47    0.83
  -1   2  -3    2.70    0.46
  -1   2  -3    1.62    0.25
  -1   2  -3    2.03    0.25
  -1   2  -3    1.65    0.33
   1  -2   3    2.07    0.25
   1  -2   3    1.25    0.35
   1  -2   3    2.07    0.43
   1  -2   3    2.00    0.28
   1  -2   3    1.46    0.28
  -2   2  -3   72.05    7.52
  -2   2  -3   67.04    7.45
  -2   2  -3   77.53    7.46
   2  -2   3   80.97    7.48
   2  -2   3   86.45    7.59
   2  -2   3   84.37    7.51
  -3   2  -3  112.37    9.84
  -3   2  -3  107.56    9.85
  -3   2  -3   89.19    9.99
  -3   2  -3  100.36    9.90
   3  -2   3  103.40    9.85
  -4   2  -3   11.75    1.31
  -4   2  -3   13.58    1.38
  -4   2  -3   11.70    1.38
  -4   2  -3   12.19    1.35
  -4   2  -3   11.58    1.28
  -4   2  -3   13.45    1.55
   4  -2   3   14.02    1.44
   4  -2   3   14.47    1.35
   4  -2   3   13.20    1.31
  -5   2  -3    0.17    0.30
  -5   2  -3    0.12    0.12
  -5   2  -3   -0.22    0.19
  -5   2  -3    0.41    0.32
  -5   2  -3    0.23    0.29
  -5   2  -3   -0.20    0.38
   5  -2   3    0.05    0.17
   5  -2   3    0.39    0.36
   5  -2   3    0.73    0.50
   5  -2   3    0.06    0.24
  -6   2  -3   11.84    1.41
  -6   2  -3   11.96    1.48
  -6   2  -3   14.38    1.71
  -6   2  -3   11.66    1.60
  -6   2  -3   13.97    1.33
  -6   2  -3   10.62    1.44
   6  -2   3   14.24    1.62
   6  -2   3   12.42    1.35
   6  -2   3   13.09    1.42
  -7   2  -3    0.09    0.42
  -7   2  -3    0.39    0.24
  -7   2  -3   -0.81    0.64
  -7   2  -3   -0.05    0.66
  -7   2  -3    0.66    0.56
   7  -2   3   -0.55    0.64
   7  -2   3    0.53    0.43
  -8   2  -3    0.93    0.94
  -8   2  -3    1.54    0.63
  -8   2  -3    2.99    0.74
  -8   2  -3    1.27    0.81
  -8   2  -3    2.00    0.40
  -8   2  -3    2.01    1.02
   8  -2   3    1.54    0.99
   8  -2   3    1.91    0.63
  -9   2  -3   -0.56    0.72
  -9   2  -3   -0.27    1.28
  -9   2  -3    0.41    0.40
   9  -2   3    0.52    0.82
 -10   2  -3    1.30    0.62
 -10   2  -3    0.90    1.07
 -10   2  -3    0.39    1.84
 -10  -1   3    4.53    0.95
 -10  -1   3    4.28    1.37
 -10  -1   3   -0.22    1.90
   9   1  -3    0.98    0.79
   9   1  -3   -2.09    1.67
  -9  -1   3    1.41    1.52
  -9  -1   3    2.10    0.66
  -9  -1   3    1.77    0.72
  -9  -1   3   -0.10    0.89
   8   1  -3    2.79    0.73
   8   1  -3    1.76    1.11
  -8  -1   3    0.67    1.22
  -8  -1   3    2.41    0.91
  -8  -1   3    2.09    0.97
  -8  -1   3    2.79    0.59
  -8  -1   3    2.96    0.70
   7   1  -3   27.43    3.00
   7   1  -3   27.26    3.05
   7   1  -3   34.23    2.98
   7   1  -3   26.31    3.37
  -7  -1   3   30.81    3.01
  -7  -1   3   32.52    3.26
  -7  -1   3   24.88    3.15
  -7  -1   3   30.14    2.99
   6   1  -3    7.12    1.04
   6   1  -3    8.05    1.36
   6   1  -3    7.82    0.86
   6   1  -3    8.37    1.01
   6   1  -3    7.89    1.22
  -6  -1   3    8.77    1.22
  -6  -1   3    6.37    1.16
  -6  -1   3    8.39    0.95
   5   1  -3   -0.54    0.40
   5   1  -3   -0.04    0.12
   5   1  -3    0.39    0.29
   5   1  -3   -0.20    0.26
   5   1  -3   -0.12    0.41
  -5  -1   3    0.20    0.20
  -5  -1   3    0.28    0.33
  -5  -1   3    0.12    0.38
  -5  -1   3   -0.10    0.57
  -5  -1   3    0.51    0.27
   4   1  -3   45.45    3.83
   4   1  -3   44.38    3.93
   4   1  -3   35.66    4.02
   4   1  -3   33.68    3.87
   4   1  -3   36.36    4.05
  -4  -1   3   42.20    3.85
  -4  -1   3   34.66    3.94
  -4  -1   3   40.94    3.89
  -4  -1   3   41.73    4.02
   3   1  -3   13.39    1.28
   3   1  -3   10.08    1.39
   3   1  -3   11.80    1.16
   3   1  -3   11.00    1.21
   3   1  -3   10.61    1.33
  -3  -1   3   10.76    1.30
  -3  -1   3   12.67    1.23
  -3  -1   3   11.46    1.35
  -3  -1   3   12.72    1.20
   2   1  -3    1.29    0.17
   2   1  -3    0.53    0.29
   2   1  -3    0.97    0.27
   2   1  -3    0.88    0.19
   2   1  -3    0.94    0.29
  -2  -1   3    0.81    0.18
  -2  -1   3    0.89    0.18
  -2  -1   3    1.23    0.32
  -2  -1   3    0.25    0.29
  -2  -1   3    1.13    0.28
   1   1  -3    0.04    0.08
   1   1  -3    0.08    0.15
   1   1  -3    0.12    0.10
   1   1  -3    0.08    0.14
   1   1  -3   -0.08    0.23
  -1  -1   3   -0.02    0.17
  -1  -1   3    0.15    0.34
  -1  -1   3    0.08    0.18
  -1  -1   3    0.15    0.10
  -1  -1   3    0.08    0.08
   0   1  -3  292.03   26.39
   0   1  -3  256.43   26.46
   0   1  -3  268.97   26.41
   0  -1   3  291.50   26.43
  -1   1  -3  930.35   88.55
  -2   1  -3    7.88    1.01
  -2   1  -3    8.26    0.86
  -2   1  -3    8.05    0.91
  -2   1  -3    7.40    0.89
   2  -1   3    9.79    0.90
   2  -1   3    7.89    0.86
   2  -1   3    9.76    0.98
  -3   1  -3   46.46    4.53
  -3   1  -3   44.25    4.47
  -3   1  -3   48.16    4.63
  -3   1  -3   48.38    4.52
  -3   1  -3   39.58    4.49
  -3   1  -3   45.35    4.44
   3  -1   3   48.94    4.49
   3  -1   3   44.06    4.46
   3  -1   3   51.41    4.59
  -4   1  -3    9.16    1.05
  -4   1  -3    8.11    1.06
  -4   1  -3   10.86    1.23
  -4   1  -3    9.48    0.96
  -4   1  -3    8.87    1.13
  -4   1  -3    9.01    1.02
   4  -1   3    9.60    0.99
   4  -1   3    9.81    1.04
   4  -1   3    9.53    1.16
  -5   1  -3    2.82    0.45
  -5   1  -3    3.22    0.71
  -5   1  -3    4.43    0.81
  -5   1  -3    3.78    0.65
  -5   1  -3    2.74    0.52
   5  -1   3    3.96    0.79
   5  -1   3    4.13    0.51
   5  -1   3    4.10    0.61
  -6   1  -3    6.45    0.73
  -6   1  -3    5.87    0.92
  -6   1  -3    6.61    0.91
  -6   1  -3    5.88    0.97
  -6   1  -3    6.89    1.18
  -6   1  -3    6.58    1.20
   6  -1   3    4.46    0.99
   6  -1   3    5.45    0.90
  -7   1  -3    0.98    0.76
  -7   1  -3    0.78    0.82
  -7   1  -3    0.83    0.31
  -7   1  -3    0.87    0.58
  -7   1  -3    0.79    0.69
  -7   1  -3    0.92    0.47
   7  -1   3    1.98    1.06
   7  -1   3    1.32    0.54
  -8   1  -3    9.67    1.59
  -8   1  -3   10.10    1.91
  -8   1  -3    9.29    1.92
  -8   1  -3    9.83    1.57
  -8   1  -3   13.01    2.05
  -8   1  -3   12.11    1.27
   8  -1   3    9.42    1.57
  -9   1  -3   25.21    2.63
  -9   1  -3   27.92    3.05
  -9   1  -3   22.48    3.82
   9  -1   3   23.23    2.99
 -10   1  -3    0.17    2.11
 -10   1  -3    0.15    0.67
 -11   0   3    1.82    2.19
 -11   0   3    1.76    1.43
 -11   0   3    2.12    0.99
 -10   0   3   -0.11    0.66
 -10   0   3   -0.35    1.55
 -10   0   3    0.26    1.04
   9   0  -3    0.49    1.31
   9   0  -3    1.95    0.80
  -9   0   3    3.10    0.62
  -9   0   3    1.42    0.82
  -9   0   3    1.77    0.60
  -9   0   3    1.16    0.82
  -9   0   3    0.15    1.24
   8   0  -3   -0.24    0.57
   8   0  -3    1.98    1.04
  -8   0   3   -0.03    0.36
  -8   0   3    0.22    0.61
  -8   0   3   -0.11    0.64
  -8   0   3    0.25    0.40
   7   0  -3   -0.07    0.73
   7   0  -3   -0.28    0.39
   7   0  -3   -0.07    0.21
   7   0  -3   -0.35    0.33
   7   0  -3    0.00    0.43
  -7   0   3    0.64    0.74
  -7   0   3    0.01    0.31
  -7   0   3    0.25    0.49
  -7   0   3    0.63    0.50
  -7   0   3   -0.20    0.25
   6   0  -3  122.38   10.35
   6   0  -3  101.46   10.40
   6   0  -3  110.29   10.47
   6   0  -3  117.48   10.39
   6   0  -3  103.40   10.59
  -6   0   3  101.06   10.36
  -6   0   3   97.85   10.47
   5   0  -3   16.87    1.81
   5   0  -3   14.91    1.87
   5   0  -3   17.27    1.70
   5   0  -3   16.54    1.71
  -5   0   3   17.15    1.66
  -5   0   3   15.28    1.81
  -5   0   3   16.23    1.79
  -5   0   3   17.15    1.69
   4   0  -3   48.30    4.32
   4   0  -3   43.74    4.30
   4   0  -3   40.72    4.41
   4   0  -3   38.77    4.25
   4   0  -3   41.06    4.40
  -4   0   3   44.70    4.27
  -4   0   3   47.64    4.38
  -4   0   3   45.46    4.41
  -4   0   3   48.69    4.31
   3   0  -3   10.76    1.12
   3   0  -3   11.11    1.25
   3   0  -3   11.36    1.16
   3   0  -3   12.54    1.20
   3   0  -3    9.97    1.28
  -3   0   3   10.96    1.26
  -3   0   3   11.68    1.14
  -3   0   3   12.21    1.17
  -3   0   3   12.02    1.25
   2   0  -3   24.11    2.45
   2   0  -3   26.48    2.53
   2   0  -3   25.37    2.50
  -2   0   3   29.00    2.53
  -2   0   3   24.92    2.43
  -2   0   3   24.51    2.46
  -2   0   3   22.77    2.53
   1   0  -3    2.20    0.26
   1   0  -3    2.10    0.34
   1   0  -3    2.76    0.25
  -1   0   3    2.18    0.36
  -1   0   3    2.02    0.27
  -1   0   3    2.19    0.35
   0   0  -3   98.31   10.63
   0   0  -3  114.30   10.57
   0   0  -3  109.18   10.61
   0   0   3  108.43   10.58
   0   0   3  123.72   10.60
  -1   0  -3   63.36    5.65
  -1   0  -3   55.42    5.61
  -1   0  -3   57.82    5.66
  -1   0  -3   60.24    5.73
  -1   0  -3   54.51    5.58
   1   0   3   57.86    5.67
   1   0   3   62.25    5.61
   1   0   3   56.57    5.62
  -2   0  -3    0.34    0.20
  -2   0  -3   -0.05    0.06
  -2   0  -3   -0.01    0.12
  -2   0  -3    0.13    0.18
  -2   0  -3    0.52    0.16
  -2   0  -3    0.12    0.20
   2   0   3    0.19    0.10
   2   0   3   -0.11    0.18
   2   0   3    0.16    0.12
   2   0   3    0.42    0.34
  -3   0  -3    4.48    0.50
  -3   0  -3    4.81    0.73
  -3   0  -3    4.34    0.66
  -3   0  -3    4.89    0.59
  -3   0  -3    4.77    0.60
  -3   0  -3    4.89    0.73
   3   0   3    5.03    0.75
   3   0   3    4.06    0.58
  -4   0  -3    4.48    0.73
  -4   0  -3    4.29    0.90
  -4   0  -3    5.58    0.83
  -4   0  -3    5.51    0.60
  -4   0  -3    5.77    0.88
   4   0   3    5.21    0.89
   4   0   3    5.78    0.73
   4   0   3    5.85    0.67
  -5   0  -3    1.43    0.54
  -5   0  -3    1.89    0.43
  -5   0  -3    2.04    0.67
  -5   0  -3    1.50    0.53
  -5   0  -3    1.82    0.46
  -5   0  -3    1.85    0.31
   5   0   3    1.80    0.45
   5   0   3    1.60    0.58
  -6   0  -3    3.78    0.72
  -6   0  -3    3.50    0.60
  -6   0  -3    3.55    0.52
  -6   0  -3    2.49    0.79
  -6   0  -3    3.39    1.05
  -6   0  -3    3.13    0.80
   6   0   3    3.02    0.60
   6   0   3    2.77    0.82
  -7   0  -3   -0.73    0.81
  -7   0  -3    1.03    1.07
  -7   0  -3   -0.27    0.52
  -7   0  -3   -0.32    0.31
  -7   0  -3    0.92    0.61
   7   0   3   -0.76    0.50
   7   0   3    0.71    0.89
  -8   0  -3    3.49    0.63
  -8   0  -3    6.26    1.42
  -8   0  -3    3.90    0.94
  -8   0  -3    3.04    1.57
   8   0   3    3.35    0.93
   8   0   3    1.97    1.39
  -9   0  -3   11.58    2.65
  -9   0  -3   12.01    1.51
  -9   0  -3   12.24    1.86
   9   0   3    9.04    1.64
 -11   1   3    1.51    1.88
 -11   1   3    2.23    1.26
 -11   1   3    0.49    0.82
 -10   1   3   16.09    1.85
 -10   1   3   12.68    2.00
   9  -1  -3    2.05    1.30
   9  -1  -3    0.28    0.65
  -9   1   3    1.66    1.27
  -9   1   3    1.34    0.49
  -9   1   3    2.21    0.81
  -9   1   3    2.16    0.75
  -9   1   3    1.72    0.51
   8  -1  -3    1.31    0.50
   8  -1  -3    1.53    0.36
   8  -1  -3    1.51    0.95
  -8   1   3    0.14    0.95
  -8   1   3   -0.25    0.59
  -8   1   3    1.36    0.39
  -8   1   3    1.67    0.38
  -8   1   3    0.52    0.54
   7  -1  -3   -0.05    0.23
   7  -1  -3    0.49    0.61
   7  -1  -3    0.35    0.27
   7  -1  -3   -0.09    0.20
   7  -1  -3    0.24    0.34
  -7   1   3    0.04    0.25
  -7   1   3   -0.09    0.23
  -7   1   3   -0.18    0.39
  -7   1   3    0.18    0.46
  -7   1   3    0.52    0.70
   6  -1  -3    8.56    1.33
   6  -1  -3   10.96    1.12
   6  -1  -3   11.08    1.08
   6  -1  -3   11.19    1.07
  -6   1   3    8.73    1.25
  -6   1   3   10.76    1.23
  -6   1   3    8.85    1.08
   5  -1  -3    3.86    0.46
   5  -1  -3    4.56    0.50
   5  -1  -3    4.07    0.54
   5  -1  -3    3.53    0.72
  -5   1   3    3.97    0.65
  -5   1   3    3.85    0.63
  -5   1   3    2.91    0.73
  -5   1   3    4.41    0.50
   4  -1  -3   50.27    4.96
   4  -1  -3   50.51    4.89
   4  -1  -3   57.31    4.88
   4  -1  -3   50.70    4.93
   4  -1  -3   48.11    4.89
  -4   1   3   47.59    4.89
  -4   1   3   49.07    4.97
  -4   1   3   53.30    4.96
   3  -1  -3    0.88    0.22
   3  -1  -3    0.81    0.21
   3  -1  -3    0.67    0.17
   3  -1  -3    0.71    0.12
   3  -1  -3    0.78    0.12
  -3   1   3    0.68    0.22
  -3   1   3    0.28    0.29
  -3   1   3    0.76    0.15
  -3   1   3    1.01    0.26
  -3   1   3    0.40    0.12
   2  -1  -3   10.55    0.90
   2  -1  -3    7.82    0.94
  -2   1   3    8.37    0.92
  -2   1   3    8.70    0.98
  -2   1   3   10.00    0.94
  -2   1   3    9.53    0.90
  -2   1   3    9.14    0.93
   1  -1  -3   11.09    1.21
   1  -1  -3   11.64    1.24
   1  -1  -3   13.96    1.22
  -1   1   3   12.22    1.21
  -1   1   3   12.13    1.31
  -1   1   3   13.21    1.28
   0  -1  -3   17.03    1.89
   0  -1  -3   20.48    1.88
   0  -1  -3   18.00    1.84
   0  -1  -3   18.73    1.91
   0  -1  -3   18.84    1.83
   0   1   3   18.64    1.83
   0   1   3   16.63    1.89
   0   1   3   20.14    1.82
  -1  -1  -3    4.59    0.57
  -1  -1  -3    3.64    0.47
  -1  -1  -3    4.42    0.47
  -1  -1  -3    3.28    0.55
  -1  -1  -3    3.33    0.52
   1   1   3    3.23    0.38
   1   1   3    3.82    0.48
   1   1   3    4.02    0.47
   1   1   3    3.95    0.44
   1   1   3    4.82    0.57
   1   1   3    2.67    0.53
  -2  -1  -3    0.68    0.35
  -2  -1  -3    1.01    0.16
  -2  -1  -3    1.20    0.32
  -2  -1  -3    1.00    0.29
  -2  -1  -3    0.39    0.22
   2   1   3    1.19    0.34
   2   1   3    0.93    0.15
   2   1   3    1.00    0.26
   2   1   3    0.58    0.23
   2   1   3    1.02    0.22
  -3  -1  -3    0.34    0.43
  -3  -1  -3   -0.26    0.28
  -3  -1  -3    0.21    0.25
  -3  -1  -3    0.19    0.11
  -3  -1  -3    0.28    0.32
  -3  -1  -3    0.04    0.20
   3   1   3    0.27    0.31
   3   1   3    0.23    0.19
   3   1   3    0.15    0.17
   3   1   3    0.21    0.23
   3   1   3    0.16    0.12
  -4  -1  -3   45.74    4.77
  -4  -1  -3   54.20    5.00
  -4  -1  -3   49.80    4.97
  -4  -1  -3   52.30    4.93
  -4  -1  -3   48.43    4.84
  -4  -1  -3   45.36    5.13
   4   1   3   51.92    4.78
   4   1   3   48.49    4.88
   4   1   3   47.04    5.04
   4   1   3   51.12    4.83
  -5  -1  -3    0.16    0.76
  -5  -1  -3   -0.34    0.18
  -5  -1  -3    0.02    0.40
  -5  -1  -3   -0.13    0.33
  -5  -1  -3    0.07    0.56
   5   1   3   -0.23    0.36
   5   1   3    0.22    0.29
   5   1   3   -0.37    0.51
   5   1   3    0.04    0.19
  -6  -1  -3   14.03    1.98
  -6  -1  -3   15.45    1.95
  -6  -1  -3   13.20    1.66
  -6  -1  -3   15.31    2.39
  -6  -1  -3   12.35    1.50
  -6  -1  -3   15.80    1.84
   6   1   3   14.76    1.75
   6   1   3   15.46    2.13
  -7  -1  -3    4.00    0.81
  -7  -1  -3    1.73    0.82
  -7  -1  -3    2.60    1.06
  -7  -1  -3    3.33    0.57
   7   1   3    2.79    1.21
   7   1   3    3.28    0.78
  -8  -1  -3    2.21    0.54
  -8  -1  -3   -1.69    1.52
  -8  -1  -3    2.24    0.99
   8   1   3    0.64    1.49
   8   1   3    2.29    0.93
  -9  -1  -3    1.04    2.33
  -9  -1  -3    0.36    1.25
  -9  -1  -3   -0.40    0.62
   9   1   3   -0.93    1.20
 -11   2   3    7.51    1.47
 -11   2   3    6.07    1.99
 -11   2   3    6.52    1.08
 -10   2   3    3.99    1.11
 -10   2   3    7.19    1.07
 -10   2   3    3.83    1.57
   9  -2  -3    5.40    1.26
   9  -2  -3    6.69    0.93
  -9   2   3    7.37    0.92
  -9   2   3    3.92    1.02
  -9   2   3    5.71    1.01
  -9   2   3    5.73    0.86
  -9   2   3    5.64    1.39
   8  -2  -3   16.63    2.03
  -8   2   3   19.60    2.01
  -8   2   3   22.27    1.97
  -8   2   3   19.62    2.11
  -8   2   3   17.23    2.17
   7  -2  -3    0.11    0.28
  -7   2   3   -0.16    0.22
  -7   2   3   -0.51    0.63
  -7   2   3    0.11    0.18
  -7   2   3    0.05    0.32
  -7   2   3   -0.52    0.40
   6  -2  -3    3.09    0.44
   6  -2  -3    2.83    0.35
  -6   2   3    1.62    0.64
  -6   2   3    3.94    0.56
  -6   2   3    3.20    0.54
  -5   2   3    5.73    0.59
  -5   2   3    4.43    0.68
  -5   2   3    5.06    0.54
  -5   2   3    5.04    0.64
  -4   2   3   51.92    4.99
  -3   2   3  131.41   11.31
  -3   2   3  104.23   11.39
   2  -2  -3  124.41   12.87
   2  -2  -3  115.93   12.88
   2  -2  -3  139.73   12.85
  -2   2   3  132.31   12.89
  -2   2   3  138.24   12.85
  -2   2   3  158.24   12.84
  -2   2   3  134.13   12.84
   1  -2  -3   84.90    7.96
   1  -2  -3   82.44    7.90
   1  -2  -3   75.82    7.90
   1  -2  -3   74.67    7.95
   1  -2  -3   85.76    8.00
   1  -2  -3   84.81    7.90
  -1   2   3   92.16    7.90
  -1   2   3   78.99    7.98
   0  -2  -3    1.14    0.26
   0  -2  -3    1.17    0.23
   0  -2  -3    0.70    0.26
   0  -2  -3    0.80    0.18
   0  -2  -3    1.24    0.33
   0   2   3    1.16    0.13
   0   2   3    1.27    0.23
   0   2   3    0.66    0.24
   0   2   3    0.71    0.26
   0   2   3    0.84    0.20
   0   2   3    1.38    0.21
  -1  -2  -3   24.09    2.55
  -1  -2  -3   22.46    2.67
  -1  -2  -3   28.88    2.63
  -1  -2  -3   28.29    2.63
  -1  -2  -3   26.24    2.52
   1   2   3   20.75    2.45
   1   2   3   26.98    2.58
   1   2   3   26.80    2.64
   1   2   3   25.52    2.51
   1   2   3   26.20    2.54
  -2  -2  -3    0.62    0.32
  -2  -2  -3    0.44    0.19
  -2  -2  -3    0.86    0.32
  -2  -2  -3    0.22    0.41
  -2  -2  -3    0.07    0.22
   2   2   3    0.42    0.34
   2   2   3    0.26    0.10
   2   2   3    0.16    0.22
   2   2   3    0.08    0.16
   2   2   3    0.74    0.25
  -3  -2  -3    0.03    0.50
  -3  -2  -3    0.06    0.34
  -3  -2  -3    0.36    0.41
  -3  -2  -3   -0.44    0.30
  -3  -2  -3    0.01    0.19
  -3  -2  -3    0.12    0.17
   3   2   3    0.20    0.36
   3   2   3    0.01    0.22
   3   2   3    0.14    0.40
   3   2   3   -0.12    0.11
   3   2   3    0.31    0.27
  -4  -2  -3    6.30    1.20
  -4  -2  -3    6.28    1.02
  -4  -2  -3    6.17    1.32
  -4  -2  -3    6.94    0.86
  -4  -2  -3    5.40    0.76
  -4  -2  -3    6.61    1.07
   4   2   3    7.46    0.88
   4   2   3    7.64    0.97
   4   2   3    7.41    1.25
   4   2   3    6.12    0.72
   4   2   3    6.90    0.99
  -5  -2  -3   10.23    2.21
  -5  -2  -3   14.77    1.92
  -5  -2  -3   13.31    1.76
  -5  -2  -3   14.74    1.77
  -5  -2  -3   13.20    1.54
  -5  -2  -3   12.23    1.43
   5   2   3   13.40    1.64
   5   2   3   13.55    1.55
   5   2   3   16.72    1.71
   5   2   3   12.97    1.41
   5   2   3   13.72    2.00
  -6  -2  -3    0.08    1.28
  -6  -2  -3    0.29    0.67
  -6  -2  -3    0.63    0.74
  -6  -2  -3   -0.59    0.31
  -6  -2  -3    0.33    0.54
   6   2   3    0.45    0.60
   6   2   3    0.34    0.35
   6   2   3    0.59    0.59
   6   2   3   -0.99    0.93
  -7  -2  -3    6.70    1.37
  -7  -2  -3    7.06    2.11
  -7  -2  -3    6.60    1.07
  -7  -2  -3    6.35    1.54
   7   2   3    7.23    1.25
   7   2   3    6.78    1.79
  -8  -2  -3    3.34    0.72
  -8  -2  -3    2.04    1.30
  -8  -2  -3    0.68    2.23
   8   2   3    1.39    0.97
   8   2   3    3.65    1.89
  -9  -2  -3    0.71    1.52
  -9  -2  -3    2.69    2.86
  -9  -2  -3    0.26    0.79
   9   2   3    1.88    1.52
 -11   3   3   -0.88    1.55
 -11   3   3    1.01    0.67
 -11   3   3   -0.28    0.98
 -10   3   3    7.04    1.21
 -10   3   3    6.89    1.16
 -10   3   3    6.96    1.08
  -9   3   3   10.77    1.35
  -9   3   3   10.28    1.57
  -9   3   3   13.65    1.55
  -8   3   3    1.55    0.92
  -8   3   3    3.85    0.74
  -8   3   3    2.87    0.52
  -8   3   3    4.13    0.67
  -7   3   3   40.95    4.00
  -6   3   3    9.27    0.99
  -5   3   3    2.79    0.47
  -5   3   3    1.77    0.31
  -4   3   3    0.31    0.31
  -4   3   3    0.00    0.10
  -4   3   3   -0.12    0.22
  -3   3   3    8.79    0.86
  -3   3   3    8.86    1.03
  -3   3   3    7.88    0.94
   2  -3  -3    3.90    0.73
   2  -3  -3    3.86    0.51
   2  -3  -3    4.96    0.48
   2  -3  -3    3.90    0.49
  -2   3   3    4.95    0.49
  -2   3   3    4.10    0.54
  -2   3   3    3.50    0.52
  -2   3   3    3.88    0.48
  -2   3   3    3.93    0.64
   1  -3  -3   12.35    1.38
   1  -3  -3   12.70    1.38
   1  -3  -3   12.61    1.57
  -1   3   3   13.02    1.33
  -1   3   3   16.11    1.35
  -1   3   3   14.52    1.46
  -1   3   3   14.18    1.37
  -1   3   3   11.52    1.47
   0  -3  -3   43.52    4.74
   0  -3  -3   47.19    4.66
   0  -3  -3   48.00    4.69
   0  -3  -3   53.95    4.65
   0   3   3   52.84    4.78
   0   3   3   49.82    4.66
   0   3   3   49.60    4.64
   0   3   3   46.02    4.70
   0   3   3   46.98    4.76
   0   3   3   41.95    4.58
  -1  -3  -3  187.18   21.00
  -1  -3  -3  252.04   21.17
  -1  -3  -3  201.87   21.10
  -1  -3  -3  237.67   21.06
   1   3   3  196.78   21.18
   1   3   3  221.98   21.14
   1   3   3  216.11   21.08
   1   3   3  231.64   20.99
   1   3   3  237.48   21.06
  -2  -3  -3   11.25    1.80
  -2  -3  -3   15.81    1.57
  -2  -3  -3   11.43    1.37
  -2  -3  -3   11.15    1.53
  -2  -3  -3   14.00    1.53
  -2  -3  -3   14.40    1.41
   2   3   3   13.52    1.53
   2   3   3   13.54    1.41
   2   3   3   13.58    1.65
   2   3   3   12.01    1.45
   2   3   3   13.33    1.30
  -3  -3  -3   29.77    2.81
  -3  -3  -3   28.20    2.79
  -3  -3  -3   25.15    2.63
  -3  -3  -3   21.89    2.58
  -3  -3  -3   24.22    3.10
  -3  -3  -3   23.83    2.79
   3   3   3   25.25    2.53
   3   3   3   27.76    2.77
   3   3   3   27.30    2.71
   3   3   3   26.53    2.63
  -4  -3  -3   -0.05    0.95
  -4  -3  -3    0.51    0.69
  -4  -3  -3    0.45    0.33
  -4  -3  -3    0.71    0.52
  -4  -3  -3    0.02    0.29
  -4  -3  -3   -0.48    0.53
   4   3   3    0.64    0.68
   4   3   3    0.12    0.20
   4   3   3   -0.33    0.44
   4   3   3   -0.90    0.35
   4   3   3   -0.05    0.43
  -5  -3  -3    1.11    1.31
  -5  -3  -3    0.87    0.53
  -5  -3  -3    0.78    0.40
  -5  -3  -3    1.61    0.75
  -5  -3  -3    0.96    0.75
   5   3   3    1.06    0.58
   5   3   3    1.30    0.66
   5   3   3    2.13    1.08
   5   3   3    0.80    0.52
   5   3   3    1.08    0.37
  -6  -3  -3    2.95    1.05
  -6  -3  -3    3.81    1.15
  -6  -3  -3    3.86    1.80
  -6  -3  -3    1.32    0.56
   6   3   3    2.47    0.88
   6   3   3    1.32    1.23
  -7  -3  -3    3.78    1.74
  -7  -3  -3    5.46    1.46
  -7  -3  -3    0.74    2.05
   7   3   3    3.90    1.15
   7   3   3    4.74    1.84
  -8  -3  -3    2.31    2.72
  -8  -3  -3    2.35    0.82
  -8  -3  -3    4.54    1.64
   8   3   3    0.94    2.40
   8   3   3    2.74    1.31
 -11   4   3    2.23    0.70
 -10   4   3    1.85    0.53
  -9   4   3   -0.21    0.33
  -8   4   3   10.65    1.20
  -7   4   3   54.55    5.72
  -7   4   3   58.66    5.63
  -6   4   3    0.33    0.46
  -6   4   3    0.52    0.42
  -6   4   3    0.45    0.19
  -5   4   3   43.47    4.33
  -4   4   3   18.47    1.92
  -4   4   3   18.05    1.78
  -3   4   3   18.63    2.05
  -3   4   3   18.11    1.98
  -3   4   3   18.19    1.88
  -3   4   3   21.00    1.85
   2  -4  -3    4.92    0.86
   2  -4  -3    3.27    0.58
   2  -4  -3    4.89    0.61
  -2   4   3    4.48    0.62
  -2   4   3    4.62    0.56
  -2   4   3    4.35    0.58
  -2   4   3    4.39    0.65
  -2   4   3    4.51    0.49
  -2   4   3    3.82    0.54
  -2   4   3    4.37    0.72
   1  -4  -3   23.94    2.48
   1  -4  -3   25.09    2.48
  -1   4   3   22.17    2.54
  -1   4   3   27.84    2.52
  -1   4   3   28.68    2.43
  -1   4   3   22.69    2.40
  -1   4   3   21.49    2.44
  -1   4   3   24.37    2.59
   0  -4  -3   15.87    1.59
   0  -4  -3   12.89    1.64
   0  -4  -3   18.06    1.67
   0  -4  -3   12.27    1.69
   0   4   3   13.68    1.57
   0   4   3   15.77    1.67
   0   4   3   15.26    1.49
   0   4   3   15.25    1.74
   0   4   3   15.46    1.55
  -1  -4  -3    0.22    0.39
  -1  -4  -3    0.46    0.26
  -1  -4  -3    0.48    0.38
  -1  -4  -3    0.38    0.42
  -1  -4  -3    0.31    0.28
  -1  -4  -3    0.57    0.65
   1   4   3    0.48    0.37
   1   4   3    0.51    0.25
   1   4   3    0.03    0.40
   1   4   3    0.66    0.16
   1   4   3    1.00    0.32
  -2  -4  -3    2.13    0.39
  -2  -4  -3    1.73    0.94
  -2  -4  -3    1.68    0.58
  -2  -4  -3    1.12    0.59
  -2  -4  -3    1.87    0.40
  -2  -4  -3    1.70    0.55
   2   4   3    1.28    0.25
   2   4   3    1.63    0.52
   2   4   3    1.52    0.40
   2   4   3    0.95    0.55
   2   4   3    1.40    0.38
  -3  -4  -3   16.65    2.96
  -3  -4  -3   22.06    2.56
  -3  -4  -3   21.43    2.36
  -3  -4  -3   25.25    2.59
  -3  -4  -3   22.60    2.34
   3   4   3   23.68    2.79
   3   4   3   20.25    2.43
   3   4   3   23.66    2.38
   3   4   3   25.79    2.57
  -4  -4  -3   -0.17    0.68
  -4  -4  -3    0.05    0.41
  -4  -4  -3   -1.73    1.18
  -4  -4  -3    0.75    0.76
   4   4   3    0.14    0.55
   4   4   3    0.10    0.47
   4   4   3    0.91    0.89
   4   4   3    0.13    0.25
   4   4   3   -0.05    0.61
  -5  -4  -3    1.06    0.55
  -5  -4  -3    0.02    0.92
  -5  -4  -3   -0.64    1.54
  -5  -4  -3    0.83    0.97
   5   4   3    1.56    0.40
   5   4   3    2.04    1.22
   5   4   3    0.94    0.83
   5   4   3    0.76    0.66
  -6  -4  -3   -0.10    0.60
  -6  -4  -3    1.53    1.12
  -6  -4  -3   -1.62    2.05
   6   4   3   -1.04    1.61
   6   4   3    0.75    0.83
  -7  -4  -3    0.38    1.44
  -7  -4  -3    0.48    2.79
  -7  -4  -3    1.12    0.80
   7   4   3   -1.08    1.21
 -10   5   3   -0.09    1.09
 -10   5   3   -0.55    0.44
  -9   5   3    1.28    0.86
  -9   5   3    0.35    0.37
  -8   5   3    0.08    0.28
  -8   5   3    0.36    0.63
  -7   5   3    1.88    0.66
  -7   5   3    3.58    0.49
  -6   5   3    1.13    0.54
  -6   5   3    0.49    0.54
  -6   5   3    1.06    0.24
  -5   5   3   11.17    1.41
  -5   5   3   11.54    1.16
  -5   5   3   11.04    1.42
  -4   5   3   59.89    5.60
  -4   5   3   53.58    5.62
   3  -5  -3    0.18    0.16
   3  -5  -3    0.35    0.25
   3  -5  -3    0.32    0.26
  -3   5   3    0.12    0.20
  -3   5   3    0.04    0.39
  -3   5   3    0.42    0.33
  -3   5   3    0.08    0.21
  -3   5   3    0.22    0.11
  -3   5   3    0.10    0.36
   2  -5  -3   -0.09    0.27
   2  -5  -3    0.08    0.17
   2  -5  -3   -0.06    0.51
   2  -5  -3   -0.65    0.49
   2  -5  -3    0.16    0.28
  -2   5   3   -0.22    0.14
  -2   5   3    0.17    0.39
  -2   5   3    0.02    0.27
  -2   5   3    0.29    0.27
  -2   5   3    0.31    0.38
  -2   5   3    0.10    0.23
   1  -5  -3   21.66    2.30
   1  -5  -3   17.93    2.31
   1  -5  -3   27.15    2.25
  -1   5   3   23.43    2.23
  -1   5   3   19.57    2.43
  -1   5   3   20.71    2.28
  -1   5   3   24.60    2.37
   0  -5  -3    9.70    1.02
   0  -5  -3    8.22    1.06
   0  -5  -3    9.82    1.33
   0  -5  -3    7.59    1.20
   0  -5  -3    9.82    1.17
   0   5   3    5.97    1.25
   0   5   3    8.60    1.18
   0   5   3    7.50    1.05
   0   5   3    9.75    1.01
   0   5   3    7.96    0.92
  -1  -5  -3    2.34    1.05
  -1  -5  -3    2.61    0.46
  -1  -5  -3    3.08    0.60
  -1  -5  -3    3.45    0.72
  -1  -5  -3    1.64    0.44
  -1  -5  -3    2.25    0.72
  -1  -5  -3    2.95    0.69
   1   5   3    2.97    0.71
   1   5   3    1.85    0.49
   1   5   3    1.78    0.72
  -2  -5  -3   17.63    2.32
  -2  -5  -3   24.55    2.40
  -2  -5  -3   17.29    2.46
  -2  -5  -3   20.30    2.11
  -2  -5  -3   14.93    2.80
   2   5   3   22.59    2.36
   2   5   3   19.05    2.21
   2   5   3   21.90    2.17
   2   5   3   19.80    2.56
   2   5   3   19.77    2.00
  -3  -5  -3   23.25    3.93
  -3  -5  -3   27.86    3.37
  -3  -5  -3   31.58    3.12
   3   5   3   31.75    3.36
   3   5   3   26.97    3.63
   3   5   3   31.58    2.98
   3   5   3   35.86    3.19
   3   5   3   27.89    3.23
  -4  -5  -3   27.54    4.57
  -4  -5  -3   28.27    3.47
  -4  -5  -3   34.34    3.88
   4   5   3   34.45    3.32
   4   5   3   29.99    3.60
   4   5   3   41.06    3.83
   4   5   3   38.48    3.57
   4   5   3   31.42    4.20
  -5  -5  -3   -2.35    2.05
  -5  -5  -3   -1.14    1.19
  -5  -5  -3    0.07    0.70
   5   5   3    2.18    1.15
   5   5   3   -0.33    0.84
   5   5   3   -0.11    1.77
  -6  -5  -3    3.68    1.56
  -6  -5  -3    5.06    1.00
   6   5   3    2.70    1.18
   6   5   3    5.54    2.17
  -7  -5  -3   -0.99    1.90
  -7  -5  -3   -1.01    1.04
   7   5   3    2.32    1.51
   7   5   3    1.90    2.75
 -10   6   3    1.01    0.53
  -9   6   3    0.14    0.39
  -9   6   3   -0.26    0.79
  -8   6   3   -0.05    0.65
  -8   6   3   -0.10    0.36
  -7   6   3    2.42    0.79
  -7   6   3    3.33    0.47
  -6   6   3    4.18    0.54
  -6   6   3    3.83    0.81
  -5   6   3    0.39    0.18
  -5   6   3    0.26    0.49
  -5   6   3    0.57    0.58
  -4   6   3   26.90    2.91
   3  -6  -3   72.49    6.54
   3  -6  -3   63.90    6.65
  -3   6   3   76.55    6.53
  -3   6   3   63.21    6.58
  -3   6   3   72.20    6.61
  -3   6   3   58.13    6.73
   2  -6  -3   25.89    2.96
   2  -6  -3   33.26    2.97
   2  -6  -3   28.03    3.20
  -2   6   3   27.93    2.93
  -2   6   3   29.81    2.91
  -2   6   3   26.61    3.14
  -2   6   3   30.01    2.86
  -2   6   3   29.12    3.00
   1  -6  -3    6.13    1.06
   1  -6  -3    7.41    1.25
   1  -6  -3    7.74    1.10
   1  -6  -3    6.24    0.99
   1  -6  -3    7.89    0.93
  -1   6   3    8.27    0.93
  -1   6   3    5.98    1.17
  -1   6   3    7.40    0.99
  -1   6   3    7.25    1.14
  -1   6   3    7.62    0.90
   0  -6  -3   -0.09    0.70
   0  -6  -3    0.53    0.56
   0  -6  -3    0.42    0.35
   0  -6  -3    0.30    0.40
   0   6   3    1.06    0.70
   0   6   3    0.92    0.58
   0   6   3    0.66    0.41
   0   6   3    0.27    0.38
   0   6   3    0.52    0.29
  -1  -6  -3    1.84    0.53
  -1  -6  -3    2.07    1.14
  -1  -6  -3    2.70    0.78
   1   6   3    1.74    0.55
   1   6   3    2.08    0.38
   1   6   3    2.58    0.75
   1   6   3    2.53    0.57
   1   6   3    2.56    0.89
  -2  -6  -3    6.44    1.02
  -2  -6  -3    5.31    1.89
  -2  -6  -3   11.75    1.64
  -2  -6  -3    5.77    1.09
   2   6   3    8.99    0.95
   2   6   3    7.89    1.27
   2   6   3    9.34    1.56
   2   6   3    7.80    1.25
  -3  -6  -3    0.34    0.58
  -3  -6  -3    1.43    0.90
  -3  -6  -3    1.18    1.60
   3   6   3    0.42    0.37
   3   6   3    0.10    0.66
   3   6   3    1.12    1.19
   3   6   3    0.66    0.68
   3   6   3   -0.84    0.86
  -4  -6  -3    3.73    1.36
  -4  -6  -3    1.90    2.26
  -4  -6  -3    1.62    0.81
   4   6   3    2.02    1.53
   4   6   3    2.03    0.87
   4   6   3    1.18    1.20
  -5  -6  -3    2.90    2.67
  -5  -6  -3    2.00    0.98
  -5  -6  -3    3.50    1.61
   5   6   3    6.05    2.03
   5   6   3    2.95    1.06
  -6  -6  -3    1.98    1.20
  -6  -6  -3    5.41    3.78
  -6  -6  -3    4.69    2.12
   6   6   3    2.41    1.52
   6   6   3    5.32    2.76
  -9   7   3    1.31    0.49
  -8   7   3    6.50    0.89
  -7   7   3    3.69    0.95
  -7   7   3    5.07    0.67
  -6   7   3    0.17    0.22
  -6   7   3   -0.32    0.66
  -5   7   3    6.98    1.33
  -5   7   3    7.14    0.80
  -4   7   3    0.87    0.56
  -4   7   3    0.41    0.63
  -4   7   3    0.66    0.27
  -4   7   3    0.47    0.26
   3  -7  -3   -0.14    0.99
   3  -7  -3    1.17    0.44
   3  -7  -3   -0.02    0.53
   3  -7  -3    0.58    0.30
  -3   7   3    0.36    0.54
  -3   7   3    0.93    0.40
  -3   7   3    0.64    0.23
  -3   7   3    1.35    0.44
  -3   7   3   -0.38    0.65
   2  -7  -3   16.12    1.88
   2  -7  -3   20.06    2.39
   2  -7  -3   19.00    1.73
   2  -7  -3   12.02    1.95
  -2   7   3   12.93    1.80
  -2   7   3   18.01    1.95
  -2   7   3   15.23    1.82
  -2   7   3   17.08    1.71
   1  -7  -3    1.92    1.28
   1  -7  -3    3.02    0.69
  -1   7   3    3.65    0.60
  -1   7   3    3.70    0.75
  -1   7   3    4.16    0.85
  -1   7   3    4.02    1.07
  -1   7   3    4.37    0.64
   0  -7  -3    3.73    1.04
   0   7   3    4.13    0.61
   0   7   3    5.48    0.79
   0   7   3    3.47    0.77
   0   7   3    4.80    1.04
   0   7   3    5.12    1.22
  -1  -7  -3    0.11    0.57
  -1  -7  -3   -0.11    0.85
  -1  -7  -3    0.24    1.45
   1   7   3    0.97    0.65
   1   7   3    0.81    0.82
   1   7   3    0.57    0.99
   1   7   3    0.16    0.37
   1   7   3    1.14    0.58
  -2  -7  -3    0.56    1.81
  -2  -7  -3    0.32    0.64
  -2  -7  -3   -1.98    1.00
   2   7   3    0.78    0.42
   2   7   3    1.40    0.80
   2   7   3    0.51    0.66
   2   7   3    1.18    1.25
  -3  -7  -3    1.41    0.85
  -3  -7  -3   -0.61    1.33
  -3  -7  -3    0.82    0.83
  -3  -7  -3   -0.73    2.26
   3   7   3    0.92    1.46
   3   7   3    0.72    0.81
  -4  -7  -3   -0.47    0.97
  -4  -7  -3    0.55    1.61
   4   7   3    1.27    0.98
   4   7   3   -0.46    1.89
  -5  -7  -3    4.63    1.31
  -5  -7  -3   -1.08    2.04
   5   7   3    1.70    2.50
   5   7   3    2.18    1.42
  -8   8   3    1.53    0.45
  -7   8   3    1.83    0.92
  -6   8   3    0.46    0.29
  -6   8   3    0.51    0.81
  -5   8   3    1.80    0.92
  -4   8   3    4.10    0.63
  -4   8   3    5.01    0.96
  -4   8   3    4.96    0.73
  -4   8   3    3.48    0.99
   3  -8  -3    0.52    0.71
   3  -8  -3    0.83    0.57
  -3   8   3    0.39    0.69
  -3   8   3    0.05    0.88
  -3   8   3    0.75    0.54
  -3   8   3    0.32    0.28
  -3   8   3    0.58    0.70
  -3   8   3   -0.07    0.47
   2  -8  -3    5.91    0.99
   2  -8  -3    5.56    1.14
  -2   8   3    7.27    1.39
  -2   8   3    5.89    1.37
  -2   8   3    4.81    0.91
  -2   8   3    5.33    0.94
  -2   8   3    7.05    0.91
   1  -8  -3    1.61    0.65
   1  -8  -3    0.17    1.05
  -1   8   3    2.12    0.55
  -1   8   3    0.69    1.05
  -1   8   3    1.36    0.86
  -1   8   3    1.47    0.64
   0  -8  -3    5.96    0.99
   0  -8  -3    6.25    1.34
   0   8   3    5.23    0.98
   0   8   3    3.77    1.40
  -1  -8  -3    0.67    0.74
  -1  -8  -3   -0.06    1.23
   1   8   3   -0.60    1.30
   1   8   3    0.54    0.75
  -2  -8  -3    0.74    0.90
  -2  -8  -3    0.89    1.47
   2   8   3   -0.71    1.52
   2   8   3    1.39    0.90
  -3  -8  -3    2.70    1.12
  -3  -8  -3    2.77    1.99
   3   8   3   -1.62    1.87
   3   8   3    2.53    1.13
  -7   9   3   -0.67    0.41
  -6   9   3    0.02    0.36
  -4   9   3    0.26    0.44
  -4   9   3   -0.08    0.96
   3  -9  -3    1.89    0.80
  -3   9   3    0.43    1.24
  -3   9   3    1.10    0.65
   2  -9  -3    2.44    0.79
  -2   9   3    0.65    1.30
  -2   9   3    2.51    0.81
   1  -9  -3    2.27    0.90
  -1   9   3    2.42    0.93
  -1   9   3    3.37    1.45
   0  -9  -3    0.59    0.90
   0   9   3   -0.34    0.90
   0   9   3    0.22    1.52
  -1  -9  -3   -1.48    0.99
   1   9   3    0.78    1.84
   1   9   3    0.57    0.99
  -4  10   3    1.69    1.39
   3 -10  -3    2.13    1.01
  -3  10   3    1.58    0.89
  -3  10   3    4.03    1.70
   2 -10  -3    5.08    1.16
  -2  10   3    4.88    1.15
  -2  10   3    1.75    1.91
   1  11  -4    2.19    1.26
   1  11  -4   -0.03    2.13
  -1 -11   4    1.59    1.02
   0  11  -4    3.11    2.06
   0  11  -4    0.03    1.10
   0 -11   4    0.81    0.85
  -1  11  -4    1.72    1.00
  -1  11  -4   -0.43    1.85
   1 -11   4    0.06    0.67
  -2  11  -4    0.82    0.84
  -2  11  -4    3.32    1.80
   2 -11   4   -0.18    0.63
  -3  11  -4   -1.16    1.45
  -3  11  -4    0.90    0.71
  -4  11  -4   19.61    3.25
  -4  11  -4   18.94    2.19
  -5  11  -4    0.64    1.51
  -5  11  -4    1.79    0.58
   3  10  -4    5.00    1.39
   3  10  -4    5.54    2.34
  -3 -10   4    1.74    2.10
  -3 -10   4    4.55    1.22
   2  10  -4    5.81    2.15
   2  10  -4    3.23    1.22
  -2 -10   4    3.01    1.04
  -2 -10   4    3.15    1.91
   1  10  -4    3.50    1.04
   1  10  -4    1.17    1.65
  -1 -10   4    2.70    0.86
  -1 -10   4    5.25    1.74
   0  10  -4    9.73    1.55
   0  10  -4    8.99    2.17
   0 -10   4    9.96    1.56
   0 -10   4   10.71    2.07
  -1  10  -4    0.16    0.72
  -1  10  -4   -1.54    1.33
   1 -10   4    0.85    0.59
   1 -10   4   -1.08    1.30
  -2  10  -4    4.49    0.92
  -2  10  -4    4.42    1.59
   2 -10   4    3.89    0.79
   2 -10   4    4.21    1.35
  -3  10  -4    0.04    0.55
  -3  10  -4   -0.92    1.12
  -4  10  -4    1.49    1.20
  -4  10  -4   -0.63    0.47
  -5  10  -4    4.61    1.38
  -5  10  -4    2.61    0.57
  -6  10  -4    8.92    1.09
   5   9  -4    0.90    2.40
   5   9  -4    1.64    1.30
  -5  -9   4    5.06    2.38
  -5  -9   4   -0.50    1.01
   4   9  -4    0.58    1.05
   4   9  -4    1.05    1.97
  -4  -9   4    1.46    2.96
  -4  -9   4    1.00    1.86
  -4  -9   4   -0.50    0.80
   3   9  -4   -0.45    1.52
   3   9  -4    0.05    0.92
  -3  -9   4    0.25    0.69
  -3  -9   4    0.40    2.55
   2   9  -4   14.20    2.12
   2   9  -4    8.46    2.15
   2   9  -4   10.94    1.71
  -2  -9   4    9.63    1.44
  -2  -9   4    8.35    1.85
  -2  -9   4    3.80    2.56
   1   9  -4    2.41    1.30
   1   9  -4    0.16    0.70
   1   9  -4   -1.00    1.26
  -1  -9   4    0.96    1.04
  -1  -9   4   -1.43    1.82
  -1  -9   4   -0.58    1.16
  -1  -9   4   -0.22    0.48
   0   9  -4    7.14    2.36
   0   9  -4   12.69    1.83
   0   9  -4   10.40    2.06
   0   9  -4   10.11    1.50
   0  -9   4    5.00    2.06
   0  -9   4   10.42    1.71
   0  -9   4    7.57    1.61
   0  -9   4    7.64    1.25
  -1   9  -4    0.27    1.83
  -1   9  -4    0.97    0.60
  -1   9  -4    0.18    1.11
  -1   9  -4    1.81    1.18
   1  -9   4    1.36    1.06
   1  -9   4    0.15    0.77
   1  -9   4   -0.13    0.41
   1  -9   4   -0.19    1.30
  -2   9  -4    2.07    1.09
  -2   9  -4    1.66    0.54
  -2   9  -4    0.50    1.69
  -2   9  -4   -0.26    1.09
   2  -9   4    1.18    0.96
   2  -9   4   -1.35    1.18
   2  -9   4    0.39    0.45
   2  -9   4    1.41    0.84
  -3   9  -4    9.93    1.25
  -3   9  -4   10.54    1.96
  -3   9  -4   12.34    1.76
  -3   9  -4    8.80    2.24
   3  -9   4    7.74    1.45
   3  -9   4    6.38    1.67
  -4   9  -4    5.23    1.26
  -4   9  -4    4.00    0.65
  -4   9  -4    2.40    1.92
  -4   9  -4    3.79    1.28
   4  -9   4    3.37    1.24
   4  -9   4    4.23    0.89
  -5   9  -4    1.76    2.24
  -5   9  -4    0.78    0.97
  -5   9  -4    0.67    0.35
  -6   9  -4    0.98    0.34
  -6   9  -4    1.94    1.12
  -7   9  -4    0.16    0.43
  -8   9  -4   10.78    1.63
  -8   9  -4   11.80    1.50
  -8   9  -4    9.37    1.33
   6   8  -4   -0.27    1.22
   6   8  -4   -0.78    2.29
  -6  -8   4    3.43    2.00
  -6  -8   4   -1.92    3.12
  -6  -8   4   -0.19    1.10
   5   8  -4    1.83    1.04
   5   8  -4   -0.70    1.80
  -5  -8   4    0.73    2.51
  -5  -8   4    0.48    0.91
  -5  -8   4    0.42    0.81
  -5  -8   4    1.25    1.57
   4   8  -4   -1.30    2.40
   4   8  -4    1.31    0.80
   4   8  -4    1.30    1.53
  -4  -8   4    0.73    0.62
  -4  -8   4   -1.06    2.05
  -4  -8   4   -0.57    1.31
  -4  -8   4    1.99    0.80
   3   8  -4    1.34    1.06
   3   8  -4    3.56    2.16
   3   8  -4   -0.16    0.66
  -3  -8   4    0.20    0.51
  -3  -8   4    0.01    1.06
  -3  -8   4    0.15    1.78
   2   8  -4    0.04    1.04
   2   8  -4    0.50    1.80
   2   8  -4   -0.36    1.08
   2   8  -4   -0.06    0.58
  -2  -8   4   -0.61    1.01
  -2  -8   4    0.78    0.50
  -2  -8   4   -0.59    1.56
   1   8  -4    4.04    1.29
   1   8  -4    7.12    1.29
   1   8  -4    3.08    1.74
  -1  -8   4    5.49    1.05
  -1  -8   4    0.83    1.46
  -1  -8   4    5.06    1.17
  -1  -8   4    3.77    0.78
   0   8  -4   10.63    2.53
   0   8  -4   16.52    1.93
   0   8  -4   22.85    2.43
   0   8  -4   16.05    2.49
   0  -8   4   19.51    1.98
   0  -8   4   14.88    2.32
   0  -8   4   11.04    2.54
   0  -8   4   15.79    1.81
  -1   8  -4    4.16    0.87
  -1   8  -4    3.89    1.62
  -1   8  -4    4.20    0.77
  -1   8  -4    4.31    1.27
   1  -8   4    4.16    0.99
   1  -8   4    3.17    0.63
   1  -8   4    1.14    1.14
   1  -8   4    2.80    0.69
  -2   8  -4    0.68    0.83
  -2   8  -4    0.48    0.87
  -2   8  -4    1.20    0.44
  -2   8  -4   -0.48    1.31
   2  -8   4   -0.01    0.33
   2  -8   4    0.68    0.70
   2  -8   4   -0.47    1.04
   2  -8   4    0.12    0.47
  -3   8  -4   32.95    3.12
  -3   8  -4   35.69    3.53
  -3   8  -4   21.31    3.93
  -3   8  -4   29.68    3.74
  -4   8  -4    2.35    0.92
  -4   8  -4    0.55    1.39
  -4   8  -4    1.48    0.39
  -4   8  -4    2.04    0.98
   4  -8   4    2.34    0.58
   4  -8   4    1.72    0.85
  -5   8  -4    3.40    1.65
  -5   8  -4    1.38    1.06
  -5   8  -4    2.44    0.50
  -5   8  -4    4.15    1.10
   5  -8   4    4.03    0.83
   5  -8   4    1.89    0.59
  -6   8  -4    0.05    1.11
  -6   8  -4    0.55    1.69
  -6   8  -4    0.19    0.25
  -6   8  -4    1.59    0.93
  -7   8  -4    0.20    0.37
  -8   8  -4    4.58    0.78
  -8   8  -4    6.34    1.04
  -8   8  -4    5.25    0.81
   7   7  -4   -0.11    1.29
   7   7  -4    1.67    2.49
  -7  -7   4   -1.11    1.87
  -7  -7   4    1.94    1.08
  -7  -7   4   -0.93    2.90
   6   7  -4   -1.81    1.77
   6   7  -4   -2.23    0.90
  -6  -7   4   -0.97    0.84
  -6  -7   4    0.02    1.46
  -6  -7   4   -1.10    2.43
   5   7  -4    6.46    1.24
   5   7  -4    6.25    1.91
  -5  -7   4    7.16    1.63
  -5  -7   4    8.29    1.23
   4   7  -4    3.89    0.90
   4   7  -4    3.87    1.38
   4   7  -4    9.15    2.33
  -4  -7   4    5.48    0.98
  -4  -7   4    6.54    1.48
  -4  -7   4    1.90    1.79
   3   7  -4   -0.51    1.41
   3   7  -4    0.79    0.95
   3   7  -4    2.20    0.70
   3   7  -4    1.37    0.92
  -3  -7   4    0.50    0.84
  -3  -7   4    1.28    0.53
  -3  -7   4   -1.40    1.38
  -3  -7   4    1.61    0.55
  -3  -7   4    1.79    1.16
   2   7  -4   38.57    3.93
   2   7  -4   47.54    4.29
   2   7  -4   34.05    4.73
   2   7  -4   32.77    4.27
   2   7  -4   43.46    3.86
  -2  -7   4   35.92    4.03
  -2  -7   4   36.66    3.83
  -2  -7   4   38.16    4.25
  -2  -7   4   34.01    4.15
   1   7  -4    0.04    0.44
   1   7  -4    0.21    0.81
   1   7  -4   -0.07    1.18
   1   7  -4    0.96    0.57
   1   7  -4    0.71    0.75
  -1  -7   4   -0.47    1.10
  -1  -7   4    0.91    0.35
  -1  -7   4    1.13    0.69
  -1  -7   4   -0.74    0.76
   0   7  -4    1.39    0.46
   0   7  -4    1.21    0.73
   0   7  -4    0.66    0.47
   0   7  -4    1.46    0.78
   0   7  -4    0.50    1.16
   0  -7   4    0.80    0.78
   0  -7   4    1.26    0.40
   0  -7   4    1.73    1.10
   0  -7   4    1.09    0.70
  -1   7  -4   -0.18    0.64
  -1   7  -4    0.60    0.34
  -1   7  -4   -0.39    1.08
  -1   7  -4    1.13    0.69
  -1   7  -4    0.40    0.43
   1  -7   4    0.32    0.81
   1  -7   4    0.32    0.36
   1  -7   4    0.83    0.67
   1  -7   4    0.52    0.79
   1  -7   4    0.20    0.29
   1  -7   4   -0.34    0.44
  -2   7  -4    1.87    0.80
  -2   7  -4    2.13    0.54
  -2   7  -4    2.18    0.58
  -2   7  -4    0.81    1.13
  -2   7  -4    2.67    0.53
  -2   7  -4    2.16    0.85
   2  -7   4    1.89    0.69
   2  -7   4    3.33    0.54
   2  -7   4    2.78    0.47
   2  -7   4    2.69    0.57
  -3   7  -4    3.61    0.93
  -3   7  -4    4.17    0.69
  -3   7  -4    2.18    1.20
  -3   7  -4    3.13    0.85
  -3   7  -4    3.86    0.61
   3  -7   4    2.44    0.85
   3  -7   4    3.90    0.70
  -4   7  -4    0.21    0.24
  -4   7  -4    0.22    0.72
  -4   7  -4    0.89    0.66
  -4   7  -4    0.46    0.99
   4  -7   4    0.19    0.61
   4  -7   4    0.14    0.51
   4  -7   4   -0.21    0.43
  -5   7  -4   55.32    5.54
   5  -7   4   59.24    5.60
   6  -7   4   40.89    4.45
   6  -7   4   47.14    4.34
  -7   7  -4   10.85    1.30
  -7   7  -4    9.23    1.18
  -8   7  -4   -0.60    0.40
  -8   7  -4    0.78    0.66
  -8   7  -4    0.57    0.45
  -9   7  -4    2.03    0.58
  -9   7  -4    1.58    1.04
  -9   7  -4    1.49    0.68
   8   6  -4   14.65    2.01
  -8  -6   4    7.87    3.64
  -8  -6   4   13.53    2.43
  -8  -6   4    9.12    1.73
   7   6  -4    0.75    1.86
   7   6  -4   -1.47    0.97
  -7  -6   4    1.11    0.89
  -7  -6   4    0.04    1.42
  -7  -6   4   -1.46    2.14
   6   6  -4    0.02    0.79
   6   6  -4    1.18    1.37
  -6  -6   4    0.70    1.29
  -6  -6   4   -1.20    1.77
  -6  -6   4   -1.52    1.31
  -6  -6   4    0.86    0.70
   5   6  -4    0.09    1.67
   5   6  -4    0.27    0.61
   5   6  -4   -0.13    1.07
  -5  -6   4    0.59    1.15
  -5  -6   4    0.45    0.59
  -5  -6   4    2.35    1.12
  -5  -6   4    0.83    1.45
   4   6  -4    2.54    1.10
   4   6  -4    3.25    0.92
   4   6  -4    5.22    1.72
   4   6  -4    2.52    0.67
  -4  -6   4    2.00    0.87
  -4  -6   4    3.29    0.79
  -4  -6   4    3.03    0.71
  -4  -6   4    1.91    1.41
   3   6  -4   12.90    1.56
   3   6  -4   16.92    1.92
   3   6  -4   10.96    1.98
   3   6  -4   10.78    2.52
   3   6  -4   13.40    1.46
  -3  -6   4   11.32    1.88
  -3  -6   4   12.82    1.53
  -3  -6   4   11.23    1.99
  -3  -6   4   12.49    1.63
   2   6  -4   10.94    1.75
   2   6  -4   10.98    1.34
   2   6  -4    9.96    1.36
   2   6  -4   13.49    1.70
  -2  -6   4   11.43    1.68
  -2  -6   4    9.88    1.40
  -2  -6   4   11.30    1.28
  -2  -6   4   11.39    1.34
  -2  -6   4   12.14    1.78
   1   6  -4   33.46    3.37
   1   6  -4   34.16    3.42
   1   6  -4   30.07    3.95
   1   6  -4   29.91    3.66
  -1  -6   4   33.14    3.34
  -1  -6   4   34.63    3.69
  -1  -6   4   36.31    3.43
  -1  -6   4   35.00    3.62
   0   6  -4    5.57    1.46
   0   6  -4    8.17    1.02
   0   6  -4    6.89    1.02
   0   6  -4    6.99    1.33
   0   6  -4    8.80    1.35
   0  -6   4    5.33    1.43
   0  -6   4    8.60    0.96
   0  -6   4    8.43    1.43
   0  -6   4   10.17    1.09
   0  -6   4    9.27    1.33
  -1   6  -4    0.44    0.28
  -1   6  -4    0.96    0.59
  -1   6  -4    0.54    0.35
  -1   6  -4    0.35    0.55
  -1   6  -4    0.70    0.31
  -1   6  -4    0.89    0.87
   1  -6   4    1.34    0.56
   1  -6   4    0.54    0.67
   1  -6   4    1.03    0.69
   1  -6   4    0.99    0.40
   1  -6   4    0.71    0.29
  -2   6  -4    1.18    0.38
  -2   6  -4    0.21    0.92
  -2   6  -4    0.78    0.56
  -2   6  -4    1.13    0.32
  -2   6  -4    0.96    0.58
   2  -6   4    0.45    0.50
   2  -6   4    0.78    0.58
   2  -6   4    0.91    0.30
   2  -6   4    0.95    0.40
   2  -6   4    0.70    0.69
  -3   6  -4   -0.08    0.19
  -3   6  -4   -0.14    0.44
  -3   6  -4    0.61    0.57
  -3   6  -4    0.12    0.30
  -3   6  -4    0.38    0.76
   3  -6   4    0.37    0.70
   3  -6   4    0.38    0.51
   3  -6   4    0.06    0.36
   3  -6   4    0.50    0.49
  -4   6  -4    0.32    0.57
  -4   6  -4    0.16    0.32
  -4   6  -4    0.71    0.82
  -4   6  -4    0.80    0.54
  -4   6  -4    0.59    0.21
   4  -6   4    0.47    0.33
   4  -6   4    0.43    0.77
   4  -6   4    1.01    0.51
   4  -6   4    0.53    0.43
  -5   6  -4    0.83    0.84
  -5   6  -4    0.40    0.48
  -5   6  -4    0.42    0.18
  -5   6  -4    0.85    0.65
  -5   6  -4    0.72    0.66
   5  -6   4    0.49    0.92
   5  -6   4    0.15    0.44
   5  -6   4    0.40    0.33
   5  -6   4    0.85    0.45
  -6   6  -4   27.68    2.69
   6  -6   4   25.01    2.84
   6  -6   4   27.74    2.72
  -7   6  -4    0.81    0.86
  -7   6  -4    0.30    1.08
  -7   6  -4    1.00    0.34
  -7   6  -4    0.82    0.46
  -7   6  -4    0.64    0.28
   7  -6   4    0.68    0.41
   7  -6   4    0.60    0.71
  -8   6  -4    2.41    0.77
  -8   6  -4    2.06    0.54
  -8   6  -4    1.92    0.48
  -9   6  -4    7.68    1.02
  -9   6  -4    4.91    0.96
  -9   6  -4    6.20    1.40
   9   5  -4   -0.53    1.46
  -9  -5   4    0.33    1.95
  -9  -5   4   -0.06    1.18
  -9  -5   4   -2.55    2.99
   8   5  -4   -0.67    1.96
   8   5  -4    0.41    1.02
  -8  -5   4    2.12    0.93
  -8  -5   4   -0.55    2.24
  -8  -5   4   -0.54    1.48
   7   5  -4    3.20    1.58
   7   5  -4    0.71    0.90
  -7  -5   4    0.91    1.27
  -7  -5   4    0.37    0.71
  -7  -5   4    0.30    1.35
  -7  -5   4   -2.70    1.81
   6   5  -4    6.04    1.56
   6   5  -4    7.69    1.21
  -6  -5   4    7.19    1.08
  -6  -5   4   11.63    2.01
  -6  -5   4    4.95    1.28
  -6  -5   4    6.55    1.08
  -6  -5   4    2.90    1.86
   5   5  -4    1.21    0.89
   5   5  -4    1.09    1.32
   5   5  -4    0.54    0.69
   5   5  -4    0.49    0.49
  -5  -5   4    0.97    0.70
  -5  -5   4    0.15    0.57
  -5  -5   4    0.06    1.07
  -5  -5   4    1.52    0.53
  -5  -5   4    1.05    0.92
   4   5  -4    1.39    0.79
   4   5  -4    1.90    1.13
   4   5  -4    1.40    0.66
   4   5  -4    1.78    0.39
   4   5  -4    2.08    0.54
  -4  -5   4    1.89    0.52
  -4  -5   4    3.55    0.69
  -4  -5   4    1.77    0.68
  -4  -5   4    1.09    1.02
  -4  -5   4    2.80    0.94
   3   5  -4    1.80    1.07
   3   5  -4    1.80    0.38
   3   5  -4    1.85    0.65
   3   5  -4    1.87    0.77
   3   5  -4    2.13    0.46
  -3  -5   4    2.11    0.49
  -3  -5   4    1.10    0.94
  -3  -5   4    1.57    0.61
  -3  -5   4    1.85    0.52
  -3  -5   4    1.77    0.69
   2   5  -4   10.09    1.98
   2   5  -4   12.24    1.70
   2   5  -4   12.10    1.42
   2   5  -4   13.09    1.65
   2   5  -4   11.73    1.36
  -2  -5   4   14.14    1.40
  -2  -5   4   13.90    1.36
  -2  -5   4   12.04    1.63
  -2  -5   4   11.05    1.70
  -2  -5   4   11.88    1.44
   1   5  -4    1.25    0.85
   1   5  -4    2.15    0.48
   1   5  -4    3.69    0.51
   1   5  -4    1.46    0.58
  -1  -5   4    1.64    0.87
  -1  -5   4    1.93    0.69
  -1  -5   4    2.43    0.66
  -1  -5   4    2.58    0.43
  -1  -5   4    2.47    0.44
   0   5  -4   12.51    1.61
   0   5  -4   13.44    1.32
   0   5  -4   11.03    1.30
   0   5  -4   11.68    1.55
   0  -5   4   13.92    1.28
   0  -5   4    7.91    1.68
   0  -5   4   11.34    1.52
   0  -5   4   11.43    1.59
   0  -5   4   10.95    1.32
  -1   5  -4    3.51    0.55
  -1   5  -4    3.69    0.81
  -1   5  -4    2.24    0.89
  -1   5  -4    4.29    0.53
  -1   5  -4    4.44    0.82
   1  -5   4    4.03    0.52
   1  -5   4    3.06    0.52
   1  -5   4    3.19    0.65
   1  -5   4    2.22    0.81
   1  -5   4    3.51    0.77
  -2   5  -4    5.71    0.96
  -2   5  -4    2.78    0.89
  -2   5  -4    4.05    0.76
  -2   5  -4    4.71    0.63
  -2   5  -4    5.28    0.63
   2  -5   4    4.41    0.86
   2  -5   4    5.35    0.84
   2  -5   4    5.63    0.71
   2  -5   4    3.77    0.86
  -3   5  -4    0.97    0.65
  -3   5  -4    2.57    0.63
  -3   5  -4    1.58    0.36
  -3   5  -4    2.27    0.35
  -3   5  -4    2.33    0.61
   3  -5   4    2.62    0.46
   3  -5   4    1.98    0.67
  -4   5  -4    8.06    0.87
  -4   5  -4    7.75    1.01
   4  -5   4    7.97    1.00
   4  -5   4   10.43    1.12
   4  -5   4    5.72    1.20
   4  -5   4    8.05    0.98
  -5   5  -4    6.24    0.90
  -5   5  -4    4.07    0.92
   5  -5   4    6.75    0.95
   5  -5   4    5.01    1.12
   5  -5   4    5.76    0.87
   5  -5   4    6.40    0.79
  -6   5  -4   -0.52    0.60
  -6   5  -4    0.42    0.25
  -6   5  -4    0.11    0.19
  -6   5  -4    0.62    0.80
  -6   5  -4    0.54    0.31
   6  -5   4    0.18    0.49
   6  -5   4    0.40    0.36
   6  -5   4    0.47    0.45
  -7   5  -4    1.51    0.84
  -7   5  -4    1.55    1.07
  -7   5  -4    2.81    0.49
  -7   5  -4    3.59    0.65
   7  -5   4    2.87    0.82
  -8   5  -4    4.65    0.75
  -8   5  -4    3.46    1.53
  -8   5  -4    4.79    0.76
  -8   5  -4    5.14    1.07
  -9   5  -4    4.03    0.68
  -9   5  -4    3.81    0.87
  -9   5  -4    6.10    1.35
   9   4  -4    1.19    1.29
  -9  -4   4    2.60    2.39
  -9  -4   4    0.47    1.51
  -9  -4   4    0.85    0.95
   8   4  -4    7.63    2.13
   8   4  -4    5.53    1.34
  -8  -4   4    7.46    1.31
  -8  -4   4    7.92    1.70
  -8  -4   4    8.28    1.28
  -8  -4   4    4.84    2.00
   7   4  -4   -0.64    0.65
   7   4  -4   -0.07    1.17
  -7  -4   4   -1.17    0.90
  -7  -4   4   -0.07    0.57
  -7  -4   4    0.28    0.75
  -7  -4   4    0.03    1.14
   6   4  -4    7.97    1.64
   6   4  -4    9.32    1.37
   6   4  -4    8.89    1.78
  -6  -4   4   10.95    1.86
  -6  -4   4    6.54    1.83
  -6  -4   4    9.64    1.32
  -6  -4   4    9.61    1.52
  -6  -4   4   10.74    1.39
   5   4  -4    3.34    0.66
   5   4  -4    5.08    1.33
   5   4  -4    2.64    0.74
   5   4  -4    3.46    0.49
   5   4  -4    2.47    1.00
  -5  -4   4    4.01    0.72
  -5  -4   4    4.51    1.09
  -5  -4   4    1.81    1.04
  -5  -4   4    3.77    0.65
  -5  -4   4    3.67    0.85
   4   4  -4    2.76    0.56
   4   4  -4    1.76    0.94
   4   4  -4    3.64    0.97
   4   4  -4    2.71    0.69
   4   4  -4    3.28    0.52
  -4  -4   4    3.76    0.59
  -4  -4   4    4.03    0.84
  -4  -4   4    4.26    0.67
  -4  -4   4    2.16    1.01
   3   4  -4    0.40    0.30
   3   4  -4   -0.11    0.41
   3   4  -4   -0.17    0.20
   3   4  -4    0.93    0.72
   3   4  -4    0.33    0.47
  -3  -4   4    0.06    0.26
  -3  -4   4    0.68    0.46
  -3  -4   4   -0.08    0.46
  -3  -4   4    0.27    0.29
  -3  -4   4    0.09    0.63
   2   4  -4   23.83    3.34
   2   4  -4   29.12    2.97
   2   4  -4   29.77    3.03
   2   4  -4   30.78    3.15
   2   4  -4   26.22    3.21
  -2  -4   4   32.55    3.00
  -2  -4   4   31.83    3.20
  -2  -4   4   30.05    3.23
  -2  -4   4   35.17    3.06
   1   4  -4    9.28    1.35
   1   4  -4   11.44    1.14
   1   4  -4    6.98    1.53
   1   4  -4   11.26    1.17
   1   4  -4   10.63    1.32
  -1  -4   4   10.04    1.09
  -1  -4   4   10.07    1.16
  -1  -4   4   10.43    1.31
  -1  -4   4   11.14    1.40
   0   4  -4    3.70    0.60
   0   4  -4    5.70    0.86
   0   4  -4    5.93    0.90
   0   4  -4    5.00    0.62
   0  -4   4    4.00    0.96
   0  -4   4    4.59    0.63
   0  -4   4    3.34    0.90
   0  -4   4    3.25    0.65
   0  -4   4    4.99    0.56
  -1   4  -4    9.36    1.22
  -1   4  -4    8.34    1.17
  -1   4  -4    8.03    0.97
  -1   4  -4    9.61    1.01
   1  -4   4    9.16    1.18
   1  -4   4    9.31    1.03
   1  -4   4    9.94    0.99
   1  -4   4    8.79    1.25
  -2   4  -4   25.22    2.89
  -2   4  -4   29.35    2.78
  -2   4  -4   29.84    2.77
   2  -4   4   29.33    2.80
   2  -4   4   29.00    2.87
   2  -4   4   28.74    3.01
   2  -4   4   23.84    2.94
  -3   4  -4   13.97    1.78
  -3   4  -4   12.85    1.64
  -3   4  -4   17.50    1.61
   3  -4   4   17.51    1.68
   3  -4   4   14.46    1.88
   3  -4   4   16.33    1.73
   3  -4   4   19.11    1.84
  -4   4  -4    0.09    0.12
  -4   4  -4    0.97    0.52
  -4   4  -4    0.90    0.48
  -4   4  -4   -0.17    0.38
   4  -4   4   -0.01    0.22
   4  -4   4    0.10    0.53
   4  -4   4   -0.02    0.24
   4  -4   4    0.08    0.50
  -5   4  -4    6.04    0.70
  -5   4  -4    4.84    0.86
  -5   4  -4    3.73    1.00
   5  -4   4    7.47    0.80
   5  -4   4    5.99    0.83
   5  -4   4    7.68    1.28
  -6   4  -4    0.49    0.20
  -6   4  -4    1.20    0.74
  -6   4  -4    0.43    0.35
  -6   4  -4    0.80    0.56
  -6   4  -4    0.82    0.26
   6  -4   4    0.99    0.34
   6  -4   4    0.66    0.48
   6  -4   4    1.00    0.40
  -7   4  -4   -0.09    0.85
  -7   4  -4   -0.05    0.21
  -7   4  -4    0.08    0.49
  -7   4  -4   -0.15    0.64
   7  -4   4    0.41    0.39
   7  -4   4   -0.15    0.63
  -8   4  -4    1.64    0.89
  -8   4  -4    0.20    0.31
  -8   4  -4    0.05    1.17
  -8   4  -4   -0.86    0.73
  -8   4  -4   -0.22    0.60
  -8   4  -4    0.79    0.49
   8  -4   4    0.76    0.60
   8  -4   4    0.13    0.88
  -9   4  -4    2.18    0.82
  -9   4  -4    3.25    1.23
  -9   4  -4    3.03    0.58
 -10   4  -4   -0.15    0.98
 -10   4  -4    0.21    0.59
 -10   4  -4    0.91    1.73
 -10  -3   4    0.36    1.65
 -10  -3   4   -0.29    1.05
 -10  -3   4   -1.58    2.45
   9   3  -4    0.61    0.97
  -9  -3   4    0.18    1.95
  -9  -3   4    0.17    1.29
  -9  -3   4    0.97    0.86
   8   3  -4    4.46    1.58
   8   3  -4    2.70    0.90
  -8  -3   4    2.74    1.11
  -8  -3   4    2.07    1.43
  -8  -3   4    3.27    0.91
  -8  -3   4    2.72    0.74
  -8  -3   4    0.16    1.49
   7   3  -4    8.17    1.36
   7   3  -4    8.53    1.73
  -7  -3   4   10.29    1.41
  -7  -3   4   12.05    1.81
  -7  -3   4    4.91    1.73
   6   3  -4   12.48    2.11
   6   3  -4   14.15    2.11
   6   3  -4   12.34    1.56
  -6  -3   4   13.33    1.90
  -6  -3   4   12.88    1.81
  -6  -3   4   11.74    1.51
   5   3  -4    2.37    0.51
   5   3  -4    3.35    1.02
   5   3  -4    3.15    0.44
   5   3  -4    1.96    0.82
   5   3  -4    4.08    0.71
  -5  -3   4    2.33    0.86
  -5  -3   4    1.20    0.86
  -5  -3   4    2.37    0.63
  -5  -3   4    2.18    0.48
  -5  -3   4    2.78    0.60
   4   3  -4    1.26    0.75
   4   3  -4    1.68    0.41
   4   3  -4    1.29    0.26
   4   3  -4    0.86    0.61
   4   3  -4    2.08    0.54
  -4  -3   4    0.53    0.67
  -4  -3   4    1.17    0.49
  -4  -3   4    1.44    0.35
  -4  -3   4    1.77    0.60
   3   3  -4   43.15    4.14
   3   3  -4   44.32    4.31
   3   3  -4   39.59    4.41
   3   3  -4   38.75    4.20
  -3  -3   4   43.31    4.41
  -3  -3   4   41.18    4.33
  -3  -3   4   44.72    4.22
  -3  -3   4   45.75    4.19
   2   3  -4  113.57   11.86
   2   3  -4  113.21   11.69
   2   3  -4  136.30   11.81
  -2  -3   4  111.39   11.79
  -2  -3   4  125.76   11.67
  -2  -3   4  121.62   11.87
  -2  -3   4  129.66   11.71
   1   3  -4   15.43    1.68
   1   3  -4   14.98    1.55
   1   3  -4   14.75    1.75
   1   3  -4   14.98    1.53
  -1  -3   4   15.20    1.56
  -1  -3   4   14.86    1.50
  -1  -3   4   14.54    1.74
   0   3  -4   24.37    2.39
   0   3  -4   25.41    2.38
   0   3  -4   22.96    2.54
   0   3  -4   23.87    2.49
   0   3  -4   25.36    2.35
   0  -3   4   23.40    2.49
   0  -3   4   21.52    2.54
   0  -3   4   23.67    2.39
  -1   3  -4    1.29    0.50
  -1   3  -4    1.78    0.30
  -1   3  -4    2.15    0.29
  -1   3  -4    1.43    0.35
  -1   3  -4    2.23    0.48
   1  -3   4    1.24    0.45
   1  -3   4    2.14    0.34
   1  -3   4    1.73    0.37
   1  -3   4    1.76    0.44
  -2   3  -4   23.31    2.63
  -2   3  -4   24.76    2.73
  -2   3  -4   28.86    2.63
   2  -3   4   25.84    2.65
   2  -3   4   30.56    2.72
   2  -3   4   27.93    2.81
  -3   3  -4    9.72    1.26
  -3   3  -4   10.84    1.11
   3  -3   4   12.05    1.41
   3  -3   4   11.55    1.18
   3  -3   4    9.50    1.15
   3  -3   4   12.15    1.29
  -4   3  -4    2.21    0.41
  -4   3  -4    1.97    0.59
  -4   3  -4    2.28    0.36
  -4   3  -4    2.06    0.53
   4  -3   4    2.17    0.47
   4  -3   4    2.84    0.44
   4  -3   4    2.15    0.37
   4  -3   4    3.26    0.67
  -5   3  -4    5.15    0.64
  -5   3  -4    4.87    1.00
  -5   3  -4    4.78    0.71
  -5   3  -4    4.42    0.68
  -5   3  -4    4.42    0.58
   5  -3   4    5.67    0.69
   5  -3   4    7.27    1.22
   5  -3   4    4.80    0.68
   5  -3   4    5.69    0.86
  -6   3  -4   54.52    4.95
  -6   3  -4   48.74    4.74
  -6   3  -4   48.31    4.80
  -6   3  -4   51.24    4.80
  -6   3  -4   40.51    4.86
   6  -3   4   49.52    4.81
   6  -3   4   47.09    4.78
   6  -3   4   50.09    4.96
  -7   3  -4    6.61    1.29
  -7   3  -4    5.23    1.26
  -7   3  -4    6.00    1.15
  -7   3  -4    6.60    0.99
  -7   3  -4    6.74    1.01
   7  -3   4    7.60    1.01
   7  -3   4    6.72    1.34
  -8   3  -4    0.78    0.88
  -8   3  -4    0.20    0.32
  -8   3  -4    0.27    0.71
  -8   3  -4    0.36    0.51
  -8   3  -4   -1.17    0.81
  -8   3  -4    1.86    1.20
   8  -3   4    0.41    0.59
   8  -3   4   -0.35    0.91
  -9   3  -4    0.55    1.26
  -9   3  -4    0.07    0.42
  -9   3  -4    0.30    0.76
 -10   3  -4   -0.27    0.54
 -10   3  -4    0.82    1.10
 -10   3  -4    0.30    1.86
 -10  -2   4    0.08    1.36
 -10  -2   4    0.43    2.17
 -10  -2   4    1.45    0.93
   9   2  -4   17.02    2.31
  -9  -2   4   12.77    2.33
  -9  -2   4   20.98    2.18
   8   2  -4   -0.27    0.62
   8   2  -4    0.29    1.19
  -8  -2   4   -0.43    1.22
  -8  -2   4    0.51    0.97
  -8  -2   4    0.02    0.51
  -8  -2   4   -0.52    0.60
  -8  -2   4   -0.19    0.84
   7   2  -4   11.31    2.24
   7   2  -4   14.45    1.70
  -7  -2   4   12.00    1.90
  -7  -2   4   14.64    1.70
  -7  -2   4   16.46    1.66
  -7  -2   4   12.52    1.97
   6   2  -4    8.11    1.13
   6   2  -4    7.77    1.51
   6   2  -4    9.01    1.52
   6   2  -4    6.97    0.92
   6   2  -4    9.04    1.16
  -6  -2   4    8.04    1.11
  -6  -2   4    8.23    1.33
  -6  -2   4   11.31    1.48
  -6  -2   4   10.07    1.09
   5   2  -4    3.20    0.45
   5   2  -4    3.71    0.93
   5   2  -4    3.30    0.63
   5   2  -4    3.22    0.86
   5   2  -4    2.81    0.52
  -5  -2   4    2.35    0.89
  -5  -2   4    3.52    0.74
  -5  -2   4    2.86    0.80
  -5  -2   4    4.77    0.63
  -5  -2   4    4.58    0.69
   4   2  -4   -0.08    0.40
   4   2  -4   -0.36    0.30
   4   2  -4    0.57    0.55
   4   2  -4    0.26    0.15
   4   2  -4    0.48    0.25
  -4  -2   4    0.33    0.24
  -4  -2   4    0.11    0.50
  -4  -2   4    0.31    0.39
  -4  -2   4    0.46    0.42
  -4  -2   4    0.03    0.27
   3   2  -4   33.78    3.15
   3   2  -4   28.36    3.05
   3   2  -4   27.91    3.20
  -3  -2   4   29.53    3.16
  -3  -2   4   31.35    3.24
  -3  -2   4   31.06    3.03
  -3  -2   4   33.15    3.07
   2   2  -4   -0.04    0.32
   2   2  -4    0.02    0.19
   2   2  -4    0.82    0.30
   2   2  -4   -0.20    0.38
   2   2  -4    0.06    0.13
  -2  -2   4   -0.04    0.18
  -2  -2   4   -0.09    0.35
  -2  -2   4    0.22    0.32
  -2  -2   4   -0.08    0.27
  -2  -2   4   -0.05    0.15
   1   2  -4   11.32    1.34
   1   2  -4   12.43    1.23
   1   2  -4   12.55    1.26
   1   2  -4   10.89    1.39
  -1  -2   4   12.57    1.37
  -1  -2   4   12.52    1.24
  -1  -2   4   10.74    1.40
  -1  -2   4   12.70    1.20
  -1  -2   4   12.34    1.27
   0   2  -4   62.72    6.29
   0   2  -4   65.73    6.38
   0   2  -4   66.04    6.22
   0   2  -4   68.19    6.18
   0  -2   4   64.20    6.23
   0  -2   4   59.68    6.35
  -1   2  -4   10.11    1.04
  -1   2  -4    9.01    1.14
  -1   2  -4   10.88    1.03
   1  -2   4   10.87    1.24
   1  -2   4    9.02    1.21
   1  -2   4   10.98    1.13
   1  -2   4   10.25    1.06
  -2   2  -4    3.21    0.59
  -2   2  -4    4.04    0.48
  -2   2  -4    4.78    0.55
   2  -2   4    4.01    0.52
   2  -2   4    4.22    0.66
   2  -2   4    4.98    0.57
   2  -2   4    5.59    0.78
   2  -2   4    4.28    0.55
  -3   2  -4    1.37    0.30
  -3   2  -4    1.13    0.25
  -3   2  -4    2.34    0.59
  -3   2  -4    0.67    0.39
  -3   2  -4    1.01    0.30
   3  -2   4    2.53    0.62
   3  -2   4    1.69    0.28
   3  -2   4    1.45    0.35
   3  -2   4    1.46    0.28
  -4   2  -4    5.54    0.71
  -4   2  -4    5.33    1.01
  -4   2  -4    4.91    0.58
  -4   2  -4    5.14    0.64
  -4   2  -4    6.14    0.79
  -4   2  -4    4.78    0.70
   4  -2   4    5.21    0.65
   4  -2   4    6.04    0.69
  -5   2  -4   20.97    2.26
  -5   2  -4   19.75    2.58
  -5   2  -4   25.74    2.47
  -5   2  -4   21.98    2.32
  -5   2  -4   22.86    2.40
  -5   2  -4   22.28    2.37
   5  -2   4   24.95    2.50
   5  -2   4   23.49    2.31
   5  -2   4   24.04    2.34
  -6   2  -4    1.89    0.47
  -6   2  -4    2.45    0.81
  -6   2  -4    1.86    0.61
  -6   2  -4    1.63    0.32
  -6   2  -4    1.13    0.47
  -6   2  -4    1.73    0.55
   6  -2   4    3.32    0.96
   6  -2   4    2.36    0.45
   6  -2   4    1.56    0.66
  -7   2  -4    3.20    0.65
  -7   2  -4    3.39    1.05
  -7   2  -4    2.14    0.68
  -7   2  -4    3.07    0.79
   7  -2   4    3.03    0.64
   7  -2   4    3.52    0.96
  -8   2  -4   28.92    2.60
  -8   2  -4   22.83    3.20
  -8   2  -4   23.49    2.94
  -8   2  -4   27.97    2.83
  -8   2  -4   23.97    2.91
  -8   2  -4   23.25    3.31
   8  -2   4   24.13    2.79
   8  -2   4   24.24    3.20
  -9   2  -4    4.47    1.60
  -9   2  -4    4.38    0.74
  -9   2  -4    7.26    1.22
   9  -2   4    5.73    1.14
 -10   2  -4    0.52    0.66
 -10   2  -4    1.69    1.18
 -10  -1   4    1.38    1.26
 -10  -1   4    2.32    1.90
 -10  -1   4    2.16    0.83
   9   1  -4   -0.61    0.71
   9   1  -4    0.58    1.42
  -9  -1   4    0.27    0.59
  -9  -1   4   -0.39    1.12
  -9  -1   4   -1.36    0.87
  -9  -1   4   -0.09    1.46
  -9  -1   4   -0.96    0.66
   8   1  -4    7.99    1.34
  -8  -1   4   10.71    1.72
  -8  -1   4    8.10    1.21
  -8  -1   4    7.72    1.24
   7   1  -4   13.06    1.58
   7   1  -4   15.27    1.59
   7   1  -4   13.03    1.40
  -7  -1   4   14.51    1.55
  -7  -1   4   13.13    1.79
  -7  -1   4   11.50    1.50
   6   1  -4   38.27    4.17
   6   1  -4   43.93    4.09
   6   1  -4   41.40    4.21
   6   1  -4   35.60    4.32
  -6  -1   4   48.79    4.20
  -6  -1   4   42.84    4.38
  -6  -1   4   40.31    4.32
  -6  -1   4   44.88    4.16
   5   1  -4   21.44    2.16
   5   1  -4   18.05    2.35
   5   1  -4   21.20    2.04
  -5  -1   4   20.41    2.31
  -5  -1   4   23.93    2.11
  -5  -1   4   19.68    2.12
  -5  -1   4   18.65    2.24
   4   1  -4   36.91    3.61
   4   1  -4   29.69    3.77
   4   1  -4   34.51    3.53
   4   1  -4   38.43    3.66
  -4  -1   4   38.15    3.62
  -4  -1   4   39.53    3.58
  -4  -1   4   37.08    3.77
  -4  -1   4   38.56    3.72
   3   1  -4    3.71    0.74
   3   1  -4    5.28    0.70
   3   1  -4    3.58    0.77
   3   1  -4    4.50    0.58
   3   1  -4    5.27    0.51
  -3  -1   4    4.18    0.77
  -3  -1   4    4.29    0.73
  -3  -1   4    5.50    0.59
  -3  -1   4    4.52    0.60
   2   1  -4    1.68    0.39
   2   1  -4    2.02    0.40
   2   1  -4    2.23    0.26
   2   1  -4    1.80    0.30
  -2  -1   4    1.88    0.42
  -2  -1   4    0.82    0.43
  -2  -1   4    2.08    0.41
  -2  -1   4    2.43    0.33
  -2  -1   4    1.46    0.28
   1   1  -4   40.80    3.68
   1   1  -4   39.91    3.70
   1   1  -4   37.20    3.76
  -1  -1   4   36.63    3.77
  -1  -1   4   34.52    3.81
  -1  -1   4   39.16    3.71
   0   1  -4   68.40    7.04
   0   1  -4   80.51    6.98
   0  -1   4   71.65    7.03
   0  -1   4   78.07    7.05
   0  -1   4   73.76    6.99
   0  -1   4   63.51    7.11
  -1   1  -4  103.99    9.61
  -1   1  -4   93.23    9.68
  -1   1  -4  102.69    9.67
   1  -1   4  106.71    9.63
   1  -1   4   94.80    9.66
   1  -1   4  108.84    9.66
   1  -1   4   93.00    9.73
  -2   1  -4    8.60    1.00
  -2   1  -4    9.69    1.04
  -2   1  -4    7.92    1.16
  -2   1  -4    9.93    0.95
   2  -1   4    8.41    1.01
   2  -1   4    9.76    0.98
  -3   1  -4   15.08    1.75
  -3   1  -4   17.21    1.71
  -3   1  -4   16.05    1.92
  -3   1  -4   17.76    1.78
  -3   1  -4   18.18    1.79
  -3   1  -4   15.79    1.66
   3  -1   4   17.03    1.71
   3  -1   4   18.74    1.86
   3  -1   4   17.18    1.74
  -4   1  -4   17.77    2.06
  -4   1  -4   18.27    1.83
  -4   1  -4   16.08    1.75
  -4   1  -4   18.10    1.95
   4  -1   4   16.54    1.83
   4  -1   4   18.78    1.99
   4  -1   4   18.80    1.80
  -5   1  -4    5.13    0.90
  -5   1  -4    4.54    0.94
  -5   1  -4    4.29    0.68
  -5   1  -4    3.49    0.65
  -5   1  -4    4.60    0.54
  -5   1  -4    3.88    0.73
   5  -1   4    3.65    0.80
   5  -1   4    4.15    0.61
   5  -1   4    4.25    0.70
  -6   1  -4    2.65    0.68
  -6   1  -4    2.41    0.39
  -6   1  -4    2.96    0.85
  -6   1  -4    2.73    0.79
  -6   1  -4    1.79    0.50
  -6   1  -4    2.14    0.54
   6  -1   4    5.24    1.29
   6  -1   4    1.44    0.44
   6  -1   4    1.13    0.70
  -7   1  -4    3.77    1.01
  -7   1  -4    6.56    0.94
  -7   1  -4    3.22    1.11
  -7   1  -4    4.32    0.81
  -7   1  -4    4.81    1.72
   7  -1   4    5.33    1.21
   7  -1   4    5.17    0.85
  -8   1  -4    8.70    1.61
  -8   1  -4    9.64    1.22
  -8   1  -4   14.43    1.82
  -8   1  -4    9.20    1.47
  -8   1  -4    9.57    1.92
   8  -1   4    9.50    1.80
   8  -1   4   10.68    1.62
  -9   1  -4   15.87    2.23
  -9   1  -4   12.41    2.54
  -9   1  -4   12.68    1.61
   9  -1   4   12.41    1.89
 -11   0   4    3.74    1.46
 -11   0   4    3.03    1.03
 -11   0   4   -1.01    2.17
 -10   0   4    3.43    0.90
 -10   0   4    4.12    1.23
   9   0  -4   -0.16    1.42
   9   0  -4    2.59    1.05
  -9   0   4    1.84    0.59
  -9   0   4   -1.15    1.23
  -9   0   4    1.09    0.87
  -9   0   4    2.25    0.60
  -9   0   4    2.09    0.91
   8   0  -4    1.96    1.04
   8   0  -4    1.43    0.60
  -8   0   4    1.38    0.47
  -8   0   4    2.03    0.77
  -8   0   4    1.82    0.75
  -8   0   4    1.87    0.49
   7   0  -4    2.07    0.38
   7   0  -4    2.12    0.46
   7   0  -4    2.36    0.83
   7   0  -4    2.49    0.53
   7   0  -4    2.43    0.58
  -7   0   4    3.43    0.50
  -7   0   4    2.32    0.65
  -7   0   4    1.73    0.63
  -7   0   4    2.07    0.48
   6   0  -4    9.27    1.43
   6   0  -4    8.83    1.27
   6   0  -4    8.51    1.13
   6   0  -4    9.45    1.12
  -6   0   4    9.18    1.32
  -6   0   4   10.91    1.11
  -6   0   4   11.17    1.14
  -6   0   4   11.92    1.36
   5   0  -4   51.13    5.04
   5   0  -4   46.40    5.19
   5   0  -4   54.94    5.11
   5   0  -4   49.96    5.09
   5   0  -4   46.86    5.23
  -5   0   4   48.96    5.19
  -5   0   4   58.79    5.11
  -5   0   4   53.97    5.24
  -5   0   4   59.43    5.08
   4   0  -4    0.29    0.35
   4   0  -4    0.14    0.10
   4   0  -4   -0.02    0.17
   4   0  -4    0.69    0.35
  -4   0   4    0.22    0.14
  -4   0   4   -0.18    0.31
  -4   0   4    0.21    0.41
  -4   0   4    0.10    0.30
  -4   0   4    0.25    0.19
   3   0  -4   57.59    5.35
   3   0  -4   47.07    5.20
   3   0  -4   56.72    5.24
   3   0  -4   51.91    5.29
  -3   0   4   57.72    5.34
  -3   0   4   57.18    5.23
  -3   0   4   51.39    5.36
  -3   0   4   56.08    5.26
   2   0  -4   85.71    9.08
   2   0  -4   99.01    9.03
   2   0  -4   96.89    9.00
  -2   0   4  104.23    9.02
  -2   0   4   93.64    9.04
  -2   0   4   93.15    9.14
  -2   0   4   86.90    9.08
   1   0  -4   31.11    2.66
   1   0  -4   24.84    2.63
   1   0  -4   25.24    2.72
  -1   0   4   26.51    2.67
  -1   0   4   29.81    2.72
   0   0  -4    9.56    1.15
   0   0  -4    9.55    1.04
   0   0  -4    9.81    1.11
   0   0   4   11.33    1.06
   0   0   4   10.60    1.16
   0   0   4   11.93    1.09
  -1   0  -4    0.38    0.13
  -1   0  -4    0.55    0.27
  -1   0  -4    0.36    0.29
  -1   0  -4    0.67    0.11
  -1   0  -4    0.45    0.24
  -1   0  -4    0.37    0.18
   1   0   4    0.59    0.17
   1   0   4    1.11    0.41
   1   0   4    0.31    0.22
   1   0   4    0.62    0.15
   1   0   4    0.34    0.20
  -2   0  -4  264.62   23.79
  -2   0  -4  230.76   23.80
  -2   0  -4  258.87   23.82
  -2   0  -4  225.09   23.74
  -2   0  -4  209.37   23.69
  -2   0  -4  269.88   23.92
   2   0   4  244.89   23.76
   2   0   4  230.54   23.81
   2   0   4  267.50   23.74
   2   0   4  288.39   23.88
  -3   0  -4    3.56    0.43
  -3   0  -4    3.80    0.55
  -3   0  -4    4.24    0.70
  -3   0  -4    2.97    0.58
  -3   0  -4    3.78    0.74
  -3   0  -4    3.26    0.57
   3   0   4    4.15    0.55
   3   0   4    4.42    0.50
   3   0   4    3.12    0.64
  -4   0  -4   35.01    3.42
  -4   0  -4   34.18    3.42
  -4   0  -4   32.89    3.31
  -4   0  -4   31.10    3.57
  -4   0  -4   34.26    3.48
   4   0   4   33.43    3.56
   4   0   4   36.94    3.36
   4   0   4   34.61    3.42
  -5   0  -4   -0.18    0.58
  -5   0  -4    0.11    0.36
  -5   0  -4    0.72    0.52
  -5   0  -4   -0.04    0.17
  -5   0  -4    0.34    0.35
  -5   0  -4    0.21    0.73
   5   0   4    0.31    0.24
   5   0   4    0.28    0.52
   5   0   4    0.45    0.32
   5   0   4    0.55    0.83
  -6   0  -4   -0.30    0.23
  -6   0  -4    0.62    0.42
  -6   0  -4    0.46    0.84
  -6   0  -4   -0.18    0.48
  -6   0  -4    0.21    0.69
  -6   0  -4    0.49    0.72
   6   0   4    1.07    1.14
   6   0   4    0.13    0.45
   6   0   4    1.18    0.74
  -7   0  -4    0.22    0.64
  -7   0  -4    0.69    0.99
  -7   0  -4    0.29    1.09
  -7   0  -4   -0.44    0.31
  -7   0  -4    0.29    0.91
  -7   0  -4   -0.57    0.65
   7   0   4    0.19    0.57
   7   0   4   -1.52    0.91
  -8   0  -4   -0.99    1.41
  -8   0  -4   -0.42    0.40
  -8   0  -4    0.76    0.88
  -8   0  -4    0.19    0.80
   8   0   4    0.86    0.81
   8   0   4    1.22    1.39
  -9   0  -4   -0.83    1.94
  -9   0  -4   -0.50    0.54
  -9   0  -4    0.19    1.12
 -11   1   4   15.19    1.97
 -11   1   4   10.39    1.92
 -10   1   4    1.68    1.66
 -10   1   4    1.42    1.08
 -10   1   4    3.36    0.76
   9  -1  -4    1.25    0.71
  -9   1   4    2.78    0.88
  -9   1   4    1.02    0.85
  -9   1   4    3.05    0.56
  -9   1   4    2.83    1.33
  -9   1   4    3.58    0.60
   8  -1  -4    9.04    1.48
   8  -1  -4    7.70    1.07
  -8   1   4    9.25    1.11
  -8   1   4   11.31    1.46
  -8   1   4   11.10    1.53
  -8   1   4    9.89    1.16
   7  -1  -4   12.77    1.86
   7  -1  -4   15.38    1.52
   7  -1  -4   14.80    1.53
   7  -1  -4   15.73    1.56
  -7   1   4   17.02    1.78
  -7   1   4   15.09    1.54
  -7   1   4   13.19    1.78
  -7   1   4   13.07    1.55
   6  -1  -4    1.34    0.28
   6  -1  -4    1.72    0.54
   6  -1  -4    1.42    0.36
   6  -1  -4    1.26    0.34
   6  -1  -4    1.80    0.27
  -6   1   4    1.40    0.31
  -6   1   4    1.53    0.48
  -6   1   4    1.32    0.52
  -6   1   4    0.97    0.66
  -6   1   4    1.53    0.29
   5  -1  -4   33.95    3.35
   5  -1  -4   34.08    3.45
   5  -1  -4   32.39    3.35
   5  -1  -4   33.93    3.39
  -5   1   4   32.81    3.47
  -5   1   4   34.67    3.46
  -5   1   4   39.03    3.36
   4  -1  -4    2.16    0.34
   4  -1  -4    2.09    0.27
   4  -1  -4    2.80    0.45
   4  -1  -4    2.13    0.41
   4  -1  -4    2.60    0.31
  -4   1   4    1.98    0.31
  -4   1   4    2.01    0.35
  -4   1   4    1.41    0.52
  -4   1   4    2.49    0.49
  -4   1   4    2.67    0.43
   3  -1  -4  361.25   35.54
  -3   1   4  365.54   35.60
  -3   1   4  391.95   35.55
   2  -1  -4   35.57    3.91
  -2   1   4   36.10    3.87
  -2   1   4   38.29    3.96
  -2   1   4   45.18    4.04
  -2   1   4   41.79    3.85
  -2   1   4   42.88    3.87
  -2   1   4   39.49    3.96
  -2   1   4   42.63    3.89
   1  -1  -4   14.03    1.63
   1  -1  -4   15.58    1.58
  -1   1   4   16.13    1.68
  -1   1   4   19.26    1.74
  -1   1   4   16.74    1.60
   0  -1  -4   29.17    3.36
   0  -1  -4   36.11    3.29
   0  -1  -4   34.87    3.33
   0  -1  -4   33.49    3.42
   0  -1  -4   34.52    3.34
   0   1   4   35.82    3.28
   0   1   4   37.27    3.38
   0   1   4   34.64    3.39
   0   1   4   29.00    3.29
  -1  -1  -4   10.39    1.17
  -1  -1  -4   12.74    1.39
  -1  -1  -4   12.10    1.35
  -1  -1  -4   11.66    1.25
   1   1   4   10.99    1.34
   1   1   4   14.16    1.38
   1   1   4   13.57    1.23
  -2  -1  -4   42.40    4.29
  -2  -1  -4   40.16    4.40
  -2  -1  -4   47.02    4.29
  -2  -1  -4   40.28    4.34
  -2  -1  -4   47.45    4.52
   2   1   4   45.91    4.40
   2   1   4   43.41    4.28
  -3  -1  -4    0.74    0.38
  -3  -1  -4    0.77    0.48
  -3  -1  -4    0.41    0.30
  -3  -1  -4    0.52    0.16
  -3  -1  -4    0.66    0.30
  -3  -1  -4    0.68    0.41
   3   1   4    0.87    0.32
   3   1   4    1.00    0.29
   3   1   4    1.15    0.44
  -4  -1  -4   29.77    3.43
  -4  -1  -4   30.54    3.64
  -4  -1  -4   30.91    3.39
  -4  -1  -4   36.42    3.35
  -4  -1  -4   28.44    3.23
  -4  -1  -4   38.09    3.56
   4   1   4   36.08    3.31
   4   1   4   35.84    3.38
   4   1   4   33.88    3.56
  -5  -1  -4   -1.06    0.65
  -5  -1  -4   -0.07    0.65
  -5  -1  -4    0.32    0.46
  -5  -1  -4    0.72    0.22
  -5  -1  -4    0.31    0.44
  -5  -1  -4   -0.21    0.79
   5   1   4    0.49    0.64
   5   1   4    0.22    0.34
   5   1   4    0.20    0.46
  -6  -1  -4    0.71    1.15
  -6  -1  -4   -0.41    0.91
  -6  -1  -4    0.25    0.29
  -6  -1  -4   -0.26    0.82
  -6  -1  -4    0.18    0.54
  -6  -1  -4   -0.62    0.64
   6   1   4    0.09    0.83
   6   1   4    0.12    0.56
   6   1   4   -1.74    1.17
  -7  -1  -4    0.88    0.80
  -7  -1  -4   -0.47    1.10
  -7  -1  -4    0.02    1.50
  -7  -1  -4   -0.58    0.36
   7   1   4   -0.52    0.67
   7   1   4    0.13    1.15
  -8  -1  -4   -1.78    1.06
  -8  -1  -4   -0.98    1.88
  -8  -1  -4   -0.01    0.51
   8   1   4   -0.31    0.92
   8   1   4    0.31    1.63
  -9  -1  -4   -2.60    2.54
  -9  -1  -4   -0.31    1.42
  -9  -1  -4    1.12    0.71
   9   1   4   -1.24    1.29
 -11   2   4    0.62    1.77
 -11   2   4   -0.24    1.11
 -11   2   4    1.73    0.75
 -10   2   4    8.39    1.12
 -10   2   4    4.40    1.72
 -10   2   4    8.88    1.35
   9  -2  -4    2.35    0.58
   9  -2  -4    1.06    0.28
  -9   2   4    0.71    0.37
  -9   2   4    0.26    1.11
  -9   2   4    1.36    0.61
  -9   2   4    2.53    0.78
  -9   2   4    1.65    0.48
   8  -2  -4   17.83    2.08
  -8   2   4   21.83    2.19
  -8   2   4   22.91    2.05
  -8   2   4   20.97    2.11
  -8   2   4   16.52    2.26
   7  -2  -4    1.75    0.32
   7  -2  -4    1.49    0.24
  -7   2   4    1.85    0.53
  -7   2   4    1.90    0.29
  -7   2   4    1.96    0.43
  -7   2   4    0.62    0.72
  -7   2   4    0.86    0.30
   6  -2  -4    0.37    0.11
   6  -2  -4    0.19    0.14
  -6   2   4    0.55    0.21
  -6   2   4    0.41    0.50
  -6   2   4    0.43    0.29
  -6   2   4    0.41    0.15
  -6   2   4    0.11    0.34
  -5   2   4   16.85    1.59
  -5   2   4   16.79    1.62
  -5   2   4   14.53    1.56
  -4   2   4    7.64    0.80
  -4   2   4    7.28    0.72
  -4   2   4    6.55    0.72
  -4   2   4    6.65    0.72
  -3   2   4   50.15    5.21
  -3   2   4   52.47    5.38
  -3   2   4   52.92    5.26
  -3   2   4   57.70    5.29
  -3   2   4   49.16    5.19
  -3   2   4   60.90    5.20
  -3   2   4   56.80    5.26
   2  -2  -4    8.96    1.00
   2  -2  -4   10.03    0.98
  -2   2   4    9.20    0.99
  -2   2   4    8.95    0.95
  -2   2   4   10.60    0.97
  -2   2   4    9.28    1.12
   1  -2  -4   73.82    7.78
   1  -2  -4   67.77    7.71
   1  -2  -4   81.14    7.73
   1  -2  -4   76.13    7.71
  -1   2   4   86.45    7.85
  -1   2   4   81.79    7.72
  -1   2   4   89.31    7.70
  -1   2   4   87.44    7.79
   0  -2  -4   52.46    5.03
   0  -2  -4   44.91    5.10
   0  -2  -4   48.72    5.12
   0  -2  -4   54.44    5.13
   0   2   4   55.03    5.14
   0   2   4   54.37    5.03
   0   2   4   52.98    5.11
  -1  -2  -4    9.49    1.05
  -1  -2  -4    8.80    1.21
  -1  -2  -4   10.08    1.15
  -1  -2  -4    9.40    1.01
  -1  -2  -4    8.88    1.13
   1   2   4    9.52    1.14
   1   2   4    8.20    1.12
   1   2   4   10.12    0.99
   1   2   4    8.01    0.91
   1   2   4    8.97    1.02
   1   2   4   10.40    1.06
  -2  -2  -4    2.11    0.51
  -2  -2  -4    1.14    0.53
  -2  -2  -4    0.92    0.22
  -2  -2  -4    1.68    0.41
  -2  -2  -4    1.23    0.44
  -2  -2  -4    1.40    0.32
   2   2   4    1.24    0.33
   2   2   4    1.48    0.23
   2   2   4    1.28    0.47
   2   2   4    1.31    0.36
   2   2   4    1.53    0.31
  -3  -2  -4    0.37    0.44
  -3  -2  -4    0.89    0.51
  -3  -2  -4    0.55    0.31
  -3  -2  -4    0.69    0.38
  -3  -2  -4    0.53    0.21
  -3  -2  -4    0.61    0.64
   3   2   4    0.95    0.48
   3   2   4    0.37    0.27
   3   2   4    0.87    0.37
   3   2   4    0.80    0.18
   3   2   4    0.33    0.33
  -4  -2  -4    5.78    0.94
  -4  -2  -4    4.66    0.98
  -4  -2  -4    4.41    0.67
  -4  -2  -4    6.18    1.40
  -4  -2  -4    4.97    0.84
  -4  -2  -4    6.80    1.08
   4   2   4    5.05    0.65
   4   2   4    5.82    0.82
   4   2   4    6.20    0.92
   4   2   4    5.41    0.89
   4   2   4    6.10    1.16
  -5  -2  -4    3.11    0.86
  -5  -2  -4    4.12    0.70
  -5  -2  -4    3.25    0.54
  -5  -2  -4    1.46    1.14
  -5  -2  -4    4.54    1.04
  -5  -2  -4    3.72    1.01
   5   2   4    5.24    0.89
   5   2   4    3.20    0.67
   5   2   4    3.29    0.76
   5   2   4    3.47    1.11
  -6  -2  -4    3.02    0.56
  -6  -2  -4    3.34    1.12
  -6  -2  -4    3.53    0.97
  -6  -2  -4    3.81    1.64
   6   2   4    3.05    1.28
   6   2   4    3.25    0.83
  -7  -2  -4    4.80    2.15
  -7  -2  -4    7.29    1.42
  -7  -2  -4    6.52    0.95
  -7  -2  -4    7.96    1.81
   7   2   4    8.37    1.43
   7   2   4    6.54    1.81
  -8  -2  -4   -0.96    2.31
  -8  -2  -4    0.48    1.33
  -8  -2  -4    0.93    0.67
   8   2   4   -0.88    1.05
   8   2   4    2.15    2.05
 -11   3   4    1.39    0.90
 -11   3   4    0.59    0.71
 -11   3   4    3.26    1.60
 -10   3   4    2.57    0.63
 -10   3   4    2.59    1.30
 -10   3   4    1.97    0.80
 -10   3   4    3.39    0.86
  -9   3   4    6.37    0.85
  -9   3   4    4.25    0.72
  -8   3   4    1.90    0.42
  -7   3   4    1.53    0.32
  -6   3   4    0.91    0.24
  -6   3   4    1.13    0.40
  -5   3   4    8.07    1.16
  -5   3   4    8.52    0.96
  -5   3   4    7.07    0.81
  -4   3   4    3.88    0.59
  -4   3   4    4.07    0.71
  -4   3   4    3.63    0.42
   3  -3  -4   25.38    2.57
   3  -3  -4   27.21    2.55
  -3   3   4   29.11    2.55
  -3   3   4   26.81    2.55
  -3   3   4   27.19    2.63
  -3   3   4   22.56    2.54
  -3   3   4   26.40    2.73
   2  -3  -4    5.92    0.70
   2  -3  -4    4.25    0.78
   2  -3  -4    6.19    0.96
   2  -3  -4    5.49    0.73
  -2   3   4    6.92    0.74
  -2   3   4    5.68    0.66
  -2   3   4    6.65    0.63
  -2   3   4    8.19    0.91
   1  -3  -4   44.08    5.06
   1  -3  -4   48.20    5.06
   1  -3  -4   54.43    5.20
   1  -3  -4   55.58    5.06
   1  -3  -4   54.58    5.15
  -1   3   4   48.79    5.13
  -1   3   4   53.73    5.06
  -1   3   4   51.00    5.18
  -1   3   4   59.55    5.09
   0  -3  -4    0.20    0.28
   0  -3  -4    0.26    0.35
   0  -3  -4    0.26    0.20
   0  -3  -4    0.64    0.44
   0  -3  -4    0.33    0.27
   0  -3  -4    0.27    0.18
   0   3   4    0.11    0.16
   0   3   4   -0.02    0.29
   0   3   4    0.05    0.20
   0   3   4    0.46    0.08
   0   3   4    0.18    0.30
   0   3   4    0.17    0.21
  -1  -3  -4   -0.04    0.19
  -1  -3  -4    0.33    0.32
  -1  -3  -4    0.23    0.53
  -1  -3  -4    0.35    0.23
  -1  -3  -4   -0.38    0.36
  -1  -3  -4    0.55    0.35
   1   3   4    0.23    0.19
   1   3   4    0.13    0.10
   1   3   4    0.40    0.33
   1   3   4    0.39    0.28
   1   3   4    0.09    0.25
  -2  -3  -4    5.47    0.98
  -2  -3  -4    6.52    1.10
  -2  -3  -4    7.22    0.83
  -2  -3  -4    6.60    0.85
  -2  -3  -4    7.02    1.39
   2   3   4    6.48    0.70
   2   3   4    6.48    1.12
   2   3   4    7.17    0.94
   2   3   4    6.91    0.84
   2   3   4    6.83    0.93
  -3  -3  -4   -0.22    0.46
  -3  -3  -4   -0.16    0.35
  -3  -3  -4   -0.98    0.61
  -3  -3  -4   -0.45    0.81
  -3  -3  -4    0.44    0.58
  -3  -3  -4    0.13    0.29
   3   3   4   -0.40    0.50
   3   3   4    0.28    0.42
   3   3   4    0.01    0.31
   3   3   4    0.13    0.17
   3   3   4    0.54    0.48
  -4  -3  -4    1.07    1.04
  -4  -3  -4    1.21    0.64
  -4  -3  -4    3.12    0.82
  -4  -3  -4    1.61    1.03
  -4  -3  -4    0.98    0.40
  -4  -3  -4    1.53    0.45
   4   3   4    2.59    0.52
   4   3   4    1.38    0.31
   4   3   4    1.94    0.60
   4   3   4    1.48    0.85
   4   3   4    1.30    0.53
  -5  -3  -4    4.04    1.09
  -5  -3  -4    3.35    0.62
  -5  -3  -4    3.39    0.99
  -5  -3  -4    1.95    1.48
   5   3   4    3.14    1.20
   5   3   4    4.05    0.84
   5   3   4    3.21    0.52
   5   3   4    3.67    0.88
  -6  -3  -4    3.38    1.24
  -6  -3  -4    3.39    1.76
   6   3   4    3.36    0.87
   6   3   4    2.56    1.50
  -7  -3  -4    2.86    2.41
  -7  -3  -4   -0.74    0.61
  -7  -3  -4   -1.02    1.30
   7   3   4   -0.78    0.97
   7   3   4   -1.10    1.83
  -8  -3  -4    3.84    1.05
  -8  -3  -4    4.25    1.86
  -8  -3  -4    2.29    3.05
   8   3   4    4.29    1.58
 -10   4   4    1.53    0.53
  -9   4   4    9.56    1.17
  -8   4   4    1.61    0.86
  -8   4   4    1.87    0.38
  -7   4   4    0.72    0.67
  -7   4   4    1.90    0.34
  -7   4   4    1.81    0.65
  -6   4   4   15.49    1.86
  -6   4   4   15.72    1.61
  -6   4   4   17.11    1.91
  -5   4   4   26.49    2.70
  -5   4   4   28.04    2.55
  -5   4   4   23.11    2.75
  -4   4   4    1.04    0.39
  -4   4   4    1.14    0.43
   3  -4  -4   18.20    1.97
  -3   4   4   21.69    2.18
  -3   4   4   19.00    1.96
  -3   4   4   19.42    1.92
  -3   4   4   18.87    2.02
  -3   4   4   22.16    1.92
   2  -4  -4   21.35    1.93
   2  -4  -4   17.26    2.02
   2  -4  -4   21.53    2.00
   2  -4  -4   17.83    2.20
  -2   4   4   18.58    2.02
  -2   4   4   17.53    1.92
  -2   4   4   21.29    2.13
  -2   4   4   18.97    1.89
   1  -4  -4    2.98    0.75
   1  -4  -4    4.40    0.60
   1  -4  -4    5.03    0.71
   1  -4  -4    3.09    0.71
   1  -4  -4    3.74    0.60
  -1   4   4    3.83    0.57
  -1   4   4    4.79    0.60
  -1   4   4    3.58    0.43
  -1   4   4    2.94    0.71
  -1   4   4    4.68    0.50
  -1   4   4    3.60    0.70
   0  -4  -4    1.31    0.28
   0  -4  -4    1.07    0.39
   0  -4  -4    0.00    0.47
   0  -4  -4    1.53    0.47
   0  -4  -4    0.85    0.32
   0  -4  -4    0.77    0.59
   0   4   4    1.29    0.35
   0   4   4    1.49    0.50
   0   4   4    0.62    0.44
   0   4   4    1.22    0.18
   0   4   4    1.37    0.29
  -1  -4  -4   -0.17    0.52
  -1  -4  -4    0.42    0.71
  -1  -4  -4    0.03    0.43
  -1  -4  -4   -0.22    0.26
  -1  -4  -4    0.05    0.39
  -1  -4  -4   -0.27    0.27
   1   4   4    0.00    0.29
   1   4   4   -0.05    0.13
   1   4   4    0.11    0.25
   1   4   4    0.03    0.31
   1   4   4   -0.21    0.42
  -2  -4  -4    4.77    1.35
  -2  -4  -4    6.90    1.22
  -2  -4  -4    6.99    0.93
  -2  -4  -4    7.66    1.16
   2   4   4    9.06    1.29
   2   4   4    7.80    0.78
   2   4   4    8.41    1.14
   2   4   4    6.87    1.34
   2   4   4    6.42    1.03
  -3  -4  -4   48.49    4.78
  -3  -4  -4   40.08    4.49
  -3  -4  -4   43.52    4.72
   3   4   4   51.21    4.69
   3   4   4   47.55    4.42
   3   4   4   40.99    4.61
   3   4   4   48.42    4.59
   3   4   4   43.62    4.93
  -4  -4  -4   32.37    4.87
  -4  -4  -4   37.94    4.33
  -4  -4  -4   34.10    4.01
   4   4   4   41.40    4.65
   4   4   4   40.08    4.09
   4   4   4   43.75    3.93
   4   4   4   47.64    4.26
  -5  -4  -4    2.03    1.11
  -5  -4  -4   -1.13    1.67
  -5  -4  -4    1.00    0.58
   5   4   4   -0.39    0.67
   5   4   4    0.76    0.84
   5   4   4    2.19    1.36
   5   4   4    0.90    0.43
  -6  -4  -4    0.96    3.12
  -6  -4  -4    0.48    0.71
  -6  -4  -4    2.39    1.35
   6   4   4    1.22    2.05
   6   4   4   -0.14    0.98
  -7  -4  -4    1.05    3.05
  -7  -4  -4   -0.10    0.91
  -7  -4  -4   -3.02    1.61
   7   4   4   -0.28    2.33
   7   4   4    1.25    1.19
 -10   5   4   12.95    2.42
 -10   5   4   15.23    1.70
  -9   5   4   -0.35    0.36
  -9   5   4    0.46    0.88
  -8   5   4    0.57    0.32
  -8   5   4    0.33    0.67
  -7   5   4    0.74    0.26
  -7   5   4    0.94    0.62
  -6   5   4   16.23    1.80
  -6   5   4   15.34    1.76
  -6   5   4   12.91    1.44
  -5   5   4    9.49    0.93
  -5   5   4    7.22    1.26
  -4   5   4   63.48    6.34
  -4   5   4   67.99    6.17
  -4   5   4   61.07    6.40
   3  -5  -4   55.45    5.33
   3  -5  -4   53.52    5.24
  -3   5   4   59.54    5.21
  -3   5   4   51.73    5.26
  -3   5   4   49.20    5.36
  -3   5   4   55.77    5.26
   2  -5  -4    8.03    1.06
   2  -5  -4    9.82    0.98
   2  -5  -4    8.64    1.49
   2  -5  -4    9.27    1.15
  -2   5   4    8.89    0.98
  -2   5   4    9.26    0.93
  -2   5   4    8.03    1.01
  -2   5   4    8.40    1.20
  -2   5   4    7.95    1.27
   1  -5  -4    0.95    0.66
   1  -5  -4    0.31    0.41
   1  -5  -4    0.95    0.72
   1  -5  -4    1.37    0.33
   1  -5  -4    1.60    0.41
   1  -5  -4    0.91    0.44
  -1   5   4    0.72    0.48
  -1   5   4    1.33    0.24
  -1   5   4    1.28    0.28
  -1   5   4    1.14    0.53
  -1   5   4    0.97    0.35
  -1   5   4    1.33    0.39
   0  -5  -4   20.20    2.34
   0  -5  -4   24.65    2.30
   0  -5  -4   21.58    2.43
   0  -5  -4   18.28    2.52
   0   5   4   26.34    2.44
   0   5   4   20.79    2.56
   0   5   4   25.80    2.30
   0   5   4   18.06    2.32
   0   5   4   23.75    2.19
  -1  -5  -4   -0.52    0.48
  -1  -5  -4   -0.17    0.39
  -1  -5  -4    0.41    0.70
  -1  -5  -4    0.14    0.57
  -1  -5  -4    0.42    1.02
   1   5   4    0.01    0.61
   1   5   4    0.11    0.37
   1   5   4    0.60    0.48
   1   5   4   -0.07    0.35
   1   5   4    0.42    0.19
  -2  -5  -4    0.11    0.42
  -2  -5  -4    1.04    1.16
  -2  -5  -4    0.24    0.69
   2   5   4    0.45    0.48
   2   5   4    0.09    0.21
   2   5   4   -0.14    0.76
   2   5   4    0.72    0.51
   2   5   4    0.65    0.46
  -3  -5  -4    1.84    1.50
  -3  -5  -4    1.68    0.82
  -3  -5  -4    1.59    0.58
   3   5   4    1.91    0.36
   3   5   4    0.83    1.08
   3   5   4    1.35    0.61
   3   5   4    0.90    0.72
   3   5   4    1.90    0.78
  -4  -5  -4    2.56    1.14
  -4  -5  -4   -0.12    1.84
  -4  -5  -4    2.97    0.71
   4   5   4    1.26    0.80
   4   5   4    2.39    0.46
   4   5   4    1.04    0.96
   4   5   4    1.25    1.39
  -5  -5  -4    0.18    1.26
  -5  -5  -4   -1.13    0.82
  -5  -5  -4   -2.80    2.17
   5   5   4    0.31    0.91
   5   5   4    0.34    1.62
  -6  -5  -4   -0.37    0.94
  -6  -5  -4    1.64    3.28
  -6  -5  -4    0.09    1.66
   6   5   4   -1.71    1.24
   6   5   4   -2.98    2.13
 -10   6   4    0.09    0.57
  -9   6   4    4.66    0.71
  -8   6   4   21.07    2.27
  -8   6   4   24.30    2.65
  -7   6   4    1.87    0.75
  -7   6   4    1.05    0.31
  -6   6   4    0.16    0.58
  -6   6   4    0.17    0.22
  -5   6   4   14.75    1.78
  -5   6   4   12.76    1.39
  -5   6   4   16.48    1.85
  -4   6   4   18.73    2.47
  -4   6   4   24.29    2.58
  -4   6   4   23.53    2.20
   3  -6  -4    1.52    0.46
   3  -6  -4    0.55    0.36
   3  -6  -4    0.79    0.30
  -3   6   4    1.00    0.29
  -3   6   4    1.05    0.61
  -3   6   4    0.46    0.56
  -3   6   4    0.44    0.33
  -3   6   4    0.46    0.39
   2  -6  -4    8.36    0.90
   2  -6  -4    5.51    1.14
   2  -6  -4    8.52    1.04
   2  -6  -4    9.41    1.67
   2  -6  -4    6.13    1.10
  -2   6   4    7.00    0.97
  -2   6   4    7.76    0.99
  -2   6   4    7.22    0.91
  -2   6   4    6.12    1.20
  -2   6   4    7.88    0.83
  -2   6   4    5.46    1.14
   1  -6  -4    2.82    0.78
   1  -6  -4    5.61    1.09
   1  -6  -4    3.60    0.73
   1  -6  -4    5.05    0.75
   1  -6  -4    2.26    1.11
  -1   6   4    4.01    0.95
  -1   6   4    4.56    0.66
  -1   6   4    3.02    0.66
  -1   6   4    5.21    0.60
  -1   6   4    4.49    0.85
   0  -6  -4   10.86    1.42
   0  -6  -4   10.05    1.60
   0   6   4   11.81    1.17
   0   6   4    8.76    1.69
   0   6   4   13.82    1.56
   0   6   4    9.86    1.40
   0   6   4   12.11    1.32
  -1  -6  -4    1.87    0.84
  -1  -6  -4    1.52    1.25
  -1  -6  -4    3.38    0.69
   1   6   4    2.97    1.05
   1   6   4    3.04    0.80
   1   6   4    4.15    0.70
   1   6   4    3.59    0.76
   1   6   4    3.34    0.45
  -2  -6  -4    0.37    0.90
  -2  -6  -4    2.45    1.55
  -2  -6  -4    0.99    0.60
   2   6   4    0.12    0.29
   2   6   4   -0.11    0.60
   2   6   4    0.95    0.89
   2   6   4    0.14    1.04
   2   6   4    0.38    0.64
  -3  -6  -4    3.06    1.94
  -3  -6  -4    1.97    1.17
  -3  -6  -4    3.15    0.79
   3   6   4    3.57    0.55
   3   6   4    3.04    1.44
   3   6   4    4.35    0.96
   3   6   4    1.63    0.80
   3   6   4    4.89    1.25
  -4  -6  -4   -1.44    2.24
  -4  -6  -4   -0.73    1.39
  -4  -6  -4    2.83    0.87
   4   6   4    0.12    1.74
   4   6   4    1.80    0.98
  -5  -6  -4    1.86    1.70
  -5  -6  -4    1.05    1.03
   5   6   4   -1.52    2.17
   5   6   4    1.83    1.25
  -9   7   4    7.48    1.12
  -8   7   4    7.17    1.35
  -7   7   4    3.23    1.04
  -7   7   4    4.54    0.65
  -6   7   4    0.21    0.76
  -6   7   4    0.10    0.24
  -5   7   4    3.82    0.53
  -5   7   4    4.46    1.01
  -4   7   4    3.51    1.09
  -4   7   4    6.32    1.15
  -4   7   4    4.94    0.58
  -4   7   4    7.35    0.92
  -4   7   4    5.24    0.73
   3  -7  -4   13.40    1.37
   3  -7  -4   10.09    1.55
   3  -7  -4   15.88    1.58
  -3   7   4   11.58    1.43
  -3   7   4    9.87    1.76
  -3   7   4   11.82    1.80
   2  -7  -4    5.01    0.87
   2  -7  -4    2.68    1.22
   2  -7  -4    5.15    0.92
  -2   7   4    4.06    0.78
  -2   7   4    4.06    1.08
  -2   7   4    4.74    0.94
  -2   7   4    3.76    0.62
  -2   7   4    5.13    0.68
   1  -7  -4    6.63    1.48
   1  -7  -4    4.56    1.63
   1  -7  -4    6.49    1.51
  -1   7   4    7.36    1.40
  -1   7   4    8.29    1.27
  -1   7   4    7.28    1.10
  -1   7   4    8.36    1.02
   0  -7  -4   13.82    1.96
   0  -7  -4   12.84    1.81
   0   7   4   11.59    2.27
   0   7   4   13.18    1.77
   0   7   4   16.65    1.52
   0   7   4   14.66    1.79
  -1  -7  -4    2.99    1.12
  -1  -7  -4    3.92    1.88
  -1  -7  -4    4.44    0.85
   1   7   4    4.30    1.43
   1   7   4    4.20    0.96
   1   7   4    4.42    0.90
   1   7   4    5.12    0.74
  -2  -7  -4   -0.63    1.12
  -2  -7  -4    1.07    0.75
   2   7   4    0.22    1.31
   2   7   4    0.38    0.80
  -3  -7  -4    2.51    1.08
  -3  -7  -4    2.77    1.55
   3   7   4    3.28    1.00
   3   7   4   -1.08    1.61
  -4  -7  -4   -2.27    1.13
  -4  -7  -4    1.74    1.78
  -4  -7  -4    0.33    1.12
   4   7   4   -0.55    1.22
   4   7   4   -2.55    2.11
  -8   8   4    0.89    0.50
  -7   8   4    4.26    1.24
  -7   8   4    3.29    0.54
  -6   8   4    2.59    0.43
  -6   8   4    2.37    0.99
  -5   8   4    5.03    0.69
  -5   8   4    6.90    1.32
  -4   8   4    1.39    0.50
  -4   8   4    2.65    0.35
  -4   8   4    1.95    0.91
   3  -8  -4    0.26    0.62
  -3   8   4    0.40    0.54
  -3   8   4   -0.72    0.95
  -3   8   4   -0.28    0.44
   2  -8  -4   16.88    2.02
  -2   8   4   16.61    2.50
  -2   8   4   14.98    1.93
   1  -8  -4    7.85    1.27
  -1   8   4    7.58    1.24
  -1   8   4    7.77    1.66
   0  -8  -4    0.76    0.80
   0   8   4   -0.07    0.72
   0   8   4    2.02    1.35
  -1  -8  -4    0.46    0.90
   1   8   4    0.98    0.84
   1   8   4    0.00    1.48
  -2  -8  -4    1.50    1.07
   2   8   4    0.57    1.00
   2   8   4   -0.12    1.80
  -4   9   4    0.89    0.54
  -4   9   4   -1.65    1.06
   3  -9  -4    0.39    0.78
  -3   9   4   -0.14    0.71
  -3   9   4    1.14    1.27
   2  -9  -4    1.03    0.86
  -2   9   4   -0.23    1.40
  -2   9   4    2.77    0.86
   1  -9  -4    0.37    0.88
  -1   9   4   -0.58    1.48
  -1   9   4    0.08    0.85
   0  -9  -4    7.28    1.51
   0   9   4    7.19    2.08
   0   9   4    7.51    1.42
   1  11  -5    6.52    2.38
   1  11  -5    5.18    1.40
  -1 -11   5    2.38    1.02
   0  11  -5    5.13    1.28
   0  11  -5    5.72    2.29
   0 -11   5    4.68    1.10
  -1  11  -5    3.42    1.86
  -1  11  -5   -0.26    0.85
   1 -11   5    0.02    0.69
  -2  11  -5    0.98    1.71
  -2  11  -5   -0.01    0.78
   2 -11   5    0.00    0.66
  -3  11  -5    2.64    1.60
  -3  11  -5    0.32    0.70
  -4  11  -5    3.23    1.73
  -4  11  -5    3.52    0.80
   3  10  -5    0.72    1.22
   3  10  -5   -0.12    2.15
  -3 -10   5    3.20    1.02
  -3 -10   5    4.10    2.00
   2  10  -5    1.98    1.01
   2  10  -5    0.62    1.81
  -2 -10   5    0.99    0.77
  -2 -10   5    4.72    3.10
   1  10  -5    7.37    1.32
   1  10  -5    5.92    1.90
  -1 -10   5    5.59    1.90
  -1 -10   5    5.70    1.12
   0  10  -5   -0.28    1.47
   0  10  -5   -0.10    0.77
   0 -10   5    0.31    0.64
   0 -10   5    1.88    1.59
  -1  10  -5    3.26    0.89
  -1  10  -5    2.31    1.45
   1 -10   5    2.13    0.67
   1 -10   5    3.63    1.42
  -2  10  -5    0.82    1.25
  -2  10  -5    1.30    0.63
   2 -10   5    1.20    0.57
   2 -10   5    1.00    1.20
  -3  10  -5    3.08    1.41
  -3  10  -5    2.82    0.73
  -4  10  -5    0.77    1.19
  -4  10  -5    0.62    0.48
  -5  10  -5    5.30    1.53
  -6  10  -5   -0.36    0.42
  -6  10  -5   -1.46    1.38
   5   9  -5    0.04    1.14
   5   9  -5    2.75    2.32
  -5  -9   5   -5.34    3.43
  -5  -9   5   -0.92    0.88
  -5  -9   5   -4.08    1.95
   4   9  -5    0.05    0.91
   4   9  -5    3.40    1.88
  -4  -9   5   -0.38    1.83
  -4  -9   5    0.14    0.82
  -4  -9   5   -2.16    2.71
   3   9  -5   -0.69    1.53
   3   9  -5   -0.18    0.79
  -3  -9   5    1.95    1.88
  -3  -9   5    0.35    0.68
  -3  -9   5   -0.37    2.41
   2   9  -5    5.64    1.70
   2   9  -5    5.52    2.69
   2   9  -5    2.64    0.94
   2   9  -5    1.80    1.46
  -2  -9   5    3.32    0.82
  -2  -9   5    3.62    2.24
  -2  -9   5   -0.09    1.38
   1   9  -5    3.81    0.93
   1   9  -5    6.25    1.63
   1   9  -5    4.26    1.50
   1   9  -5    0.76    2.25
  -1  -9   5    4.52    0.83
  -1  -9   5    4.02    1.41
  -1  -9   5    2.89    1.08
  -1  -9   5    0.01    1.88
   0   9  -5    1.73    0.75
   0   9  -5    2.20    1.21
   0   9  -5    1.91    2.02
   0   9  -5    3.22    1.39
   0  -9   5    2.42    1.20
   0  -9   5    2.87    0.66
   0  -9   5    4.14    0.94
   0  -9   5    2.31    1.92
  -1   9  -5    0.27    1.26
  -1   9  -5    1.08    1.06
  -1   9  -5    0.01    1.92
  -1   9  -5   -0.30    0.49
   1  -9   5   -0.34    0.37
   1  -9   5    0.59    0.73
   1  -9   5    0.71    1.36
   1  -9   5    0.62    1.03
  -2   9  -5    3.08    1.48
  -2   9  -5    4.06    1.25
  -2   9  -5    1.42    1.82
  -2   9  -5    4.97    0.82
   2  -9   5    6.00    0.98
   2  -9   5    1.46    1.05
   2  -9   5    3.40    0.72
  -3   9  -5    1.21    1.08
  -3   9  -5    1.18    1.21
  -3   9  -5    2.37    1.86
  -3   9  -5    1.38    0.51
   3  -9   5    1.61    0.89
   3  -9   5    0.19    1.21
  -4   9  -5    0.55    1.00
  -4   9  -5    1.94    1.84
  -4   9  -5    3.06    1.86
  -5   9  -5    5.81    0.83
  -6   9  -5    0.10    0.33
  -6   9  -5    0.42    1.16
  -7   9  -5    6.25    1.04
   6   8  -5   -1.75    1.14
   6   8  -5    2.17    2.38
  -6  -8   5    0.36    1.09
  -6  -8   5    0.15    3.01
  -6  -8   5    1.09    1.93
   5   8  -5    2.66    0.94
   5   8  -5    2.25    1.89
  -5  -8   5   -4.69    2.48
  -5  -8   5    0.68    0.92
  -5  -8   5    1.66    1.61
  -5  -8   5    2.31    0.78
   4   8  -5   16.77    2.03
   4   8  -5   16.51    3.41
   4   8  -5    9.61    2.40
  -4  -8   5   11.06    2.19
  -4  -8   5    9.53    2.91
  -4  -8   5   12.22    1.73
  -4  -8   5   14.96    1.93
   3   8  -5    4.38    0.96
   3   8  -5    7.48    2.44
   3   8  -5    4.56    1.61
  -3  -8   5    5.98    0.97
  -3  -8   5    3.66    2.09
  -3  -8   5    6.03    1.50
   2   8  -5    3.25    0.78
   2   8  -5    4.01    1.24
   2   8  -5    2.29    1.92
   2   8  -5    1.97    1.15
  -2  -8   5    2.75    1.11
  -2  -8   5   -0.44    1.73
   1   8  -5   11.25    1.81
   1   8  -5    9.26    1.84
  -1  -8   5    7.14    1.53
  -1  -8   5   10.27    1.26
   0   8  -5    7.13    1.03
   0   8  -5    4.67    1.72
   0   8  -5    4.84    1.33
   0   8  -5    8.87    1.47
   0  -8   5    6.44    0.94
   0  -8   5    4.14    1.24
   0  -8   5    1.98    1.51
  -1   8  -5    2.03    0.57
  -1   8  -5    1.51    1.02
  -1   8  -5    2.40    1.05
  -1   8  -5    2.90    1.68
   1  -8   5    0.70    0.86
   1  -8   5    0.66    1.10
   1  -8   5    2.72    0.57
   1  -8   5    2.46    0.63
  -2   8  -5    0.96    0.94
  -2   8  -5    0.03    0.39
  -2   8  -5    0.44    0.83
  -2   8  -5    0.35    1.48
   2  -8   5    0.19    0.37
   2  -8   5    0.45    0.92
   2  -8   5   -0.47    0.71
  -3   8  -5    3.43    1.55
  -3   8  -5    0.22    1.02
  -3   8  -5    2.80    0.55
   3  -8   5    1.38    0.94
   3  -8   5    2.39    0.75
  -4   8  -5    6.40    1.36
  -4   8  -5    5.14    1.73
   4  -8   5    7.44    1.09
   4  -8   5    6.47    1.29
  -5   8  -5    6.99    1.37
  -5   8  -5    5.72    0.83
   5  -8   5    7.03    1.00
   5  -8   5    7.98    1.49
  -6   8  -5    0.01    0.27
  -6   8  -5    0.09    1.03
  -6   8  -5   -1.15    1.65
  -7   8  -5    4.38    0.71
  -8   8  -5    1.58    0.78
  -8   8  -5    1.21    0.58
  -8   8  -5    0.89    0.55
   7   7  -5    3.04    3.50
   7   7  -5    1.17    1.17
  -7  -7   5    1.21    1.10
  -7  -7   5    0.41    2.76
  -7  -7   5   -0.50    1.78
   6   7  -5    1.52    0.89
   6   7  -5   -0.10    1.86
  -6  -7   5    0.89    1.54
  -6  -7   5    2.87    0.89
  -6  -7   5    1.92    2.35
   5   7  -5    2.33    1.59
   5   7  -5    1.92    0.76
  -5  -7   5    0.17    1.18
  -5  -7   5   -1.49    1.76
  -5  -7   5    2.75    0.84
   4   7  -5    2.10    1.18
   4   7  -5    2.71    1.97
  -4  -7   5    1.03    0.62
  -4  -7   5   -0.42    1.33
  -4  -7   5   -1.38    1.63
  -4  -7   5    0.85    1.03
   3   7  -5   -0.23    0.50
   3   7  -5    0.32    1.01
   3   7  -5   -0.21    0.93
   3   7  -5    0.56    1.65
  -3  -7   5   -0.26    0.39
  -3  -7   5    0.39    1.31
  -3  -7   5    0.13    0.51
  -3  -7   5    0.10    0.89
  -3  -7   5   -0.02    1.12
   2   7  -5   11.07    2.17
   2   7  -5   18.22    2.63
   2   7  -5    9.28    2.31
   2   7  -5   12.92    1.72
   2   7  -5   13.52    1.71
  -2  -7   5   16.30    2.32
  -2  -7   5   14.46    1.58
  -2  -7   5   16.05    2.18
  -2  -7   5   15.10    1.83
   1   7  -5   53.26    5.04
   1   7  -5   40.00    5.69
   1   7  -5   49.14    5.44
   1   7  -5   49.41    5.08
  -1  -7   5   52.17    5.45
  -1  -7   5   52.95    5.11
  -1  -7   5   52.29    5.34
  -1  -7   5   52.00    5.01
   0   7  -5    1.14    0.84
   0   7  -5   -0.38    1.16
   0   7  -5    0.03    0.76
   0   7  -5    0.23    0.46
   0   7  -5    0.80    0.44
   0  -7   5   -0.18    0.28
   0  -7   5    0.64    0.93
   0  -7   5    1.29    1.17
   0  -7   5    0.16    0.69
  -1   7  -5    3.63    0.60
  -1   7  -5    3.58    0.69
  -1   7  -5    3.36    1.30
  -1   7  -5    3.57    0.99
   1  -7   5    2.33    0.82
   1  -7   5    2.32    0.61
   1  -7   5    3.96    0.62
   1  -7   5    3.51    1.03
   1  -7   5    2.08    1.02
  -2   7  -5    0.95    0.44
  -2   7  -5    1.19    1.16
  -2   7  -5   -0.04    0.65
  -2   7  -5    1.21    0.77
  -2   7  -5    0.86    0.37
   2  -7   5    0.42    0.60
   2  -7   5    0.24    1.06
   2  -7   5    1.14    0.47
   2  -7   5    1.09    0.81
  -3   7  -5    1.59    0.75
  -3   7  -5    0.32    1.05
  -3   7  -5    2.02    0.42
  -3   7  -5    1.88    0.54
  -3   7  -5    2.64    0.85
   3  -7   5    2.13    0.63
   3  -7   5    1.59    0.65
  -4   7  -5   10.22    1.64
  -4   7  -5   12.65    1.27
   4  -7   5   10.83    1.50
   4  -7   5   11.19    1.68
  -5   7  -5   -0.10    0.23
  -5   7  -5    0.78    1.15
  -5   7  -5   -0.51    0.72
  -5   7  -5   -0.47    0.88
   5  -7   5   -0.37    0.58
  -6   7  -5    0.97    1.27
  -6   7  -5    0.00    0.84
  -6   7  -5    0.90    0.99
   6  -7   5   -0.26    0.69
   6  -7   5    1.04    0.45
  -7   7  -5   29.85    3.01
  -7   7  -5   27.11    2.89
  -8   7  -5    8.03    1.14
  -8   7  -5    8.26    1.50
  -8   7  -5    6.10    0.97
  -9   7  -5    0.31    0.72
  -9   7  -5    0.04    0.50
  -9   7  -5    0.59    1.16
   8   6  -5   -0.02    1.28
  -8  -6   5    1.44    1.84
  -8  -6   5    2.34    1.11
  -8  -6   5   -1.61    2.95
   7   6  -5   -0.84    1.76
   7   6  -5   -0.93    0.85
  -7  -6   5    1.16    1.41
  -7  -6   5   -0.15    0.81
  -7  -6   5    0.26    2.22
   6   6  -5    1.94    1.46
  -6  -6   5    2.83    1.22
  -6  -6   5    1.36    0.72
  -6  -6   5    2.94    1.96
  -6  -6   5    0.21    1.41
   5   6  -5    2.37    1.20
   5   6  -5    0.78    0.64
   5   6  -5   -1.78    1.78
  -5  -6   5    0.88    0.99
  -5  -6   5    1.23    1.19
  -5  -6   5    0.75    1.50
  -5  -6   5    0.32    0.59
   4   6  -5    6.98    1.98
   4   6  -5    8.57    1.27
   4   6  -5   12.60    1.81
   4   6  -5    6.77    1.65
  -4  -6   5   10.09    1.44
  -4  -6   5    4.45    1.76
  -4  -6   5    6.81    1.45
  -4  -6   5    9.07    1.27
  -4  -6   5   10.29    1.62
   3   6  -5   -0.05    0.41
   3   6  -5   -0.21    2.06
   3   6  -5    0.43    0.76
   3   6  -5    0.85    0.76
  -3  -6   5    0.93    0.75
  -3  -6   5    0.62    0.42
  -3  -6   5    0.65    0.35
  -3  -6   5   -0.85    0.96
  -3  -6   5    0.45    0.54
  -3  -6   5    1.41    0.96
   2   6  -5   10.41    1.73
   2   6  -5   10.93    1.32
   2   6  -5   12.87    1.75
   2   6  -5   11.03    1.35
   2   6  -5    7.13    1.77
  -2  -6   5   10.30    1.22
  -2  -6   5   12.96    1.44
  -2  -6   5    9.54    1.69
  -2  -6   5   10.83    1.70
   1   6  -5   45.70    4.87
   1   6  -5   52.81    4.85
   1   6  -5   54.65    5.11
   1   6  -5   38.58    5.36
   1   6  -5   44.99    5.16
  -1  -6   5   51.74    4.82
  -1  -6   5   48.40    5.19
  -1  -6   5   51.56    4.90
  -1  -6   5   50.44    5.09
   0   6  -5   36.74    4.06
   0   6  -5   36.53    3.75
   0   6  -5   38.12    3.98
   0   6  -5   39.42    3.74
   0  -6   5   31.49    3.91
   0  -6   5   37.86    3.78
   0  -6   5   41.92    3.72
   0  -6   5   33.65    4.03
  -1   6  -5    1.08    0.65
  -1   6  -5    0.77    0.30
  -1   6  -5    0.89    0.64
  -1   6  -5    1.04    0.35
  -1   6  -5    0.54    0.39
   1  -6   5    1.26    0.80
   1  -6   5    0.99    0.42
   1  -6   5    0.37    0.56
   1  -6   5    0.39    0.28
   1  -6   5    0.83    0.75
  -2   6  -5    4.33    0.62
  -2   6  -5    3.97    0.93
  -2   6  -5    3.58    0.54
  -2   6  -5    2.42    1.01
  -2   6  -5    2.05    0.81
   2  -6   5    3.84    0.62
   2  -6   5    1.56    0.74
   2  -6   5    2.98    0.89
   2  -6   5    2.55    0.65
  -3   6  -5    4.11    0.58
  -3   6  -5    2.47    1.07
  -3   6  -5    4.20    0.88
  -3   6  -5    4.74    0.91
  -3   6  -5    4.34    0.69
   3  -6   5    3.97    0.70
   3  -6   5    3.15    0.86
   3  -6   5    4.79    1.10
   3  -6   5    4.00    0.73
  -4   6  -5    0.31    0.36
  -4   6  -5    0.18    0.88
  -4   6  -5    0.15    0.21
  -4   6  -5   -0.02    0.54
  -4   6  -5   -0.68    0.62
   4  -6   5    1.24    0.65
   4  -6   5    0.00    0.43
   4  -6   5   -0.01    0.38
  -5   6  -5    0.89    0.71
  -5   6  -5   -0.42    0.91
  -5   6  -5    0.24    0.20
  -5   6  -5    1.56    0.83
   5  -6   5    0.65    0.40
   5  -6   5    0.59    0.52
   5  -6   5    0.19    0.53
  -6   6  -5   32.60    3.86
   6  -6   5   39.77    3.77
   6  -6   5   39.41    3.93
  -7   6  -5   29.72    3.02
  -7   6  -5   29.80    3.00
  -7   6  -5   33.99    3.18
   7  -6   5   27.41    3.09
   7  -6   5   27.58    3.32
  -8   6  -5    9.87    1.38
  -8   6  -5   11.22    1.69
  -8   6  -5    9.99    1.27
  -9   6  -5    1.01    0.48
  -9   6  -5    0.86    0.73
  -9   6  -5    1.83    1.15
   9   5  -5    3.20    1.37
  -9  -5   5   -0.18    1.76
  -9  -5   5   -1.20    1.08
  -9  -5   5    0.35    2.90
   8   5  -5    5.35    1.64
   8   5  -5    6.06    2.21
  -8  -5   5    4.97    2.36
  -8  -5   5    4.21    1.08
  -8  -5   5    3.43    1.68
   7   5  -5   -0.57    0.72
   7   5  -5   -0.32    1.47
  -7  -5   5   -0.43    1.14
  -7  -5   5    0.54    0.71
  -7  -5   5    4.79    2.01
  -7  -5   5   -2.05    1.49
   6   5  -5   17.67    2.26
   6   5  -5   21.22    2.98
  -6  -5   5   14.48    2.17
  -6  -5   5   20.57    2.70
  -6  -5   5   20.55    2.37
  -6  -5   5   22.37    2.88
   5   5  -5    1.69    0.87
   5   5  -5    1.50    0.95
   5   5  -5   -0.17    0.52
  -5  -5   5    1.09    0.95
  -5  -5   5    0.52    0.77
  -5  -5   5    0.90    1.22
  -5  -5   5    0.89    0.50
  -5  -5   5    0.46    0.61
   4   5  -5   -1.45    1.11
   4   5  -5    0.38    0.38
   4   5  -5   -0.27    0.26
   4   5  -5   -0.50    0.76
   4   5  -5    0.63    0.75
  -4  -5   5    0.83    1.11
  -4  -5   5    0.06    0.68
  -4  -5   5   -0.01    0.39
  -4  -5   5   -0.95    0.78
  -4  -5   5    0.62    0.53
   3   5  -5   -0.27    0.31
   3   5  -5    0.17    0.37
   3   5  -5    0.66    0.66
   3   5  -5    0.18    0.59
   3   5  -5   -0.48    0.94
  -3  -5   5    0.25    0.77
  -3  -5   5    0.16    0.44
  -3  -5   5   -0.20    0.32
  -3  -5   5    0.65    0.61
  -3  -5   5    0.35    0.66
   2   5  -5    0.03    0.31
   2   5  -5    0.04    1.03
   2   5  -5    0.13    0.56
   2   5  -5    0.54    0.34
   2   5  -5   -0.51    0.49
  -2  -5   5   -0.10    0.33
  -2  -5   5    0.50    0.70
  -2  -5   5    0.23    0.62
  -2  -5   5    0.11    0.54
  -2  -5   5    0.41    0.27
  -2  -5   5   -0.15    0.20
   1   5  -5    2.73    0.71
   1   5  -5    1.96    0.45
   1   5  -5    2.31    0.46
   1   5  -5    2.03    0.71
   1   5  -5    1.56    0.84
  -1  -5   5    1.51    0.45
  -1  -5   5    2.35    0.76
  -1  -5   5    1.90    0.84
  -1  -5   5    1.93    0.65
  -1  -5   5    2.45    0.40
   0   5  -5   -0.41    0.70
   0   5  -5   -0.23    0.45
   0   5  -5    1.31    0.52
   0   5  -5   -0.17    0.29
   0   5  -5   -0.03    0.21
   0  -5   5   -0.12    0.56
   0  -5   5    0.62    0.76
   0  -5   5   -0.04    0.20
   0  -5   5   -0.15    0.38
   0  -5   5    0.42    0.33
  -1   5  -5    3.03    0.50
  -1   5  -5    2.64    0.93
  -1   5  -5    3.11    0.80
  -1   5  -5    3.97    0.80
  -1   5  -5    3.87    0.57
   1  -5   5    4.61    0.54
   1  -5   5    1.99    0.80
   1  -5   5    3.96    0.73
   1  -5   5    4.14    0.90
   1  -5   5    3.32    0.56
  -2   5  -5  112.42    9.64
  -2   5  -5  108.25    9.62
  -2   5  -5   93.92    9.76
   2  -5   5   93.19    9.71
   2  -5   5   86.22    9.85
   2  -5   5  102.89    9.66
  -3   5  -5    3.77    0.64
  -3   5  -5    4.08    0.53
  -3   5  -5    3.52    0.80
   3  -5   5    3.81    0.98
   3  -5   5    3.59    0.62
   3  -5   5    4.82    0.87
   3  -5   5    4.99    0.75
  -4   5  -5    2.13    0.46
  -4   5  -5    2.22    0.69
  -4   5  -5    2.08    0.35
  -4   5  -5    1.31    0.80
   4  -5   5    1.67    0.84
   4  -5   5    2.12    0.51
   4  -5   5    2.75    0.49
   4  -5   5    3.28    0.62
  -5   5  -5    9.31    1.17
  -5   5  -5    8.49    1.32
   5  -5   5    8.94    1.08
   5  -5   5    8.53    1.18
  -6   5  -5    0.81    0.54
  -6   5  -5   -0.67    0.89
  -6   5  -5    0.68    0.73
  -6   5  -5    0.31    0.35
  -6   5  -5    0.86    0.32
   6  -5   5    0.17    0.36
   6  -5   5   -0.30    0.54
  -7   5  -5    0.44    0.36
  -7   5  -5    0.06    0.48
  -7   5  -5    0.21    1.08
  -7   5  -5    0.18    0.27
  -7   5  -5    0.35    0.86
   7  -5   5    0.44    0.75
   7  -5   5    1.11    0.47
  -8   5  -5    4.51    1.02
  -8   5  -5    4.25    0.75
  -8   5  -5    2.92    0.55
   8  -5   5    6.01    0.90
  -9   5  -5    2.49    0.60
  -9   5  -5    3.64    0.83
  -9   5  -5    2.53    1.27
   9   4  -5    1.57    1.12
  -9  -4   5   -0.18    2.32
  -9  -4   5    0.50    1.51
  -9  -4   5    1.60    1.04
   8   4  -5    1.78    1.70
   8   4  -5    1.58    0.91
  -8  -4   5   -0.49    1.86
  -8  -4   5    1.01    1.22
  -8  -4   5    1.56    1.03
  -8  -4   5    1.51    0.80
   7   4  -5   -0.18    1.22
   7   4  -5    0.22    0.66
  -7  -4   5    0.01    1.13
  -7  -4   5   -0.82    1.39
  -7  -4   5   -1.57    0.84
  -7  -4   5   -0.37    0.68
  -7  -4   5    0.48    0.57
   6   4  -5    5.50    1.43
   6   4  -5    5.59    1.66
   6   4  -5    7.20    1.22
  -6  -4   5    9.58    1.77
  -6  -4   5    4.16    1.52
  -6  -4   5   11.13    1.40
  -6  -4   5    8.61    1.42
  -6  -4   5   10.14    1.22
   5   4  -5   -0.17    0.38
   5   4  -5    1.18    0.78
   5   4  -5    0.49    1.07
   5   4  -5    2.19    0.71
  -5  -4   5    0.86    0.42
  -5  -4   5   -0.25    0.96
  -5  -4   5    0.58    0.68
  -5  -4   5    0.19    0.45
   4   4  -5    4.21    0.72
   4   4  -5    5.30    0.98
   4   4  -5    4.18    1.01
   4   4  -5    4.22    0.61
   4   4  -5    3.66    1.09
  -4  -4   5    5.49    0.74
  -4  -4   5    4.95    0.75
  -4  -4   5    2.92    0.82
  -4  -4   5    4.93    1.06
   3   4  -5   38.51    3.43
   3   4  -5   36.99    3.65
   3   4  -5   32.14    3.49
   3   4  -5   28.47    3.70
  -3  -4   5   37.87    3.70
  -3  -4   5   33.79    3.46
  -3  -4   5   32.86    3.73
  -3  -4   5   36.87    3.52
   2   4  -5    7.42    1.65
   2   4  -5   11.21    1.47
   2   4  -5   10.16    1.25
   2   4  -5   13.57    1.24
   2   4  -5   10.21    1.50
  -2  -4   5   10.43    1.28
  -2  -4   5   10.64    1.44
  -2  -4   5   11.44    1.22
  -2  -4   5   11.59    1.17
   1   4  -5    6.99    1.16
   1   4  -5    6.88    0.89
   1   4  -5    7.47    0.90
  -1  -4   5    7.45    1.21
  -1  -4   5    6.93    1.11
  -1  -4   5    8.33    0.84
  -1  -4   5    8.17    0.95
   0   4  -5    0.33    0.51
   0   4  -5    0.34    0.16
   0   4  -5    0.24    0.36
   0   4  -5   -0.06    0.19
   0   4  -5    0.92    0.46
   0   4  -5    0.20    0.25
   0  -4   5    0.27    0.55
   0  -4   5    0.43    0.52
   0  -4   5    0.28    0.17
   0  -4   5    0.11    0.34
   0  -4   5    0.75    0.28
  -1   4  -5    4.03    0.85
  -1   4  -5    6.84    0.71
  -1   4  -5    6.90    1.02
  -1   4  -5    6.15    0.74
   1  -4   5    7.25    0.80
   1  -4   5    4.95    1.05
   1  -4   5    5.85    0.94
   1  -4   5    5.31    1.04
  -2   4  -5    0.75    0.44
  -2   4  -5    1.55    0.54
  -2   4  -5    0.66    0.61
  -2   4  -5    1.27    0.26
  -2   4  -5    0.93    0.23
   2  -4   5    0.73    0.34
   2  -4   5    1.14    0.52
   2  -4   5    1.10    0.33
   2  -4   5    0.55    0.50
  -3   4  -5    4.27    0.52
  -3   4  -5    2.65    0.87
  -3   4  -5    2.81    0.70
  -3   4  -5    4.84    0.62
   3  -4   5    4.57    0.84
   3  -4   5    5.54    0.69
   3  -4   5    5.54    1.07
   3  -4   5    4.35    0.64
  -4   4  -5   13.72    1.46
   4  -4   5   16.37    1.69
   4  -4   5   14.25    1.57
   4  -4   5   13.32    1.88
   4  -4   5   14.54    1.55
  -5   4  -5    5.65    1.09
  -5   4  -5    9.01    0.92
   5  -4   5    9.45    1.16
   5  -4   5    7.55    0.97
   5  -4   5    6.56    1.02
   5  -4   5    9.54    1.56
  -6   4  -5   -0.07    0.21
  -6   4  -5    0.66    0.65
  -6   4  -5    0.12    0.27
  -6   4  -5    0.80    0.84
  -6   4  -5   -0.22    0.35
   6  -4   5    0.46    0.52
   6  -4   5    0.03    0.33
  -7   4  -5    3.35    0.60
  -7   4  -5    2.01    1.12
  -7   4  -5    2.56    0.55
  -7   4  -5    3.83    0.55
  -7   4  -5    3.09    0.80
  -7   4  -5    0.94    0.85
   7  -4   5    3.45    0.63
   7  -4   5    1.42    0.78
  -8   4  -5    0.54    0.34
  -8   4  -5    0.56    0.56
  -8   4  -5    1.02    0.91
   8  -4   5    1.25    0.67
  -9   4  -5    0.77    0.81
  -9   4  -5    1.16    1.26
  -9   4  -5    1.04    0.48
 -10  -3   5    3.23    2.74
 -10  -3   5    2.33    1.18
 -10  -3   5    2.48    1.72
   9   3  -5   13.10    2.19
  -9  -3   5   11.02    2.13
  -9  -3   5   15.43    2.03
   8   3  -5    0.73    1.56
   8   3  -5    0.61    0.70
  -8  -3   5    0.81    0.62
  -8  -3   5    0.06    1.45
  -8  -3   5    0.16    0.83
  -8  -3   5    0.22    1.16
  -8  -3   5    0.39    1.04
   7   3  -5   -0.45    0.52
   7   3  -5   -0.27    1.13
  -7  -3   5   -0.17    0.96
  -7  -3   5   -0.17    1.27
  -7  -3   5   -0.02    0.57
   6   3  -5    1.50    0.48
   6   3  -5    1.61    0.34
   6   3  -5    1.91    0.98
   6   3  -5    0.99    1.14
  -6  -3   5    1.20    0.84
  -6  -3   5    1.51    0.56
  -6  -3   5    2.14    0.53
  -6  -3   5    0.79    0.99
  -6  -3   5    2.53    0.79
   5   3  -5    3.29    0.66
   5   3  -5    0.79    0.94
   5   3  -5    2.08    0.54
   5   3  -5    2.35    0.36
   5   3  -5    2.28    0.88
  -5  -3   5    1.28    0.93
  -5  -3   5    2.85    0.61
  -5  -3   5    2.71    0.50
  -5  -3   5    2.56    0.84
  -5  -3   5    1.61    0.66
   4   3  -5    7.84    1.02
   4   3  -5    7.68    1.42
   4   3  -5    9.37    1.22
   4   3  -5    5.87    1.33
   4   3  -5    8.91    0.91
  -4  -3   5    7.93    1.26
  -4  -3   5    9.24    1.03
  -4  -3   5    8.27    1.40
   3   3  -5    3.89    0.60
   3   3  -5    2.05    0.88
   3   3  -5    3.62    0.65
   3   3  -5    3.01    0.70
  -3  -3   5    4.86    0.64
  -3  -3   5    3.08    0.74
  -3  -3   5    2.77    0.72
   2   3  -5   13.04    1.61
   2   3  -5   12.19    1.69
   2   3  -5   13.28    1.44
   2   3  -5   14.77    1.42
  -2  -3   5   14.95    1.48
  -2  -3   5   14.00    1.43
  -2  -3   5   11.99    1.68
  -2  -3   5   12.76    1.62
   1   3  -5    2.82    0.51
   1   3  -5    3.68    0.74
   1   3  -5    3.38    0.65
   1   3  -5    3.83    0.53
  -1  -3   5    3.36    0.53
  -1  -3   5    3.20    0.63
  -1  -3   5    3.98    0.44
  -1  -3   5    3.35    0.77
   0   3  -5    5.95    0.67
   0   3  -5    5.87    0.92
   0   3  -5    5.38    0.62
   0   3  -5    5.40    0.85
   0   3  -5    6.23    0.70
   0  -3   5    5.80    0.63
   0  -3   5    4.47    0.81
   0  -3   5    5.40    0.94
  -1   3  -5   -0.28    0.41
  -1   3  -5    0.17    0.30
  -1   3  -5    0.10    0.10
  -1   3  -5    0.19    0.30
  -1   3  -5    0.34    0.14
   1  -3   5   -0.07    0.41
   1  -3   5    0.27    0.23
   1  -3   5    0.15    0.19
   1  -3   5    0.25    0.36
  -2   3  -5    1.32    0.25
  -2   3  -5    1.66    0.47
  -2   3  -5    0.99    0.21
  -2   3  -5    0.48    0.36
  -2   3  -5    1.43    0.54
   2  -3   5    2.04    0.53
   2  -3   5    1.70    0.30
   2  -3   5    1.08    0.29
   2  -3   5    2.03    0.57
   2  -3   5    1.50    0.30
  -3   3  -5    9.72    1.32
  -3   3  -5   10.50    1.10
   3  -3   5   10.05    1.17
   3  -3   5   12.32    1.51
   3  -3   5   11.71    1.34
   3  -3   5   10.62    1.18
  -4   3  -5    9.96    1.74
  -4   3  -5   13.93    1.38
  -4   3  -5   10.76    1.56
  -4   3  -5   12.63    1.41
   4  -3   5   14.32    1.44
   4  -3   5   16.52    1.87
   4  -3   5   12.87    1.43
   4  -3   5   15.03    1.60
  -5   3  -5   13.64    1.59
  -5   3  -5   15.26    1.51
  -5   3  -5   12.56    1.45
  -5   3  -5   15.54    1.57
  -5   3  -5   10.01    1.94
   5  -3   5   16.15    1.74
   5  -3   5   18.06    2.12
   5  -3   5   13.68    1.55
   5  -3   5   14.68    1.56
  -6   3  -5   15.17    1.93
  -6   3  -5   18.14    1.68
  -6   3  -5   15.38    1.75
  -6   3  -5   14.56    1.99
  -6   3  -5   12.93    2.27
  -6   3  -5   19.05    1.97
   6  -3   5   17.07    2.04
   6  -3   5   15.95    1.79
  -7   3  -5   -0.03    0.25
  -7   3  -5   -0.43    0.98
  -7   3  -5    0.05    0.78
  -7   3  -5    0.09    0.60
  -7   3  -5   -0.13    0.67
  -7   3  -5    0.01    0.41
   7  -3   5    0.30    0.47
   7  -3   5   -0.05    0.79
  -8   3  -5    3.35    1.10
  -8   3  -5    1.89    0.44
  -8   3  -5    2.71    0.73
   8  -3   5    2.34    0.74
  -9   3  -5    0.46    0.44
  -9   3  -5    0.84    0.86
  -9   3  -5   -0.68    1.37
 -10  -2   5    0.55    1.44
 -10  -2   5   -1.22    0.92
 -10  -2   5    1.57    2.15
   9   2  -5    0.84    0.86
  -9  -2   5   -0.77    1.67
  -9  -2   5    1.26    0.77
  -9  -2   5    0.73    1.13
   8   2  -5    2.25    1.31
   8   2  -5    3.13    0.87
  -8  -2   5    3.06    1.06
  -8  -2   5    4.01    0.80
  -8  -2   5    4.80    0.87
  -8  -2   5    4.03    1.21
   7   2  -5    1.92    0.91
   7   2  -5    0.68    0.54
  -7  -2   5    1.16    1.15
  -7  -2   5    2.67    0.89
  -7  -2   5    2.75    0.57
  -7  -2   5    0.31    0.85
  -7  -2   5    0.97    0.61
   6   2  -5    0.83    0.86
   6   2  -5    0.55    0.41
   6   2  -5    0.28    0.22
   6   2  -5    0.44    0.74
   6   2  -5    0.45    0.48
  -6  -2   5    0.53    0.39
  -6  -2   5    0.63    0.59
  -6  -2   5    1.01    0.70
  -6  -2   5   -0.30    0.78
  -6  -2   5    0.72    0.42
   5   2  -5    0.47    0.47
   5   2  -5    1.35    0.23
   5   2  -5    0.30    0.56
   5   2  -5    0.12    0.70
   5   2  -5    1.15    0.40
  -5  -2   5    1.53    0.62
  -5  -2   5   -0.33    0.60
  -5  -2   5    1.52    0.40
  -5  -2   5    0.99    0.52
  -5  -2   5    0.93    0.39
   4   2  -5    8.94    1.42
   4   2  -5    7.88    1.54
   4   2  -5   10.36    1.20
   4   2  -5   11.54    1.08
   4   2  -5   11.58    1.32
  -4  -2   5   10.67    1.17
  -4  -2   5    9.93    1.48
  -4  -2   5   10.85    1.21
  -4  -2   5   11.14    1.39
   3   2  -5    1.51    0.65
   3   2  -5    4.77    0.69
   3   2  -5    2.89    0.41
   3   2  -5    3.22    0.51
   3   2  -5    2.17    0.63
  -3  -2   5    1.90    0.76
  -3  -2   5    2.64    0.62
  -3  -2   5    3.05    0.50
  -3  -2   5    3.54    0.75
  -3  -2   5    3.87    0.51
   2   2  -5    1.53    0.45
   2   2  -5    1.91    0.49
   2   2  -5    1.54    0.30
   2   2  -5    1.15    0.56
  -2  -2   5    0.83    0.51
  -2  -2   5    2.09    0.53
  -2  -2   5    1.30    0.41
  -2  -2   5    2.43    0.34
  -2  -2   5    1.92    0.34
   1   2  -5  186.15   16.75
   1   2  -5  164.25   16.64
   1   2  -5  157.75   16.55
   1   2  -5  173.76   16.53
  -1  -2   5  188.84   16.50
  -1  -2   5  180.24   16.67
  -1  -2   5  160.39   16.71
  -1  -2   5  172.87   16.57
   0   2  -5   36.48    3.52
   0   2  -5   34.06    3.62
   0   2  -5   41.13    3.49
   0  -2   5   29.30    3.71
   0  -2   5   38.00    3.55
  -1   2  -5   51.02    5.15
  -1   2  -5   49.34    5.25
   1  -2   5   57.46    5.20
   1  -2   5   59.53    5.24
   1  -2   5   56.17    5.39
   1  -2   5   48.54    5.34
   1  -2   5   51.80    5.18
  -2   2  -5   56.43    4.99
  -2   2  -5   45.96    5.09
  -2   2  -5   48.55    5.04
   2  -2   5   49.10    5.03
   2  -2   5   54.20    5.17
   2  -2   5   48.59    5.01
   2  -2   5   58.04    5.05
  -3   2  -5    3.25    0.53
  -3   2  -5    2.48    0.49
  -3   2  -5    1.57    0.59
  -3   2  -5    2.79    0.40
   3  -2   5    2.86    0.48
   3  -2   5    5.18    0.94
   3  -2   5    3.17    0.47
   3  -2   5    2.79    0.57
  -4   2  -5    8.23    0.97
  -4   2  -5    6.64    1.33
  -4   2  -5    7.68    0.98
  -4   2  -5    7.57    1.08
  -4   2  -5    6.74    0.81
  -4   2  -5    7.41    0.87
   4  -2   5    8.43    0.93
   4  -2   5    9.09    1.14
   4  -2   5    7.77    0.91
  -5   2  -5    3.26    0.92
  -5   2  -5    3.63    0.48
  -5   2  -5    4.66    0.78
  -5   2  -5    2.91    0.54
  -5   2  -5    4.55    0.82
  -5   2  -5    3.27    0.90
   5  -2   5    3.63    0.60
   5  -2   5    3.40    0.57
   5  -2   5    3.19    0.75
  -6   2  -5    5.96    1.28
  -6   2  -5    6.31    0.94
  -6   2  -5    6.14    0.73
  -6   2  -5    6.72    1.02
  -6   2  -5    6.19    1.21
  -6   2  -5    5.89    1.06
   6  -2   5    6.03    1.10
   6  -2   5    4.84    0.83
  -7   2  -5    4.84    1.38
  -7   2  -5    7.54    1.33
  -7   2  -5    7.74    1.17
  -7   2  -5    6.35    1.17
  -7   2  -5    5.96    0.85
  -7   2  -5    7.45    1.38
   7  -2   5    6.92    1.38
   7  -2   5    6.91    1.15
  -8   2  -5    1.09    0.69
  -8   2  -5    1.54    1.05
  -8   2  -5    1.46    0.44
  -8   2  -5    1.98    1.22
   8  -2   5   -0.77    1.23
   8  -2   5    0.90    0.68
  -9   2  -5   12.86    1.79
  -9   2  -5   12.41    1.49
  -9   2  -5   10.63    2.34
   9  -2   5   10.37    2.00
 -10  -1   5    0.83    1.90
 -10  -1   5   -0.55    1.23
 -10  -1   5    1.56    0.85
   9   1  -5    0.44    0.83
  -9  -1   5    1.03    0.65
  -9  -1   5    0.61    1.47
  -9  -1   5   -0.86    1.01
  -9  -1   5    2.29    1.34
   8   1  -5    1.97    1.18
   8   1  -5    2.23    0.73
  -8  -1   5    2.96    0.65
  -8  -1   5    1.64    0.90
  -8  -1   5    1.17    1.21
   7   1  -5   15.28    1.88
   7   1  -5   16.78    1.72
   7   1  -5   16.44    1.93
  -7  -1   5   18.68    2.17
  -7  -1   5   20.35    1.90
  -7  -1   5   15.78    1.84
  -7  -1   5   14.83    2.14
   6   1  -5  187.64   15.80
   6   1  -5  153.34   15.90
   6   1  -5  155.92   16.26
   6   1  -5  171.45   15.90
   6   1  -5  143.69   16.03
  -6  -1   5  175.31   15.89
  -6  -1   5  168.05   15.85
  -6  -1   5  169.32   16.09
  -6  -1   5  159.96   16.02
   5   1  -5    0.58    0.41
   5   1  -5    0.47    0.57
   5   1  -5    0.89    0.35
   5   1  -5    1.14    0.21
  -5  -1   5    0.97    0.55
  -5  -1   5    0.66    0.34
  -5  -1   5    1.18    0.49
  -5  -1   5    1.13    0.31
  -5  -1   5    0.30    0.65
   4   1  -5   11.73    1.31
   4   1  -5   11.32    1.22
   4   1  -5   12.07    1.40
  -4  -1   5   14.96    1.31
  -4  -1   5   11.76    1.46
  -4  -1   5   12.84    1.33
  -4  -1   5   10.64    1.51
   3   1  -5    3.23    0.45
   3   1  -5    1.91    0.64
   3   1  -5    2.86    0.35
   3   1  -5    2.82    0.57
   3   1  -5    3.31    0.56
  -3  -1   5    3.64    0.50
  -3  -1   5    3.31    0.46
  -3  -1   5    1.98    0.68
  -3  -1   5    3.03    0.59
  -3  -1   5    2.30    0.57
   2   1  -5   26.92    2.87
   2   1  -5   31.40    2.95
   2   1  -5   28.22    2.74
   2   1  -5   28.50    2.78
  -2  -1   5   26.68    2.94
  -2  -1   5   30.26    2.91
  -2  -1   5   26.84    2.79
  -2  -1   5   27.74    2.77
   1   1  -5   19.71    2.25
   1   1  -5   22.48    2.16
   1   1  -5   22.69    2.18
  -1  -1   5   23.73    2.36
  -1  -1   5   21.36    2.19
   0   1  -5    1.89    0.40
   0   1  -5    2.20    0.30
   0  -1   5    2.53    0.42
   0  -1   5    2.16    0.35
   0  -1   5    2.58    0.42
   0  -1   5    1.58    0.45
   0  -1   5    2.96    0.58
  -1   1  -5  306.74   32.77
  -1   1  -5  314.49   32.78
  -1   1  -5  347.86   32.69
   1  -1   5  366.18   32.86
   1  -1   5  347.32   32.72
   1  -1   5  366.41   32.75
   1  -1   5  352.92   32.77
  -2   1  -5  201.33   19.20
  -2   1  -5  192.04   19.12
   2  -1   5  201.02   19.14
   2  -1   5  206.34   19.16
   2  -1   5  200.71   19.20
  -3   1  -5   20.15    2.20
  -3   1  -5   19.46    2.16
  -3   1  -5   19.96    2.09
  -3   1  -5   18.90    2.36
   3  -1   5   24.28    2.27
   3  -1   5   20.71    2.11
   3  -1   5   21.76    2.10
  -4   1  -5    0.24    0.22
  -4   1  -5   -0.08    0.34
  -4   1  -5   -0.07    0.12
  -4   1  -5    0.18    0.51
  -4   1  -5    0.03    0.38
  -4   1  -5    0.08    0.32
   4  -1   5   -0.15    0.22
   4  -1   5    0.34    0.62
   4  -1   5    0.22    0.23
   4  -1   5    0.69    0.46
  -5   1  -5    0.78    0.54
  -5   1  -5    1.18    0.27
  -5   1  -5    1.94    0.76
  -5   1  -5    2.30    0.57
  -5   1  -5    1.38    0.59
  -5   1  -5    1.41    0.41
   5  -1   5    3.51    1.07
   5  -1   5    2.32    0.64
   5  -1   5    1.50    0.35
   5  -1   5    2.15    0.47
  -6   1  -5    0.85    0.70
  -6   1  -5    2.73    0.92
  -6   1  -5    0.88    0.54
  -6   1  -5    1.00    0.51
  -6   1  -5    1.34    0.32
  -6   1  -5    1.11    0.72
   6  -1   5    1.46    0.73
   6  -1   5    1.27    0.46
  -7   1  -5    2.39    0.68
  -7   1  -5    0.80    0.86
  -7   1  -5    1.21    0.37
  -7   1  -5    1.89    1.11
  -7   1  -5    1.09    0.96
  -7   1  -5    0.94    0.72
   7  -1   5    0.95    0.61
   7  -1   5    0.48    0.90
  -8   1  -5    8.15    1.30
  -8   1  -5    5.16    1.72
  -8   1  -5    8.06    1.04
   8  -1   5    5.34    1.17
   8  -1   5    8.64    1.83
  -9   1  -5   21.74    2.15
  -9   1  -5   15.72    3.12
  -9   1  -5   18.28    2.77
   9  -1   5   15.66    2.79
 -11   0   5    3.64    1.48
 -11   0   5    1.61    1.03
 -11   0   5    5.00    2.47
 -10   0   5   -0.39    0.70
 -10   0   5    1.57    1.76
 -10   0   5    0.77    1.11
   9   0  -5   -0.54    0.72
   9   0  -5    1.47    1.35
  -9   0   5    0.16    0.92
  -9   0   5    1.16    0.92
  -9   0   5    0.41    0.56
  -9   0   5    1.45    0.60
  -9   0   5   -0.68    1.34
   8   0  -5   11.40    2.03
   8   0  -5    9.75    1.40
  -8   0   5   11.74    1.66
  -8   0   5    9.97    1.30
  -8   0   5    6.60    1.74
  -8   0   5   11.78    1.34
  -8   0   5   11.10    1.74
   7   0  -5    0.21    0.74
   7   0  -5    0.55    0.37
   7   0  -5   -0.51    0.40
   7   0  -5    0.28    0.51
   7   0  -5    0.54    0.25
  -7   0   5    0.36    0.31
  -7   0   5    1.11    0.62
  -7   0   5    0.76    0.61
  -7   0   5   -0.11    0.86
  -7   0   5    0.67    0.38
   6   0  -5    1.06    0.58
   6   0  -5    1.37    0.25
   6   0  -5    0.87    0.52
   6   0  -5    1.34    0.38
   6   0  -5    0.51    0.35
  -6   0   5    1.53    0.59
  -6   0   5    0.10    0.67
  -6   0   5    1.38    0.33
  -6   0   5    1.47    0.56
  -6   0   5    1.52    0.37
   5   0  -5    7.39    1.29
   5   0  -5    8.70    1.25
   5   0  -5   10.47    1.05
   5   0  -5    9.24    1.10
  -5   0   5    8.77    1.03
  -5   0   5    9.98    1.31
  -5   0   5    9.97    1.24
  -5   0   5    9.90    1.07
   4   0  -5   20.85    2.09
   4   0  -5   17.95    1.92
   4   0  -5   17.47    1.98
  -4   0   5   21.09    1.96
  -4   0   5   18.63    2.06
  -4   0   5   19.67    1.92
  -4   0   5   18.33    2.10
   3   0  -5    6.72    0.90
   3   0  -5    7.61    0.75
  -3   0   5    6.95    0.79
  -3   0   5    5.01    1.02
  -3   0   5    8.34    0.93
  -3   0   5    6.43    0.95
   2   0  -5    0.11    0.34
   2   0  -5    0.14    0.08
   2   0  -5   -0.19    0.23
   2   0  -5    0.04    0.10
  -2   0   5    0.19    0.27
  -2   0   5    0.17    0.15
  -2   0   5    0.54    0.36
  -2   0   5   -0.08    0.18
  -2   0   5    0.15    0.15
   1   0  -5   10.46    0.91
   1   0  -5    8.00    1.01
  -1   0   5    8.03    0.92
  -1   0   5   10.03    1.07
  -1   0   5    7.70    0.95
  -1   0   5    8.60    1.10
   0   0  -5   20.14    2.16
   0   0  -5   20.38    2.21
   0   0  -5   20.60    2.07
   0   0   5   25.41    2.21
   0   0   5   19.89    2.09
  -1   0  -5    0.00    0.06
  -1   0  -5   -0.13    0.11
  -1   0  -5   -0.04    0.33
  -1   0  -5    0.23    0.24
  -1   0  -5    0.14    0.21
  -1   0  -5    0.05    0.16
   1   0   5    0.32    0.16
   1   0   5   -0.05    0.21
   1   0   5   -0.20    0.12
   1   0   5   -0.08    0.23
   1   0   5   -0.16    0.33
  -2   0  -5    0.61    0.31
  -2   0  -5    0.17    0.09
  -2   0  -5    0.01    0.27
  -2   0  -5    0.41    0.25
  -2   0  -5    0.32    0.37
   2   0   5    0.41    0.28
   2   0   5    0.57    0.22
   2   0   5    0.06    0.40
   2   0   5    0.26    0.26
   2   0   5    0.38    0.14
  -3   0  -5   22.55    2.35
  -3   0  -5   22.64    2.43
  -3   0  -5   22.19    2.52
  -3   0  -5   24.88    2.58
  -3   0  -5   20.43    2.76
  -3   0  -5   26.67    2.50
   3   0   5   24.45    2.45
   3   0   5   26.17    2.42
   3   0   5   26.68    2.61
  -4   0  -5    1.14    0.39
  -4   0  -5    2.17    0.68
  -4   0  -5    1.12    0.44
  -4   0  -5    0.84    0.22
  -4   0  -5    1.47    0.50
  -4   0  -5    0.71    0.52
   4   0   5    1.79    0.78
   4   0   5    1.40    0.35
   4   0   5    1.08    0.38
   4   0   5    1.53    0.56
  -5   0  -5   14.68    1.88
  -5   0  -5   16.93    1.90
  -5   0  -5   16.90    2.22
  -5   0  -5   15.28    1.99
  -5   0  -5   19.77    2.24
  -5   0  -5   17.06    1.70
   5   0   5   19.15    1.79
   5   0   5   15.25    2.10
   5   0   5   14.65    1.84
  -6   0  -5    1.21    0.97
  -6   0  -5   -0.56    0.90
  -6   0  -5   -0.09    0.50
  -6   0  -5    0.40    0.82
  -6   0  -5    0.85    0.27
   6   0   5    0.44    0.48
   6   0   5    0.21    0.78
  -7   0  -5    2.74    0.86
  -7   0  -5    2.14    1.32
  -7   0  -5    4.42    0.96
  -7   0  -5    1.73    1.32
  -7   0  -5    3.52    0.57
   7   0   5    3.27    0.90
   7   0   5    2.93    1.19
  -8   0  -5    1.70    1.69
  -8   0  -5    2.72    0.58
  -8   0  -5    3.03    1.01
   8   0   5    1.86    1.72
   8   0   5    1.84    1.56
  -9   0  -5    2.52    1.46
  -9   0  -5    0.97    2.43
  -9   0  -5    2.46    0.71
   9   0   5   -0.06    1.22
 -11   1   5    0.51    2.05
 -11   1   5    0.83    1.27
 -11   1   5   -0.85    0.84
 -10   1   5    1.27    0.67
 -10   1   5    0.06    1.58
 -10   1   5    0.79    1.03
   9  -1  -5    8.27    1.55
   9  -1  -5   10.60    1.29
  -9   1   5    5.41    1.47
  -9   1   5   11.17    1.62
  -9   1   5    9.19    1.14
  -9   1   5    7.68    1.21
  -9   1   5    4.98    1.65
   8  -1  -5   -0.01    0.31
   8  -1  -5    0.31    0.45
  -8   1   5    0.41    0.34
  -8   1   5    1.29    0.70
  -8   1   5   -0.02    0.36
  -8   1   5    0.41    0.67
   7  -1  -5   -0.07    0.31
   7  -1  -5    0.58    0.28
   7  -1  -5    0.00    0.21
   7  -1  -5   -0.63    0.58
   7  -1  -5   -0.11    0.31
  -7   1   5    0.55    0.31
  -7   1   5    0.58    0.82
  -7   1   5   -0.17    0.27
  -7   1   5   -0.11    0.54
   6  -1  -5    0.76    0.45
   6  -1  -5    0.70    0.33
   6  -1  -5    0.33    0.18
   6  -1  -5    0.48    0.26
   6  -1  -5    0.70    0.24
  -6   1   5    1.11    0.50
  -6   1   5    0.52    0.25
  -6   1   5    1.19    0.62
  -6   1   5    0.83    0.26
  -6   1   5    0.20    0.62
   5  -1  -5   13.06    1.22
   5  -1  -5   12.24    1.24
   5  -1  -5    9.60    1.36
   5  -1  -5   11.17    1.28
  -5   1   5   12.63    1.52
  -5   1   5   13.25    1.29
  -5   1   5   12.01    1.40
  -5   1   5   13.28    1.26
   4  -1  -5    0.13    0.10
   4  -1  -5    0.23    0.27
   4  -1  -5   -0.43    0.32
   4  -1  -5    0.58    0.28
  -4   1   5    0.37    0.28
  -4   1   5    0.18    0.35
  -4   1   5    0.24    0.19
  -4   1   5   -0.10    0.14
  -4   1   5    0.00    0.39
   3  -1  -5    5.25    0.78
  -3   1   5    4.72    0.84
  -3   1   5    7.32    0.70
  -3   1   5    7.73    0.75
  -3   1   5    6.40    0.87
  -3   1   5    5.96    0.70
   2  -1  -5    0.03    0.23
   2  -1  -5    0.43    0.35
   2  -1  -5    0.10    0.07
   2  -1  -5    0.16    0.26
  -2   1   5    0.33    0.16
  -2   1   5    0.42    0.28
  -2   1   5    0.30    0.11
  -2   1   5   -0.03    0.27
  -2   1   5    0.02    0.12
  -2   1   5    0.10    0.25
   1  -1  -5   23.97    2.74
   1  -1  -5   27.98    2.76
  -1   1   5   26.34    2.77
  -1   1   5   30.79    2.79
  -1   1   5   30.75    2.89
  -1   1   5   32.15    2.92
   0  -1  -5    0.15    0.27
   0  -1  -5    0.01    0.13
   0  -1  -5    0.16    0.18
   0  -1  -5    0.11    0.16
   0  -1  -5    0.15    0.33
   0   1   5    0.29    0.13
   0   1   5    0.21    0.12
   0   1   5    0.19    0.26
   0   1   5    0.61    0.41
   0   1   5    0.16    0.20
  -1  -1  -5    0.82    0.25
  -1  -1  -5    0.60    0.24
  -1  -1  -5    0.62    0.32
  -1  -1  -5    0.79    0.40
   1   1   5    1.16    0.35
   1   1   5    1.01    0.18
   1   1   5    0.50    0.32
   1   1   5    0.66    0.19
  -2  -1  -5    3.47    0.70
  -2  -1  -5    3.42    0.58
  -2  -1  -5    4.14    0.82
  -2  -1  -5    4.77    0.65
  -2  -1  -5    4.14    0.81
  -2  -1  -5    3.29    0.43
   2   1   5    4.07    0.57
   2   1   5    4.23    0.75
   2   1   5    4.37    0.53
  -3  -1  -5    7.88    0.98
  -3  -1  -5    8.20    1.24
  -3  -1  -5    8.52    1.02
  -3  -1  -5    6.25    1.09
  -3  -1  -5    7.66    1.25
  -3  -1  -5    7.08    0.81
   3   1   5    7.75    1.16
   3   1   5    7.64    0.97
   3   1   5    8.36    0.89
  -4  -1  -5   13.48    1.73
  -4  -1  -5   10.26    1.43
  -4  -1  -5   11.78    1.21
  -4  -1  -5   10.39    1.55
  -4  -1  -5   12.47    1.81
  -4  -1  -5   12.04    1.40
   4   1   5   12.09    1.40
   4   1   5   12.59    1.30
   4   1   5   10.11    1.60
  -5  -1  -5   44.75    5.25
  -5  -1  -5   47.77    4.90
  -5  -1  -5   45.35    4.99
  -5  -1  -5   50.35    4.86
  -5  -1  -5   51.13    5.13
  -5  -1  -5   45.02    4.69
   5   1   5   51.35    4.77
   5   1   5   48.21    5.13
   5   1   5   50.67    4.88
  -6  -1  -5    0.44    1.18
  -6  -1  -5    0.56    0.33
  -6  -1  -5    0.63    1.07
  -6  -1  -5    0.00    0.91
  -6  -1  -5    0.00    0.65
   6   1   5   -0.14    0.94
   6   1   5   -0.19    0.57
  -7  -1  -5    0.46    0.83
  -7  -1  -5    0.48    0.39
  -7  -1  -5   -1.81    1.38
  -7  -1  -5   -0.44    1.41
   7   1   5   -0.28    1.32
   7   1   5   -0.14    1.22
  -8  -1  -5    0.48    0.60
  -8  -1  -5    1.37    2.06
  -8  -1  -5    1.84    1.22
   8   1   5    0.01    1.09
 -11   2   5   -0.42    1.11
 -11   2   5   -0.75    1.72
 -11   2   5    2.58    0.85
 -10   2   5    6.69    1.20
 -10   2   5    4.67    1.62
   9  -2  -5    0.61    0.47
  -9   2   5   -0.10    0.34
  -9   2   5    0.24    0.54
  -9   2   5    0.82    1.13
  -9   2   5    0.25    0.74
  -9   2   5   -0.55    0.41
   8  -2  -5    2.96    0.43
  -8   2   5    2.57    0.51
  -8   2   5    2.97    0.43
  -8   2   5    2.44    0.71
  -8   2   5    1.18    1.02
  -8   2   5    3.31    0.62
   7  -2  -5    0.54    0.15
  -7   2   5    0.57    0.23
  -7   2   5   -0.15    0.44
  -7   2   5    0.98    0.41
  -7   2   5   -0.07    0.67
  -7   2   5    0.71    0.28
  -6   2   5    0.89    0.33
  -6   2   5    0.84    0.40
  -6   2   5    0.77    0.24
  -6   2   5    1.18    0.23
  -6   2   5    0.21    0.52
  -5   2   5    3.87    0.62
  -5   2   5    4.49    0.51
  -5   2   5    3.08    0.46
  -5   2   5    4.38    0.77
  -5   2   5    4.60    0.50
  -5   2   5    2.58    0.60
   4  -2  -5    1.18    0.27
  -4   2   5    1.62    0.24
  -4   2   5    1.47    0.45
  -4   2   5    1.57    0.35
  -4   2   5    1.43    0.27
  -4   2   5    2.37    0.37
  -4   2   5    1.68    0.53
  -4   2   5    0.96    0.20
   3  -2  -5   12.10    1.17
   3  -2  -5   11.70    1.12
   3  -2  -5    8.95    1.26
  -3   2   5    9.84    1.33
  -3   2   5   10.59    1.15
  -3   2   5   10.38    1.13
  -3   2   5   13.14    1.24
  -3   2   5   11.35    1.28
  -3   2   5   11.34    1.11
  -3   2   5   12.85    1.20
   2  -2  -5   36.85    4.01
   2  -2  -5   36.21    4.01
   2  -2  -5   43.97    4.08
  -2   2   5   41.02    4.01
  -2   2   5   45.01    4.20
  -2   2   5   47.32    4.03
   1  -2  -5   16.07    1.64
   1  -2  -5   14.39    1.59
   1  -2  -5   14.80    1.79
   1  -2  -5   14.09    1.59
  -1   2   5   18.18    1.61
  -1   2   5   15.98    1.57
  -1   2   5   17.84    1.69
  -1   2   5   15.13    1.74
   0  -2  -5   23.12    2.58
   0  -2  -5   26.63    2.49
   0  -2  -5   24.44    2.58
   0  -2  -5   22.89    2.46
   0  -2  -5   26.38    2.63
   0   2   5   25.68    2.43
   0   2   5   20.86    2.56
   0   2   5   24.51    2.46
   0   2   5   27.34    2.58
  -1  -2  -5    3.24    0.68
  -1  -2  -5    2.54    0.49
  -1  -2  -5    3.97    0.71
  -1  -2  -5    3.76    0.60
  -1  -2  -5    3.40    0.80
   1   2   5    4.26    0.57
   1   2   5    3.71    0.70
   1   2   5    4.70    0.49
   1   2   5    3.30    0.69
  -2  -2  -5    0.01    0.29
  -2  -2  -5   -0.04    0.49
  -2  -2  -5   -0.07    0.17
  -2  -2  -5    0.10    0.31
  -2  -2  -5    0.00    0.43
  -2  -2  -5   -0.28    0.44
   2   2   5    0.21    0.36
   2   2   5    0.12    0.24
  -3  -2  -5   -0.41    0.69
  -3  -2  -5   -0.07    0.56
  -3  -2  -5    0.30    0.36
  -3  -2  -5   -0.11    0.38
  -3  -2  -5   -0.11    0.20
  -3  -2  -5    1.07    0.59
   3   2   5    0.84    0.57
   3   2   5   -0.07    0.34
  -4  -2  -5    1.22    0.46
  -4  -2  -5    2.07    0.76
  -4  -2  -5    1.88    0.34
  -4  -2  -5    0.63    0.75
  -4  -2  -5    1.06    0.55
  -4  -2  -5    1.25    0.96
   4   2   5    1.06    0.77
   4   2   5    1.59    0.53
  -5  -2  -5    7.75    1.02
  -5  -2  -5    8.62    1.33
  -5  -2  -5    9.28    1.83
  -5  -2  -5    7.52    1.64
   5   2   5    8.30    1.62
   5   2   5    8.25    1.33
  -6  -2  -5    2.07    1.62
  -6  -2  -5   -0.60    0.85
  -6  -2  -5    2.34    1.26
  -6  -2  -5    1.05    0.48
   6   2   5    1.60    0.85
   6   2   5    2.96    1.25
  -7  -2  -5   -0.45    1.98
  -7  -2  -5    0.27    1.11
  -7  -2  -5    1.45    0.57
   7   2   5   -1.18    1.60
   7   2   5    3.23    1.08
  -8  -2  -5    4.37    1.74
  -8  -2  -5    7.78    2.82
  -8  -2  -5    6.17    1.03
   8   2   5    3.04    1.39
 -11   3   5   -0.19    0.76
 -10   3   5    0.14    0.54
  -9   3   5    2.34    0.51
  -8   3   5    1.77    0.41
  -7   3   5   11.77    1.26
  -6   3   5    5.55    1.07
  -6   3   5    5.34    0.64
  -5   3   5    0.85    0.37
  -5   3   5    0.54    0.49
  -4   3   5    3.06    0.35
  -4   3   5    2.58    0.43
  -4   3   5    3.73    0.67
  -4   3   5    3.55    0.54
   3  -3  -5    0.90    0.34
   3  -3  -5    1.28    0.25
  -3   3   5    2.16    0.37
  -3   3   5    1.91    0.37
  -3   3   5    1.85    0.26
  -3   3   5    1.64    0.27
  -3   3   5    0.88    0.43
   2  -3  -5   28.18    2.65
   2  -3  -5   24.18    2.74
   2  -3  -5   24.81    2.66
   2  -3  -5   27.95    2.64
  -2   3   5   26.06    2.81
  -2   3   5   27.15    2.62
  -2   3   5   24.89    2.60
  -2   3   5   30.44    2.71
   1  -3  -5    0.46    0.24
   1  -3  -5    0.79    0.41
   1  -3  -5    0.65    0.41
   1  -3  -5    0.23    0.24
   1  -3  -5    0.40    0.23
   1  -3  -5    0.86    0.49
  -1   3   5    0.54    0.16
  -1   3   5    0.39    0.37
  -1   3   5    0.58    0.21
  -1   3   5    0.84    0.31
   0  -3  -5   26.90    2.73
   0  -3  -5   28.24    2.59
   0  -3  -5   27.81    2.62
   0  -3  -5   23.97    2.56
   0  -3  -5   21.69    2.71
   0  -3  -5   24.30    2.78
   0   3   5   24.51    2.73
   0   3   5   26.78    2.58
   0   3   5   25.58    2.70
  -1  -3  -5   10.39    1.73
  -1  -3  -5   14.12    1.60
  -1  -3  -5   12.98    1.37
  -1  -3  -5   13.87    1.59
  -1  -3  -5   10.90    1.28
  -1  -3  -5   12.06    1.42
   1   3   5   12.80    1.57
   1   3   5   11.54    1.37
   1   3   5   11.61    1.56
   1   3   5   13.75    1.39
  -2  -3  -5   11.81    1.55
  -2  -3  -5   13.00    1.39
  -2  -3  -5   13.13    1.71
  -2  -3  -5   12.81    1.46
  -2  -3  -5   15.40    1.74
  -2  -3  -5   11.85    1.98
   2   3   5   14.31    1.44
   2   3   5   10.26    1.47
   2   3   5   10.39    1.71
   2   3   5   15.70    1.54
   2   3   5   12.59    1.29
  -3  -3  -5    2.32    0.49
  -3  -3  -5    1.92    0.65
  -3  -3  -5    2.82    1.11
  -3  -3  -5    2.64    0.83
  -3  -3  -5    2.53    0.82
  -3  -3  -5    3.22    0.60
   3   3   5    2.30    0.62
   3   3   5    2.24    0.93
   3   3   5    2.40    0.52
   3   3   5    3.35    0.63
   3   3   5    3.47    0.44
  -4  -3  -5    9.72    1.48
  -4  -3  -5    5.64    1.73
  -4  -3  -5    6.83    1.07
  -4  -3  -5    8.34    1.49
   4   3   5    7.38    1.23
   4   3   5   10.31    1.24
   4   3   5    7.32    1.55
   4   3   5    8.78    1.33
  -5  -3  -5   -0.36    0.43
  -5  -3  -5   -0.01    0.94
  -5  -3  -5   -0.65    1.45
   5   3   5   -1.23    0.59
   5   3   5    0.48    1.15
  -6  -3  -5   -0.45    1.08
  -6  -3  -5   -0.18    2.71
  -6  -3  -5   -0.01    0.58
   6   3   5    1.59    0.82
   6   3   5    0.85    1.54
  -7  -3  -5    2.12    1.46
  -7  -3  -5    0.75    0.78
  -7  -3  -5   -0.03    2.71
   7   3   5    0.97    1.10
   7   3   5   -2.20    2.15
 -10   4   5    0.68    0.54
  -9   4   5    0.93    1.13
  -9   4   5    1.07    0.43
  -8   4   5    1.58    0.39
  -8   4   5    2.08    0.94
  -7   4   5   -0.73    0.66
  -7   4   5   -0.12    0.24
  -7   4   5    0.57    0.63
  -6   4   5    2.28    0.35
  -6   4   5    1.58    0.63
  -6   4   5    2.62    0.87
  -5   4   5    0.11    0.16
  -5   4   5    0.03    0.42
  -5   4   5    0.54    0.47
  -4   4   5   58.49    5.53
  -4   4   5   54.35    5.38
   3  -4  -5   59.37    5.68
   3  -4  -5   54.27    5.69
  -3   4   5   60.75    5.75
  -3   4   5   60.91    5.65
  -3   4   5   58.60    5.67
   2  -4  -5    2.73    0.65
   2  -4  -5    2.41    0.82
   2  -4  -5    2.62    0.47
   2  -4  -5    3.63    0.50
   2  -4  -5    1.81    0.65
   2  -4  -5    2.79    0.45
  -2   4   5    3.18    0.66
  -2   4   5    2.52    0.36
  -2   4   5    3.24    0.63
  -2   4   5    3.24    0.48
   1  -4  -5    4.38    0.70
   1  -4  -5    4.37    0.75
   1  -4  -5    5.45    0.70
   1  -4  -5    3.61    0.90
   1  -4  -5    6.67    1.13
   1  -4  -5    5.26    0.91
  -1   4   5    4.92    0.68
  -1   4   5    4.50    0.84
  -1   4   5    4.90    0.87
   0  -4  -5    0.72    0.69
   0  -4  -5    1.50    0.38
   0  -4  -5    1.32    0.38
   0  -4  -5    0.54    0.57
   0  -4  -5    1.20    0.42
   0  -4  -5    1.33    0.53
   0   4   5    1.76    0.42
   0   4   5    1.34    0.38
   0   4   5    0.92    0.51
   0   4   5    1.71    0.55
   0   4   5    1.28    0.31
  -1  -4  -5    1.70    0.38
  -1  -4  -5    1.88    0.56
  -1  -4  -5    2.08    0.92
  -1  -4  -5    2.70    0.71
   1   4   5    2.06    0.30
   1   4   5    2.55    0.43
   1   4   5    2.24    0.53
   1   4   5    1.91    0.65
   1   4   5    1.36    0.45
  -2  -4  -5    2.30    0.86
  -2  -4  -5    2.02    0.63
  -2  -4  -5    0.85    1.09
  -2  -4  -5    2.14    0.49
   2   4   5    1.83    0.54
   2   4   5    2.95    0.67
   2   4   5    3.55    0.56
   2   4   5    2.20    0.87
  -3  -4  -5   -0.37    0.43
  -3  -4  -5   -0.76    0.66
  -3  -4  -5   -0.85    1.15
   3   4   5   -0.10    0.49
   3   4   5    0.55    0.87
   3   4   5    0.40    0.25
   3   4   5    0.04    0.47
  -4  -4  -5    9.39    1.65
  -4  -4  -5    8.53    1.35
   4   4   5    8.86    1.14
   4   4   5   13.17    1.70
   4   4   5   10.25    1.59
   4   4   5   10.37    2.04
  -5  -4  -5    6.72    1.48
  -5  -4  -5    5.27    0.97
  -5  -4  -5    6.93    2.40
   5   4   5    5.51    1.26
   5   4   5    5.73    1.92
  -6  -4  -5    0.95    1.51
  -6  -4  -5    2.91    2.63
  -6  -4  -5   -0.27    0.76
   6   4   5   -0.67    1.06
   6   4   5    1.44    2.05
 -10   5   5   11.07    1.97
 -10   5   5   12.21    1.52
  -9   5   5    1.22    0.46
  -9   5   5    2.24    1.09
  -8   5   5    4.46    0.75
  -8   5   5    5.38    1.17
  -7   5   5   -0.02    0.66
  -7   5   5    0.15    0.27
  -6   5   5   -0.07    0.20
  -6   5   5    0.87    0.61
  -6   5   5   -0.43    0.63
  -5   5   5    0.04    0.62
  -5   5   5    0.23    0.17
  -5   5   5   -0.15    0.52
  -4   5   5   11.55    1.25
  -4   5   5   13.73    1.57
  -4   5   5   14.87    1.69
   3  -5  -5   22.64    2.28
   3  -5  -5   18.84    2.28
   3  -5  -5   26.48    2.35
  -3   5   5   20.59    2.39
  -3   5   5   21.45    2.26
  -3   5   5   24.89    2.20
   2  -5  -5    3.34    0.59
   2  -5  -5    2.65    0.49
   2  -5  -5    3.04    0.57
   2  -5  -5    2.86    0.85
   2  -5  -5    2.36    0.69
   2  -5  -5    3.06    1.02
  -2   5   5    3.13    0.52
  -2   5   5    3.54    0.42
  -2   5   5    2.15    0.70
  -2   5   5    3.04    0.68
   1  -5  -5    0.18    0.76
   1  -5  -5    1.41    0.43
   1  -5  -5    1.30    0.40
   1  -5  -5    1.47    0.63
   1  -5  -5    0.45    0.82
   1  -5  -5    0.37    0.51
  -1   5   5    2.26    0.66
  -1   5   5    0.82    0.38
  -1   5   5    1.42    0.33
  -1   5   5    1.15    0.57
  -1   5   5    1.81    0.42
   0  -5  -5    0.16    0.87
   0  -5  -5    0.74    0.41
   0  -5  -5    0.54    0.90
   0  -5  -5   -0.68    0.42
   0  -5  -5    0.20    0.53
   0   5   5    0.00    0.55
   0   5   5    0.37    0.30
   0   5   5    0.18    0.38
   0   5   5    0.50    0.14
   0   5   5    0.42    0.37
  -1  -5  -5    0.04    1.14
  -1  -5  -5    0.27    0.46
  -1  -5  -5   -0.03    0.59
   1   5   5   -0.01    0.16
   1   5   5   -0.36    0.69
   1   5   5   -0.64    0.42
   1   5   5   -0.04    0.36
   1   5   5   -1.00    0.40
  -2  -5  -5    1.74    1.37
  -2  -5  -5    1.25    0.48
  -2  -5  -5    1.07    0.73
   2   5   5   -1.03    1.17
   2   5   5   -0.20    0.52
   2   5   5    0.21    0.23
   2   5   5    0.32    0.52
   2   5   5    0.56    0.69
  -3  -5  -5   -0.80    1.56
  -3  -5  -5    0.39    0.84
  -3  -5  -5    0.51    0.58
   3   5   5    0.16    0.31
   3   5   5   -0.15    0.67
   3   5   5    1.11    1.13
   3   5   5   -0.08    0.64
   3   5   5    0.48    0.76
  -4  -5  -5   14.40    3.19
  -4  -5  -5   15.30    2.04
  -4  -5  -5   21.51    3.08
   4   5   5   16.27    1.91
   4   5   5   13.38    2.21
   4   5   5   17.19    3.12
  -5  -5  -5   12.47    3.42
  -5  -5  -5   11.55    1.95
   5   5   5    8.10    2.46
   5   5   5    8.91    1.64
  -6  -5  -5    3.74    2.05
   6   5   5    3.73    2.81
   6   5   5    1.73    1.41
  -9   6   5    2.00    0.52
  -8   6   5    1.38    0.40
  -8   6   5    1.69    0.98
  -7   6   5    5.43    0.70
  -7   6   5    3.49    1.06
  -6   6   5    0.96    0.27
  -6   6   5    0.20    0.70
  -5   6   5    2.96    0.85
  -5   6   5    2.22    0.89
  -5   6   5    4.03    0.48
  -4   6   5    1.80    0.25
  -4   6   5    0.82    0.64
  -4   6   5    2.89    0.64
  -4   6   5    1.44    0.28
  -4   6   5    0.82    0.49
  -4   6   5    1.53    0.64
   3  -6  -5    0.84    0.42
   3  -6  -5    0.37    0.43
   3  -6  -5    1.37    0.51
  -3   6   5    0.42    0.67
  -3   6   5    0.43    0.60
  -3   6   5    0.98    0.20
  -3   6   5    0.69    0.36
   2  -6  -5    0.28    0.99
   2  -6  -5    0.79    0.43
   2  -6  -5    1.33    0.50
   2  -6  -5   -0.10    0.53
  -2   6   5    1.35    0.72
  -2   6   5    1.04    0.38
  -2   6   5    0.13    0.39
   1  -6  -5    7.90    1.19
  -1   6   5    9.94    1.01
  -1   6   5    6.96    1.13
  -1   6   5    6.61    1.34
   0  -6  -5   10.12    1.44
   0  -6  -5   10.19    1.65
   0   6   5    7.52    1.38
   0   6   5   12.08    1.43
   0   6   5   10.81    1.47
   0   6   5    8.15    1.61
   0   6   5   12.92    1.10
  -1  -6  -5    5.32    1.11
  -1  -6  -5    4.54    1.74
  -1  -6  -5    4.72    1.03
   1   6   5    3.72    1.27
   1   6   5    4.73    0.92
   1   6   5    5.65    0.96
   1   6   5    6.59    0.88
  -2  -6  -5   -1.35    1.72
  -2  -6  -5    0.49    0.68
  -2  -6  -5    1.19    1.01
   2   6   5    0.28    0.68
   2   6   5    1.22    1.16
   2   6   5   -0.30    0.30
   2   6   5    0.18    0.70
  -3  -6  -5    3.55    1.48
  -3  -6  -5    3.45    0.89
  -3  -6  -5    1.99    2.29
  -3  -6  -5    3.22    0.95
   3   6   5    5.05    1.13
   3   6   5    5.74    1.70
  -4  -6  -5   -0.51    1.55
  -4  -6  -5    2.46    0.97
   4   6   5    2.64    1.91
   4   6   5    0.43    0.97
  -8   7   5    0.78    0.44
  -7   7   5   11.69    1.35
  -7   7   5   14.66    2.12
  -6   7   5   -1.20    0.83
  -6   7   5    0.41    0.28
  -5   7   5    1.30    0.28
  -5   7   5    1.65    0.91
  -4   7   5    8.04    1.51
  -4   7   5    8.44    1.08
  -4   7   5    9.85    1.30
  -4   7   5    9.53    0.98
  -4   7   5    9.12    1.69
  -4   7   5    9.48    1.22
   3  -7  -5    0.25    1.03
   3  -7  -5    0.48    0.69
  -3   7   5   -0.04    0.21
  -3   7   5    0.19    0.47
  -3   7   5    0.52    0.77
   2  -7  -5   -0.75    0.73
   2  -7  -5    0.42    1.57
  -2   7   5    1.14    0.87
  -2   7   5    0.06    0.49
  -2   7   5   -0.14    0.49
   1  -7  -5   -0.04    1.73
   1  -7  -5    0.00    0.93
   1  -7  -5    0.14    0.56
  -1   7   5   -0.78    0.50
  -1   7   5    0.03    0.93
  -1   7   5   -0.42    0.54
  -1   7   5   -0.35    0.41
   0  -7  -5   -0.08    0.65
   0  -7  -5    1.23    0.96
   0   7   5    0.23    0.59
   0   7   5    2.15    1.07
  -1  -7  -5    0.85    1.10
  -1  -7  -5   -0.06    0.71
   1   7   5   -0.78    0.66
   1   7   5   -0.08    1.23
  -2  -7  -5    0.50    0.86
  -2  -7  -5    0.31    1.31
   2   7   5    2.46    0.97
   2   7   5    0.93    1.42
  -3  -7  -5    5.12    1.80
   3   7   5    1.90    1.18
   3   7   5    6.17    2.14
  -7   8   5    0.39    1.19
  -6   8   5    0.42    1.07
  -5   8   5   -1.42    0.99
  -4   8   5   17.00    2.45
  -4   8   5   18.62    1.95
   3  -8  -5    3.09    0.83
  -3   8   5    3.79    0.75
  -3   8   5    2.57    1.15
   2  -8  -5    5.48    1.04
  -2   8   5    4.83    1.44
  -2   8   5    3.93    0.92
   1  -8  -5   -0.09    0.81
  -1   8   5   -0.61    1.19
  -1   8   5    0.50    0.76
   0  -8  -5    1.19    0.88
   0   8   5    1.74    1.47
   0   8   5    1.92    0.88
  -1  -8  -5   -0.80    1.00
   1   8   5   -0.82    1.61
   1   8   5    1.26    0.94
  -2  -8  -5    1.99    1.26
  -4   9   5    2.74    0.69
  -4   9   5    3.46    1.36
   3  -9  -5    1.18    0.89
  -3   9   5   -0.73    1.44
  -3   9   5    1.37    0.85
   2  -9  -5    0.09    0.95
  -2   9   5   -0.38    0.90
  -2   9   5    1.89    1.60
   1  -9  -5    0.64    1.01
  -1   9   5    3.44    1.81
  -1   9   5    0.12    1.01
   1  11  -6    2.67    1.30
   1  11  -6   -0.29    2.24
  -1 -11   6    0.08    0.89
   0  11  -6    4.47    1.13
   0  11  -6    3.30    1.99
   0 -11   6    3.06    0.89
  -1  11  -6    2.14    1.95
  -1  11  -6    1.23    0.86
   1 -11   6   -0.03    0.68
  -2  11  -6    1.48    1.79
  -2  11  -6    0.99    0.85
  -3  11  -6    1.52    1.67
  -3  11  -6    3.00    0.83
  -4  11  -6    0.23    1.57
  -4  11  -6    1.82    0.67
   4  10  -6   -0.12    2.39
   4  10  -6   -0.42    1.30
  -4 -10   6    1.66    1.10
   3  10  -6    1.21    1.11
   3  10  -6    0.20    1.99
  -3 -10   6   -0.53    1.92
  -3 -10   6    1.35    0.94
   2  10  -6   -0.39    1.90
   2  10  -6    2.27    1.07
  -2 -10   6    0.26    1.86
  -2 -10   6    0.20    0.78
   1  10  -6    2.08    1.65
   1  10  -6   -0.79    0.87
  -1 -10   6    0.26    0.69
  -1 -10   6    1.96    1.74
   0  10  -6    1.59    0.84
   0  10  -6    0.13    1.49
   0 -10   6    2.65    1.56
   0 -10   6    0.22    0.60
  -1  10  -6    6.68    1.14
  -1  10  -6    4.44    1.81
   1 -10   6    8.58    1.24
   1 -10   6    6.79    1.69
  -2  10  -6    0.10    0.60
  -2  10  -6   -0.43    1.33
   2 -10   6   -0.73    1.17
  -3  10  -6    0.60    0.55
  -3  10  -6   -0.19    1.23
  -4  10  -6   -0.35    1.23
  -4  10  -6    0.60    0.50
  -5  10  -6    5.79    0.91
  -5  10  -6    9.14    1.87
  -6  10  -6   10.34    1.31
   5   9  -6   -0.30    2.28
   5   9  -6    0.13    1.22
  -5  -9   6    0.73    3.18
  -5  -9   6    0.89    0.90
  -5  -9   6    0.90    2.01
   4   9  -6   12.26    2.67
   4   9  -6   14.66    2.17
  -4  -9   6   10.71    2.34
  -4  -9   6   13.36    1.86
  -4  -9   6    4.78    3.29
   3   9  -6    6.75    2.02
   3   9  -6    6.40    1.24
  -3  -9   6    6.97    1.12
  -3  -9   6    5.00    1.77
  -3  -9   6    4.52    2.66
   2   9  -6    6.45    1.15
   2   9  -6    3.51    1.57
   2   9  -6    4.87    2.80
  -2  -9   6    5.19    1.64
  -2  -9   6    1.31    2.14
  -2  -9   6    6.06    1.03
   1   9  -6   -0.11    2.26
   1   9  -6   -0.15    0.70
   1   9  -6   -0.89    1.24
   1   9  -6    0.64    1.53
  -1  -9   6   -0.52    0.49
  -1  -9   6    0.70    1.31
  -1  -9   6    2.49    1.85
   0   9  -6    0.89    1.23
   0   9  -6   -2.45    2.05
   0   9  -6    1.33    0.66
   0   9  -6    1.56    1.53
   0  -9   6    1.94    1.19
   0  -9   6    0.60    0.50
   0  -9   6    1.29    0.81
   0  -9   6   -0.32    1.70
  -1   9  -6    3.36    1.41
  -1   9  -6    1.88    0.63
  -1   9  -6   -0.14    1.93
  -1   9  -6    1.20    1.15
   1  -9   6    2.35    0.78
   1  -9   6    1.67    1.57
   1  -9   6    1.67    0.56
   1  -9   6    2.04    1.11
  -2   9  -6    0.48    2.05
  -2   9  -6    0.20    1.30
  -2   9  -6   -0.24    1.00
  -2   9  -6    1.62    0.56
   2  -9   6    0.73    0.91
   2  -9   6   -1.25    1.20
  -3   9  -6    2.54    2.04
  -3   9  -6    2.19    1.50
  -3   9  -6    0.57    0.46
  -3   9  -6    0.06    1.04
   3  -9   6    1.01    1.27
   3  -9   6    0.23    0.85
  -4   9  -6   11.59    1.41
   4  -9   6   13.17    1.87
  -5   9  -6    1.09    0.40
  -5   9  -6    0.52    1.13
  -6   9  -6    1.00    0.40
  -6   9  -6   -1.27    1.33
  -7   9  -6    0.36    0.58
   6   8  -6   -2.71    2.10
   6   8  -6    0.45    1.07
  -6  -8   6    0.40    1.09
  -6  -8   6   -3.17    2.85
  -6  -8   6    1.57    0.88
  -6  -8   6    0.93    1.80
   5   8  -6    1.14    0.96
   5   8  -6   -0.47    1.79
  -5  -8   6    1.17    0.74
  -5  -8   6   -2.31    1.60
  -5  -8   6    3.56    2.50
  -5  -8   6    2.54    0.98
   4   8  -6    1.28    0.79
   4   8  -6   -0.09    2.68
   4   8  -6    1.05    2.02
  -4  -8   6   -0.58    2.14
  -4  -8   6    0.75    0.61
  -4  -8   6    0.62    1.41
   3   8  -6    0.62    1.27
   3   8  -6    0.15    0.63
   3   8  -6   -1.97    2.26
  -3  -8   6   -0.66    1.75
  -3  -8   6   -0.45    1.18
  -3  -8   6    0.45    0.54
   2   8  -6   17.60    3.39
   2   8  -6   25.17    3.14
   2   8  -6   21.48    2.36
   2   8  -6   18.77    2.97
  -2  -8   6   16.76    2.86
  -2  -8   6   18.77    2.21
   1   8  -6   18.68    2.51
   1   8  -6   10.27    2.10
   1   8  -6   11.33    2.81
   1   8  -6   14.51    1.88
  -1  -8   6   14.68    2.33
  -1  -8   6   14.77    1.57
  -1  -8   6    8.67    2.28
   0   8  -6    1.90    1.09
   0   8  -6    2.24    1.80
   0   8  -6    1.47    0.71
   0   8  -6    2.58    1.23
   0  -8   6    2.06    0.52
   0  -8   6    1.11    1.03
   0  -8   6   -0.16    1.30
  -1   8  -6    5.26    1.39
  -1   8  -6    3.43    1.84
  -1   8  -6    6.53    1.07
  -1   8  -6    9.36    1.63
   1  -8   6    3.81    1.87
   1  -8   6    5.76    0.92
   1  -8   6    7.07    1.32
   1  -8   6    6.04    1.01
  -2   8  -6   -1.29    0.99
  -2   8  -6    0.80    0.53
  -2   8  -6   -0.33    0.95
  -2   8  -6   -0.01    1.51
   2  -8   6    1.29    0.81
   2  -8   6    2.84    1.06
  -3   8  -6    4.40    1.39
  -3   8  -6    2.33    1.62
  -3   8  -6    3.82    0.79
  -3   8  -6    5.11    1.23
   3  -8   6    3.11    0.88
  -4   8  -6    1.56    1.07
  -4   8  -6    1.01    0.36
  -4   8  -6    3.03    1.01
  -4   8  -6    1.70    1.52
   4  -8   6    1.84    0.99
   4  -8   6    0.30    0.65
  -5   8  -6   -0.18    0.97
  -5   8  -6   -2.55    1.49
  -5   8  -6   -0.54    1.14
  -5   8  -6   -0.53    0.28
   5  -8   6   -0.49    0.81
   5  -8   6   -0.20    0.58
  -6   8  -6    0.36    0.31
  -6   8  -6    0.46    1.05
  -7   8  -6    1.21    0.52
  -8   8  -6    0.42    0.64
  -8   8  -6    0.84    0.56
  -8   8  -6    1.36    0.90
   7   7  -6    3.96    2.44
   7   7  -6    2.79    1.31
  -7  -7   6    1.86    1.85
  -7  -7   6    1.19    2.82
  -7  -7   6    2.00    1.18
   6   7  -6    0.83    1.78
   6   7  -6   -0.37    0.93
  -6  -7   6    1.40    0.87
  -6  -7   6    0.48    2.20
  -6  -7   6    0.57    1.44
   5   7  -6   -1.23    1.28
   5   7  -6    1.02    0.69
  -5  -7   6    0.41    0.69
  -5  -7   6    3.56    2.15
  -5  -7   6    1.20    1.19
   4   7  -6    0.98    1.15
   4   7  -6    2.26    1.16
   4   7  -6   -1.66    1.96
  -4  -7   6   -0.25    0.58
  -4  -7   6    1.18    1.11
  -4  -7   6    0.18    0.49
  -4  -7   6   -0.11    1.55
  -4  -7   6    0.73    1.42
   3   7  -6    0.74    1.76
   3   7  -6    0.75    0.59
   3   7  -6    0.37    1.07
   3   7  -6    0.55    0.93
  -3  -7   6    1.03    1.37
  -3  -7   6   -0.35    1.14
  -3  -7   6    0.45    0.84
  -3  -7   6    0.31    0.39
   2   7  -6   -0.12    1.44
   2   7  -6    1.07    0.96
   2   7  -6    0.26    0.48
   2   7  -6   -0.13    1.00
  -2  -7   6    0.31    1.32
  -2  -7   6   -2.01    1.04
  -2  -7   6   -0.63    0.80
  -2  -7   6    0.08    0.35
  -2  -7   6    0.17    0.83
   1   7  -6  140.44   12.97
   1   7  -6  125.61   13.29
   1   7  -6  136.98   12.91
  -1  -7   6  137.58   12.89
  -1  -7   6  127.37   12.96
  -1  -7   6  132.79   13.31
  -1  -7   6  132.93   13.18
   0   7  -6   52.46    5.88
   0   7  -6   56.19    5.53
   0   7  -6   58.90    5.82
   0   7  -6   48.92    5.49
   0  -7   6   58.78    5.48
   0  -7   6   56.39    5.97
   0  -7   6   57.71    5.78
  -1   7  -6    0.96    0.38
  -1   7  -6    1.60    0.56
  -1   7  -6   -0.40    1.21
  -1   7  -6    0.87    0.81
  -1   7  -6    0.84    0.94
   1  -7   6    1.99    1.06
   1  -7   6    0.76    0.35
   1  -7   6    1.38    0.74
  -2   7  -6    0.63    1.16
  -2   7  -6    0.36    0.65
  -2   7  -6    0.84    1.03
  -2   7  -6    0.74    0.36
  -2   7  -6   -0.09    0.40
   2  -7   6   -0.69    0.79
   2  -7   6   -0.26    0.63
   2  -7   6   -0.49    0.97
  -3   7  -6    4.47    1.03
  -3   7  -6    3.62    1.01
  -3   7  -6    4.64    0.76
  -3   7  -6    1.28    1.22
  -3   7  -6    3.91    0.64
   3  -7   6    3.03    1.04
   3  -7   6    3.34    0.84
  -4   7  -6   -0.04    0.23
  -4   7  -6    1.87    1.23
  -4   7  -6   -0.50    0.78
  -4   7  -6   -2.00    0.86
   4  -7   6   -0.11    0.53
  -5   7  -6    0.36    1.28
  -5   7  -6    1.61    0.95
  -5   7  -6    0.69    0.27
  -5   7  -6    0.68    0.97
   5  -7   6    1.14    0.74
   5  -7   6    0.73    0.48
  -6   7  -6    4.29    1.34
   6  -7   6    6.68    1.21
   6  -7   6    6.51    0.94
  -7   7  -6   36.52    3.60
  -7   7  -6   32.49    3.46
  -7   7  -6   33.19    3.44
  -8   7  -6    4.97    0.91
  -8   7  -6    7.09    1.24
  -8   7  -6    5.50    0.86
   8   6  -6    9.18    1.80
  -8  -6   6    9.03    2.36
  -8  -6   6   16.13    2.17
  -8  -6   6    4.82    3.15
   7   6  -6   -0.71    1.87
   7   6  -6    0.20    0.98
  -7  -6   6    0.79    1.40
  -7  -6   6    0.37    2.03
  -7  -6   6    2.70    0.95
   6   6  -6    0.95    0.72
   6   6  -6    2.53    1.49
  -6  -6   6    0.29    1.48
  -6  -6   6    2.08    1.23
  -6  -6   6   -0.03    0.69
   5   6  -6    0.51    0.57
   5   6  -6   -0.04    1.11
   5   6  -6   -0.03    1.82
  -5  -6   6    2.54    1.41
  -5  -6   6    0.75    1.37
  -5  -6   6    1.12    0.63
   4   6  -6    4.38    3.12
   4   6  -6    1.76    0.97
   4   6  -6    1.31    0.57
   4   6  -6    1.80    0.99
  -4  -6   6    1.58    0.57
  -4  -6   6    2.16    1.22
  -4  -6   6    1.14    1.20
  -4  -6   6    1.66    0.79
  -4  -6   6    0.42    0.91
   3   6  -6    4.51    1.25
   3   6  -6    7.30    1.40
   3   6  -6    7.13    1.96
   3   6  -6    6.39    1.08
  -3  -6   6    8.73    1.27
  -3  -6   6    6.28    1.21
  -3  -6   6    6.39    0.91
  -3  -6   6    6.99    1.00
  -3  -6   6    7.27    1.48
   2   6  -6   -0.14    0.29
   2   6  -6   -0.27    0.44
   2   6  -6   -0.04    1.14
   2   6  -6    0.14    0.72
  -2  -6   6   -0.30    0.85
  -2  -6   6   -0.34    0.45
  -2  -6   6    1.10    1.03
  -2  -6   6    0.16    0.28
  -2  -6   6    0.52    0.65
   1   6  -6    1.49    0.42
   1   6  -6    1.26    0.75
   1   6  -6    2.08    0.78
   1   6  -6    1.81    0.50
   1   6  -6    1.97    1.20
  -1  -6   6    1.71    0.39
  -1  -6   6    0.39    0.93
  -1  -6   6    1.02    0.49
  -1  -6   6    1.25    0.87
  -1  -6   6    1.75    0.67
   0   6  -6   35.84    3.86
   0   6  -6   35.97    3.52
   0   6  -6   36.91    3.80
   0   6  -6   33.17    3.51
   0  -6   6   36.23    3.48
   0  -6   6   32.48    3.73
   0  -6   6   34.84    3.56
   0  -6   6   31.97    3.90
  -1   6  -6   61.12    6.34
  -1   6  -6   72.68    6.33
  -1   6  -6   61.65    6.54
  -1   6  -6   70.62    6.70
  -1   6  -6   61.85    6.33
   1  -6   6   70.21    6.32
   1  -6   6   62.50    6.37
   1  -6   6   61.29    6.68
   1  -6   6   58.51    6.48
  -2   6  -6   31.72    3.23
  -2   6  -6   37.95    3.64
  -2   6  -6   33.07    3.23
   2  -6   6   26.67    3.64
   2  -6   6   34.13    3.42
   2  -6   6   29.61    3.30
  -3   6  -6    2.25    0.74
  -3   6  -6    1.46    0.42
  -3   6  -6    2.92    0.77
  -3   6  -6   -0.26    0.91
  -3   6  -6    2.11    0.38
   3  -6   6    1.78    0.56
   3  -6   6    2.23    0.51
   3  -6   6    0.69    0.91
   3  -6   6    1.98    0.70
  -4   6  -6    0.99    0.93
  -4   6  -6    1.43    0.71
  -4   6  -6    0.04    0.20
  -4   6  -6    0.29    0.43
  -4   6  -6   -0.11    0.72
   4  -6   6    0.12    0.48
   4  -6   6    0.19    0.54
   4  -6   6   -0.03    0.40
  -5   6  -6    0.71    0.93
  -5   6  -6    0.14    1.02
  -5   6  -6    0.36    0.23
  -5   6  -6    0.32    0.85
   5  -6   6    0.30    0.40
  -6   6  -6    0.23    0.96
  -6   6  -6    0.01    1.18
  -6   6  -6    0.44    0.33
   6  -6   6    1.02    0.70
   6  -6   6    0.86    0.46
  -7   6  -6    4.12    0.78
  -7   6  -6    2.50    0.50
  -7   6  -6    2.56    0.58
   7  -6   6    2.78    0.69
  -8   6  -6    3.57    0.75
  -8   6  -6    3.18    0.98
  -8   6  -6    2.51    0.55
  -9   6  -6    0.44    0.55
  -9   6  -6    0.53    0.82
  -9   6  -6    0.72    1.31
   9   5  -6    2.52    1.40
  -9  -5   6    3.29    1.97
  -9  -5   6    0.27    1.18
  -9  -5   6    0.75    2.86
   8   5  -6   11.32    2.68
   8   5  -6    8.76    1.68
  -8  -5   6    7.31    1.36
  -8  -5   6    9.03    1.97
  -8  -5   6    5.61    2.61
   7   5  -6   -0.81    0.67
   7   5  -6    1.99    1.51
  -7  -5   6   -0.64    1.73
  -7  -5   6   -1.78    1.11
  -7  -5   6    0.90    0.71
  -7  -5   6    1.72    1.60
  -7  -5   6   -0.51    1.39
   6   5  -6    2.46    0.77
   6   5  -6    2.41    1.33
  -6  -5   6    3.08    1.37
  -6  -5   6    3.46    0.78
  -6  -5   6    1.21    1.51
  -6  -5   6    3.71    1.22
  -6  -5   6    2.82    0.87
   5   5  -6    4.18    0.82
   5   5  -6    3.46    1.24
   5   5  -6    3.19    1.56
  -5  -5   6    3.73    0.86
  -5  -5   6    4.60    0.83
  -5  -5   6    4.01    1.49
  -5  -5   6    4.41    1.19
  -5  -5   6    4.53    1.28
   4   5  -6    6.79    1.10
   4   5  -6    6.07    1.33
   4   5  -6    7.90    1.24
   4   5  -6    8.86    1.90
  -4  -5   6    6.58    1.08
  -4  -5   6    8.03    1.37
  -4  -5   6    4.21    1.54
  -4  -5   6    8.24    1.56
  -4  -5   6    9.24    1.26
   3   5  -6   12.68    1.43
   3   5  -6   11.69    2.21
   3   5  -6   12.78    1.53
   3   5  -6   11.25    1.87
   3   5  -6   14.16    1.88
  -3  -5   6   12.13    1.49
  -3  -5   6   14.07    1.60
  -3  -5   6   14.26    2.02
  -3  -5   6   14.99    1.85
   2   5  -6    5.82    0.85
   2   5  -6    6.49    0.91
   2   5  -6    5.65    1.19
   2   5  -6    3.27    1.17
   2   5  -6    8.70    1.30
  -2  -5   6    4.80    1.11
  -2  -5   6    6.50    0.75
  -2  -5   6    6.22    1.14
  -2  -5   6    5.87    0.95
   1   5  -6    9.72    1.08
   1   5  -6    9.27    1.45
   1   5  -6    7.97    1.04
   1   5  -6    7.01    1.39
  -1  -5   6    8.56    0.96
  -1  -5   6    8.37    1.53
  -1  -5   6    8.07    1.10
  -1  -5   6    7.88    1.29
   0   5  -6    1.75    0.39
   0   5  -6    1.46    0.35
   0   5  -6    0.93    0.83
   0   5  -6    1.33    0.55
   0   5  -6    1.97    0.59
   0  -5   6    1.23    0.78
   0  -5   6    0.88    0.33
   0  -5   6    2.55    0.40
   0  -5   6    1.09    0.57
   0  -5   6    0.56    0.65
  -1   5  -6   -0.17    0.72
  -1   5  -6    0.24    0.49
  -1   5  -6    0.12    0.23
  -1   5  -6   -0.17    0.22
   1  -5   6    0.20    0.33
   1  -5   6   -0.50    0.56
   1  -5   6   -0.33    0.73
   1  -5   6   -0.01    0.45
  -2   5  -6    2.55    0.76
  -2   5  -6    1.39    0.62
  -2   5  -6    1.47    0.35
  -2   5  -6    1.14    0.85
  -2   5  -6    1.86    0.36
   2  -5   6    1.14    0.43
   2  -5   6    1.20    0.51
   2  -5   6    1.88    0.75
   2  -5   6    1.30    0.66
  -3   5  -6   57.92    5.09
  -3   5  -6   43.44    5.27
  -3   5  -6   46.34    5.11
   3  -5   6   53.48    5.37
   3  -5   6   53.87    5.17
   3  -5   6   58.63    5.21
   3  -5   6   50.29    5.47
  -4   5  -6   10.20    1.81
  -4   5  -6   13.18    1.41
   4  -5   6   12.17    2.05
   4  -5   6   13.56    1.60
   4  -5   6   15.43    1.55
   4  -5   6   15.48    1.73
  -5   5  -6   -0.40    0.47
  -5   5  -6   -0.19    0.74
  -5   5  -6    0.52    0.94
  -5   5  -6    0.21    1.03
   5  -5   6    0.04    0.34
   5  -5   6    0.38    0.51
  -6   5  -6   11.43    1.27
  -6   5  -6   11.94    1.43
  -6   5  -6   11.91    1.34
   6  -5   6   10.90    1.41
   6  -5   6   12.45    1.71
  -7   5  -6    3.47    0.80
  -7   5  -6    0.26    1.43
  -7   5  -6    0.98    1.15
  -7   5  -6    3.21    0.60
  -7   5  -6    3.09    0.49
   7  -5   6    3.56    0.72
  -8   5  -6    0.65    0.60
  -8   5  -6    0.23    0.88
  -8   5  -6    0.17    0.36
  -9   5  -6    0.21    0.83
  -9   5  -6   -0.32    0.46
  -9   5  -6   -0.65    1.36
   9   4  -6    1.65    1.19
  -9  -4   6    1.03    2.35
  -9  -4   6   -0.27    0.98
  -9  -4   6    0.17    1.51
   8   4  -6    0.69    0.82
   8   4  -6    2.18    1.71
  -8  -4   6    1.54    0.99
  -8  -4   6    0.74    0.77
  -8  -4   6    0.20    1.18
  -8  -4   6   -1.02    1.74
   7   4  -6    4.60    1.05
   7   4  -6    7.90    1.81
  -7  -4   6    7.35    1.57
  -7  -4   6    4.67    1.92
  -7  -4   6    7.30    1.05
  -7  -4   6    6.04    1.13
  -7  -4   6    3.43    1.20
   6   4  -6    4.63    1.41
   6   4  -6    4.93    0.87
  -6  -4   6    3.83    1.53
  -6  -4   6    7.07    1.02
  -6  -4   6    6.58    1.28
  -6  -4   6    6.74    0.95
   5   4  -6   28.44    2.90
   5   4  -6   21.60    3.39
   5   4  -6   22.05    3.07
   5   4  -6   21.86    2.52
   5   4  -6   24.98    2.70
  -5  -4   6   26.55    3.13
  -5  -4   6   28.90    2.76
  -5  -4   6   28.68    2.68
  -5  -4   6   25.21    2.97
   4   4  -6    3.49    0.79
   4   4  -6    3.56    0.57
   4   4  -6    3.09    1.16
   4   4  -6    3.77    0.68
   4   4  -6    2.88    0.94
  -4  -4   6    3.06    0.58
  -4  -4   6    2.29    0.94
  -4  -4   6    3.94    0.86
  -4  -4   6    4.25    1.05
  -4  -4   6    2.96    0.59
   3   4  -6    0.43    0.50
   3   4  -6    0.20    0.79
   3   4  -6    0.69    0.31
   3   4  -6    1.35    0.67
   3   4  -6    0.68    0.28
  -3  -4   6    0.66    0.79
  -3  -4   6    0.59    0.32
  -3  -4   6    0.63    0.52
  -3  -4   6   -0.16    0.64
  -3  -4   6   -0.17    0.38
   2   4  -6    4.38    1.23
   2   4  -6    6.39    1.07
   2   4  -6    5.52    0.84
   2   4  -6    6.43    0.84
   2   4  -6    5.89    1.19
  -2  -4   6    7.24    0.75
  -2  -4   6    8.15    1.18
  -2  -4   6    5.53    1.13
  -2  -4   6    6.36    0.82
  -2  -4   6    6.76    0.91
   1   4  -6   46.05    5.00
   1   4  -6   55.46    4.85
   1   4  -6   47.02    4.85
   1   4  -6   46.51    5.08
  -1  -4   6   48.77    5.03
  -1  -4   6   49.00    4.88
  -1  -4   6   51.68    4.80
   0   4  -6    4.42    0.75
   0   4  -6    4.57    0.89
   0   4  -6    4.84    0.69
   0   4  -6    6.07    0.65
   0   4  -6    5.87    1.04
   0  -4   6    6.09    1.13
   0  -4   6    5.10    0.77
   0  -4   6    3.81    0.79
   0  -4   6    6.20    0.65
  -1   4  -6   12.79    1.26
  -1   4  -6   11.77    1.28
  -1   4  -6    9.67    1.54
   1  -4   6   12.35    1.65
   1  -4   6   11.59    1.45
   1  -4   6   10.30    1.64
   1  -4   6   13.74    1.35
  -2   4  -6    6.51    1.18
  -2   4  -6    7.60    0.90
  -2   4  -6    8.33    0.88
   2  -4   6    7.75    1.32
   2  -4   6    5.89    1.22
   2  -4   6    7.82    0.98
   2  -4   6    8.50    1.06
   2  -4   6    8.84    0.90
  -3   4  -6    9.91    1.66
  -3   4  -6   13.17    1.39
  -3   4  -6   12.73    1.33
   3  -4   6   15.83    1.48
   3  -4   6   12.84    1.82
   3  -4   6   11.81    1.44
  -4   4  -6    4.01    0.52
  -4   4  -6    1.64    0.99
   4  -4   6    3.62    0.72
   4  -4   6    5.03    0.70
   4  -4   6    4.67    0.70
   4  -4   6    4.25    1.09
  -5   4  -6   10.30    1.78
  -5   4  -6   14.44    1.47
  -5   4  -6   11.77    1.35
   5  -4   6   14.45    1.68
   5  -4   6   12.51    1.42
   5  -4   6    8.81    1.84
  -6   4  -6   10.47    1.43
   6  -4   6   14.28    1.78
   6  -4   6   13.10    1.47
  -7   4  -6    4.32    0.77
  -7   4  -6    5.84    0.72
  -7   4  -6    3.37    1.19
  -7   4  -6    5.17    1.03
  -7   4  -6    3.13    1.42
  -7   4  -6    5.29    0.97
   7  -4   6    4.44    1.17
   7  -4   6    4.75    0.83
  -8   4  -6    6.33    0.86
  -8   4  -6    3.93    1.29
  -8   4  -6    5.73    1.00
   8  -4   6    5.79    1.05
  -9   4  -6    0.70    0.51
  -9   4  -6    2.70    0.95
  -9   4  -6    0.06    1.41
 -10  -3   6   -1.33    2.43
 -10  -3   6    0.26    1.15
 -10  -3   6   -0.56    1.69
   9   3  -6    7.44    1.42
  -9  -3   6    5.90    1.23
  -9  -3   6    5.34    1.59
   8   3  -6    0.42    0.72
   8   3  -6    0.59    1.53
  -8  -3   6   -0.17    1.56
  -8  -3   6    0.13    0.83
  -8  -3   6    0.33    0.70
  -8  -3   6   -0.01    1.01
  -8  -3   6    0.95    1.24
   7   3  -6    1.11    0.61
  -7  -3   6    1.67    0.70
  -7  -3   6    1.04    0.96
  -7  -3   6    3.33    1.16
   6   3  -6    1.46    0.34
   6   3  -6    1.86    1.16
   6   3  -6    0.74    0.51
  -6  -3   6    1.95    0.93
  -6  -3   6    1.71    1.05
  -6  -3   6    2.49    0.65
  -6  -3   6    0.74    0.71
  -6  -3   6    1.75    0.53
   5   3  -6   17.55    2.98
   5   3  -6   24.07    2.52
   5   3  -6   27.24    2.68
   5   3  -6   18.73    3.02
  -5  -3   6   25.36    2.50
  -5  -3   6   23.14    2.54
  -5  -3   6   24.94    2.75
  -5  -3   6   27.40    2.93
   4   3  -6    1.08    0.81
   4   3  -6    0.83    0.24
   4   3  -6    0.40    0.59
   4   3  -6    0.27    0.49
   4   3  -6    0.64    0.35
  -4  -3   6    0.84    0.34
  -4  -3   6    0.35    0.46
  -4  -3   6   -0.29    0.62
  -4  -3   6    1.20    0.69
   3   3  -6   41.56    3.86
   3   3  -6   43.19    4.09
   3   3  -6   36.07    4.17
   3   3  -6   37.71    3.92
  -3  -3   6   40.96    3.91
  -3  -3   6   40.23    4.11
  -3  -3   6   38.93    3.96
  -3  -3   6   37.44    4.18
   2   3  -6  117.34   10.76
   2   3  -6  109.64   10.62
   2   3  -6  105.79   10.83
  -2  -3   6  114.95   10.55
  -2  -3   6  110.42   10.78
  -2  -3   6  110.88   10.64
  -2  -3   6   97.17   10.82
  -2  -3   6  114.48   10.60
   1   3  -6  126.65   13.28
   1   3  -6  142.04   13.18
   1   3  -6  142.80   13.16
   1   3  -6  146.34   13.41
  -1  -3   6  129.17   13.39
  -1  -3   6  150.37   13.34
  -1  -3   6  122.78   13.25
   0   3  -6   11.02    1.89
   0   3  -6   14.63    1.40
   0   3  -6   13.49    1.53
   0   3  -6   14.74    1.45
   0  -3   6   16.15    1.64
   0  -3   6   12.90    1.71
   0  -3   6   12.71    1.47
  -1   3  -6   10.90    1.27
  -1   3  -6    7.78    0.92
  -1   3  -6    8.17    0.91
   1  -3   6    8.93    1.09
   1  -3   6    9.16    0.98
   1  -3   6    8.09    1.24
   1  -3   6    7.01    1.37
   1  -3   6    9.05    1.01
  -2   3  -6    0.94    0.54
  -2   3  -6    1.14    0.24
  -2   3  -6    0.74    0.17
  -2   3  -6    1.79    0.52
   2  -3   6    0.99    0.29
   2  -3   6    0.09    0.26
   2  -3   6    0.42    0.41
   2  -3   6    0.77    0.48
   2  -3   6    0.62    0.28
  -3   3  -6    4.87    1.20
  -3   3  -6    7.47    0.83
  -3   3  -6    7.69    1.19
   3  -3   6    9.75    1.17
   3  -3   6    7.07    0.93
   3  -3   6    6.45    1.31
   3  -3   6    9.64    0.97
  -4   3  -6   40.32    4.20
  -4   3  -6   41.22    4.26
  -4   3  -6   35.91    4.38
   4  -3   6   49.43    4.44
   4  -3   6   51.65    4.72
   4  -3   6   38.64    4.25
   4  -3   6   45.79    4.25
  -5   3  -6   15.45    1.63
  -5   3  -6   15.27    1.56
  -5   3  -6   11.42    1.92
  -5   3  -6   15.87    1.74
  -5   3  -6   16.14    1.72
  -5   3  -6   11.77    2.20
   5  -3   6   16.79    2.39
   5  -3   6   15.67    1.69
   5  -3   6   17.27    1.95
  -6   3  -6    9.32    1.31
  -6   3  -6    7.17    1.28
  -6   3  -6   10.41    1.05
  -6   3  -6    6.96    1.31
  -6   3  -6    8.18    1.70
  -6   3  -6   10.63    1.46
   6  -3   6    8.86    1.62
   6  -3   6   11.16    1.25
  -7   3  -6   26.14    2.74
  -7   3  -6   19.17    3.00
  -7   3  -6   18.76    3.38
  -7   3  -6   26.96    2.68
  -7   3  -6   24.53    2.50
  -7   3  -6   27.02    2.98
   7  -3   6   27.42    3.16
   7  -3   6   24.30    2.67
  -8   3  -6    4.15    0.91
  -8   3  -6    3.63    1.25
  -8   3  -6    3.83    0.62
   8  -3   6    4.63    0.95
  -9   3  -6    2.35    0.60
  -9   3  -6    1.56    1.63
  -9   3  -6    2.22    1.05
 -10  -2   6    3.71    1.19
 -10  -2   6    0.68    2.26
 -10  -2   6    3.94    1.67
   9   2  -6    1.20    0.97
  -9  -2   6    0.33    1.74
  -9  -2   6   -1.13    1.11
  -9  -2   6   -0.64    0.73
   8   2  -6    7.86    1.19
  -8  -2   6    6.94    1.41
  -8  -2   6    2.63    1.59
  -8  -2   6    5.72    1.02
  -8  -2   6    8.26    1.51
  -8  -2   6    6.44    1.03
   7   2  -6   30.74    3.86
   7   2  -6   33.86    3.45
  -7  -2   6   37.02    3.81
  -7  -2   6   33.86    3.72
  -7  -2   6   30.34    3.53
  -7  -2   6   31.55    3.39
   6   2  -6   28.25    3.95
   6   2  -6   37.05    3.67
   6   2  -6   31.82    3.68
   6   2  -6   34.41    3.96
  -6  -2   6   37.34    3.89
  -6  -2   6   40.40    3.69
  -6  -2   6   39.06    3.63
  -6  -2   6   38.33    3.99
   5   2  -6    1.01    0.75
   5   2  -6    0.40    0.20
   5   2  -6   -0.11    0.58
   5   2  -6    0.30    0.35
   5   2  -6    0.30    0.50
  -5  -2   6    0.24    0.70
  -5  -2   6    0.76    0.39
  -5  -2   6    0.73    0.37
  -5  -2   6    0.84    0.72
  -5  -2   6    0.65    0.53
   4   2  -6    0.05    0.23
   4   2  -6    0.52    0.45
   4   2  -6    0.38    0.61
   4   2  -6   -0.04    0.53
   4   2  -6    0.23    0.17
  -4  -2   6    0.53    0.55
  -4  -2   6    0.17    0.26
  -4  -2   6    0.65    0.69
  -4  -2   6   -0.32    0.42
  -4  -2   6    0.02    0.28
   3   2  -6    0.22    0.39
   3   2  -6    0.28    0.18
   3   2  -6   -0.14    0.60
   3   2  -6    0.22    0.19
   3   2  -6    0.19    0.38
  -3  -2   6    0.01    0.60
  -3  -2   6   -0.09    0.43
  -3  -2   6    0.82    0.49
  -3  -2   6    0.20    0.27
  -3  -2   6    0.31    0.24
   2   2  -6    8.99    1.17
   2   2  -6    7.22    1.10
   2   2  -6    7.83    0.88
   2   2  -6    7.73    0.90
  -2  -2   6    7.95    0.90
  -2  -2   6    7.05    0.93
  -2  -2   6    7.43    1.19
  -2  -2   6    8.70    0.82
  -2  -2   6    8.15    1.13
   1   2  -6   12.41    1.57
   1   2  -6   13.88    1.44
   1   2  -6   13.96    1.44
   1   2  -6   17.43    1.88
  -1  -2   6   13.70    1.47
  -1  -2   6   13.98    1.59
  -1  -2   6   13.14    1.69
   0   2  -6  108.40   10.02
   0   2  -6  108.73    9.97
   0  -2   6  104.21   10.05
   0  -2   6   95.36   10.23
  -1   2  -6  155.35   14.54
  -1   2  -6  143.05   14.67
   1  -2   6  143.44   14.75
   1  -2   6  145.93   14.58
   1  -2   6  158.03   14.61
   1  -2   6  149.64   14.62
   1  -2   6  169.28   14.85
  -2   2  -6  156.42   16.16
  -2   2  -6  155.94   16.30
   2  -2   6  177.87   16.37
   2  -2   6  178.80   16.22
   2  -2   6  175.07   16.24
   2  -2   6  170.69   16.23
  -3   2  -6   12.94    1.31
  -3   2  -6   11.91    1.41
  -3   2  -6   11.31    1.52
  -3   2  -6    9.94    1.74
   3  -2   6   12.22    1.37
   3  -2   6   12.77    1.37
   3  -2   6   13.28    1.53
   3  -2   6   16.71    1.93
  -4   2  -6    0.13    0.27
  -4   2  -6    0.33    0.24
  -4   2  -6   -0.07    0.38
  -4   2  -6   -0.20    0.12
  -4   2  -6    0.49    0.49
   4  -2   6    0.42    0.76
   4  -2   6   -0.07    0.25
   4  -2   6   -0.04    0.30
   4  -2   6   -0.04    0.40
  -5   2  -6    1.85    0.72
  -5   2  -6    2.19    0.36
  -5   2  -6    2.93    0.66
  -5   2  -6    2.77    0.66
  -5   2  -6    1.83    0.93
  -5   2  -6    2.82    0.49
   5  -2   6    2.31    0.69
   5  -2   6    1.95    0.44
   5  -2   6    3.00    0.55
   5  -2   6    4.59    1.32
  -6   2  -6   15.93    2.08
  -6   2  -6   16.41    1.62
  -6   2  -6   14.53    1.93
  -6   2  -6   13.49    2.51
  -6   2  -6   14.80    2.07
  -6   2  -6   14.93    1.78
   6  -2   6   15.94    2.12
   6  -2   6   16.27    1.80
  -7   2  -6   15.00    1.84
  -7   2  -6   11.49    2.30
  -7   2  -6   13.81    2.25
  -7   2  -6   14.22    1.54
  -7   2  -6   11.03    2.03
  -7   2  -6   15.99    2.28
   7  -2   6   15.16    1.81
   7  -2   6   18.09    2.33
  -8   2  -6    0.69    0.77
  -8   2  -6    1.61    0.46
  -8   2  -6    0.90    1.32
   8  -2   6    0.78    0.79
  -9   2  -6    9.90    1.29
  -9   2  -6    7.21    1.54
  -9   2  -6    6.93    2.19
 -10  -1   6    3.22    0.98
 -10  -1   6   -0.20    2.02
 -10  -1   6    1.04    1.36
   9   1  -6    2.01    0.89
  -9  -1   6    0.40    1.60
  -9  -1   6    2.02    1.11
  -9  -1   6    1.07    0.67
   8   1  -6    7.80    1.12
   8   1  -6    6.15    1.62
  -8  -1   6    3.71    1.62
  -8  -1   6    5.10    1.32
  -8  -1   6    8.01    1.09
  -8  -1   6    7.97    1.46
   7   1  -6    3.72    0.74
   7   1  -6    2.64    1.01
   7   1  -6    4.14    0.71
   7   1  -6    3.37    0.52
  -7  -1   6    3.17    0.93
  -7  -1   6    3.83    0.71
  -7  -1   6    4.03    0.66
  -7  -1   6    2.32    1.20
  -7  -1   6    3.50    0.94
   6   1  -6    0.59    0.49
   6   1  -6    0.80    0.73
   6   1  -6    1.22    0.68
   6   1  -6    1.59    0.29
  -6  -1   6    1.18    0.40
  -6  -1   6    0.38    0.55
  -6  -1   6    0.64    0.82
  -6  -1   6    1.18    0.48
  -6  -1   6    1.12    0.67
   5   1  -6   12.81    1.50
   5   1  -6   14.31    1.86
   5   1  -6    8.52    1.71
   5   1  -6   13.24    1.41
  -5  -1   6   12.05    1.40
  -5  -1   6   12.97    1.38
  -5  -1   6   13.50    1.64
  -5  -1   6   12.11    2.03
   4   1  -6    7.46    0.88
   4   1  -6    9.15    1.15
   4   1  -6    8.72    1.00
   4   1  -6    6.10    1.31
  -4  -1   6    9.89    1.05
  -4  -1   6    8.48    1.33
  -4  -1   6   10.66    1.02
  -4  -1   6    8.97    1.22
   3   1  -6    3.40    0.66
   3   1  -6    3.14    0.61
   3   1  -6    3.23    0.53
   3   1  -6    3.07    0.38
  -3  -1   6    2.61    0.64
  -3  -1   6    3.34    0.53
  -3  -1   6    3.28    0.46
  -3  -1   6    4.14    0.71
  -3  -1   6    2.10    0.74
   2   1  -6    7.54    0.80
   2   1  -6    7.52    0.77
   2   1  -6    5.33    0.94
   2   1  -6    9.29    1.05
  -2  -1   6    6.20    1.03
  -2  -1   6    6.53    0.83
  -2  -1   6    7.50    0.98
  -2  -1   6    7.19    0.80
   1   1  -6    0.81    0.20
   1   1  -6    0.95    0.37
   1   1  -6    0.83    0.36
   1   1  -6    1.03    0.21
  -1  -1   6    0.70    0.36
  -1  -1   6    1.00    0.23
  -1  -1   6    0.88    0.39
  -1  -1   6    0.50    0.24
  -1  -1   6    0.70    0.43
   0   1  -6    4.96    0.83
   0  -1   6    6.50    0.94
   0  -1   6    5.32    0.69
   0  -1   6    5.59    0.74
   0  -1   6    6.07    0.78
   0  -1   6    7.50    1.02
  -1   1  -6   88.31    8.95
  -1   1  -6   93.86    8.82
  -1   1  -6   85.80    8.96
   1  -1   6   94.63    8.93
   1  -1   6   96.99    8.89
  -2   1  -6  210.29   20.83
  -2   1  -6  203.16   20.94
  -2   1  -6  198.03   20.91
   2  -1   6  226.08   20.88
   2  -1   6  231.41   20.94
   2  -1   6  226.12   21.00
   2  -1   6  231.54   20.87
  -3   1  -6    1.54    0.52
  -3   1  -6    1.47    0.37
  -3   1  -6    1.33    0.22
  -3   1  -6    1.96    0.49
  -3   1  -6    0.83    0.67
  -3   1  -6    1.27    0.29
   3  -1   6    1.68    0.38
   3  -1   6    1.13    0.32
   3  -1   6    2.66    0.58
  -4   1  -6    3.48    0.51
  -4   1  -6    4.00    1.10
  -4   1  -6    4.26    0.84
  -4   1  -6    5.02    0.90
  -4   1  -6    4.89    0.68
  -4   1  -6    3.89    0.77
   4  -1   6    4.60    0.70
   4  -1   6    4.39    0.69
   4  -1   6    4.38    0.84
  -5   1  -6    8.28    1.12
  -5   1  -6    6.47    1.40
  -5   1  -6    8.28    0.94
  -5   1  -6   11.20    1.49
  -5   1  -6    7.66    1.35
   5  -1   6    9.50    1.17
   5  -1   6   10.14    1.46
   5  -1   6    8.21    1.14
  -6   1  -6    1.02    0.88
  -6   1  -6   -0.11    0.78
  -6   1  -6    1.30    0.53
  -6   1  -6    0.45    0.78
  -6   1  -6   -0.04    0.26
  -6   1  -6   -0.17    1.08
   6  -1   6   -0.26    0.49
   6  -1   6    0.07    0.71
  -7   1  -6    6.90    1.55
  -7   1  -6    6.38    1.40
  -7   1  -6    7.52    1.81
  -7   1  -6    7.13    1.41
  -7   1  -6    8.79    0.99
  -7   1  -6    7.47    1.18
   7  -1   6    5.80    1.06
   7  -1   6    8.48    1.63
  -8   1  -6    0.57    1.58
  -8   1  -6    1.20    0.92
  -8   1  -6    2.15    0.53
   8  -1   6    1.14    1.03
 -11   0   6    1.70    1.48
 -11   0   6   -0.52    1.06
 -10   0   6    0.83    1.18
 -10   0   6    0.74    1.84
 -10   0   6    1.87    0.87
   9   0  -6    3.76    0.81
  -9   0   6    2.89    1.11
  -9   0   6    2.68    0.70
  -9   0   6    1.01    1.03
   8   0  -6    1.51    1.07
   8   0  -6    0.46    0.55
  -8   0   6    0.87    0.84
  -8   0   6    0.24    1.16
  -8   0   6    0.40    0.49
  -8   0   6    1.55    0.53
  -8   0   6    2.28    0.83
   7   0  -6    2.01    0.51
   7   0  -6    2.10    0.50
   7   0  -6    2.50    0.86
   7   0  -6    1.98    0.69
  -7   0   6    2.08    0.76
  -7   0   6    2.08    0.51
  -7   0   6   -0.28    0.96
  -7   0   6    3.20    0.54
  -7   0   6    2.66    0.81
   6   0  -6    2.60    0.46
   6   0  -6    3.37    0.80
   6   0  -6    3.52    0.80
   6   0  -6    4.13    0.61
   6   0  -6    3.88    0.61
  -6   0   6    2.59    0.97
  -6   0   6    2.96    0.72
  -6   0   6    3.84    0.83
  -6   0   6    4.16    0.64
  -6   0   6    2.77    0.56
   5   0  -6   13.21    1.76
   5   0  -6   18.21    1.92
   5   0  -6   15.87    1.69
   5   0  -6   18.64    1.64
  -5   0   6   16.66    1.83
  -5   0   6   13.85    1.96
  -5   0   6   17.72    1.71
  -5   0   6   16.00    1.90
   4   0  -6    0.26    0.36
   4   0  -6   -0.17    0.49
   4   0  -6    0.40    0.12
   4   0  -6    0.39    0.18
   4   0  -6    0.18    0.36
  -4   0   6    0.30    0.23
  -4   0   6    0.12    0.49
  -4   0   6   -0.33    0.33
  -4   0   6    0.27    0.44
  -4   0   6    0.20    0.25
   3   0  -6    6.26    0.89
   3   0  -6    6.91    0.64
   3   0  -6    6.18    0.69
  -3   0   6    5.18    1.02
  -3   0   6    5.56    0.73
  -3   0   6    5.51    0.74
  -3   0   6    5.84    0.86
  -3   0   6    6.91    0.66
  -3   0   6    6.09    0.97
   2   0  -6    1.39    0.21
   2   0  -6    1.16    0.37
   2   0  -6    1.02    0.49
   2   0  -6    1.82    0.25
  -2   0   6    1.17    0.45
  -2   0   6    1.07    0.43
  -2   0   6    1.45    0.29
  -2   0   6    1.27    0.46
  -2   0   6    1.90    0.36
   1   0  -6    0.72    0.44
   1   0  -6    1.29    0.39
   1   0  -6    1.82    0.27
  -1   0   6    2.07    0.36
  -1   0   6    1.23    0.43
  -1   0   6    1.76    0.31
  -1   0   6    1.72    0.47
  -1   0   6    1.79    0.40
   0   0  -6   66.72    5.94
   0   0   6   52.09    6.04
   0   0   6   66.67    5.97
   0   0   6   60.57    6.09
  -1   0  -6    4.81    0.79
  -1   0  -6    4.39    0.79
  -1   0  -6    5.47    0.62
  -1   0  -6    3.53    0.90
  -1   0  -6    4.45    0.53
  -1   0  -6    6.52    0.71
   1   0   6    4.78    0.67
   1   0   6    5.12    0.78
   1   0   6    5.90    0.66
   1   0   6    6.18    0.80
  -2   0  -6    5.48    0.63
  -2   0  -6    6.13    0.90
  -2   0  -6    7.09    0.87
  -2   0  -6    6.49    0.75
  -2   0  -6    7.28    0.94
  -2   0  -6    6.33    1.17
   2   0   6    5.88    0.74
   2   0   6    5.32    0.90
   2   0   6    6.19    0.78
   2   0   6    5.41    0.90
  -3   0  -6    3.74    0.88
  -3   0  -6    2.77    0.63
  -3   0  -6    3.30    0.67
  -3   0  -6    3.30    0.40
  -3   0  -6    2.84    0.57
  -4   0  -6   24.24    3.12
  -4   0  -6   23.86    2.59
  -4   0  -6   29.77    2.99
  -4   0  -6   25.38    2.86
  -4   0  -6   26.23    2.81
  -4   0  -6   27.90    2.75
   4   0   6   27.30    2.68
   4   0   6   26.84    2.74
   4   0   6   26.59    2.93
  -5   0  -6   10.13    1.73
  -5   0  -6    9.01    1.36
  -5   0  -6   10.92    1.13
  -5   0  -6    9.09    1.58
  -5   0  -6    8.83    1.51
  -5   0  -6   11.22    1.81
   5   0   6   10.68    1.35
   5   0   6   12.30    1.69
  -6   0  -6    5.44    1.34
  -6   0  -6    6.42    1.16
  -6   0  -6    4.17    1.29
  -6   0  -6    2.91    1.32
  -6   0  -6    4.73    0.93
  -6   0  -6    4.53    0.74
   6   0   6    3.99    1.10
   6   0   6    5.91    1.02
  -7   0  -6   -1.19    1.27
  -7   0  -6   -0.14    0.81
  -7   0  -6    0.20    0.38
   7   0   6   -0.82    1.21
  -8   0  -6    0.78    1.95
  -8   0  -6    1.13    1.09
  -8   0  -6    0.81    0.55
   8   0   6    2.70    1.16
 -11   1   6    4.12    2.16
 -11   1   6    5.50    1.47
 -11   1   6    4.72    1.13
 -10   1   6    7.62    1.42
 -10   1   6    3.96    1.90
 -10   1   6    7.93    1.12
  -9   1   6    0.61    0.44
  -9   1   6    0.28    0.77
  -9   1   6    0.59    0.98
  -9   1   6   -1.14    1.28
  -9   1   6    1.38    0.54
   8  -1  -6    0.26    0.75
   8  -1  -6    0.43    0.36
   8  -1  -6   -0.01    0.42
  -8   1   6   -0.15    0.64
  -8   1   6    0.06    0.36
  -8   1   6    0.37    0.73
  -8   1   6    0.55    1.09
  -8   1   6    0.44    0.39
   7  -1  -6   14.98    1.56
   7  -1  -6   14.49    1.61
   7  -1  -6   13.01    1.55
   7  -1  -6   17.47    1.54
  -7   1   6   14.55    1.89
  -7   1   6   13.02    1.57
  -7   1   6   16.94    1.86
  -7   1   6   15.17    1.59
   6  -1  -6    6.03    0.87
   6  -1  -6    8.75    0.80
   6  -1  -6    6.79    0.81
   6  -1  -6    6.12    1.00
  -6   1   6    7.99    0.88
  -6   1   6    7.19    0.89
  -6   1   6    6.98    1.11
   5  -1  -6    1.30    0.51
   5  -1  -6    2.39    0.31
   5  -1  -6    1.95    0.44
   5  -1  -6    2.26    0.33
  -5   1   6    2.75    0.39
  -5   1   6    2.15    0.43
  -5   1   6    2.13    0.67
  -5   1   6    1.23    0.64
  -5   1   6    2.15    0.50
   4  -1  -6    4.41    0.82
  -4   1   6    5.07    0.96
  -4   1   6    5.74    0.77
  -4   1   6    5.40    0.72
  -4   1   6    7.21    0.70
  -4   1   6    5.97    0.68
   3  -1  -6   10.56    1.13
   3  -1  -6   10.32    1.33
  -3   1   6   12.26    1.19
  -3   1   6   12.33    1.42
  -3   1   6   11.12    1.22
  -3   1   6   13.46    1.20
   2  -1  -6   34.48    4.08
   2  -1  -6   39.18    3.99
  -2   1   6   44.43    4.05
  -2   1   6   48.64    4.22
  -2   1   6   41.70    4.20
  -2   1   6   47.10    4.18
  -2   1   6   36.05    4.02
   1  -1  -6    9.32    1.00
   1  -1  -6   11.96    1.10
   1  -1  -6    8.68    1.16
  -1   1   6    9.55    1.21
  -1   1   6   10.41    1.18
  -1   1   6    9.00    1.06
  -1   1   6   10.48    1.05
   0  -1  -6   11.39    1.24
   0  -1  -6    9.51    1.17
   0  -1  -6    7.94    1.35
   0  -1  -6    9.47    1.32
   0  -1  -6   12.05    1.12
   0   1   6   12.51    1.14
   0   1   6   10.62    1.10
   0   1   6    9.26    1.24
  -1  -1  -6    4.49    0.77
  -1  -1  -6    4.12    0.61
  -1  -1  -6    4.90    0.94
  -1  -1  -6    6.01    0.76
  -1  -1  -6    4.03    0.49
  -1  -1  -6    4.50    0.83
   1   1   6    4.46    0.61
   1   1   6    4.92    0.83
   1   1   6    5.52    0.79
  -2  -1  -6    1.28    0.35
  -2  -1  -6    0.83    0.49
  -2  -1  -6    1.19    0.57
  -2  -1  -6   -0.10    0.37
  -2  -1  -6    0.50    0.46
  -2  -1  -6    0.69    0.16
   2   1   6    1.00    0.31
   2   1   6    0.39    0.44
   2   1   6    2.24    0.85
   2   1   6    1.38    0.46
   2   1   6    1.17    0.28
  -3  -1  -6    1.78    0.46
  -3  -1  -6    1.55    0.52
  -3  -1  -6    1.66    0.28
  -3  -1  -6    1.71    0.65
  -3  -1  -6    1.62    0.71
  -3  -1  -6    1.21    0.62
   3   1   6    1.74    0.35
   3   1   6    2.08    0.47
   3   1   6    1.99    0.59
  -4  -1  -6    1.15    0.27
  -4  -1  -6    1.72    0.54
  -4  -1  -6    1.87    1.22
  -4  -1  -6    1.52    0.78
  -4  -1  -6    1.86    0.62
  -4  -1  -6    1.35    0.79
   4   1   6    2.24    0.57
   4   1   6    1.10    0.70
   4   1   6    1.23    0.41
  -5  -1  -6   -1.02    1.00
  -5  -1  -6    0.79    1.02
  -5  -1  -6    0.21    0.27
  -5  -1  -6   -0.32    0.59
   5   1   6    0.58    0.83
   5   1   6   -0.82    1.41
   5   1   6    0.71    0.48
  -6  -1  -6   -0.21    1.35
  -6  -1  -6   -0.54    1.22
  -6  -1  -6   -0.75    0.69
   6   1   6   -0.80    1.06
   6   1   6    0.40    1.18
  -7  -1  -6    0.65    1.03
  -7  -1  -6    0.92    1.70
  -7  -1  -6    0.85    0.48
   7   1   6   -0.53    1.54
   7   1   6   -1.11    0.88
  -8  -1  -6    0.93    1.33
  -8  -1  -6    1.82    0.72
  -8  -1  -6    3.88    2.53
   8   1   6   -0.71    1.14
 -11   2   6    3.49    0.99
 -10   2   6    1.33    0.68
 -10   2   6    1.05    1.44
 -10   2   6    0.17    0.82
  -9   2   6    0.95    0.49
  -9   2   6    0.82    0.39
  -9   2   6    1.00    1.15
  -9   2   6    0.32    0.67
  -9   2   6    0.78    0.58
  -8   2   6    2.36    0.61
  -8   2   6    2.36    0.51
  -8   2   6    1.15    1.29
  -8   2   6    2.62    0.62
  -7   2   6   20.15    2.13
  -7   2   6   21.76    2.17
  -7   2   6   20.43    2.20
  -7   2   6   22.79    2.29
  -6   2   6    3.80    0.73
  -6   2   6    3.34    0.58
  -6   2   6    3.40    0.54
  -6   2   6    4.23    0.55
   5  -2  -6    5.16    0.64
  -5   2   6    4.77    0.85
  -5   2   6    5.27    0.61
  -5   2   6    4.79    0.83
  -5   2   6    6.15    0.76
  -5   2   6    4.62    0.65
   4  -2  -6    0.06    0.30
   4  -2  -6    0.56    0.14
  -4   2   6    0.98    0.27
  -4   2   6    0.89    0.46
  -4   2   6    0.69    0.22
  -4   2   6    0.87    0.26
  -4   2   6    0.79    0.55
  -4   2   6    0.62    0.32
  -4   2   6    0.63    0.19
   3  -2  -6   12.01    1.16
   3  -2  -6    8.27    1.23
  -3   2   6   10.34    1.14
  -3   2   6    8.67    1.32
  -3   2   6   10.23    1.31
  -3   2   6   12.46    1.23
  -3   2   6   10.45    1.13
  -3   2   6   12.26    1.12
   2  -2  -6   10.60    1.14
   2  -2  -6   10.33    1.05
   2  -2  -6    7.96    1.17
   2  -2  -6   11.42    1.06
  -2   2   6    9.52    1.26
  -2   2   6   10.32    1.06
  -2   2   6    9.65    1.05
   1  -2  -6    0.24    0.43
   1  -2  -6   -0.49    0.27
   1  -2  -6    0.03    0.17
   1  -2  -6    0.02    0.49
   1  -2  -6   -0.07    0.18
  -1   2   6   -0.12    0.23
  -1   2   6    0.10    0.17
  -1   2   6    0.20    0.44
  -1   2   6    0.09    0.31
  -1   2   6    0.28    0.15
   0  -2  -6    0.61    0.24
   0  -2  -6    0.70    0.49
   0  -2  -6    0.79    0.41
   0  -2  -6    0.36    0.45
   0  -2  -6    0.77    0.36
   0   2   6    0.54    0.22
   0   2   6    0.68    0.39
   0   2   6    0.55    0.19
   0   2   6    1.15    0.38
   0   2   6    2.70    0.76
  -1  -2  -6   36.95    4.04
  -1  -2  -6   41.19    4.07
  -1  -2  -6   43.98    4.21
  -1  -2  -6   40.45    4.25
  -1  -2  -6   39.01    4.24
   1   2   6   43.88    4.00
   1   2   6   42.46    4.04
   1   2   6   39.97    4.18
   1   2   6   38.96    4.16
  -2  -2  -6   68.22    7.51
  -2  -2  -6   69.18    7.17
  -2  -2  -6   74.71    7.51
  -2  -2  -6   67.46    7.39
  -2  -2  -6   77.18    7.32
  -2  -2  -6   76.48    7.31
   2   2   6   80.07    7.23
   2   2   6   78.59    7.30
   2   2   6   80.58    7.49
  -3  -2  -6    0.92    0.84
  -3  -2  -6    0.83    0.74
  -3  -2  -6    0.76    0.26
  -3  -2  -6   -0.23    0.42
  -3  -2  -6    0.60    0.52
  -3  -2  -6    1.62    0.79
   3   2   6    1.29    0.37
   3   2   6    0.49    0.38
   3   2   6    0.57    0.63
   3   2   6    2.22    1.16
  -4  -2  -6   -0.14    0.29
  -4  -2  -6    0.02    1.16
  -4  -2  -6   -0.33    0.53
  -4  -2  -6   -0.26    0.93
   4   2   6    0.44    0.81
   4   2   6    0.43    1.37
   4   2   6   -0.23    0.47
   4   2   6   -0.07    0.38
  -5  -2  -6    0.48    0.72
  -5  -2  -6    0.05    0.37
  -5  -2  -6   -0.98    1.18
  -5  -2  -6   -0.14    1.22
   5   2   6    1.26    1.85
   5   2   6   -0.24    1.02
   5   2   6   -0.55    0.56
  -6  -2  -6    1.31    0.65
  -6  -2  -6    0.64    3.16
  -6  -2  -6    2.13    1.00
   6   2   6    2.37    0.85
   6   2   6    0.04    1.43
  -7  -2  -6   -0.66    0.63
  -7  -2  -6   -0.29    2.18
  -7  -2  -6   -0.86    1.16
   7   2   6   -0.49    0.91
 -10   3   6    2.54    0.71
  -9   3   6   -0.04    0.47
  -8   3   6    0.65    0.37
  -8   3   6    0.42    0.84
  -7   3   6    5.70    0.74
  -7   3   6    6.18    1.19
  -7   3   6    4.51    0.90
  -6   3   6    0.07    0.68
  -6   3   6    0.62    0.49
  -6   3   6   -0.08    0.21
  -5   3   6   -0.07    0.49
  -5   3   6    0.03    0.17
   4  -3  -6    4.06    0.48
   4  -3  -6    4.08    0.63
  -4   3   6    4.62    0.87
  -4   3   6    4.29    0.56
  -4   3   6    3.20    0.55
  -4   3   6    5.35    0.72
  -4   3   6    3.91    0.72
  -4   3   6    3.99    0.47
   3  -3  -6    4.88    0.69
   3  -3  -6    4.19    0.56
   3  -3  -6    4.39    0.77
  -3   3   6    4.97    0.88
  -3   3   6    5.95    0.95
  -3   3   6    4.65    0.56
  -3   3   6    4.32    0.55
   2  -3  -6    0.09    0.20
   2  -3  -6   -0.09    0.20
   2  -3  -6    0.25    0.41
   2  -3  -6    0.49    0.35
   2  -3  -6   -0.69    0.53
  -2   3   6    0.11    0.17
  -2   3   6   -0.05    0.15
  -2   3   6    0.38    0.26
  -2   3   6   -0.20    0.81
  -2   3   6   -0.35    0.36
   1  -3  -6    7.79    1.18
   1  -3  -6    7.18    1.02
   1  -3  -6    8.55    1.02
   1  -3  -6    7.00    0.93
   1  -3  -6    9.05    1.38
   1  -3  -6    7.42    1.24
  -1   3   6    7.93    1.05
  -1   3   6    8.67    0.93
  -1   3   6    7.59    1.14
  -1   3   6    9.11    0.92
   0  -3  -6    4.69    0.97
   0  -3  -6    6.70    0.81
   0  -3  -6    4.80    0.96
   0  -3  -6    6.73    0.89
   0  -3  -6    4.54    0.85
   0  -3  -6    9.13    1.19
   0   3   6    6.53    0.80
   0   3   6    6.14    1.06
   0   3   6    6.19    0.74
   0   3   6    6.70    0.97
  -1  -3  -6   15.36    1.68
  -1  -3  -6   10.90    1.82
  -1  -3  -6   14.73    1.89
   1   3   6   15.94    1.83
   1   3   6   12.64    1.60
   1   3   6   16.52    1.55
   1   3   6   16.01    1.86
  -2  -3  -6    0.50    0.75
  -2  -3  -6   -0.23    0.46
  -2  -3  -6   -0.21    0.84
  -2  -3  -6    0.18    0.31
  -2  -3  -6    0.18    0.74
  -2  -3  -6   -0.25    0.44
   2   3   6    0.08    0.55
   2   3   6   -0.39    0.27
   2   3   6    0.64    0.92
   2   3   6   -0.02    0.36
  -3  -3  -6    7.97    1.73
  -3  -3  -6    7.45    1.24
  -3  -3  -6    7.57    1.09
  -3  -3  -6    9.66    1.88
   3   3   6    9.26    1.72
   3   3   6   10.23    1.32
  -4  -3  -6   17.83    1.90
  -4  -3  -6   20.26    2.34
  -4  -3  -6   14.54    3.02
   4   3   6   18.00    2.69
   4   3   6   14.79    2.09
  -5  -3  -6    0.15    0.55
  -5  -3  -6   -0.29    0.92
  -5  -3  -6    0.75    1.63
   5   3   6   -0.07    0.71
  -6  -3  -6    2.03    2.33
  -6  -3  -6   -0.46    1.25
  -6  -3  -6    0.53    0.70
   6   3   6   -2.51    1.70
   6   3   6    0.97    1.07
  -7  -3  -6    0.45    2.85
  -7  -3  -6   -0.29    0.92
  -7  -3  -6    1.35    1.59
   7   3   6    2.81    2.50
   7   3   6   -1.92    1.30
 -10   4   6    6.14    1.68
 -10   4   6    3.45    0.78
  -9   4   6    9.04    1.35
  -9   4   6    7.26    1.62
  -8   4   6    0.33    0.35
  -8   4   6    0.99    0.96
  -7   4   6   -0.61    0.71
  -7   4   6    1.16    0.78
  -7   4   6   -0.24    0.27
  -6   4   6    2.07    0.36
  -6   4   6    4.03    0.89
  -6   4   6    2.93    0.72
  -5   4   6    2.05    0.57
  -5   4   6    2.71    0.38
  -5   4   6    1.54    0.63
  -4   4   6   30.46    2.80
  -4   4   6   22.40    2.42
  -4   4   6   28.87    2.59
  -4   4   6   23.22    2.48
  -4   4   6   22.50    2.44
   3  -4  -6   22.22    2.65
   3  -4  -6   25.78    2.60
  -3   4   6   27.00    2.68
  -3   4   6   27.43    2.86
  -3   4   6   27.03    2.56
  -3   4   6   26.74    2.58
   2  -4  -6    0.88    0.34
   2  -4  -6    1.19    0.38
   2  -4  -6    0.92    0.62
   2  -4  -6    1.05    0.42
   2  -4  -6    1.57    0.63
  -2   4   6    1.54    0.47
  -2   4   6    1.50    0.34
  -2   4   6    1.44    0.60
  -2   4   6    2.26    0.32
   1  -4  -6    1.72    0.42
   1  -4  -6   -0.43    0.65
   1  -4  -6    0.43    0.34
   1  -4  -6    0.27    0.65
  -1   4   6    0.04    0.27
  -1   4   6    0.30    0.19
  -1   4   6    0.27    0.50
  -1   4   6    0.14    0.38
  -1   4   6    0.00    0.65
   0  -4  -6    0.86    0.45
   0  -4  -6    0.70    0.44
   0  -4  -6    0.47    0.37
   0  -4  -6    1.18    0.76
   0   4   6    0.82    0.55
   0   4   6    0.65    0.54
   0   4   6    1.16    0.29
   0   4   6    0.74    0.36
   0   4   6    2.37    0.86
  -1  -4  -6    1.66    0.48
  -1  -4  -6    1.42    1.25
  -1  -4  -6    1.52    0.60
   1   4   6    1.69    0.50
   1   4   6    1.93    0.74
  -2  -4  -6    0.23    0.39
  -2  -4  -6   -0.09    1.19
  -2  -4  -6   -0.21    0.60
   2   4   6    0.24    0.56
   2   4   6   -0.18    0.74
  -3  -4  -6    6.86    1.22
  -3  -4  -6    6.76    1.84
  -3  -4  -6    6.79    1.06
   3   4   6    5.65    1.55
   3   4   6    4.91    1.03
  -4  -4  -6   16.43    2.08
   4   4   6   18.79    2.31
   4   4   6   18.78    3.04
  -5  -4  -6   45.37    5.05
  -5  -4  -6   45.80    4.52
  -5  -4  -6   37.47    6.15
   5   4   6   46.15    4.77
   5   4   6   40.31    5.51
  -6  -4  -6    3.15    1.68
  -6  -4  -6    2.75    1.02
  -6  -4  -6    4.93    3.22
   6   4   6   -2.13    2.22
   6   4   6   -0.15    1.20
 -10   5   6   13.71    1.84
 -10   5   6   18.20    2.85
  -9   5   6    3.50    1.31
  -9   5   6    5.17    0.79
  -8   5   6    0.16    0.37
  -7   5   6    7.66    0.91
  -6   5   6    0.79    0.76
  -6   5   6   -0.03    0.23
  -6   5   6   -0.78    0.65
  -5   5   6    0.67    0.64
  -5   5   6   -0.37    0.61
  -5   5   6    0.18    0.18
  -4   5   6    6.46    1.00
  -4   5   6    8.65    1.32
  -4   5   6    6.65    0.82
   3  -5  -6   16.67    1.58
   3  -5  -6   12.92    1.57
   3  -5  -6   12.82    1.63
  -3   5   6   13.31    1.66
  -3   5   6   15.41    1.86
  -3   5   6   14.96    1.44
  -3   5   6   12.98    1.50
   2  -5  -6    8.93    1.91
   2  -5  -6   14.70    1.51
   2  -5  -6   12.36    1.51
   2  -5  -6   11.49    1.51
  -2   5   6   12.62    1.63
  -2   5   6   13.03    1.43
  -2   5   6   14.47    1.81
  -2   5   6   13.45    1.32
   1  -5  -6    8.31    1.64
   1  -5  -6   12.19    1.46
   1  -5  -6   10.81    1.29
  -1   5   6    9.42    1.25
  -1   5   6   10.90    1.12
  -1   5   6    8.44    1.54
  -1   5   6   11.28    1.54
   0  -5  -6    1.97    0.55
   0  -5  -6    2.82    0.73
   0  -5  -6    1.70    1.11
   0   5   6    2.36    0.66
   0   5   6    2.27    1.09
  -1  -5  -6    0.07    0.50
  -1  -5  -6    0.74    0.71
  -1  -5  -6    0.68    1.34
   1   5   6    0.96    0.82
   1   5   6   -0.23    0.46
  -2  -5  -6    0.75    0.63
  -2  -5  -6   -0.14    1.53
  -2  -5  -6    0.73    0.48
  -2  -5  -6    1.02    0.83
   2   5   6    0.36    0.60
   2   5   6    1.95    1.03
  -3  -5  -6    1.18    0.63
  -3  -5  -6   -0.49    1.01
  -3  -5  -6    0.81    1.92
   3   5   6   -0.28    0.69
   3   5   6    1.52    1.31
  -4  -5  -6   -1.00    2.44
  -4  -5  -6    0.36    0.82
  -4  -5  -6    0.22    1.26
   4   5   6    0.92    0.85
   4   5   6   -0.03    1.67
  -5  -5  -6   -1.46    1.52
   5   5   6    1.38    1.28
   5   5   6    0.93    2.28
  -9   6   6    2.60    0.64
  -9   6   6    3.81    1.34
  -8   6   6   13.53    1.52
  -8   6   6   13.96    2.23
  -7   6   6   20.92    2.12
  -6   6   6   -0.16    0.26
  -6   6   6   -0.98    0.73
  -5   6   6    0.19    0.77
  -4   6   6    1.83    0.45
  -4   6   6    2.47    0.42
  -4   6   6    2.53    0.86
  -4   6   6    4.19    0.85
  -4   6   6    1.62    0.81
   3  -6  -6    4.76    0.74
   3  -6  -6    3.42    0.77
   3  -6  -6    3.66    0.77
  -3   6   6    4.07    0.90
  -3   6   6    4.39    1.27
  -3   6   6    4.13    0.68
  -3   6   6    4.56    0.57
   2  -6  -6    2.03    0.68
   2  -6  -6    2.26    0.63
   2  -6  -6    2.53    1.26
  -2   6   6    2.40    0.86
  -2   6   6    2.91    0.61
  -2   6   6    3.10    0.49
  -2   6   6    2.41    0.82
   1  -6  -6    3.10    0.69
   1  -6  -6    2.96    1.44
   1  -6  -6    1.64    0.85
  -1   6   6    2.35    0.61
  -1   6   6    2.67    0.88
  -1   6   6    2.93    0.47
   0  -6  -6    0.74    0.79
   0  -6  -6   -0.48    0.58
   0   6   6    0.16    0.51
   0   6   6    0.12    0.83
  -1  -6  -6    0.73    0.72
  -1  -6  -6    1.25    1.73
  -1  -6  -6    0.49    0.89
   1   6   6    0.35    1.06
   1   6   6    1.75    0.65
  -2  -6  -6   -1.08    0.73
  -2  -6  -6    0.88    1.13
   2   6   6    0.33    0.70
   2   6   6    0.77    1.27
  -3  -6  -6    1.37    0.91
   3   6   6    0.99    1.64
   3   6   6    0.30    0.89
  -4  -6  -6   -1.24    1.81
   4   6   6    1.54    2.18
  -8   7   6    0.54    1.19
  -7   7   6   -0.29    1.04
  -6   7   6   12.83    2.16
  -5   7   6   -0.17    0.91
  -4   7   6    7.14    0.82
  -4   7   6    3.79    1.18
  -4   7   6    5.78    0.95
  -4   7   6    6.32    1.19
   3  -7  -6    1.44    0.62
  -3   7   6   -0.54    0.84
  -3   7   6    0.54    0.98
  -3   7   6    0.81    0.91
  -3   7   6   -0.56    0.53
   2  -7  -6    0.58    0.67
  -2   7   6   -0.56    0.53
  -2   7   6    0.12    1.49
  -2   7   6    1.40    0.91
   1  -7  -6    0.65    0.69
  -1   7   6    0.53    0.63
  -1   7   6    1.30    1.04
   0  -7  -6    0.92    0.76
   0   7   6    0.13    0.67
   0   7   6    0.73    1.15
  -1  -7  -6    3.61    1.04
   1   7   6    5.46    1.66
   1   7   6    6.66    1.19
  -2  -7  -6   -0.94    0.99
   2   7   6    0.69    0.97
   2   7   6   -0.63    1.60
  -6   8   6    0.61    1.24
  -5   8   6    0.41    1.15
  -4   8   6    0.00    1.04
  -4   8   6    1.11    0.57
   3  -8  -6    6.72    1.21
  -3   8   6    6.87    1.62
  -3   8   6    8.68    1.37
   2  -8  -6   -0.45    0.75
  -2   8   6   -0.90    0.73
  -2   8   6    1.55    1.31
   1  -8  -6    2.29    0.96
  -1   8   6    1.35    0.91
  -1   8   6    2.41    1.43
   0  -8  -6    1.93    0.98
   0   8   6    0.48    0.96
   0   8   6    0.22    1.64
   1  11  -7    2.29    1.25
   1  11  -7    4.77    2.43
  -1 -11   7    4.56    1.06
   0  11  -7   22.93    4.40
   0  11  -7   26.90    3.07
   0 -11   7   21.90    2.79
  -1  11  -7    9.64    2.32
  -1  11  -7    8.76    1.50
   1 -11   7    7.31    1.29
  -2  11  -7    4.03    1.88
  -3  11  -7    5.73    1.12
  -3  11  -7    7.97    2.12
  -4  11  -7    3.80    1.89
  -4  11  -7    2.60    0.73
   4  10  -7    3.77    1.40
   4  10  -7    5.73    2.67
  -4 -10   7    2.09    1.13
   3  10  -7    4.08    1.26
   3  10  -7    0.69    2.16
  -3 -10   7    2.75    0.98
  -3 -10   7    2.87    2.21
   2  10  -7    0.14    0.99
   2  10  -7    0.33    1.92
  -2 -10   7    3.30    2.00
  -2 -10   7    0.83    0.81
   1  10  -7    5.46    1.12
   1  10  -7    2.60    1.84
  -1 -10   7    4.77    1.99
  -1 -10   7    3.73    0.91
   0  10  -7    5.65    1.80
   0  10  -7    3.66    0.93
   0 -10   7    4.60    0.91
   0 -10   7    3.34    1.73
  -1  10  -7    9.87    1.65
  -1  10  -7   12.84    2.28
   1 -10   7    8.61    1.48
   1 -10   7   12.13    2.01
  -2  10  -7    9.84    1.59
  -2  10  -7   15.21    2.79
   2 -10   7    7.54    1.80
  -3  10  -7    0.57    1.40
  -3  10  -7    1.55    0.63
  -4  10  -7    3.92    0.77
  -4  10  -7    7.16    1.73
  -5  10  -7    0.22    0.46
  -5  10  -7    0.17    1.49
  -6  10  -7   10.56    1.37
   5   9  -7    0.92    1.17
  -5  -9   7   -5.19    1.98
  -5  -9   7   -2.58    3.07
   4   9  -7    0.82    1.03
   4   9  -7   -0.88    1.91
  -4  -9   7    0.38    0.76
  -4  -9   7    0.58    1.74
  -4  -9   7    0.19    2.79
   3   9  -7    1.65    0.93
   3   9  -7    1.91    1.67
  -3  -9   7    2.54    2.48
  -3  -9   7    4.74    1.76
  -3  -9   7    1.35    0.74
   2   9  -7   27.13    3.92
   2   9  -7   24.90    3.00
   2   9  -7   22.93    4.39
  -2  -9   7   25.66    2.82
  -2  -9   7   28.18    3.85
   1   9  -7    1.28    0.74
   1   9  -7    7.41    1.85
   1   9  -7    2.46    2.53
   1   9  -7    1.50    1.36
  -1  -9   7    1.34    0.62
  -1  -9   7    2.69    1.50
  -1  -9   7    2.26    2.03
   0   9  -7    0.93    1.19
   0   9  -7    2.02    1.63
   0   9  -7    1.70    2.24
   0   9  -7    0.61    0.61
   0  -9   7   -1.12    1.59
   0  -9   7    1.33    1.27
   0  -9   7    0.95    0.56
  -1   9  -7    0.92    2.00
  -1   9  -7    0.24    1.15
  -1   9  -7   -1.11    1.46
  -1   9  -7    1.19    0.59
   1  -9   7   -0.05    0.47
   1  -9   7   -1.44    1.07
   1  -9   7   -0.73    1.65
   1  -9   7    1.20    0.72
  -2   9  -7   -0.11    1.11
  -2   9  -7    2.14    2.15
  -2   9  -7   -2.01    1.35
  -2   9  -7    0.26    0.55
   2  -9   7   -0.60    1.36
   2  -9   7   -0.08    0.96
  -3   9  -7    0.48    0.44
  -3   9  -7    1.06    1.56
  -3   9  -7   -0.58    1.06
   3  -9   7    0.67    1.30
   3  -9   7   -1.14    0.91
  -4   9  -7    0.02    0.40
  -4   9  -7    1.63    1.16
   4  -9   7    0.92    0.85
  -5   9  -7    6.35    1.57
  -5   9  -7    3.05    0.59
  -6   9  -7    0.77    0.42
  -6   9  -7   -0.35    1.43
  -7   9  -7   11.16    1.59
   6   8  -7    2.18    2.36
  -6  -8   7    2.33    0.94
  -6  -8   7   -2.71    2.87
  -6  -8   7    3.96    1.20
  -6  -8   7    0.14    2.00
   5   8  -7    1.53    2.01
   5   8  -7    1.32    0.99
  -5  -8   7    0.93    1.64
  -5  -8   7    2.19    4.15
  -5  -8   7    1.10    0.76
  -5  -8   7    2.27    0.97
   4   8  -7    1.19    1.58
   4   8  -7    2.94    0.93
  -4  -8   7    2.54    0.77
  -4  -8   7    1.01    2.06
  -4  -8   7    4.28    1.54
   3   8  -7   29.62    4.38
   3   8  -7   35.94    3.71
   3   8  -7   32.64    5.75
  -3  -8   7   37.61    4.32
  -3  -8   7   34.32    3.57
   2   8  -7    2.00    1.41
   2   8  -7   -1.58    2.02
   2   8  -7   -0.06    0.59
   2   8  -7   -0.46    1.15
  -2  -8   7   -1.71    1.57
  -2  -8   7    0.38    0.45
  -2  -8   7    0.28    1.08
   1   8  -7   -0.20    0.50
   1   8  -7   -0.11    1.13
   1   8  -7   -1.55    1.24
   1   8  -7    1.01    1.87
  -1  -8   7   -0.84    1.04
  -1  -8   7   -1.91    1.46
  -1  -8   7   -0.24    0.43
   0   8  -7   11.16    1.47
   0   8  -7   10.09    1.94
   0   8  -7    8.62    2.41
   0   8  -7   10.63    1.91
   0  -8   7   11.81    1.77
   0  -8   7    6.59    2.02
   0  -8   7   11.05    1.32
  -1   8  -7    2.06    0.62
  -1   8  -7    3.77    1.28
  -1   8  -7   -0.79    1.68
  -1   8  -7    3.40    1.22
   1  -8   7    0.93    1.28
   1  -8   7    2.24    0.54
   1  -8   7    1.66    0.93
  -2   8  -7    1.38    1.25
  -2   8  -7    0.42    1.57
  -2   8  -7    1.21    0.50
  -2   8  -7    1.08    1.17
   2  -8   7    0.82    0.88
   2  -8   7    3.93    1.28
  -3   8  -7    0.85    0.39
  -3   8  -7    2.15    1.65
  -3   8  -7   -0.06    0.86
  -3   8  -7    0.29    1.08
   3  -8   7   -1.58    0.70
   3  -8   7   -0.79    1.05
  -4   8  -7    0.61    1.63
  -4   8  -7    0.23    0.33
  -4   8  -7    0.19    0.92
  -4   8  -7   -2.11    1.14
   4  -8   7   -0.62    1.42
   4  -8   7    0.31    0.65
  -5   8  -7    5.58    0.81
   5  -8   7    4.12    0.91
  -6   8  -7   17.55    2.92
  -7   8  -7   16.37    2.21
  -7   8  -7   22.90    2.38
   7   7  -7    8.18    2.78
   7   7  -7    6.59    1.50
  -7  -7   7    9.67    2.24
  -7  -7   7    6.00    2.85
  -7  -7   7   10.38    1.60
   6   7  -7    1.32    1.83
   6   7  -7    1.74    0.97
  -6  -7   7    0.91    2.38
  -6  -7   7    0.92    1.46
  -6  -7   7    1.58    0.89
   5   7  -7    0.31    0.79
   5   7  -7    1.05    1.43
  -5  -7   7   -0.10    1.91
  -5  -7   7   -0.03    0.71
  -5  -7   7    0.29    1.20
  -5  -7   7   -0.66    0.57
  -5  -7   7    0.00    1.96
   4   7  -7    3.19    2.21
   4   7  -7    0.65    1.14
  -4  -7   7    1.87    1.52
  -4  -7   7    0.60    0.51
  -4  -7   7    2.32    0.70
  -4  -7   7    0.73    1.64
   3   7  -7    8.64    1.69
   3   7  -7    5.57    1.55
   3   7  -7    8.45    1.28
   3   7  -7    6.98    2.35
  -3  -7   7    8.65    1.12
  -3  -7   7    8.12    1.61
  -3  -7   7    8.37    1.84
   2   7  -7    4.21    1.25
   2   7  -7    5.77    0.94
   2   7  -7    5.26    1.36
   2   7  -7    2.69    1.70
  -2  -7   7    3.69    1.42
  -2  -7   7    5.32    0.80
  -2  -7   7    5.62    1.29
   1   7  -7   96.10   10.22
   1   7  -7  108.79   10.91
   1   7  -7   99.21    9.85
  -1  -7   7  102.91   10.13
  -1  -7   7  103.30    9.96
  -1  -7   7   93.87   10.26
  -1  -7   7  104.56    9.79
   0   7  -7   46.37    5.15
   0   7  -7   48.58    5.11
   0   7  -7   48.56    4.77
   0  -7   7   49.26    4.85
   0  -7   7   40.30    5.24
   0  -7   7   47.44    5.05
   0  -7   7   49.30    4.70
  -1   7  -7   32.26    3.27
  -1   7  -7   32.21    3.69
  -1   7  -7   35.08    3.76
   1  -7   7   30.80    3.53
   1  -7   7   30.77    3.22
   1  -7   7   29.11    3.89
  -2   7  -7   -0.01    0.43
  -2   7  -7    0.22    0.33
  -2   7  -7    0.64    0.89
  -2   7  -7    0.75    1.28
  -2   7  -7   -0.40    0.71
   2  -7   7   -0.20    0.63
  -3   7  -7    3.16    0.74
  -3   7  -7    5.18    0.76
  -3   7  -7    4.96    1.20
   3  -7   7    5.25    1.22
   3  -7   7    5.38    0.94
  -4   7  -7    0.51    0.29
  -4   7  -7    0.42    0.84
  -4   7  -7    0.25    1.31
   4  -7   7   -0.23    0.54
   4  -7   7    0.72    0.83
  -5   7  -7    1.42    0.35
  -5   7  -7    1.71    1.02
  -5   7  -7   -0.52    1.45
  -5   7  -7    1.19    1.14
   5  -7   7    1.29    0.58
  -6   7  -7   10.92    1.31
   6  -7   7    9.58    1.47
  -7   7  -7    0.52    0.43
  -7   7  -7    0.28    0.55
  -7   7  -7    0.34    0.63
  -8   7  -7    0.37    0.52
  -8   7  -7    1.55    0.71
  -8   7  -7    0.67    0.95
   8   6  -7    8.22    1.64
  -8  -6   7    7.37    1.47
  -8  -6   7    8.26    2.16
  -8  -6   7    1.76    3.00
   7   6  -7    0.08    1.88
   7   6  -7    0.63    0.92
  -7  -6   7   -1.32    0.86
  -7  -6   7   -0.26    2.26
  -7  -6   7    1.97    1.52
   6   6  -7    0.71    1.50
   6   6  -7    1.65    0.77
  -6  -6   7    0.24    1.57
  -6  -6   7   -0.02    0.71
  -6  -6   7    1.29    1.21
  -6  -6   7    0.36    1.89
   5   6  -7   12.51    1.87
   5   6  -7   12.53    2.41
  -5  -6   7   18.56    2.98
  -5  -6   7   15.44    1.86
  -5  -6   7   13.09    2.17
   4   6  -7    3.99    1.34
   4   6  -7    3.27    0.73
  -4  -6   7    3.95    0.76
  -4  -6   7    2.58    1.12
  -4  -6   7    3.77    0.82
  -4  -6   7    1.33    1.43
  -4  -6   7    2.49    1.28
  -4  -6   7    3.19    0.61
   3   6  -7   -0.48    1.39
   3   6  -7    0.25    0.91
   3   6  -7   -0.73    0.43
   3   6  -7    1.18    0.95
  -3  -6   7    0.05    1.24
  -3  -6   7    0.38    0.64
  -3  -6   7    1.81    1.33
  -3  -6   7    1.61    0.94
  -3  -6   7    0.71    0.34
   2   6  -7    0.75    0.80
   2   6  -7    1.46    0.50
   2   6  -7    1.19    0.89
   2   6  -7    1.75    1.31
  -2  -6   7    0.43    0.31
  -2  -6   7    1.73    1.07
  -2  -6   7    0.36    0.51
  -2  -6   7    1.01    0.76
  -2  -6   7    0.63    1.12
   1   6  -7    8.72    1.19
   1   6  -7    9.58    1.57
   1   6  -7    9.49    1.64
   1   6  -7    8.17    1.13
  -1  -6   7    7.69    1.34
  -1  -6   7    7.54    1.63
  -1  -6   7    6.94    1.67
  -1  -6   7    9.36    1.06
  -1  -6   7    9.18    1.30
   0   6  -7   70.25    6.73
   0   6  -7   75.10    7.12
   0   6  -7   70.49    6.72
   0   6  -7   69.07    6.97
   0  -6   7   73.31    6.97
   0  -6   7   65.70    6.77
   0  -6   7   62.41    6.65
   0  -6   7   63.23    7.10
  -1   6  -7  141.32   13.95
  -1   6  -7  138.54   14.19
  -1   6  -7  143.16   14.00
  -1   6  -7  166.88   14.01
   1  -6   7  137.03   14.35
   1  -6   7  146.78   14.17
   1  -6   7  141.38   14.04
  -2   6  -7    5.84    0.82
  -2   6  -7    7.59    1.36
  -2   6  -7    5.42    0.74
  -2   6  -7    2.92    1.20
  -2   6  -7    4.12    1.06
   2  -6   7    4.01    1.20
   2  -6   7    5.29    1.23
   2  -6   7    5.17    1.00
  -3   6  -7    8.05    1.52
  -3   6  -7   10.54    1.13
  -3   6  -7    9.00    1.25
   3  -6   7   10.81    1.40
   3  -6   7    9.27    1.84
   3  -6   7   10.83    1.78
  -4   6  -7    0.58    1.17
  -4   6  -7    1.27    0.94
  -4   6  -7    0.81    0.81
  -4   6  -7   -0.32    0.53
   4  -6   7    0.41    0.65
   4  -6   7    0.06    0.47
  -5   6  -7    6.40    0.82
  -5   6  -7    5.29    1.37
  -5   6  -7    3.36    1.54
   5  -6   7    7.81    1.29
   5  -6   7    8.40    1.10
  -6   6  -7    3.08    0.57
  -6   6  -7    0.05    1.48
  -6   6  -7    1.98    1.23
   6  -6   7    2.92    0.66
   6  -6   7    2.90    0.95
  -7   6  -7    2.21    0.57
  -7   6  -7    1.48    0.44
  -7   6  -7    1.42    0.72
   7  -6   7    3.09    0.75
  -8   6  -7    0.24    0.45
  -8   6  -7    0.35    0.67
  -8   6  -7    1.22    0.97
   9   5  -7   -0.36    1.41
  -9  -5   7   -1.18    2.99
  -9  -5   7   -0.12    1.91
  -9  -5   7    2.10    1.23
   8   5  -7   -0.43    1.07
  -8  -5   7   -1.71    2.15
  -8  -5   7    1.09    0.94
  -8  -5   7    1.09    1.51
   7   5  -7    1.96    1.61
   7   5  -7    0.78    0.84
  -7  -5   7    0.64    1.92
  -7  -5   7   -0.50    0.70
  -7  -5   7    1.59    1.57
  -7  -5   7    0.19    1.15
  -7  -5   7    1.14    1.27
   6   5  -7    6.15    1.68
   6   5  -7    6.60    1.11
  -6  -5   7    4.56    1.13
  -6  -5   7    7.74    1.58
  -6  -5   7    8.63    1.83
  -6  -5   7    8.05    1.14
   5   5  -7    2.32    1.11
   5   5  -7    3.02    0.73
   5   5  -7    4.49    1.72
  -5  -5   7    3.75    0.78
  -5  -5   7    3.18    1.04
  -5  -5   7    3.54    1.21
  -5  -5   7    4.46    0.94
   4   5  -7    3.54    1.00
   4   5  -7    2.39    1.43
   4   5  -7    3.63    1.05
   4   5  -7    3.30    0.67
  -4  -5   7    2.95    0.64
  -4  -5   7    2.10    0.70
  -4  -5   7    3.34    1.29
  -4  -5   7    3.51    1.09
  -4  -5   7    2.61    0.95
   3   5  -7   11.81    1.72
   3   5  -7    7.66    1.92
   3   5  -7   10.75    1.35
   3   5  -7    8.09    1.77
  -3  -5   7   11.71    2.02
  -3  -5   7   12.71    1.25
  -3  -5   7    9.83    1.68
  -3  -5   7   11.97    1.36
  -3  -5   7   11.46    1.46
   2   5  -7    6.97    1.19
   2   5  -7    6.71    1.66
   2   5  -7    7.50    1.39
   2   5  -7    8.10    1.07
   2   5  -7    7.27    1.00
  -2  -5   7    8.51    1.13
  -2  -5   7    7.72    1.45
  -2  -5   7    4.12    1.42
  -2  -5   7    7.65    0.90
  -2  -5   7   10.03    1.47
   1   5  -7   18.17    2.27
   1   5  -7   21.15    1.97
   1   5  -7   17.19    2.27
   1   5  -7   17.97    1.95
  -1  -5   7   17.31    2.00
  -1  -5   7   16.61    2.38
  -1  -5   7   18.38    1.88
  -1  -5   7   17.11    2.23
   0   5  -7    1.24    0.71
   0   5  -7   -0.19    0.85
   0   5  -7    0.59    0.29
   0   5  -7    0.73    0.54
   0   5  -7    0.80    0.38
   0  -5   7   -0.27    0.75
   0  -5   7    1.15    0.56
   0  -5   7    0.42    0.34
   0  -5   7    1.22    0.74
   0  -5   7    1.06    0.30
  -1   5  -7    7.72    1.26
  -1   5  -7   10.54    1.45
  -1   5  -7    7.67    0.98
  -1   5  -7    8.55    0.96
   1  -5   7    7.74    1.11
   1  -5   7    6.66    1.45
   1  -5   7    8.91    1.29
  -2   5  -7  136.88   12.90
  -2   5  -7  153.15   12.91
  -2   5  -7  118.07   13.07
   2  -5   7  127.64   13.26
   2  -5   7  142.99   12.98
   2  -5   7  123.77   13.22
  -3   5  -7   98.23   11.42
  -3   5  -7  126.11   11.41
  -3   5  -7   97.90   11.69
   3  -5   7  116.68   11.83
   3  -5   7  138.12   11.55
   3  -5   7  134.21   11.77
  -4   5  -7    1.55    0.52
  -4   5  -7    1.56    0.83
  -4   5  -7    3.65    0.48
   4  -5   7    2.78    0.59
   4  -5   7    1.90    1.11
  -5   5  -7    3.13    0.74
  -5   5  -7    2.68    1.10
   5  -5   7    5.21    0.78
   5  -5   7    5.92    1.05
  -6   5  -7    0.30    0.46
  -6   5  -7    0.74    0.29
  -6   5  -7    2.35    1.40
  -6   5  -7   -1.48    1.03
  -6   5  -7    0.34    0.36
   6  -5   7    0.96    0.77
   6  -5   7    0.52    0.48
  -7   5  -7   -0.01    0.68
  -7   5  -7    0.48    0.33
  -7   5  -7   -0.80    0.45
   7  -5   7   -0.11    0.58
  -8   5  -7   -0.77    0.97
  -8   5  -7   -0.08    0.39
  -8   5  -7    0.61    0.67
   9   4  -7    0.74    1.23
  -9  -4   7   -0.01    1.04
  -9  -4   7    1.39    1.69
  -9  -4   7    0.54    2.33
   8   4  -7    1.34    1.94
   8   4  -7    1.42    0.95
  -8  -4   7   -1.35    1.86
  -8  -4   7    0.00    1.32
  -8  -4   7   -0.27    0.75
  -8  -4   7    2.34    1.35
   7   4  -7    5.94    1.08
   7   4  -7    7.22    1.78
  -7  -4   7    4.28    1.35
  -7  -4   7    5.53    1.13
  -7  -4   7    7.36    1.88
  -7  -4   7    2.20    1.72
  -7  -4   7    6.41    1.04
   6   4  -7    0.08    1.06
   6   4  -7   -0.33    0.53
  -6  -4   7    1.57    1.24
  -6  -4   7    0.59    0.54
  -6  -4   7   -0.30    0.71
  -6  -4   7    1.49    1.28
  -6  -4   7    0.72    1.06
   5   4  -7   10.22    2.18
   5   4  -7   10.98    1.36
   5   4  -7   12.25    2.09
   5   4  -7   13.34    1.56
   5   4  -7   11.25    1.89
  -5  -4   7   14.19    1.67
  -5  -4   7   11.86    2.04
  -5  -4   7   13.77    1.54
  -5  -4   7   14.31    1.94
   4   4  -7    0.13    0.74
   4   4  -7   -0.97    1.04
   4   4  -7    0.65    0.71
   4   4  -7    0.75    0.39
   4   4  -7    0.59    0.32
  -4  -4   7    0.31    0.47
  -4  -4   7    0.79    0.41
  -4  -4   7   -0.02    0.91
  -4  -4   7    1.29    0.69
  -4  -4   7    1.02    0.86
   3   4  -7    6.01    0.85
   3   4  -7    6.40    0.81
   3   4  -7    5.67    1.09
   3   4  -7    5.74    1.19
  -3  -4   7    6.19    0.71
  -3  -4   7    6.50    0.86
  -3  -4   7    3.36    1.26
  -3  -4   7    5.28    0.87
  -3  -4   7    6.09    1.13
  -3  -4   7    4.19    1.14
   2   4  -7    0.87    0.53
   2   4  -7    1.58    0.68
   2   4  -7    1.27    0.87
   2   4  -7    1.21    0.35
   2   4  -7    0.79    0.35
  -2  -4   7    0.98    0.27
  -2  -4   7    1.17    0.45
  -2  -4   7    0.84    0.72
  -2  -4   7    0.60    0.54
  -2  -4   7    0.34    0.76
   1   4  -7    0.13    0.75
   1   4  -7    0.42    0.59
   1   4  -7    0.65    0.56
   1   4  -7    0.65    0.37
   1   4  -7    0.95    0.30
  -1  -4   7    0.42    0.55
  -1  -4   7    1.02    0.69
  -1  -4   7    1.12    0.26
  -1  -4   7    0.56    0.79
  -1  -4   7    0.64    0.38
   0   4  -7   11.35    1.11
   0   4  -7   12.47    1.55
   0   4  -7    9.35    1.22
   0   4  -7   10.55    1.48
   0   4  -7   10.01    1.16
   0  -4   7    9.08    1.21
   0  -4   7    9.92    1.59
   0  -4   7   10.38    1.44
  -1   4  -7    2.96    0.95
  -1   4  -7    3.53    0.54
  -1   4  -7    5.95    1.06
  -1   4  -7    3.31    0.51
  -1   4  -7    4.08    0.82
   1  -4   7    3.40    0.89
   1  -4   7    4.03    0.63
   1  -4   7    3.64    0.63
   1  -4   7    3.88    0.73
   1  -4   7    2.69    0.82
  -2   4  -7    0.84    0.61
  -2   4  -7    0.81    0.25
  -2   4  -7   -0.47    0.71
  -2   4  -7    1.11    0.56
  -2   4  -7    1.30    0.30
   2  -4   7    1.53    0.79
   2  -4   7    1.19    0.41
   2  -4   7    1.17    0.61
   2  -4   7    1.40    0.34
   2  -4   7    0.39    0.34
  -3   4  -7    2.87    1.09
  -3   4  -7    2.00    0.47
  -3   4  -7    2.95    0.80
  -3   4  -7    2.65    0.43
   3  -4   7    2.95    0.55
   3  -4   7    3.57    0.80
   3  -4   7    3.28    0.99
   3  -4   7    2.90    0.56
   4  -4   7   86.52    8.15
   4  -4   7   91.46    8.34
   4  -4   7   71.75    8.50
  -5   4  -7    1.24    0.43
  -5   4  -7    0.43    0.32
  -5   4  -7   -0.40    0.82
  -5   4  -7   -0.21    1.03
   5  -4   7   -0.08    0.38
   5  -4   7    0.62    0.62
  -6   4  -7   25.94    2.79
  -6   4  -7   26.40    2.64
  -6   4  -7   23.21    2.53
   6  -4   7   26.50    2.70
   6  -4   7   24.82    3.01
  -7   4  -7   -0.37    0.28
  -7   4  -7   -0.17    0.47
  -7   4  -7    0.09    0.75
  -7   4  -7   -0.72    1.37
   7  -4   7   -0.22    0.58
   7  -4   7   -1.95    1.06
  -8   4  -7    0.15    0.73
  -8   4  -7    1.07    0.43
  -8   4  -7   -0.73    1.06
   8  -4   7   -0.78    0.81
 -10  -3   7   -0.57    2.67
 -10  -3   7   -0.39    1.22
 -10  -3   7    3.23    1.79
   9   3  -7    7.91    1.34
  -9  -3   7    1.28    2.30
  -9  -3   7    5.55    1.22
  -9  -3   7    5.72    1.65
   8   3  -7   16.81    2.31
   8   3  -7   17.76    3.29
  -8  -3   7   17.50    3.18
  -8  -3   7   21.02    2.43
  -8  -3   7   17.22    2.24
  -8  -3   7   17.03    2.76
   7   3  -7    1.18    0.66
   7   3  -7   -0.95    1.17
  -7  -3   7    0.69    0.75
  -7  -3   7    0.58    0.97
  -7  -3   7   -1.35    1.28
  -7  -3   7   -0.52    1.15
   6   3  -7   15.68    2.50
   6   3  -7   16.21    1.88
  -6  -3   7   16.13    1.95
  -6  -3   7   16.50    2.42
  -6  -3   7   13.79    2.21
  -6  -3   7   16.25    1.85
   5   3  -7    5.02    0.82
   5   3  -7    6.28    0.71
   5   3  -7    4.73    1.15
   5   3  -7    4.12    1.33
  -5  -3   7    3.95    1.34
  -5  -3   7    7.28    1.02
  -5  -3   7    5.12    1.10
  -5  -3   7    5.07    1.18
   4   3  -7    2.15    1.04
   4   3  -7    4.02    0.64
   4   3  -7    3.80    0.83
   4   3  -7    4.68    0.58
   4   3  -7    3.43    1.05
  -4  -3   7    4.53    0.95
  -4  -3   7    4.46    0.72
  -4  -3   7    5.25    0.75
  -4  -3   7    2.04    0.94
  -4  -3   7    4.09    1.50
   3   3  -7    6.31    0.68
   3   3  -7    3.32    1.09
   3   3  -7    4.98    0.72
   3   3  -7    4.48    1.03
   3   3  -7    4.26    0.89
  -3  -3   7    5.68    0.75
  -3  -3   7    4.76    1.12
  -3  -3   7    2.68    1.05
  -3  -3   7    6.17    1.09
  -3  -3   7    4.11    0.76
   2   3  -7    1.63    0.57
   2   3  -7    1.52    0.65
   2   3  -7    3.06    0.45
   2   3  -7    1.02    0.79
   2   3  -7    2.43    0.45
  -2  -3   7    2.85    0.72
  -2  -3   7    2.59    0.37
  -2  -3   7    1.55    0.81
  -2  -3   7    2.89    0.81
  -2  -3   7    2.02    0.44
   1   3  -7    1.76    0.37
   1   3  -7    0.79    0.27
   1   3  -7    1.42    0.57
   1   3  -7    0.93    0.46
   1   3  -7    0.64    0.69
  -1  -3   7    1.24    0.61
  -1  -3   7    1.73    0.27
  -1  -3   7    2.01    0.44
  -1  -3   7    1.20    0.51
  -1  -3   7    1.03    0.69
   0   3  -7   70.38    6.73
   0   3  -7   72.49    6.75
   0   3  -7   61.61    6.86
   0   3  -7   73.22    6.67
   0  -3   7   67.95    6.87
   0  -3   7   67.76    6.77
   0  -3   7   76.07    6.86
   0  -3   7   64.63    7.00
  -1   3  -7    4.26    1.13
  -1   3  -7    6.55    0.74
  -1   3  -7    4.95    0.98
  -1   3  -7    6.54    0.72
   1  -3   7    6.93    0.87
   1  -3   7    5.92    1.17
   1  -3   7    7.18    1.28
   1  -3   7    6.62    0.85
   1  -3   7    8.11    0.98
  -2   3  -7    3.42    0.46
  -2   3  -7    2.02    0.68
  -2   3  -7    3.07    0.42
  -2   3  -7    2.99    0.96
   2  -3   7    2.71    0.49
   2  -3   7    2.63    0.91
   2  -3   7    2.46    0.50
   2  -3   7    3.74    0.61
   2  -3   7    1.83    0.57
  -3   3  -7   -0.09    0.53
  -3   3  -7    0.00    0.14
  -3   3  -7    0.27    0.62
  -3   3  -7   -0.47    0.72
   3  -3   7   -0.11    0.35
   3  -3   7   -0.06    0.27
   3  -3   7   -0.03    0.36
   3  -3   7    0.75    0.72
  -4   3  -7    0.75    0.88
  -4   3  -7    1.72    0.43
  -4   3  -7    0.44    0.59
  -4   3  -7    1.16    0.77
  -4   3  -7    1.28    0.33
   4  -3   7    0.80    0.33
   4  -3   7    1.71    0.49
   4  -3   7    0.95    0.57
   4  -3   7    3.00    1.11
  -5   3  -7    1.34    0.88
  -5   3  -7    1.83    0.63
  -5   3  -7    1.12    0.39
  -5   3  -7    1.60    0.33
  -5   3  -7    1.60    0.52
   5  -3   7    2.48    0.76
   5  -3   7    1.74    0.49
  -6   3  -7    8.79    1.46
  -6   3  -7    7.74    0.95
  -6   3  -7    6.12    1.38
  -6   3  -7    8.19    1.11
  -6   3  -7    8.06    1.91
  -6   3  -7    7.73    1.33
   6  -3   7    8.35    1.20
   6  -3   7    8.33    1.42
  -7   3  -7    0.35    1.31
  -7   3  -7    1.84    1.60
  -7   3  -7    4.37    0.81
  -7   3  -7    5.58    1.18
   7  -3   7    2.31    1.19
   7  -3   7    3.41    0.78
  -8   3  -7   -0.45    0.77
  -8   3  -7   -0.44    1.19
  -8   3  -7   -0.65    0.41
   8  -3   7   -0.47    0.82
 -10  -2   7   -0.92    2.31
 -10  -2   7    4.30    1.65
 -10  -2   7    2.95    1.14
   9   2  -7   -0.84    0.93
  -9  -2   7    0.84    0.78
  -9  -2   7    0.37    1.78
  -9  -2   7   -0.48    1.22
   8   2  -7   -0.62    0.68
  -8  -2   7    0.04    1.43
  -8  -2   7   -0.06    0.74
  -8  -2   7    1.23    1.22
  -8  -2   7    1.14    0.67
  -8  -2   7   -0.91    1.01
   7   2  -7    0.19    1.09
   7   2  -7    0.13    0.53
  -7  -2   7   -0.12    0.50
  -7  -2   7    0.53    0.60
  -7  -2   7   -0.42    0.84
  -7  -2   7    0.91    1.00
   6   2  -7    7.02    1.42
   6   2  -7    9.53    1.41
   6   2  -7    7.81    1.17
  -6  -2   7    8.24    1.16
  -6  -2   7    5.70    1.68
  -6  -2   7    9.05    1.72
  -6  -2   7   11.27    1.26
  -6  -2   7    7.98    1.42
   5   2  -7    6.16    0.99
   5   2  -7    4.93    0.63
   5   2  -7    4.30    1.11
   5   2  -7    4.42    1.04
   5   2  -7    5.28    0.84
  -5  -2   7    5.92    0.79
  -5  -2   7    4.59    1.07
  -5  -2   7    6.20    0.92
  -5  -2   7    4.88    1.07
   4   2  -7    0.56    0.55
   4   2  -7    0.47    0.28
   4   2  -7    1.24    0.54
   4   2  -7    1.00    0.24
   4   2  -7    0.02    0.75
  -4  -2   7    0.61    0.31
  -4  -2   7    1.40    0.44
  -4  -2   7    0.58    0.62
  -4  -2   7    1.22    0.53
  -4  -2   7    0.43    0.72
   3   2  -7   -0.03    0.23
   3   2  -7    0.45    0.71
   3   2  -7   -0.04    0.19
   3   2  -7    0.43    0.46
   3   2  -7   -0.25    0.43
  -3  -2   7   -0.35    0.56
  -3  -2   7    0.12    0.26
  -3  -2   7    0.09    0.28
  -3  -2   7    0.26    0.44
  -3  -2   7   -0.13    0.47
   2   2  -7   18.82    2.24
   2   2  -7   19.49    2.07
   2   2  -7   20.16    2.04
  -2  -2   7   18.74    2.35
  -2  -2   7   22.91    2.29
  -2  -2   7   22.50    2.13
   1   2  -7    9.47    0.97
   1   2  -7    7.09    1.15
   1   2  -7    8.53    0.94
  -1  -2   7    9.30    1.15
  -1  -2   7    8.39    1.36
  -1  -2   7    8.98    1.02
  -1  -2   7    7.00    1.27
   0   2  -7   30.07    3.49
   0   2  -7   38.06    3.35
   0  -2   7   30.14    3.62
   0  -2   7   36.07    3.40
   0  -2   7   34.21    3.65
  -1   2  -7   28.51    2.82
   1  -2   7   26.43    2.88
   1  -2   7   27.14    3.34
   1  -2   7   28.81    2.93
   1  -2   7   28.41    3.10
   1  -2   7   32.34    2.94
  -2   2  -7    0.70    0.59
  -2   2  -7    2.09    0.35
  -2   2  -7    2.09    0.81
   2  -2   7    1.73    0.50
   2  -2   7    3.52    0.78
   2  -2   7    2.03    0.50
   2  -2   7    2.13    0.41
   2  -2   7    3.42    0.53
  -3   2  -7   32.48    3.84
  -3   2  -7   37.46    3.64
  -3   2  -7   35.74    3.77
   3  -2   7   41.24    3.70
   3  -2   7   36.59    3.70
  -4   2  -7    2.55    1.17
  -4   2  -7    3.24    0.47
  -4   2  -7    3.45    0.56
  -4   2  -7    3.25    0.74
  -4   2  -7    3.77    0.91
  -4   2  -7    3.47    0.68
   4  -2   7    4.60    1.31
   4  -2   7    4.59    0.81
   4  -2   7    4.04    0.67
   4  -2   7    4.30    0.70
  -5   2  -7   14.47    2.64
  -5   2  -7   18.97    1.79
  -5   2  -7   17.90    1.92
  -5   2  -7   13.79    2.28
  -5   2  -7   15.80    2.10
  -5   2  -7   16.77    2.10
   5  -2   7   20.86    2.26
   5  -2   7   18.68    1.96
  -6   2  -7    0.59    1.00
  -6   2  -7    0.72    0.78
  -6   2  -7    0.06    0.79
  -6   2  -7    1.20    1.33
  -6   2  -7    0.41    0.45
   6  -2   7    0.05    0.81
   6  -2   7    0.66    0.53
  -7   2  -7   -0.10    1.05
  -7   2  -7    0.23    1.79
  -7   2  -7    0.98    0.68
  -7   2  -7    0.08    0.34
  -7   2  -7   -0.18    1.12
   7  -2   7    1.99    1.15
   7  -2   7    0.46    0.60
  -8   2  -7    2.17    1.61
  -8   2  -7    1.89    0.53
  -8   2  -7    0.64    0.94
 -10  -1   7    1.46    0.99
 -10  -1   7    3.43    1.46
 -10  -1   7   -0.19    2.02
   9   1  -7    0.49    0.89
  -9  -1   7   -1.97    1.62
  -9  -1   7    0.03    0.70
  -9  -1   7    0.79    1.17
   8   1  -7    2.14    0.78
   8   1  -7    1.94    1.27
  -8  -1   7    1.86    1.02
  -8  -1   7    1.34    1.32
  -8  -1   7    2.59    1.04
  -8  -1   7    1.06    0.65
   7   1  -7    0.86    0.97
   7   1  -7   -0.02    0.57
   7   1  -7   -0.02    0.26
  -7  -1   7   -0.05    0.50
  -7  -1   7   -0.44    1.09
  -7  -1   7   -0.71    0.76
  -7  -1   7   -0.11    0.80
  -7  -1   7    0.27    0.46
   6   1  -7   34.46    3.80
   6   1  -7   29.68    3.54
  -6  -1   7   31.68    3.71
  -6  -1   7   36.13    3.84
  -6  -1   7   38.44    3.50
  -6  -1   7   36.48    3.53
   5   1  -7   76.72    8.38
   5   1  -7   92.67    8.57
  -5  -1   7   91.14    8.54
  -5  -1   7   86.20    8.36
  -5  -1   7   93.25    8.32
  -5  -1   7   75.76    8.56
   4   1  -7   13.27    1.24
   4   1  -7   11.18    1.51
  -4  -1   7   12.04    1.34
  -4  -1   7   11.54    1.39
  -4  -1   7   12.05    1.56
  -4  -1   7   11.51    1.69
   3   1  -7   16.02    2.02
   3   1  -7   17.90    1.80
   3   1  -7   21.29    1.88
  -3  -1   7   15.82    2.13
  -3  -1   7   16.96    1.92
  -3  -1   7   20.12    2.08
  -3  -1   7   19.17    1.87
   2   1  -7    9.61    0.98
   2   1  -7    8.26    1.19
   2   1  -7    9.33    0.95
  -2  -1   7    7.71    1.29
  -2  -1   7    6.58    1.32
  -2  -1   7    9.29    1.05
  -2  -1   7   11.64    1.20
   1   1  -7    8.81    0.93
   1   1  -7    8.16    0.93
   1   1  -7    7.53    1.14
  -1  -1   7    8.07    1.24
  -1  -1   7    9.06    1.30
  -1  -1   7    7.83    0.99
  -1  -1   7   10.91    1.19
  -1  -1   7    9.52    1.08
   0   1  -7    0.80    0.45
   0   1  -7   -0.29    0.50
   0   1  -7    0.49    0.17
   0   1  -7    0.98    0.50
   0  -1   7    0.29    0.31
   0  -1   7    0.45    0.24
   0  -1   7    0.68    0.29
   0  -1   7   -0.04    0.38
   0  -1   7    0.56    0.47
  -1   1  -7   27.44    3.11
  -1   1  -7   29.79    3.31
   1  -1   7   34.57    3.21
   1  -1   7   30.95    3.18
   1  -1   7   37.53    3.39
   1  -1   7   32.28    3.26
  -2   1  -7   91.35    8.28
  -2   1  -7   79.91    8.32
  -2   1  -7   71.38    8.12
  -2   1  -7   82.57    8.19
  -2   1  -7   75.67    8.33
   2  -1   7   82.80    8.31
   2  -1   7   88.81    8.24
   2  -1   7   95.85    8.25
   2  -1   7   97.87    8.42
  -3   1  -7   75.38    7.43
  -3   1  -7   70.94    7.61
  -3   1  -7   75.14    7.51
  -3   1  -7   70.70    7.65
  -3   1  -7   84.20    7.63
   3  -1   7   86.65    7.73
   3  -1   7   79.85    7.55
   3  -1   7   77.08    7.54
  -4   1  -7   20.18    2.18
  -4   1  -7   22.87    2.31
  -4   1  -7   21.66    2.95
  -4   1  -7   22.04    2.55
  -4   1  -7   23.25    2.50
  -4   1  -7   22.36    2.48
   4  -1   7   22.07    2.32
   4  -1   7   22.23    2.54
   4  -1   7   22.07    2.32
  -5   1  -7    0.40    1.14
  -5   1  -7    0.35    0.65
  -5   1  -7    0.29    0.23
  -5   1  -7    0.89    0.70
  -5   1  -7    0.89    0.75
  -5   1  -7    0.78    0.44
   5  -1   7   -0.02    0.44
   5  -1   7    0.49    1.29
   5  -1   7    0.17    0.71
  -6   1  -7    1.01    0.94
  -6   1  -7    0.46    0.95
  -6   1  -7    1.09    0.58
  -6   1  -7    1.01    1.45
   6  -1   7   -0.06    0.86
   6  -1   7    0.61    0.58
  -7   1  -7    3.74    1.57
  -7   1  -7    3.27    0.58
  -7   1  -7    3.67    0.92
   7  -1   7    4.99    1.46
  -8   1  -7   -0.19    1.02
  -8   1  -7    0.44    0.53
  -8   1  -7    0.35    1.87
   8  -1   7    0.93    1.05
 -10   0   7    8.87    1.63
 -10   0   7    4.91    2.15
  -9   0   7    1.12    1.56
  -9   0   7    0.91    1.17
  -9   0   7    0.07    0.63
  -9   0   7    1.19    1.04
   8   0  -7   -0.05    0.97
   8   0  -7    1.11    0.52
  -8   0   7    0.79    0.53
  -8   0   7    1.52    0.90
  -8   0   7    1.08    0.94
  -8   0   7    1.00    0.52
  -8   0   7   -0.35    1.20
   7   0  -7    1.56    0.78
   7   0  -7   -0.03    0.46
   7   0  -7    0.71    0.37
   7   0  -7    0.11    0.25
  -7   0   7    0.35    0.68
  -7   0   7   -0.09    0.76
  -7   0   7    0.15    0.43
  -7   0   7    0.19    0.40
  -7   0   7   -0.15    1.03
   6   0  -7    1.58    0.50
   6   0  -7    1.66    0.37
   6   0  -7    0.47    0.61
   6   0  -7    0.88    0.73
   6   0  -7    1.56    0.27
  -6   0   7    1.46    0.44
  -6   0   7    0.82    0.90
  -6   0   7    0.44    0.61
  -6   0   7    1.65    0.76
  -6   0   7    1.25    0.39
   5   0  -7   -0.49    0.63
   5   0  -7    0.05    0.46
   5   0  -7    0.56    0.25
   5   0  -7    0.40    0.45
   5   0  -7    0.61    0.17
  -5   0   7    0.37    0.68
  -5   0   7    0.24    0.31
  -5   0   7   -0.50    0.57
  -5   0   7   -0.07    0.46
  -5   0   7    0.36    0.35
   4   0  -7    1.74    0.54
   4   0  -7    0.77    0.21
   4   0  -7    0.19    0.45
   4   0  -7    1.08    0.17
   4   0  -7    0.47    0.64
  -4   0   7    0.74    0.30
  -4   0   7    0.23    0.40
  -4   0   7    0.87    0.53
  -4   0   7    0.57    0.29
  -4   0   7    0.30    0.57
   3   0  -7   29.98    2.74
   3   0  -7   23.67    2.87
  -3   0   7   32.53    2.89
  -3   0   7   25.07    2.98
  -3   0   7   27.63    2.74
  -3   0   7   27.60    2.79
   2   0  -7   76.22    7.62
   2   0  -7   83.63    7.47
   2   0  -7   68.42    7.63
  -2   0   7   81.99    7.61
  -2   0   7   72.52    7.56
  -2   0   7   75.40    7.75
  -2   0   7   89.64    7.78
   1   0  -7    0.16    0.11
   1   0  -7    0.15    0.39
   1   0  -7    0.36    0.38
   1   0  -7    0.34    0.51
  -1   0   7    0.42    0.33
  -1   0   7    0.18    0.21
  -1   0   7    0.27    0.23
  -1   0   7    0.25    0.44
  -1   0   7    0.36    0.36
   0   0  -7    8.84    1.56
   0   0  -7   10.07    1.40
   0   0   7   11.75    1.41
   0   0   7   13.09    1.29
   0   0   7   12.22    1.26
   0   0   7   12.82    1.44
  -1   0  -7    7.31    1.12
  -1   0  -7    7.01    0.88
  -1   0  -7    6.30    0.69
  -1   0  -7    7.37    0.80
  -1   0  -7    5.38    0.98
   1   0   7    7.71    1.02
   1   0   7    5.42    0.96
   1   0   7    7.39    0.84
   1   0   7    7.99    0.85
  -2   0  -7   -0.24    0.46
  -2   0  -7   -0.20    0.20
  -2   0  -7   -0.10    0.11
  -2   0  -7   -0.28    0.31
  -2   0  -7   -0.33    0.67
  -2   0  -7    0.14    0.44
   2   0   7    0.42    0.42
   2   0   7   -0.26    0.23
   2   0   7   -0.34    0.64
   2   0   7    0.00    0.37
   2   0   7    0.07    0.25
  -3   0  -7   12.59    1.37
  -3   0  -7   10.94    1.94
  -3   0  -7   13.11    1.62
  -3   0  -7   12.26    1.56
  -3   0  -7   11.35    1.22
  -3   0  -7   11.65    1.58
   3   0   7   10.80    1.37
   3   0   7   13.12    1.37
   3   0   7   12.01    1.61
  -4   0  -7    3.83    0.93
  -4   0  -7    4.15    0.56
  -4   0  -7    4.65    1.27
  -4   0  -7    5.04    0.99
  -4   0  -7    4.55    0.76
  -4   0  -7    3.92    0.84
   4   0   7    3.26    0.88
   4   0   7    4.09    0.72
   4   0   7    5.04    0.77
   4   0   7    8.61    2.11
  -5   0  -7   10.05    1.09
  -5   0  -7    6.70    1.47
  -5   0  -7   10.29    1.81
  -5   0  -7   10.70    1.90
  -5   0  -7    8.59    1.79
   5   0   7   11.79    1.42
   5   0   7    9.57    1.79
  -6   0  -7   15.17    2.01
  -6   0  -7   18.41    2.76
  -6   0  -7   13.18    2.53
   6   0   7   13.27    2.47
  -7   0  -7    0.73    0.47
  -7   0  -7    0.00    0.92
  -7   0  -7   -2.11    1.53
   7   0   7   -0.03    1.49
   7   0   7   -0.38    0.76
  -8   0  -7    1.99    0.67
  -8   0  -7    2.96    2.33
  -8   0  -7    0.96    1.33
   8   0   7    0.32    1.15
 -10   1   7    3.55    1.69
 -10   1   7   -0.29    1.02
 -10   1   7    0.34    0.78
  -9   1   7    2.91    1.00
  -9   1   7    3.76    0.98
  -9   1   7    2.70    1.50
  -9   1   7    4.82    0.80
   8  -1  -7    3.69    0.58
   8  -1  -7    4.09    0.56
   8  -1  -7    3.20    0.55
  -8   1   7    3.63    0.63
  -8   1   7    0.52    1.19
  -8   1   7    2.70    0.89
  -8   1   7    3.16    0.86
  -8   1   7    3.03    0.57
   7  -1  -7    9.34    1.31
   7  -1  -7   10.13    1.23
   7  -1  -7   11.09    1.15
  -7   1   7    9.06    1.63
  -7   1   7   11.47    1.26
  -7   1   7   11.83    1.24
  -7   1   7   10.18    1.49
   6  -1  -7    1.82    0.43
   6  -1  -7    0.91    0.60
   6  -1  -7    3.19    0.60
   6  -1  -7    1.66    0.28
   6  -1  -7    1.49    0.28
  -6   1   7    1.51    0.40
  -6   1   7    0.54    0.52
  -6   1   7    1.42    0.83
  -6   1   7    1.07    0.75
  -6   1   7    1.56    0.39
   5  -1  -7    1.20    0.26
   5  -1  -7    0.95    0.42
   5  -1  -7    1.02    0.60
  -5   1   7    2.33    0.41
  -5   1   7    0.72    0.70
  -5   1   7    0.97    0.32
  -5   1   7    1.67    0.65
  -5   1   7    0.93    0.40
  -5   1   7    1.26    0.34
   4  -1  -7    0.19    0.12
   4  -1  -7    0.15    0.10
   4  -1  -7    0.09    0.41
   4  -1  -7    0.18    0.59
   4  -1  -7    0.61    0.43
  -4   1   7   -0.20    0.50
  -4   1   7    0.17    0.21
  -4   1   7    0.19    0.44
  -4   1   7    0.61    0.29
  -4   1   7    0.30    0.33
  -4   1   7    0.46    0.53
   3  -1  -7    4.38    0.82
   3  -1  -7    6.97    0.66
  -3   1   7    6.98    1.06
  -3   1   7    6.64    1.02
  -3   1   7    6.37    0.77
  -3   1   7    5.00    0.95
  -3   1   7    5.98    0.77
   2  -1  -7   -0.20    0.53
   2  -1  -7    0.62    0.22
   2  -1  -7    0.58    0.41
  -2   1   7    0.35    0.20
  -2   1   7    0.16    0.22
  -2   1   7    0.47    0.32
  -2   1   7    0.50    0.43
  -2   1   7    0.62    0.37
   1  -1  -7   15.72    1.67
   1  -1  -7   19.54    1.79
   1  -1  -7   18.26    1.72
   1  -1  -7   16.38    1.88
  -1   1   7   13.82    1.72
  -1   1   7   16.20    1.86
  -1   1   7   19.15    1.95
  -1   1   7   17.57    1.75
   0  -1  -7    5.15    0.83
   0  -1  -7    5.72    0.78
   0  -1  -7    5.67    0.66
   0  -1  -7    4.80    0.95
   0   1   7    4.79    0.66
   0   1   7    5.06    0.89
   0   1   7    4.64    0.66
   0   1   7    5.20    0.82
  -1  -1  -7    2.95    0.62
  -1  -1  -7    2.89    0.34
  -1  -1  -7    2.41    0.43
  -1  -1  -7    3.18    0.65
  -1  -1  -7    1.66    0.64
  -1  -1  -7    2.45    0.78
   1   1   7    3.22    0.62
   1   1   7    1.85    0.39
   1   1   7    3.51    0.53
   1   1   7    2.91    0.65
  -2  -1  -7    5.48    1.00
  -2  -1  -7    4.39    0.84
  -2  -1  -7    6.30    0.67
  -2  -1  -7    6.29    1.14
  -2  -1  -7    5.17    1.18
  -2  -1  -7    6.34    0.87
   2   1   7    6.55    1.12
   2   1   7    6.49    0.83
   2   1   7    6.28    0.87
   2   1   7    8.18    1.15
  -3  -1  -7    0.61    0.61
  -3  -1  -7   -0.60    0.83
  -3  -1  -7    0.46    0.70
  -3  -1  -7    1.14    0.65
  -3  -1  -7   -0.16    0.38
  -3  -1  -7    0.15    0.19
   3   1   7   -0.94    0.99
   3   1   7    0.32    0.39
   3   1   7    0.58    0.37
   3   1   7    0.07    0.54
  -4  -1  -7    1.28    0.32
  -4  -1  -7    2.37    1.16
  -4  -1  -7    1.80    0.98
  -4  -1  -7    1.81    0.64
   4   1   7    1.64    0.53
   4   1   7    2.41    0.80
   4   1   7    3.98    1.55
   4   1   7    1.41    0.55
  -5  -1  -7   11.79    1.69
  -5  -1  -7   15.63    2.67
  -5  -1  -7   13.19    2.37
  -5  -1  -7   10.51    1.27
   5   1   7   11.48    1.59
   5   1   7   10.05    1.85
  -6  -1  -7    6.37    1.23
  -6  -1  -7    5.96    1.81
  -6  -1  -7    6.64    1.02
   6   1   7    8.50    1.33
   6   1   7    7.38    1.82
  -7  -1  -7    4.79    0.87
  -7  -1  -7    6.47    1.45
  -7  -1  -7    7.25    2.29
   7   1   7    5.89    1.40
   7   1   7    7.16    2.16
 -10   2   7   -0.54    1.31
 -10   2   7    0.19    0.78
 -10   2   7   -0.79    0.68
  -9   2   7    0.53    0.34
  -9   2   7    0.83    1.06
  -9   2   7    0.70    0.60
  -9   2   7   -0.93    0.52
  -8   2   7    0.63    0.44
  -8   2   7   -0.09    0.30
  -8   2   7   -0.47    0.54
  -8   2   7    0.33    0.85
  -8   2   7   -0.45    0.39
  -7   2   7   -0.25    0.31
  -7   2   7    0.65    0.67
  -7   2   7   -0.33    0.53
  -7   2   7   -0.53    0.55
  -7   2   7    0.12    0.32
   6  -2  -7    5.05    0.66
  -6   2   7    5.83    0.91
  -6   2   7    4.58    0.74
  -6   2   7    6.38    1.00
  -6   2   7    6.24    0.75
  -6   2   7    5.72    0.70
  -6   2   7    4.78    0.90
   5  -2  -7    0.32    0.34
  -5   2   7   -0.12    0.28
  -5   2   7    0.08    0.37
  -5   2   7   -0.43    0.25
  -5   2   7   -0.23    0.38
  -5   2   7    0.57    0.62
  -5   2   7   -0.25    0.56
  -5   2   7    0.06    0.20
   4  -2  -7    0.93    0.18
   4  -2  -7    0.48    0.24
   4  -2  -7    0.71    0.59
   4  -2  -7    0.42    0.41
  -4   2   7    0.59    0.35
  -4   2   7    0.52    0.30
  -4   2   7    0.83    0.62
  -4   2   7    0.98    0.23
  -4   2   7    1.26    0.56
  -4   2   7    0.98    0.32
   3  -2  -7    0.18    0.16
   3  -2  -7   -0.48    0.63
   3  -2  -7   -0.22    0.40
   3  -2  -7    0.24    0.24
  -3   2   7   -0.53    0.36
  -3   2   7   -0.13    0.26
  -3   2   7    0.30    0.17
  -3   2   7   -0.03    0.23
  -3   2   7    0.19    0.77
   2  -2  -7   -0.11    0.27
   2  -2  -7    0.00    0.43
   2  -2  -7    0.19    0.18
   2  -2  -7   -0.47    0.60
  -2   2   7    0.21    0.18
  -2   2   7   -0.06    0.23
  -2   2   7   -0.04    0.38
  -2   2   7    0.02    0.59
  -2   2   7    0.32    0.29
   1  -2  -7    0.10    0.34
   1  -2  -7    0.46    0.27
   1  -2  -7    0.43    0.21
   1  -2  -7    0.68    0.63
   1  -2  -7    0.58    0.43
  -1   2   7    0.47    0.22
  -1   2   7    0.21    0.36
  -1   2   7    0.63    0.42
  -1   2   7    0.74    0.34
  -1   2   7    1.02    0.58
   0  -2  -7   23.31    2.80
   0  -2  -7   25.89    2.73
   0  -2  -7   27.52    2.57
   0  -2  -7   23.17    2.64
   0  -2  -7   23.35    2.52
   0  -2  -7   19.85    2.81
   0   2   7   26.44    2.59
   0   2   7   26.41    2.76
   0   2   7   28.02    2.72
   0   2   7   27.40    2.57
  -1  -2  -7    1.91    0.71
  -1  -2  -7    3.20    0.44
  -1  -2  -7    2.17    0.58
  -1  -2  -7    3.24    0.83
  -1  -2  -7    2.34    0.86
  -1  -2  -7    2.52    0.50
   1   2   7    2.00    0.63
   1   2   7    1.88    0.45
   1   2   7    2.16    0.52
   1   2   7    2.43    0.62
  -2  -2  -7   -0.22    0.23
  -2  -2  -7   -0.20    0.42
  -2  -2  -7   -0.18    0.68
  -2  -2  -7   -0.01    0.55
  -2  -2  -7   -0.60    0.71
  -2  -2  -7   -0.03    0.82
   2   2   7    0.30    0.34
   2   2   7    1.13    0.81
   2   2   7   -0.20    0.53
  -3  -2  -7    0.41    0.91
  -3  -2  -7   -0.42    0.27
  -3  -2  -7    0.01    0.96
  -3  -2  -7    0.19    0.51
   3   2   7    0.57    0.41
   3   2   7   -0.25    0.43
   3   2   7    0.61    1.10
   3   2   7    0.48    0.67
  -4  -2  -7    4.72    1.39
  -4  -2  -7    3.91    0.95
  -4  -2  -7    5.30    0.68
   4   2   7    3.20    1.22
   4   2   7    5.32    0.94
  -5  -2  -7   -0.68    0.43
  -5  -2  -7   -1.00    0.81
  -5  -2  -7   -0.23    1.43
   5   2   7    0.18    1.26
   5   2   7   -0.20    0.76
  -6  -2  -7    1.83    1.08
  -6  -2  -7    1.18    0.59
  -6  -2  -7    0.83    1.89
   6   2   7    1.31    1.03
   6   2   7   -0.48    1.68
  -7  -2  -7    0.22    1.36
  -7  -2  -7    0.98    2.52
  -7  -2  -7    0.84    0.79
   7   2   7    0.74    1.29
   7   2   7    2.94    2.35
 -10   3   7    1.71    0.75
  -8   3   7    2.28    0.48
  -8   3   7    3.01    1.19
  -8   3   7    0.11    0.86
  -7   3   7   -0.83    0.85
  -7   3   7   -0.57    0.67
  -7   3   7    0.47    0.32
  -6   3   7   12.65    1.48
  -6   3   7   15.52    1.72
  -6   3   7   16.92    2.05
  -5   3   7    2.77    0.69
  -5   3   7    2.52    0.46
  -5   3   7    2.63    0.73
  -5   3   7    2.77    0.52
  -5   3   7    2.26    0.35
  -5   3   7    3.28    0.50
  -5   3   7    1.78    0.36
   4  -3  -7   30.91    2.90
  -4   3   7   31.21    2.98
  -4   3   7   28.79    2.90
  -4   3   7   28.68    3.15
  -4   3   7   31.53    3.00
  -4   3   7   28.56    2.94
  -4   3   7   27.75    3.21
   3  -3  -7    0.75    0.73
   3  -3  -7    0.57    0.45
   3  -3  -7    1.21    0.54
  -3   3   7    1.20    0.28
  -3   3   7    1.12    0.60
  -3   3   7    1.29    0.27
  -3   3   7    1.06    0.58
  -3   3   7    0.91    0.33
   2  -3  -7   -0.03    0.69
   2  -3  -7    0.59    0.27
   2  -3  -7    0.24    0.47
   2  -3  -7    1.24    0.49
   2  -3  -7    0.43    0.25
  -2   3   7    0.79    0.36
  -2   3   7    1.07    0.55
  -2   3   7    0.42    0.23
  -2   3   7    0.99    0.27
  -2   3   7    1.59    0.63
   1  -3  -7    1.37    0.35
   1  -3  -7    0.53    0.46
   1  -3  -7    1.01    0.38
   1  -3  -7    0.58    0.81
  -1   3   7    0.56    0.50
  -1   3   7    1.02    0.44
  -1   3   7    0.73    0.29
  -1   3   7    1.00    0.27
  -1   3   7    2.15    0.80
   0  -3  -7    1.98    0.87
   0  -3  -7    2.77    0.55
   0  -3  -7    3.06    0.84
   0  -3  -7    2.40    0.51
   0  -3  -7    3.80    0.68
   0   3   7    3.50    0.51
   0   3   7    3.67    0.58
   0   3   7    1.78    0.68
   0   3   7    2.96    0.68
  -1  -3  -7    3.63    0.68
  -1  -3  -7    2.55    0.98
  -1  -3  -7    3.48    1.03
   1   3   7    4.02    0.67
   1   3   7    3.52    0.84
   1   3   7    2.34    0.44
   1   3   7    3.24    0.87
  -2  -3  -7   -0.15    0.92
  -2  -3  -7   -0.39    0.36
  -2  -3  -7   -0.08    0.51
   2   3   7    0.43    1.20
   2   3   7    0.09    0.64
   2   3   7   -0.27    0.74
   2   3   7    0.02    0.36
  -3  -3  -7   28.90    2.95
  -3  -3  -7   30.03    3.22
  -3  -3  -7   28.13    3.80
   3   3   7   26.96    3.10
   3   3   7   30.90    3.01
   3   3   7   28.54    3.51
  -4  -3  -7   11.26    1.58
  -4  -3  -7   11.76    2.36
   4   3   7   14.10    2.57
   4   3   7   14.19    1.86
  -5  -3  -7    4.67    2.19
  -5  -3  -7    3.63    0.82
  -5  -3  -7    4.50    1.18
   5   3   7    1.93    0.91
   5   3   7    3.71    1.66
  -6  -3  -7    2.19    0.91
  -6  -3  -7    3.85    2.77
  -6  -3  -7    3.42    1.63
   6   3   7    1.36    2.11
   6   3   7    3.35    1.10
 -10   4   7   30.71    3.22
 -10   4   7   29.11    4.08
  -9   4   7   -0.46    0.51
  -9   4   7    0.45    1.23
  -8   4   7    0.62    0.41
  -8   4   7    1.48    1.02
  -7   4   7    1.09    0.83
  -7   4   7   -0.20    0.90
  -7   4   7    0.06    0.31
  -6   4   7    5.01    0.93
  -6   4   7    4.70    0.65
  -6   4   7    4.30    1.02
  -5   4   7    1.49    0.73
  -5   4   7    2.35    0.61
   4  -4  -7    1.27    0.33
   4  -4  -7    0.16    0.46
  -4   4   7    0.83    0.33
  -4   4   7    0.65    0.26
  -4   4   7    0.94    0.37
  -4   4   7    0.67    0.60
  -4   4   7    1.72    0.71
   3  -4  -7   30.72    3.56
   3  -4  -7   33.54    3.48
  -3   4   7   38.74    3.46
  -3   4   7   34.43    3.43
  -3   4   7   36.78    3.56
   2  -4  -7   22.83    2.62
   2  -4  -7   24.74    2.54
   2  -4  -7   19.28    2.77
   2  -4  -7   24.69    2.51
  -2   4   7   26.04    2.66
  -2   4   7   25.69    2.46
  -2   4   7   27.19    2.83
  -2   4   7   26.09    2.51
   1  -4  -7    0.40    0.57
   1  -4  -7    1.65    0.85
   1  -4  -7    1.78    0.44
   1  -4  -7    1.16    0.51
  -1   4   7    1.78    0.63
  -1   4   7    2.50    0.81
  -1   4   7    1.74    0.44
  -1   4   7    2.14    0.36
   0  -4  -7    2.43    1.00
   0  -4  -7    2.59    0.55
   0  -4  -7    2.31    0.64
   0   4   7    2.70    0.74
   0   4   7    2.23    0.48
   0   4   7    3.08    0.87
   0   4   7    3.03    0.59
  -1  -4  -7    1.94    2.11
  -1  -4  -7    0.74    0.58
  -1  -4  -7    0.15    0.46
   1   4   7    0.41    0.35
   1   4   7    0.49    0.86
   1   4   7   -0.24    1.15
   1   4   7   -0.22    0.43
  -2  -4  -7    0.95    0.68
  -2  -4  -7    0.55    0.43
  -2  -4  -7    1.97    1.46
   2   4   7    2.16    1.53
   2   4   7    1.49    0.87
   2   4   7    0.49    0.55
   2   4   7    1.20    0.49
  -3  -4  -7    4.11    1.04
  -3  -4  -7    3.82    1.81
  -3  -4  -7    3.83    0.73
   3   4   7    4.12    0.97
   3   4   7    4.30    1.38
  -4  -4  -7   -0.57    0.71
  -4  -4  -7   -0.32    1.06
  -4  -4  -7   -0.84    2.05
   4   4   7   -0.55    1.42
   4   4   7   -0.01    0.76
  -5  -4  -7   17.81    2.49
  -5  -4  -7   21.50    3.27
  -5  -4  -7   23.20    4.33
   5   4   7   17.16    2.74
   5   4   7   19.05    3.34
  -9   5   7   -0.07    0.57
  -9   5   7   -0.22    1.24
  -8   5   7    1.82    0.48
  -8   5   7    1.47    1.10
  -7   5   7    0.63    0.91
  -7   5   7    2.00    0.42
  -6   5   7    2.08    0.87
  -5   5   7    5.43    1.20
   4  -5  -7   -0.17    0.53
   4  -5  -7   -0.22    0.40
  -4   5   7    0.84    0.33
  -4   5   7   -0.27    0.49
  -4   5   7    0.98    0.69
  -4   5   7    0.79    0.35
  -4   5   7    0.39    0.71
   3  -5  -7    0.66    0.91
   3  -5  -7    0.72    0.67
   3  -5  -7    0.53    0.47
  -3   5   7    0.39    0.71
  -3   5   7   -0.32    0.32
  -3   5   7    0.32    0.26
  -3   5   7    0.27    0.56
  -3   5   7   -0.73    0.75
   2  -5  -7   14.68    1.69
   2  -5  -7   15.48    1.63
   2  -5  -7   12.63    2.26
  -2   5   7   13.37    1.57
  -2   5   7   14.59    1.82
  -2   5   7   13.63    1.47
   1  -5  -7    1.77    0.68
   1  -5  -7    0.98    1.15
   1  -5  -7    2.91    0.58
  -1   5   7    0.98    0.74
  -1   5   7    1.89    0.52
  -1   5   7    2.10    0.41
  -1   5   7    4.52    1.22
  -1   5   7    1.94    0.74
   0  -5  -7    1.24    1.29
   0  -5  -7    0.54    0.68
   0  -5  -7    0.86    0.54
   0   5   7    0.40    0.71
   0   5   7    0.66    0.47
   0   5   7    1.99    1.30
   0   5   7    0.40    0.35
  -1  -5  -7    1.52    0.84
  -1  -5  -7    2.06    0.71
  -1  -5  -7    2.95    1.67
   1   5   7    1.70    0.61
   1   5   7    2.83    0.55
   1   5   7    1.97    1.00
  -2  -5  -7    1.96    0.77
  -2  -5  -7    1.42    1.03
  -2  -5  -7    1.53    1.86
   2   5   7   -0.03    1.08
   2   5   7    1.37    0.66
   2   5   7    1.85    0.70
  -3  -5  -7    0.81    1.54
   3   5   7    0.01    1.42
   3   5   7    0.66    0.83
  -4  -5  -7    1.67    1.56
   4   5   7    4.34    2.11
   4   5   7    1.24    1.09
  -8   6   7   -0.15    1.21
  -7   6   7    7.91    1.49
  -6   6   7    0.39    0.93
  -5   6   7   -0.71    0.84
  -4   6   7    1.74    0.89
  -4   6   7    0.69    0.44
  -4   6   7    0.31    0.85
  -4   6   7    0.47    0.66
   3  -6  -7    0.52    0.51
   3  -6  -7   -0.56    0.66
  -3   6   7    0.26    0.68
  -3   6   7    1.05    0.93
  -3   6   7    0.30    0.85
  -3   6   7    0.15    0.30
   2  -6  -7    1.07    0.58
   2  -6  -7    1.48    0.78
  -2   6   7    1.36    0.80
  -2   6   7    4.08    1.25
  -2   6   7    0.62    0.36
  -2   6   7    0.63    0.81
  -2   6   7    0.86    0.49
   1  -6  -7   -0.15    0.59
   1  -6  -7    0.30    0.81
  -1   6   7   -0.77    0.81
  -1   6   7    0.30    0.52
  -1   6   7   -0.71    1.91
   0  -6  -7   22.61    2.56
   0  -6  -7   20.61    2.60
   0   6   7   20.10    2.77
   0   6   7   17.03    2.27
  -1  -6  -7    5.33    1.07
  -1  -6  -7    8.74    1.49
   1   6   7    5.17    1.51
   1   6   7    5.63    1.07
  -2  -6  -7   -0.62    0.84
  -2  -6  -7   -2.49    1.24
   2   6   7   -0.26    1.45
   2   6   7   -0.74    0.81
  -3  -6  -7    0.52    1.66
  -3  -6  -7   -0.75    1.04
   3   6   7    0.94    1.05
   3   6   7    1.24    1.87
  -7   7   7   -0.03    1.23
  -6   7   7    3.62    1.34
  -5   7   7   -0.11    1.10
  -4   7   7    3.09    1.08
  -4   7   7    3.63    1.22
   3  -7  -7    3.50    0.81
  -3   7   7    3.23    1.14
  -3   7   7    2.44    0.74
  -3   7   7    3.20    1.17
   2  -7  -7    0.19    0.68
  -2   7   7    0.31    0.67
  -2   7   7    0.67    1.07
   1  -7  -7   -1.18    0.74
  -1   7   7    1.26    0.74
  -1   7   7   -0.81    1.12
   0  -7  -7    3.15    0.95
   0   7   7    2.22    0.83
   0   7   7    0.63    1.33
  -1  -7  -7    0.11    1.03
   1   7   7   -0.42    0.85
   1   7   7    0.44    1.54
  -5   8   7    3.45    1.49
  -4   8   7    1.05    0.69
  -4   8   7    0.63    1.24
  -3   8   7    4.72    1.01
  -3   8   7    3.65    1.55
   2  -8  -7   -0.38    0.91
  -2   8   7    0.09    1.41
  -2   8   7    0.01    0.91
   1  11  -8    1.75    2.36
   1  11  -8    1.82    1.18
  -1 -11   8    1.47    2.52
  -1 -11   8    2.71    0.96
   0  11  -8   -0.50    0.98
   0  11  -8    0.73    2.19
   0 -11   8   -1.24    0.80
  -1  11  -8    4.76    2.13
  -1  11  -8    3.23    1.11
  -2  11  -8    1.33    0.86
  -2  11  -8   -1.38    1.86
  -3  11  -8    8.31    2.24
  -3  11  -8    4.92    1.07
   3  10  -8    1.18    2.27
   3  10  -8   -0.14    1.07
  -3 -10   8    0.20    2.15
  -3 -10   8   -0.91    0.82
   2  10  -8    1.62    2.01
   2  10  -8   -0.09    0.96
  -2 -10   8   -1.01    1.98
  -2 -10   8   -0.04    0.82
   1  10  -8    5.84    1.27
   1  10  -8    6.27    2.06
  -1 -10   8    6.68    1.16
   0  10  -8    4.93    1.90
   0  10  -8    4.38    1.04
   0 -10   8    1.09    1.75
   0 -10   8    5.77    0.99
  -1  10  -8   29.97    3.98
  -1  10  -8   24.04    2.88
   1 -10   8   20.70    3.63
  -2  10  -8    4.45    0.93
  -2  10  -8    3.05    1.69
   2 -10   8    5.88    1.63
  -3  10  -8    2.25    0.67
  -3  10  -8    0.13    1.46
  -4  10  -8    2.18    1.55
  -4  10  -8    0.25    0.55
  -5  10  -8    5.87    2.02
   5   9  -8    4.67    2.53
   5   9  -8    2.44    1.21
  -5  -9   8    1.32    2.12
  -5  -9   8   -2.15    3.35
  -5  -9   8    2.19    1.00
   4   9  -8   14.13    3.01
   4   9  -8   15.94    2.30
  -4  -9   8   15.33    2.03
  -4  -9   8    8.25    3.65
  -4  -9   8   11.86    2.59
   3   9  -8   -0.47    0.83
   3   9  -8   -1.86    1.69
  -3  -9   8   -0.02    0.67
  -3  -9   8   -2.72    1.63
  -3  -9   8    5.35    2.60
   2   9  -8    0.88    0.80
   2   9  -8    0.81    1.48
   2   9  -8    7.97    3.47
  -2  -9   8    1.35    0.67
  -2  -9   8   -1.79    2.36
   1   9  -8    1.53    0.78
   1   9  -8    3.15    1.53
   1   9  -8    2.24    2.71
  -1  -9   8    3.01    0.70
  -1  -9   8    1.97    2.08
  -1  -9   8    0.99    1.50
   0   9  -8    1.04    1.36
   0   9  -8    1.13    1.73
   0   9  -8    0.29    0.57
   0   9  -8    0.46    2.53
   0  -9   8    0.98    0.60
   0  -9   8    0.92    1.25
   0  -9   8    1.87    1.85
  -1   9  -8    2.36    1.26
  -1   9  -8    3.67    2.52
  -1   9  -8    1.90    0.70
  -1   9  -8    1.28    1.68
   1  -9   8    2.84    1.20
   1  -9   8    0.59    1.59
  -2   9  -8    3.40    0.72
  -2   9  -8    0.66    1.70
  -2   9  -8    1.85    1.33
   2  -9   8   -0.35    1.69
   2  -9   8    2.39    1.17
  -3   9  -8   22.67    2.54
   3  -9   8   24.97    2.98
  -4   9  -8    9.57    1.87
  -4   9  -8    4.57    0.83
   4  -9   8    6.39    1.23
  -5   9  -8   19.26    2.10
  -6   9  -8   -0.15    0.44
  -6   9  -8    1.39    1.66
   6   8  -8    2.46    1.25
   6   8  -8    3.48    2.49
  -6  -8   8    2.96    1.19
  -6  -8   8    0.75    1.94
  -6  -8   8    2.37    0.99
   5   8  -8    8.97    3.90
   5   8  -8    7.90    1.37
  -5  -8   8    2.56    2.57
  -5  -8   8    5.78    1.12
  -5  -8   8    4.84    1.87
   4   8  -8   -0.28    1.63
   4   8  -8    1.14    0.79
  -4  -8   8    0.65    0.60
  -4  -8   8   -1.98    2.18
  -4  -8   8    1.69    1.52
   3   8  -8   -0.15    1.39
   3   8  -8    5.95    2.58
   3   8  -8    0.34    0.61
  -3  -8   8    0.50    1.84
  -3  -8   8   -0.50    1.20
   2   8  -8    3.13    0.75
   2   8  -8    1.43    1.38
   2   8  -8    1.33    2.15
  -2  -8   8    1.92    0.59
  -2  -8   8    1.18    1.31
  -2  -8   8    2.18    1.73
   1   8  -8    9.12    1.91
   1   8  -8   11.04    1.99
   1   8  -8    4.99    2.35
   1   8  -8    9.38    1.31
  -1  -8   8    8.02    1.20
  -1  -8   8    8.90    1.68
  -1  -8   8    5.12    1.85
   0   8  -8   26.19    3.19
   0   8  -8   21.76    2.43
   0   8  -8   20.84    3.18
   0  -8   8   21.37    2.34
   0  -8   8   17.35    2.95
  -1   8  -8    6.88    3.01
  -1   8  -8   14.96    1.72
  -1   8  -8   14.41    2.27
   1  -8   8   14.75    2.26
  -2   8  -8    1.59    1.19
  -2   8  -8    1.73    1.74
  -2   8  -8    1.30    1.04
  -2   8  -8    0.76    0.48
   2  -8   8    0.98    0.85
   2  -8   8    0.36    1.31
  -3   8  -8   -0.49    1.75
  -3   8  -8    4.34    1.29
  -3   8  -8    3.13    0.60
  -3   8  -8    2.84    1.36
   3  -8   8    4.13    1.46
   3  -8   8    4.05    0.95
  -4   8  -8    2.58    1.15
  -4   8  -8    1.44    0.42
  -4   8  -8   -0.92    1.39
  -4   8  -8    1.96    2.89
   4  -8   8    1.14    1.09
   4  -8   8    0.86    0.73
  -5   8  -8    2.60    0.52
  -5   8  -8    4.08    1.44
   5  -8   8    2.33    0.79
  -6   8  -8   10.95    2.24
  -7   8  -8   -0.03    0.65
  -7   8  -8   -1.44    0.72
   7   7  -8   -1.09    2.48
   7   7  -8   -0.76    1.17
  -7  -7   8    1.47    1.88
  -7  -7   8    1.13    1.12
  -7  -7   8    0.56    2.75
   6   7  -8   -0.13    0.94
   6   7  -8   -0.50    1.87
  -6  -7   8    0.81    1.54
  -6  -7   8    1.71    0.93
  -6  -7   8    0.81    2.25
   5   7  -8    2.49    0.87
   5   7  -8    3.95    1.75
  -5  -7   8    5.10    1.00
  -5  -7   8    4.17    0.82
  -5  -7   8    2.21    1.46
  -5  -7   8    2.79    2.04
  -5  -7   8    2.81    2.85
   4   7  -8    1.53    1.27
   4   7  -8   -0.49    1.24
   4   7  -8   -1.26    2.43
  -4  -7   8    0.09    1.06
  -4  -7   8    2.89    1.64
  -4  -7   8    0.62    0.51
  -4  -7   8    0.04    1.64
   3   7  -8   19.82    2.19
   3   7  -8   16.38    2.85
   3   7  -8   15.39    3.25
  -3  -7   8   18.21    2.01
  -3  -7   8   18.28    3.02
  -3  -7   8   19.36    2.79
   2   7  -8   19.08    2.48
   2   7  -8    9.93    1.95
   2   7  -8   13.31    1.61
   2   7  -8    9.13    2.46
  -2  -7   8    9.37    2.09
  -2  -7   8   14.79    1.49
  -2  -7   8   11.01    1.90
   1   7  -8    1.81    1.75
   1   7  -8    2.17    1.01
   1   7  -8    1.21    0.50
  -1  -7   8    1.73    0.50
  -1  -7   8    0.19    1.17
  -1  -7   8    1.43    1.02
  -1  -7   8    1.40    1.36
   0   7  -8   67.09    6.40
   0   7  -8   52.27    6.21
   0   7  -8   59.27    5.88
   0  -7   8   55.49    6.46
   0  -7   8   52.10    6.15
   0  -7   8   65.36    5.84
  -1   7  -8    0.81    0.97
  -1   7  -8    0.84    0.42
  -1   7  -8    2.17    0.95
   1  -7   8    0.22    1.05
   1  -7   8    1.80    1.62
   1  -7   8    0.22    0.77
  -2   7  -8    6.07    1.45
  -2   7  -8    7.05    1.09
  -2   7  -8    8.17    1.00
  -2   7  -8    4.65    1.67
  -2   7  -8    7.00    1.43
   2  -7   8    7.58    1.26
   2  -7   8    6.45    1.54
  -3   7  -8    4.62    0.86
  -3   7  -8    4.06    1.75
  -3   7  -8    1.88    1.27
  -3   7  -8    5.23    0.78
   3  -7   8    5.83    1.49
   3  -7   8    5.39    1.01
  -4   7  -8    6.22    1.42
  -4   7  -8    2.90    0.52
  -4   7  -8    1.48    1.64
  -4   7  -8    3.46    1.33
   4  -7   8    2.39    0.71
   4  -7   8    4.23    1.08
  -5   7  -8    1.57    2.45
  -5   7  -8    0.34    1.11
  -5   7  -8   -1.61    1.35
  -5   7  -8   -0.27    0.29
   5  -7   8    0.53    0.91
   5  -7   8    0.50    0.62
  -6   7  -8   -0.61    0.45
   6  -7   8    1.81    0.70
  -7   7  -8    6.12    0.99
  -7   7  -8    8.03    1.11
  -7   7  -8    8.12    1.48
   8   6  -8    6.88    1.62
  -8  -6   8    6.60    2.28
  -8  -6   8    3.45    2.84
  -8  -6   8    5.17    1.33
   7   6  -8    0.58    1.05
   7   6  -8   -2.34    1.89
  -7  -6   8   -0.09    2.17
  -7  -6   8    0.25    0.88
  -7  -6   8    1.06    1.47
   6   6  -8    0.06    0.75
   6   6  -8    0.29    1.51
  -6  -6   8    2.24    1.25
  -6  -6   8    0.85    1.87
  -6  -6   8    1.16    1.75
  -6  -6   8   -0.43    0.72
   5   6  -8    8.13    1.24
   5   6  -8    5.07    1.63
  -5  -6   8    3.12    1.95
  -5  -6   8    6.09    1.90
  -5  -6   8    5.11    1.36
  -5  -6   8    8.85    1.14
   4   6  -8    2.74    1.25
   4   6  -8    3.56    0.78
  -4  -6   8    4.35    1.31
  -4  -6   8    2.00    1.63
  -4  -6   8    5.31    0.80
  -4  -6   8    3.52    1.26
  -4  -6   8    5.09    1.11
  -4  -6   8    3.60    1.59
   3   6  -8   -0.16    2.32
   3   6  -8    0.23    1.03
   3   6  -8   -0.06    0.89
   3   6  -8    0.44    0.45
  -3  -6   8    0.81    0.61
  -3  -6   8    1.41    1.25
  -3  -6   8    0.35    0.35
  -3  -6   8    0.72    0.85
  -3  -6   8    0.01    1.32
   2   6  -8    0.44    0.39
   2   6  -8   -0.30    0.50
   2   6  -8   -1.55    0.90
   2   6  -8    0.74    0.84
  -2  -6   8   -0.08    0.32
  -2  -6   8    0.96    1.06
  -2  -6   8    1.90    1.22
  -2  -6   8    0.09    0.86
   1   6  -8    2.68    1.02
   1   6  -8    0.72    0.37
   1   6  -8    0.61    0.54
   1   6  -8    1.43    0.79
   1   6  -8    2.74    1.42
  -1  -6   8    0.44    0.77
  -1  -6   8    0.03    1.02
  -1  -6   8    0.51    1.04
  -1  -6   8    0.36    0.64
  -1  -6   8    1.31    0.39
   0   6  -8   86.80    8.77
   0   6  -8   95.29    9.18
   0   6  -8   95.34    8.79
   0   6  -8   85.82    9.01
   0  -6   8  101.77    8.73
   0  -6   8   83.90    8.82
   0  -6   8   90.83    9.01
   0  -6   8   78.28    9.17
  -1   6  -8    8.67    1.54
  -1   6  -8    7.63    1.06
  -1   6  -8    5.45    2.39
  -1   6  -8    6.12    1.28
  -1   6  -8    7.12    0.97
  -1   6  -8    7.29    0.97
   1  -6   8   10.13    1.25
   1  -6   8    5.34    1.46
   1  -6   8    7.60    1.62
   1  -6   8    5.78    1.10
  -2   6  -8    5.26    1.72
  -2   6  -8    6.49    1.39
  -2   6  -8    9.74    1.08
  -2   6  -8    8.52    1.12
   2  -6   8   10.60    1.45
   2  -6   8   10.24    1.91
   2  -6   8    9.51    1.85
  -3   6  -8    3.39    1.47
  -3   6  -8    5.25    1.29
  -3   6  -8    7.61    0.89
  -3   6  -8    6.10    1.05
   3  -6   8    9.57    1.60
   3  -6   8    9.98    1.28
  -4   6  -8   15.23    2.52
  -4   6  -8   20.92    2.12
  -4   6  -8   17.15    2.28
   4  -6   8   23.50    2.32
   4  -6   8   24.95    2.72
  -5   6  -8    0.69    0.95
  -5   6  -8   -2.87    1.45
  -5   6  -8   -0.76    1.25
   5  -6   8    1.19    0.56
  -6   6  -8    5.65    1.08
  -6   6  -8    4.49    0.78
   6  -6   8    4.78    0.87
  -7   6  -8   -0.48    0.57
  -7   6  -8    0.48    0.75
  -7   6  -8    0.16    0.38
   7  -6   8    1.47    0.93
  -8   6  -8   -1.79    0.76
  -8   6  -8    1.16    1.09
  -8   6  -8    0.14    0.45
  -9  -5   8    2.24    2.15
  -9  -5   8   -0.11    1.21
  -9  -5   8   -3.55    2.85
   8   5  -8   -0.01    1.12
  -8  -5   8    0.35    1.50
  -8  -5   8    2.71    2.47
  -8  -5   8   -0.19    0.91
   7   5  -8   -2.53    1.67
   7   5  -8   -0.78    0.77
  -7  -5   8    0.32    1.22
  -7  -5   8   -2.29    1.75
  -7  -5   8    0.33    0.74
  -7  -5   8    2.40    1.34
   6   5  -8   -0.51    1.25
   6   5  -8   -0.11    0.65
  -6  -5   8   -0.96    1.03
  -6  -5   8   -0.23    0.61
  -6  -5   8    0.41    1.54
  -6  -5   8   -0.29    1.44
  -6  -5   8    1.46    0.89
   5   5  -8    2.96    1.25
   5   5  -8    2.53    0.73
  -5  -5   8    2.07    1.15
  -5  -5   8    0.69    1.45
  -5  -5   8    3.73    0.99
  -5  -5   8    1.74    1.33
  -5  -5   8    2.90    0.69
   4   5  -8    5.06    0.76
   4   5  -8    5.89    1.32
   4   5  -8    4.54    1.65
   4   5  -8    6.62    1.00
   4   5  -8    5.15    1.31
  -4  -5   8    2.93    1.36
  -4  -5   8    5.69    1.26
  -4  -5   8    8.37    1.08
  -4  -5   8    5.20    0.91
  -4  -5   8    4.77    1.38
  -4  -5   8    4.74    0.75
   3   5  -8   -0.53    0.83
   3   5  -8   -0.05    1.30
   3   5  -8    0.43    0.41
   3   5  -8    1.11    0.45
   3   5  -8    0.23    0.78
  -3  -5   8    1.12    1.10
  -3  -5   8    0.94    0.64
  -3  -5   8    1.05    1.03
  -3  -5   8    1.32    0.85
  -3  -5   8    0.57    0.30
   2   5  -8   -0.70    0.32
   2   5  -8    0.39    0.86
   2   5  -8    0.49    0.44
   2   5  -8    0.74    0.66
   2   5  -8    1.04    1.28
  -2  -5   8   -0.32    0.46
  -2  -5   8   -0.20    0.86
  -2  -5   8    0.89    1.00
  -2  -5   8    0.23    0.25
  -2  -5   8   -0.22    0.64
   1   5  -8   -0.39    0.76
   1   5  -8    0.20    1.05
   1   5  -8   -0.06    0.66
   1   5  -8    0.10    0.28
   1   5  -8    0.10    0.43
  -1  -5   8    0.17    0.27
  -1  -5   8    0.66    0.91
  -1  -5   8    0.37    0.67
  -1  -5   8    0.36    0.42
  -1  -5   8    0.05    0.90
   0   5  -8    1.28    0.70
   0   5  -8    1.79    0.73
   0   5  -8    1.07    0.33
   0   5  -8    1.11    1.09
   0   5  -8    1.68    0.51
   0  -5   8    1.56    0.64
   0  -5   8    0.59    0.81
   0  -5   8    1.58    0.95
   0  -5   8    1.07    0.42
  -1   5  -8    4.21    0.68
  -1   5  -8    3.84    1.01
  -1   5  -8    5.65    0.69
  -1   5  -8    6.29    1.24
   1  -5   8    3.52    1.14
   1  -5   8    5.75    0.88
   1  -5   8    3.83    0.82
   1  -5   8    5.50    0.84
   1  -5   8    3.99    1.20
  -2   5  -8   70.52    6.85
  -2   5  -8   79.44    6.87
  -2   5  -8   60.62    7.10
   2  -5   8   70.97    7.26
   2  -5   8   63.16    6.93
   2  -5   8   77.56    7.40
  -3   5  -8    7.58    1.05
  -3   5  -8    7.71    1.34
  -3   5  -8    7.45    0.93
   3  -5   8    9.39    1.51
   3  -5   8    8.71    1.20
   3  -5   8    7.33    1.58
  -4   5  -8    1.06    1.02
  -4   5  -8    1.29    1.21
  -4   5  -8    1.98    0.57
  -4   5  -8    1.58    0.36
   4  -5   8    2.32    0.76
   4  -5   8    2.75    0.59
  -5   5  -8   -0.02    0.33
  -5   5  -8   -0.97    1.16
  -5   5  -8    0.03    1.45
   5  -5   8    0.50    0.48
   5  -5   8    0.71    0.76
  -6   5  -8    3.19    0.54
  -6   5  -8    4.06    0.80
  -6   5  -8    4.14    0.68
  -6   5  -8    1.74    1.40
   6  -5   8    3.69    0.80
   6  -5   8    3.20    1.13
  -7   5  -8    2.84    0.93
  -7   5  -8    2.50    0.67
  -7   5  -8    1.91    0.50
   7  -5   8    1.05    0.79
  -8   5  -8    1.98    0.90
  -8   5  -8    1.48    0.50
  -8   5  -8   -0.68    1.13
   9   4  -8    1.12    1.63
  -9  -4   8    2.93    2.56
  -9  -4   8    3.85    1.18
  -9  -4   8    5.02    1.88
   8   4  -8   14.80    2.04
  -8  -4   8   14.65    2.07
  -8  -4   8   13.67    2.34
   7   4  -8   11.97    1.72
   7   4  -8   10.62    2.26
  -7  -4   8   11.07    1.95
  -7  -4   8    9.41    1.63
  -7  -4   8   12.08    1.70
   6   4  -8    0.19    0.58
   6   4  -8    0.48    1.19
  -6  -4   8    1.11    0.81
  -6  -4   8    0.86    0.92
  -6  -4   8    1.44    1.18
  -6  -4   8    0.82    0.56
  -6  -4   8    0.17    1.43
   5   4  -8   -0.30    1.28
   5   4  -8   -0.54    0.32
   5   4  -8    0.50    0.47
   5   4  -8   -0.72    0.91
  -5  -4   8    1.43    0.66
  -5  -4   8    0.23    0.85
  -5  -4   8    0.44    0.45
  -5  -4   8    1.54    1.24
  -5  -4   8    0.40    1.00
   4   4  -8   -0.42    0.78
   4   4  -8    0.65    1.21
   4   4  -8    0.48    0.80
   4   4  -8   -0.06    0.31
   4   4  -8    0.34    0.38
  -4  -4   8    0.21    0.38
  -4  -4   8    1.06    0.86
  -4  -4   8    0.35    1.05
  -4  -4   8    0.40    0.72
  -4  -4   8    0.55    0.46
   3   4  -8   -1.50    1.07
   3   4  -8    0.13    0.32
   3   4  -8    0.08    0.77
   3   4  -8   -0.10    0.63
   3   4  -8   -0.31    0.38
  -3  -4   8   -0.19    1.12
  -3  -4   8    0.01    0.36
  -3  -4   8    0.16    0.23
  -3  -4   8    0.39    0.90
  -3  -4   8    0.08    0.61
  -3  -4   8    0.59    0.49
   2   4  -8   16.65    1.79
   2   4  -8   16.23    1.80
   2   4  -8   16.04    2.16
   2   4  -8   11.32    2.44
   2   4  -8   15.22    2.10
  -2  -4   8   17.72    1.88
  -2  -4   8   15.68    2.34
  -2  -4   8   12.97    2.34
  -2  -4   8   18.12    2.14
  -2  -4   8   19.72    1.70
   1   4  -8    3.56    0.57
   1   4  -8    2.00    1.02
   1   4  -8    2.11    0.70
   1   4  -8    2.78    0.77
   1   4  -8    3.12    0.53
  -1  -4   8    2.05    0.70
  -1  -4   8    3.00    0.87
  -1  -4   8    2.21    0.55
  -1  -4   8    1.80    0.95
   0   4  -8    3.74    1.14
   0   4  -8    5.01    0.68
   0   4  -8    7.25    0.86
   0   4  -8    3.67    0.84
   0  -4   8    4.83    1.06
   0  -4   8    6.30    0.86
   0  -4   8    3.61    0.99
   0  -4   8    5.10    0.87
  -1   4  -8    3.43    0.55
  -1   4  -8    1.69    1.00
  -1   4  -8    2.89    0.83
  -1   4  -8    3.76    0.53
   1  -4   8    3.98    0.67
   1  -4   8    5.70    0.89
   1  -4   8    4.17    1.06
   1  -4   8    2.93    1.01
   1  -4   8    3.61    0.66
  -2   4  -8    2.61    0.50
  -2   4  -8    4.02    0.52
  -2   4  -8    1.87    1.20
  -2   4  -8    2.75    0.83
   2  -4   8    4.38    0.74
   2  -4   8    3.40    0.59
   2  -4   8    3.06    0.64
   2  -4   8    3.65    1.01
   2  -4   8    4.20    0.98
  -3   4  -8   47.86    4.83
  -3   4  -8   46.30    4.79
   3  -4   8   53.43    5.14
   3  -4   8   46.46    4.93
   3  -4   8   49.72    4.86
   3  -4   8   53.26    4.92
   3  -4   8   47.62    5.36
   4  -4   8   51.54    4.72
   4  -4   8   40.80    5.26
  -5   4  -8    3.00    0.50
  -5   4  -8    0.07    1.43
  -5   4  -8    2.35    0.80
  -5   4  -8    3.53    0.59
  -5   4  -8    2.01    1.14
   5  -4   8    3.26    0.69
   5  -4   8    4.79    0.98
  -6   4  -8    2.01    0.71
  -6   4  -8    1.70    1.82
  -6   4  -8    1.54    0.50
  -6   4  -8    0.40    1.34
  -6   4  -8    1.80    0.38
   6  -4   8    2.93    0.69
   6  -4   8    3.02    0.99
  -7   4  -8    0.42    0.35
  -7   4  -8   -0.20    0.58
  -7   4  -8    2.38    0.93
   7  -4   8   -0.58    0.72
  -8   4  -8    4.52    1.03
  -8   4  -8    1.54    1.37
  -8   4  -8    4.18    0.68
 -10  -3   8   -1.14    1.87
 -10  -3   8   -2.06    1.19
 -10  -3   8    2.45    3.00
  -9  -3   8   -1.90    2.14
  -9  -3   8   -1.64    1.45
  -9  -3   8   -0.94    0.92
   8   3  -8    1.85    1.66
   8   3  -8    0.71    0.83
  -8  -3   8    0.62    1.77
  -8  -3   8    0.07    1.24
  -8  -3   8   -0.44    1.15
  -8  -3   8    0.98    0.72
   7   3  -8   15.66    2.82
   7   3  -8   17.16    1.97
  -7  -3   8   16.74    2.10
  -7  -3   8   14.19    2.70
  -7  -3   8   14.02    2.41
  -7  -3   8   13.02    2.01
   6   3  -8   14.46    2.27
   6   3  -8   10.53    1.49
   6   3  -8   10.88    1.26
  -6  -3   8   12.70    2.07
  -6  -3   8   12.46    1.47
  -6  -3   8   11.43    1.84
  -6  -3   8   11.69    1.62
  -6  -3   8    7.48    2.03
   5   3  -8    4.91    1.49
   5   3  -8   10.39    1.76
   5   3  -8    6.57    0.85
   5   3  -8    6.63    1.04
  -5  -3   8    8.75    1.22
  -5  -3   8    7.46    1.49
  -5  -3   8    3.92    1.41
  -5  -3   8    7.89    1.06
  -5  -3   8    8.52    1.41
   4   3  -8    4.62    0.81
   4   3  -8    2.98    1.23
   4   3  -8    5.06    0.99
   4   3  -8    5.45    1.19
   4   3  -8    6.24    0.71
  -4  -3   8    2.81    1.10
  -4  -3   8    5.64    0.87
  -4  -3   8    5.92    0.92
  -4  -3   8    6.75    1.34
  -4  -3   8    4.89    1.05
   3   3  -8    2.17    0.87
   3   3  -8    2.55    0.51
   3   3  -8    2.26    0.45
   3   3  -8    2.62    0.75
  -3  -3   8    2.54    0.50
  -3  -3   8    3.51    0.97
  -3  -3   8    3.83    0.87
  -3  -3   8    2.70    0.57
  -3  -3   8    1.93    0.94
  -3  -3   8    2.87    0.40
   2   3  -8    0.68    0.60
   2   3  -8    1.08    0.90
   2   3  -8    0.00    0.30
   2   3  -8    0.00    0.24
   2   3  -8   -0.09    0.47
  -2  -3   8   -0.12    0.63
  -2  -3   8    0.07    0.38
  -2  -3   8    0.07    0.69
  -2  -3   8    0.52    0.53
  -2  -3   8    0.26    0.18
   1   3  -8   11.75    1.23
   1   3  -8   13.40    1.64
   1   3  -8   11.73    1.28
   1   3  -8    8.91    1.49
  -1  -3   8    9.80    1.30
  -1  -3   8   10.62    1.68
   0   3  -8    1.41    0.32
   0   3  -8    1.26    0.25
   0   3  -8    1.47    0.80
   0   3  -8    3.37    0.78
   0   3  -8    1.86    0.41
   0   3  -8    0.99    0.56
   0  -3   8    1.16    0.71
   0  -3   8    1.64    0.49
   0  -3   8    1.18    0.65
   0  -3   8    1.30    0.41
   0  -3   8    1.44    0.53
  -1   3  -8    2.55    0.39
  -1   3  -8    2.79    0.77
  -1   3  -8    1.62    0.30
  -1   3  -8    1.99    0.78
   1  -3   8    3.55    0.96
   1  -3   8    1.93    0.47
   1  -3   8    1.96    0.47
   1  -3   8    1.86    0.69
   1  -3   8    2.69    0.53
  -2   3  -8    0.44    0.81
  -2   3  -8    1.05    0.69
  -2   3  -8    3.51    0.90
  -2   3  -8    1.11    0.28
   2  -3   8    1.18    0.51
   2  -3   8    1.48    0.45
   2  -3   8    1.57    0.46
   2  -3   8    1.14    0.87
   2  -3   8    1.07    0.49
   3  -3   8   15.45    1.85
   3  -3   8   15.57    1.77
   3  -3   8   17.81    2.51
   3  -3   8   15.04    1.96
   3  -3   8   17.06    1.85
  -4   3  -8    1.44    0.98
  -4   3  -8    1.56    0.32
  -4   3  -8    1.54    1.25
  -4   3  -8    2.37    0.54
  -4   3  -8    1.77    0.38
   4  -3   8    2.05    0.69
   4  -3   8    3.00    1.35
   4  -3   8    1.26    0.40
  -5   3  -8    9.59    1.68
  -5   3  -8    9.98    1.24
  -5   3  -8   13.15    1.40
  -5   3  -8   12.45    1.59
  -5   3  -8    7.59    1.67
   5  -3   8   15.27    1.88
   5  -3   8   15.03    1.54
  -6   3  -8    2.99    0.89
  -6   3  -8    1.22    1.71
  -6   3  -8    4.14    1.05
  -6   3  -8    3.99    1.49
  -6   3  -8    3.42    0.68
  -6   3  -8    3.23    0.52
   6  -3   8    3.65    1.05
   6  -3   8    3.19    0.74
  -7   3  -8   10.30    1.26
  -7   3  -8   10.81    1.66
  -7   3  -8   11.19    2.20
   7  -3   8   10.42    1.76
  -8   3  -8    0.24    0.49
  -8   3  -8    1.19    1.45
  -8   3  -8   -0.52    0.92
   8  -3   8    1.14    0.99
 -10  -2   8   -1.35    1.59
 -10  -2   8   -2.24    1.03
 -10  -2   8    0.01    2.52
  -9  -2   8   -0.62    1.35
  -9  -2   8   -0.44    0.81
  -9  -2   8   -2.03    2.00
   8   2  -8    0.07    1.44
   8   2  -8   -0.06    0.74
  -8  -2   8    1.09    0.68
  -8  -2   8   -1.13    1.21
  -8  -2   8   -0.38    0.91
  -8  -2   8   -1.58    1.52
  -8  -2   8    0.01    1.08
   7   2  -8    6.13    1.00
  -7  -2   8    7.31    1.07
  -7  -2   8    3.11    1.60
  -7  -2   8    5.31    1.35
  -7  -2   8    7.08    1.48
  -7  -2   8    4.99    0.96
   6   2  -8   53.90    6.52
   6   2  -8   57.13    6.51
   6   2  -8   67.34    6.21
  -6  -2   8   61.28    6.57
  -6  -2   8   66.87    6.25
  -6  -2   8   61.57    6.49
  -6  -2   8   67.48    6.19
   5   2  -8  235.99   24.61
   5   2  -8  259.49   24.54
   5   2  -8  267.35   24.83
  -5  -2   8  260.78   24.58
  -5  -2   8  240.07   24.83
  -5  -2   8  269.78   24.78
  -5  -2   8  259.47   24.52
   4   2  -8    5.81    0.79
   4   2  -8    6.27    1.00
   4   2  -8    3.82    1.19
   4   2  -8    6.36    1.21
   4   2  -8    4.96    0.64
  -4  -2   8    6.33    1.05
  -4  -2   8    5.69    1.18
  -4  -2   8    5.14    0.94
  -4  -2   8    5.11    0.82
  -4  -2   8    3.11    1.07
   3   2  -8    1.80    0.32
   3   2  -8    1.08    0.61
   3   2  -8    0.97    0.82
   3   2  -8    1.99    0.67
   3   2  -8    1.17    0.33
  -3  -2   8    1.56    0.37
  -3  -2   8    1.82    0.75
  -3  -2   8    0.59    0.73
  -3  -2   8    0.98    0.57
  -3  -2   8    0.07    0.38
   2   2  -8    0.04    0.51
   2   2  -8    0.18    0.73
   2   2  -8    0.58    0.24
   2   2  -8    0.09    0.30
  -2  -2   8   -0.26    0.62
  -2  -2   8    0.34    0.32
  -2  -2   8    0.12    0.40
  -2  -2   8   -0.48    0.57
   1   2  -8    0.25    0.47
   1   2  -8    0.52    0.66
   1   2  -8    0.09    0.27
   1   2  -8    0.17    0.52
   1   2  -8    0.08    0.16
  -1  -2   8   -0.03    0.52
  -1  -2   8    0.67    0.39
  -1  -2   8   -0.20    0.29
  -1  -2   8   -0.23    0.52
  -1  -2   8    0.48    0.43
   0   2  -8    0.45    0.19
   0   2  -8    1.00    0.70
   0   2  -8    0.22    0.54
   0   2  -8    1.17    0.60
   0  -2   8   -0.01    0.31
   0  -2   8    0.57    0.35
   0  -2   8    0.67    0.54
   0  -2   8    0.79    0.53
   0  -2   8    0.34    0.30
  -1   2  -8    0.84    0.24
  -1   2  -8    0.90    0.54
  -1   2  -8    1.61    0.58
  -1   2  -8    1.46    0.81
   1  -2   8    0.31    0.64
   1  -2   8    1.17    0.40
   1  -2   8    0.88    0.43
   1  -2   8    0.37    0.34
   1  -2   8    0.54    0.41
  -2   2  -8   27.12    3.30
   2  -2   8   28.35    3.10
   2  -2   8   36.67    3.69
   2  -2   8   28.82    3.14
   2  -2   8   32.33    3.29
  -3   2  -8   84.84    7.83
  -3   2  -8   72.33    7.74
  -3   2  -8   91.44    7.93
  -3   2  -8   69.81    8.30
   3  -2   8   79.97    7.95
   3  -2   8   84.79    7.88
   3  -2   8   80.21    7.90
  -4   2  -8    6.81    1.41
  -4   2  -8    4.91    1.49
  -4   2  -8    8.22    1.01
  -4   2  -8    6.99    0.84
  -4   2  -8    8.63    1.17
  -4   2  -8    7.61    1.37
   4  -2   8    8.42    1.09
   4  -2   8    8.16    1.36
  -5   2  -8    2.52    0.91
  -5   2  -8    1.93    0.96
  -5   2  -8    2.49    0.54
  -5   2  -8    2.18    0.39
  -5   2  -8    2.64    0.81
  -5   2  -8    1.50    1.44
   5  -2   8    2.41    0.59
   5  -2   8    3.87    0.96
  -6   2  -8    1.79    0.60
  -6   2  -8    0.97    0.92
  -6   2  -8    0.23    1.01
  -6   2  -8    1.22    0.35
  -6   2  -8    0.01    1.76
   6  -2   8    1.30    0.68
   6  -2   8    2.50    1.02
  -7   2  -8    1.17    0.45
  -7   2  -8    2.97    1.37
  -7   2  -8   -0.08    0.77
   7  -2   8    2.14    0.86
   7  -2   8    1.21    1.31
  -8   2  -8   -0.12    1.82
  -8   2  -8   -0.71    1.01
  -8   2  -8   -1.30    0.51
   8  -2   8    0.16    1.03
 -10  -1   8   -0.21    2.20
 -10  -1   8    1.45    0.99
 -10  -1   8   -1.46    1.39
  -9  -1   8    2.67    1.92
  -9  -1   8    0.87    1.21
  -9  -1   8    0.43    0.80
   8   1  -8   -0.01    1.32
  -8  -1   8   -0.54    1.40
  -8  -1   8    1.16    1.14
  -8  -1   8    0.53    0.70
  -8  -1   8    0.68    1.06
   7   1  -8    3.47    1.20
   7   1  -8    4.59    0.65
  -7  -1   8    2.16    1.37
  -7  -1   8    4.00    1.16
  -7  -1   8    4.76    1.19
  -7  -1   8    3.98    0.81
  -7  -1   8    3.12    0.73
   6   1  -8    4.03    0.94
   6   1  -8    3.56    0.50
   6   1  -8    2.19    0.74
  -6  -1   8    1.83    0.82
  -6  -1   8    1.30    1.09
  -6  -1   8    2.51    0.57
  -6  -1   8    3.06    0.69
  -6  -1   8    3.08    1.02
   5   1  -8    1.58    0.65
   5   1  -8    1.76    0.92
   5   1  -8    2.81    0.51
   5   1  -8    1.88    0.33
   5   1  -8    2.03    0.77
  -5  -1   8    2.89    1.01
  -5  -1   8    1.73    0.72
  -5  -1   8    2.44    0.49
  -5  -1   8    2.43    0.93
  -5  -1   8    3.10    0.61
   4   1  -8   10.07    1.13
   4   1  -8   11.53    1.55
  -4  -1   8   13.75    1.28
  -4  -1   8    9.35    1.68
   3   1  -8   67.45    6.13
   3   1  -8   55.06    6.26
  -3  -1   8   60.34    6.18
  -3  -1   8   66.60    6.12
  -3  -1   8   68.14    6.31
  -3  -1   8   60.36    6.44
   2   1  -8    0.02    0.15
   2   1  -8    0.06    0.68
   2   1  -8   -0.42    0.45
   2   1  -8    0.22    0.49
   2   1  -8    0.06    0.20
  -2  -1   8   -0.61    0.50
  -2  -1   8    0.05    0.50
  -2  -1   8    0.27    0.56
  -2  -1   8    0.29    0.32
  -2  -1   8    0.11    0.37
   1   1  -8    0.17    0.14
   1   1  -8    0.17    0.24
   1   1  -8    0.27    0.68
   1   1  -8    1.39    0.72
   1   1  -8    0.38    0.50
  -1  -1   8    0.13    0.31
  -1  -1   8    0.29    0.52
  -1  -1   8    0.24    0.39
  -1  -1   8    0.23    0.49
  -1  -1   8    0.76    0.31
   0   1  -8    0.66    0.19
   0   1  -8   -0.28    0.52
   0   1  -8    1.01    0.55
   0   1  -8    0.71    0.29
   0   1  -8   -0.62    0.68
   0  -1   8    0.59    0.31
   0  -1   8    0.88    0.64
   0  -1   8    0.64    0.38
   0  -1   8    1.38    0.56
   0  -1   8    0.46    0.29
  -1   1  -8    4.14    0.86
  -1   1  -8    2.76    1.00
   1  -1   8    5.04    0.85
   1  -1   8    5.16    0.76
   1  -1   8    5.24    0.91
   1  -1   8    5.14    0.73
  -2   1  -8    5.56    0.77
  -2   1  -8    2.02    1.01
  -2   1  -8    4.48    0.51
  -2   1  -8    4.31    0.91
  -2   1  -8    4.15    0.62
  -2   1  -8    4.60    0.95
   2  -1   8    5.56    0.83
   2  -1   8    5.23    0.72
   2  -1   8    3.67    0.77
   2  -1   8    4.36    0.82
  -3   1  -8    1.15    0.23
  -3   1  -8    1.71    0.72
  -3   1  -8    0.79    0.72
  -3   1  -8    0.89    0.33
  -3   1  -8    1.83    0.48
  -3   1  -8    0.13    0.95
   3  -1   8    1.47    0.48
   3  -1   8    1.19    0.39
   3  -1   8    1.65    1.29
   3  -1   8    2.42    0.68
  -4   1  -8    0.37    0.75
  -4   1  -8    1.06    0.62
  -4   1  -8    1.07    0.25
  -4   1  -8    0.80    0.40
  -4   1  -8    1.58    0.77
  -4   1  -8   -0.14    1.10
   4  -1   8    1.65    0.68
   4  -1   8    0.95    0.46
  -5   1  -8    9.09    1.51
  -5   1  -8    7.93    1.23
  -5   1  -8    8.45    1.45
  -5   1  -8    5.75    1.71
  -5   1  -8    7.55    0.93
   5  -1   8    8.05    1.25
   5  -1   8    7.35    1.45
  -6   1  -8    8.15    2.46
  -6   1  -8    9.89    1.84
  -6   1  -8    9.12    1.17
  -6   1  -8   11.14    1.61
   6  -1   8   10.48    1.61
   6  -1   8   11.46    2.13
  -7   1  -8    0.45    1.52
  -7   1  -8    0.54    0.46
  -7   1  -8    1.42    0.91
   7  -1   8    0.09    1.51
   7  -1   8    0.46    0.92
 -10   0   8    0.93    1.31
 -10   0   8    2.41    2.01
 -10   0   8    0.95    0.94
  -9   0   8    3.13    0.83
  -9   0   8    3.51    1.77
  -9   0   8    4.42    1.17
   8   0  -8   -0.10    1.21
   8   0  -8    0.48    0.47
  -8   0   8    0.41    0.58
  -8   0   8   -1.06    0.52
  -8   0   8    0.53    1.09
  -8   0   8   -0.20    1.37
  -8   0   8    0.33    0.98
   7   0  -8    7.63    0.83
   7   0  -8   10.35    1.54
   7   0  -8    6.48    0.93
   7   0  -8    6.22    0.96
  -7   0   8    6.21    1.35
  -7   0   8    6.17    1.21
  -7   0   8    2.47    2.04
  -7   0   8    5.83    0.94
  -7   0   8    5.43    0.88
   6   0  -8    5.38    0.72
   6   0  -8    3.98    1.03
   6   0  -8    4.72    0.85
   6   0  -8    4.32    0.61
  -6   0   8    4.09    1.14
  -6   0   8    5.07    1.26
  -6   0   8    4.90    0.72
  -6   0   8    6.21    0.91
  -6   0   8    5.97    1.01
   5   0  -8    1.60    0.61
   5   0  -8    0.34    0.78
   5   0  -8    2.27    0.30
   5   0  -8    3.45    0.76
   5   0  -8    1.63    0.34
  -5   0   8    1.75    0.56
  -5   0   8    1.62    0.78
  -5   0   8    1.38    0.43
  -5   0   8    1.33    0.82
  -5   0   8    1.84    0.49
   4   0  -8    2.69    0.73
   4   0  -8    3.58    0.41
   4   0  -8    1.81    0.93
   4   0  -8    3.60    0.50
  -4   0   8    3.81    0.54
  -4   0   8    4.27    0.72
  -4   0   8    4.17    0.92
  -4   0   8    2.77    0.59
   3   0  -8    1.75    0.26
   3   0  -8    1.57    0.60
   3   0  -8    4.49    1.14
   3   0  -8   -0.32    0.76
  -3   0   8    1.74    0.48
  -3   0   8    1.62    0.45
  -3   0   8    1.14    0.60
  -3   0   8    2.59    0.74
  -3   0   8    2.12    0.72
  -2   0   8  114.59   10.66
  -2   0   8  127.70   10.84
  -2   0   8   95.07   10.61
  -2   0   8  107.39   10.83
  -2   0   8  107.62   10.87
   1   0  -8    1.86    0.32
   1   0  -8    1.50    0.56
   1   0  -8    1.37    0.75
  -1   0   8    1.53    0.38
  -1   0   8    3.23    0.84
  -1   0   8    1.74    0.40
  -1   0   8    2.26    0.58
  -1   0   8    3.19    0.69
   0   0  -8   33.04    2.99
   0   0  -8   34.33    3.08
   0   0  -8   28.45    2.92
   0   0  -8   26.03    2.94
   0   0   8   35.46    3.24
   0   0   8   31.62    3.04
   0   0   8   25.42    3.01
   0   0   8   28.40    3.16
  -1   0  -8   16.56    2.21
  -1   0  -8   16.29    1.78
  -1   0  -8   19.30    1.90
  -1   0  -8   15.74    2.13
  -1   0  -8   20.48    2.02
   1   0   8   22.68    2.16
   1   0   8   18.78    2.10
   1   0   8   17.29    1.92
   1   0   8   18.34    1.95
  -2   0  -8   16.04    1.67
  -2   0  -8   15.06    1.53
  -2   0  -8   12.27    1.96
  -2   0  -8   12.51    1.92
  -2   0  -8   12.36    2.29
  -2   0  -8   17.13    1.86
   2   0   8   17.83    1.93
   2   0   8   14.92    1.88
   2   0   8   14.99    1.71
   2   0   8   19.06    1.74
  -3   0  -8    5.25    1.50
  -3   0  -8   10.00    1.41
  -3   0  -8    9.29    1.12
  -3   0  -8    6.74    1.22
  -3   0  -8    8.12    0.92
  -3   0  -8    8.62    1.51
   3   0   8    9.75    1.18
   3   0   8   10.74    1.20
   3   0   8   10.06    1.47
  -4   0  -8    0.51    1.31
  -4   0  -8    0.22    0.23
  -4   0  -8    0.58    0.50
  -4   0  -8    0.82    0.77
   4   0   8    0.14    0.46
   4   0   8    0.17    0.71
   4   0   8    0.16    1.27
  -5   0  -8    0.90    0.33
  -5   0  -8    0.14    1.61
  -5   0  -8   -0.11    0.95
  -5   0  -8   -0.17    0.58
   5   0   8   -0.15    0.57
   5   0   8    0.61    0.98
  -6   0  -8    7.66    0.94
  -6   0  -8    4.38    1.06
  -6   0  -8    5.10    1.56
   6   0   8    5.45    1.58
   6   0   8    6.62    1.16
  -7   0  -8    7.67    1.25
  -7   0  -8    4.81    2.09
  -7   0  -8   10.50    1.63
   7   0   8    6.95    1.37
   7   0   8   10.39    2.36
 -10   1   8    3.31    0.97
 -10   1   8    3.00    1.74
 -10   1   8    3.71    1.14
  -9   1   8   11.91    1.95
  -9   1   8   14.07    2.11
  -9   1   8   12.38    1.74
   8  -1  -8   -0.52    0.43
   8  -1  -8   -0.23    0.33
  -8   1   8    0.88    1.11
  -8   1   8    0.74    0.48
  -8   1   8    1.02    0.53
  -8   1   8   -0.92    0.85
  -8   1   8   -0.62    0.66
   7  -1  -8   -0.24    0.44
   7  -1  -8    0.06    0.26
   7  -1  -8    0.01    0.26
  -7   1   8   -0.09    0.40
  -7   1   8   -0.82    0.76
  -7   1   8    0.35    0.56
  -7   1   8   -0.74    0.41
   6  -1  -8    3.46    0.49
   6  -1  -8    3.32    0.65
   6  -1  -8    3.11    0.48
   6  -1  -8    3.26    0.85
  -6   1   8    3.70    1.03
  -6   1   8    3.72    0.63
  -6   1   8    3.97    0.60
  -6   1   8    3.01    0.64
  -6   1   8    2.34    0.94
  -6   1   8    4.88    0.66
   5  -1  -8    4.62    0.51
   5  -1  -8    3.06    0.87
   5  -1  -8    3.98    0.74
  -5   1   8    4.59    0.71
  -5   1   8    4.44    1.04
  -5   1   8    4.58    0.70
  -5   1   8    5.19    0.70
  -5   1   8    4.44    0.71
   4  -1  -8   14.28    1.47
   4  -1  -8   16.99    1.43
  -4   1   8   16.41    1.60
  -4   1   8   11.58    1.88
  -4   1   8   15.38    1.53
  -4   1   8   11.91    1.59
  -4   1   8   16.99    2.00
  -4   1   8   11.76    1.78
   3  -1  -8    1.41    0.24
   3  -1  -8    1.56    0.82
   3  -1  -8    0.64    0.55
  -3   1   8    1.21    0.52
  -3   1   8    1.66    0.39
  -3   1   8    0.79    0.59
  -3   1   8    1.40    0.57
  -3   1   8    1.55    0.35
   2  -1  -8    2.45    0.40
   2  -1  -8    1.95    0.81
   2  -1  -8    1.79    0.63
  -2   1   8    3.11    0.48
  -2   1   8    2.50    0.65
  -2   1   8    3.59    0.52
  -2   1   8    1.97    0.74
  -2   1   8    2.39    0.59
   1  -1  -8   24.70    2.39
   1  -1  -8   22.45    2.31
  -1   1   8   21.89    2.54
  -1   1   8   24.92    2.51
  -1   1   8   21.08    2.33
   0  -1  -8    7.59    1.44
   0  -1  -8    7.95    0.94
   0  -1  -8    9.88    1.22
   0  -1  -8    5.75    1.33
   0  -1  -8    7.47    0.89
   0   1   8    8.68    0.99
   0   1   8    8.74    1.17
   0   1   8    9.28    1.00
   0   1   8    6.19    1.17
  -1  -1  -8   10.76    1.66
  -1  -1  -8   13.39    1.26
  -1  -1  -8   12.05    1.82
  -1  -1  -8   13.01    1.42
  -1  -1  -8   11.98    1.58
  -1  -1  -8    8.68    1.80
   1   1   8   13.90    1.63
   1   1   8   15.29    1.45
   1   1   8   10.71    1.64
   1   1   8   13.82    1.43
  -2  -1  -8    3.91    1.22
  -2  -1  -8    5.11    1.03
  -2  -1  -8    3.66    0.91
  -2  -1  -8    3.46    0.69
  -2  -1  -8    4.35    0.54
   2   1   8    4.09    0.96
   2   1   8    5.02    0.97
   2   1   8    5.33    0.80
   2   1   8    5.31    0.81
  -3  -1  -8   15.89    2.26
  -3  -1  -8   16.76    1.66
  -3  -1  -8   16.17    2.73
  -3  -1  -8   16.90    1.91
   3   1   8   16.02    1.88
   3   1   8   16.25    2.19
  -4  -1  -8    4.80    0.96
  -4  -1  -8    3.19    1.16
  -4  -1  -8    3.76    0.57
   4   1   8    4.65    0.84
   4   1   8    5.49    1.22
   4   1   8    7.48    1.80
  -5  -1  -8    3.64    0.61
  -5  -1  -8    3.99    1.44
  -5  -1  -8    3.39    0.93
   5   1   8    4.21    0.86
   5   1   8    5.67    1.32
  -6  -1  -8    1.55    0.54
  -6  -1  -8   -1.00    1.03
  -6  -1  -8    0.28    1.71
   6   1   8    1.83    0.82
   6   1   8   -2.80    2.45
  -7  -1  -8    2.94    1.39
  -7  -1  -8    0.72    0.72
  -7  -1  -8    3.83    2.39
   7   1   8   -1.26    2.76
   7   1   8    2.27    1.21
 -10   2   8    2.82    1.30
 -10   2   8    2.41    0.90
  -9   2   8    3.78    0.86
  -9   2   8    2.23    1.10
  -9   2   8    1.98    1.09
  -8   2   8   10.52    1.76
  -8   2   8   11.64    1.22
  -8   2   8   11.80    1.54
  -8   2   8   11.19    1.40
  -8   2   8    8.85    1.59
  -8   2   8   10.95    1.26
  -7   2   8   -0.26    0.68
  -7   2   8    0.21    0.61
  -7   2   8    0.44    0.31
  -7   2   8   -0.29    0.39
   6  -2  -8   39.75    4.20
  -6   2   8   44.83    4.24
  -6   2   8   41.25    4.40
  -6   2   8   44.17    4.51
  -6   2   8   45.89    4.24
   5  -2  -8   20.72    1.86
  -5   2   8   16.16    1.97
  -5   2   8   20.32    2.10
  -5   2   8   18.72    1.96
  -5   2   8   16.19    2.32
  -5   2   8   17.44    2.37
  -5   2   8   19.72    1.91
   4  -2  -8    5.33    0.71
   4  -2  -8    2.89    0.95
   4  -2  -8    4.36    0.85
  -4   2   8    4.32    0.99
  -4   2   8    4.71    1.02
  -4   2   8    5.32    0.84
  -4   2   8    4.69    0.76
  -4   2   8    5.49    0.63
   3  -2  -8    1.60    0.84
   3  -2  -8    1.06    0.38
   3  -2  -8    1.31    0.27
   3  -2  -8    1.12    0.59
  -3   2   8    0.65    0.53
  -3   2   8    1.64    0.31
  -3   2   8    2.54    0.51
  -3   2   8    0.62    0.60
  -3   2   8    1.48    0.38
   2  -2  -8    1.33    0.44
   2  -2  -8    1.12    0.33
   2  -2  -8    0.25    0.78
   2  -2  -8    1.20    0.58
  -2   2   8    1.34    0.42
  -2   2   8    1.50    0.67
  -2   2   8    1.36    0.31
  -2   2   8    1.84    0.64
  -2   2   8    0.95    0.32
   1  -2  -8   29.37    3.26
   1  -2  -8   35.74    3.33
   1  -2  -8   31.24    3.48
   1  -2  -8   34.23    3.45
  -1   2   8   31.66    3.31
  -1   2   8   36.22    3.33
  -1   2   8   37.00    3.48
  -1   2   8   31.60    3.54
   0  -2  -8    0.34    0.29
   0  -2  -8    0.87    0.78
   0  -2  -8   -0.29    0.50
   0  -2  -8   -0.42    0.85
   0  -2  -8    0.05    0.31
   0   2   8    0.61    0.54
   0   2   8    1.28    0.90
   0   2   8    0.21    0.28
   0   2   8    0.25    0.30
   0   2   8   -0.15    0.40
  -1  -2  -8   11.46    1.38
  -1  -2  -8    9.53    1.82
  -1  -2  -8   12.17    2.20
  -1  -2  -8   11.74    1.74
   1   2   8   10.77    1.35
   1   2   8   12.37    1.32
   1   2   8   11.16    1.62
   1   2   8   11.43    1.58
  -2  -2  -8   42.48    4.23
  -2  -2  -8   39.44    4.04
  -2  -2  -8   40.17    4.55
   2   2   8   48.32    4.49
   2   2   8   33.33    4.26
   2   2   8   45.70    4.16
  -3  -2  -8    1.00    0.66
  -3  -2  -8    0.43    1.07
  -3  -2  -8    0.81    0.35
   3   2   8   -0.73    0.51
   3   2   8    0.99    0.45
   3   2   8    0.68    0.80
   3   2   8   -0.73    1.58
  -4  -2  -8    0.72    1.27
  -4  -2  -8   -0.06    0.76
  -4  -2  -8   -0.29    0.40
   4   2   8    0.27    1.20
   4   2   8   -1.99    1.70
   4   2   8    0.49    0.66
  -5  -2  -8    4.00    0.73
  -5  -2  -8    4.37    1.11
  -5  -2  -8    2.57    2.02
   5   2   8    5.10    1.63
   5   2   8    2.37    0.97
  -6  -2  -8    0.67    2.49
  -6  -2  -8    0.63    0.72
  -6  -2  -8   -0.86    1.27
   6   2   8    5.10    1.32
   6   2   8    2.84    2.00
 -10   3   8    3.37    0.94
 -10   3   8    4.67    1.90
  -9   3   8    0.43    0.65
  -9   3   8    1.55    1.36
  -8   3   8   -0.49    0.49
  -8   3   8   -1.94    1.00
  -8   3   8   -1.56    1.03
  -7   3   8    0.36    0.41
  -7   3   8    0.88    0.93
  -7   3   8    1.30    0.78
  -6   3   8    3.09    0.57
  -6   3   8    1.57    0.64
  -6   3   8    0.85    0.39
  -6   3   8    1.86    0.90
  -6   3   8    1.68    0.73
   5  -3  -8    4.18    0.58
   5  -3  -8    3.34    0.63
  -5   3   8    3.81    0.55
  -5   3   8    5.02    0.78
  -5   3   8    5.40    0.73
  -5   3   8    5.69    0.87
  -5   3   8    3.78    0.97
  -5   3   8    5.39    1.05
   4  -3  -8   11.03    1.77
   4  -3  -8   14.61    1.54
  -4   3   8   18.01    2.02
  -4   3   8   16.30    1.65
  -4   3   8   12.36    1.96
  -4   3   8   16.03    1.53
  -4   3   8   14.89    1.62
   3  -3  -8   40.83    4.22
   3  -3  -8   39.33    4.06
  -3   3   8   45.53    4.07
  -3   3   8   45.01    4.19
  -3   3   8   37.09    4.08
   2  -3  -8   42.52    4.33
   2  -3  -8   42.94    4.38
   2  -3  -8   44.40    4.57
  -2   3   8   44.26    4.37
  -2   3   8   43.03    4.36
  -2   3   8   50.31    4.52
   1  -3  -8    0.08    0.35
   1  -3  -8   -0.40    0.65
   1  -3  -8    0.41    0.32
  -1   3   8    0.10    0.28
  -1   3   8    1.16    0.85
  -1   3   8    0.46    0.44
  -1   3   8    0.50    0.59
  -1   3   8   -0.16    0.27
   0  -3  -8    0.78    0.38
   0  -3  -8    1.23    0.80
   0  -3  -8    0.24    0.42
   0   3   8    0.98    0.40
   0   3   8    0.36    0.30
   0   3   8    2.38    1.01
   0   3   8    0.75    0.56
   0   3   8   -0.09    0.63
  -1  -3  -8   13.02    1.76
  -1  -3  -8   14.31    2.49
  -1  -3  -8   17.04    1.91
   1   3   8   16.13    2.38
   1   3   8   18.23    1.76
   1   3   8   19.39    2.26
   1   3   8   14.91    1.81
  -2  -3  -8    2.88    0.74
  -2  -3  -8    3.87    1.42
   2   3   8    1.93    0.62
   2   3   8    7.82    1.73
   2   3   8    3.75    0.65
   2   3   8    3.25    1.03
  -3  -3  -8    1.05    1.54
  -3  -3  -8    4.54    0.68
  -3  -3  -8    3.49    0.94
   3   3   8    2.96    0.85
   3   3   8    3.72    1.33
  -4  -3  -8    2.30    1.08
  -4  -3  -8    4.56    2.11
  -4  -3  -8    4.54    0.80
   4   3   8    5.95    1.17
   4   3   8    4.38    1.58
  -5  -3  -8    2.10    1.28
  -5  -3  -8   -0.65    0.78
   5   3   8    0.67    1.05
   5   3   8    2.14    1.85
  -9   4   8    2.31    0.76
  -9   4   8    4.56    1.52
  -8   4   8   -0.73    0.50
  -8   4   8    0.60    1.14
  -7   4   8    6.30    1.20
  -7   4   8    5.06    1.26
  -6   4   8    1.79    0.85
  -6   4   8    0.03    0.73
  -5   4   8    0.09    0.40
  -5   4   8   -0.47    0.75
  -5   4   8   -0.30    0.24
  -5   4   8    0.01    0.35
   4  -4  -8    0.68    0.65
   4  -4  -8    1.22    0.40
  -4   4   8    1.86    0.98
  -4   4   8    0.60    0.76
  -4   4   8    0.29    0.40
  -4   4   8    1.21    0.53
  -4   4   8    0.98    0.31
   3  -4  -8   66.86    6.96
   3  -4  -8   64.65    6.89
  -3   4   8   77.16    6.75
  -3   4   8   65.54    7.25
  -3   4   8   71.36    6.74
   2  -4  -8   32.93    3.40
   2  -4  -8   33.84    3.34
   2  -4  -8   33.81    3.72
  -2   4   8   31.34    3.31
  -2   4   8   31.49    4.36
  -2   4   8   32.54    3.35
  -2   4   8   37.47    3.55
   1  -4  -8    2.04    0.51
   1  -4  -8    1.99    1.03
   1  -4  -8    1.99    0.58
  -1   4   8    1.86    0.82
  -1   4   8    4.61    1.21
  -1   4   8    1.76    0.41
  -1   4   8    2.39    0.73
   0  -4  -8    3.95    0.70
   0  -4  -8    4.35    0.81
   0  -4  -8    4.38    1.28
   0   4   8    3.44    0.96
   0   4   8    2.84    0.65
   0   4   8    4.69    0.63
   0   4   8    2.66    0.89
  -1  -4  -8    2.65    0.62
  -1  -4  -8    0.45    0.69
  -1  -4  -8    0.63    1.44
   1   4   8    4.62    1.42
   1   4   8    1.45    0.88
   1   4   8    1.94    0.62
   1   4   8    1.41    0.49
  -2  -4  -8   -0.21    0.61
  -2  -4  -8   -0.15    1.64
  -2  -4  -8    0.60    0.82
   2   4   8    0.00    1.02
   2   4   8    0.55    0.49
   2   4   8    0.47    0.62
  -3  -4  -8    2.92    1.99
   3   4   8    7.46    1.71
   3   4   8    4.08    1.03
  -4  -4  -8    2.47    1.29
   4   4   8    4.46    1.90
   4   4   8    1.85    0.94
  -9   5   8    3.42    1.56
  -8   5   8    0.24    1.18
  -7   5   8    1.27    1.06
  -6   5   8    1.78    1.00
  -6   5   8   -1.14    0.92
  -5   5   8    4.64    1.16
   4  -5  -8    5.43    0.82
   4  -5  -8    4.27    1.01
  -4   5   8    5.30    0.94
  -4   5   8    5.21    0.84
  -4   5   8    5.74    0.80
  -4   5   8    6.68    1.26
  -4   5   8    7.12    1.31
   3  -5  -8   -1.37    1.12
   3  -5  -8   -0.12    0.58
  -3   5   8   -0.06    0.55
  -3   5   8   -1.43    0.73
  -3   5   8    0.39    0.35
  -3   5   8    0.42    0.48
  -3   5   8    0.24    0.98
   2  -5  -8    0.32    1.27
   2  -5  -8    1.10    0.50
   2  -5  -8    0.21    0.63
  -2   5   8    1.28    0.47
  -2   5   8    0.94    0.66
  -2   5   8    1.67    0.84
  -2   5   8    0.90    0.39
  -2   5   8    0.59    0.99
   1  -5  -8    5.22    1.60
   1  -5  -8    4.59    0.82
   1  -5  -8    6.03    1.01
  -1   5   8    3.70    1.02
  -1   5   8    3.39    0.62
  -1   5   8    4.59    1.06
  -1   5   8    4.57    0.79
   0  -5  -8   10.87    1.49
   0  -5  -8    8.85    1.33
   0   5   8   11.17    1.93
   0   5   8    9.38    1.41
  -1  -5  -8    5.66    1.06
  -1  -5  -8    9.23    1.39
   1   5   8    8.55    1.65
   1   5   8    4.51    1.00
  -2  -5  -8   -0.17    0.76
  -2  -5  -8    1.12    1.22
   2   5   8   -0.65    0.77
   2   5   8    3.45    1.44
  -3  -5  -8   -0.48    1.41
  -3  -5  -8    0.38    0.96
   3   5   8   -0.68    1.68
   3   5   8   -1.39    0.94
  -8   6   8    0.76    1.43
  -7   6   8    2.56    1.29
  -6   6   8    6.78    1.51
  -5   6   8    1.35    1.06
  -4   6   8    2.67    1.12
  -4   6   8    1.72    1.11
  -4   6   8    1.78    0.82
  -3   6   8    0.57    0.50
  -3   6   8    0.62    0.99
  -3   6   8    1.84    2.01
  -3   6   8    0.03    0.76
   2  -6  -8    1.16    0.63
  -2   6   8    0.36    1.02
  -2   6   8   -0.02    0.87
  -2   6   8    0.20    0.55
   1  -6  -8   -0.22    0.86
  -1   6   8    1.25    0.62
  -1   6   8    1.46    0.98
   0  -6  -8    0.70    0.71
   0   6   8   -0.24    0.66
   0   6   8   -1.36    1.09
  -1  -6  -8    3.62    0.95
   1   6   8    2.02    1.51
   1   6   8    2.21    0.97
  -2  -6  -8    1.80    1.06
   2   6   8    0.86    1.79
   2   6   8   -0.16    1.05
  -6   7   8    1.05    1.38
  -5   7   8    2.91    1.42
  -4   7   8   -0.18    1.04
  -4   7   8   -0.27    0.62
  -4   7   8    0.49    1.32
  -3   7   8   14.18    2.59
  -3   7   8   19.07    2.12
   2  -7  -8    5.80    1.08
  -2   7   8    4.87    1.04
  -2   7   8    4.12    1.45
   1  -7  -8   -0.03    0.88
  -1   7   8   -1.53    1.29
  -1   7   8   -0.23    0.82
   0  -7  -8    0.56    0.96
   0   7   8   -0.83    0.94
   0   7   8   -0.62    1.55
   0  11  -9    2.34    2.23
   0  11  -9    2.11    1.07
   0 -11   9    1.55    0.88
  -1  11  -9    6.47    1.38
  -1  11  -9    7.59    2.45
  -2  11  -9    3.60    2.30
  -2  11  -9    3.49    1.03
   3  10  -9    0.69    2.22
   3  10  -9   -1.36    1.06
  -3 -10   9   -1.71    2.37
  -3 -10   9   -0.76    0.88
   2  10  -9    1.47    2.01
   2  10  -9    1.57    0.93
  -2 -10   9    0.32    0.84
  -2 -10   9    0.51    2.00
   1  10  -9    1.15    0.94
   1  10  -9    4.22    2.01
  -1 -10   9   -1.60    1.84
  -1 -10   9    2.03    0.78
   0  10  -9    0.60    1.86
   0  10  -9    3.59    0.92
   0 -10   9    0.50    1.77
   0 -10   9    2.46    0.79
  -1  10  -9    7.82    2.10
  -1  10  -9    7.32    1.25
   1 -10   9    4.08    1.84
  -2  10  -9    9.30    1.32
  -2  10  -9    8.15    2.24
   2 -10   9    5.39    1.80
  -3  10  -9    3.17    1.77
  -3  10  -9    4.34    0.85
  -4  10  -9   -0.12    0.56
  -4  10  -9    0.80    1.65
   5   9  -9    6.20    1.39
   5   9  -9    6.35    2.66
  -5  -9   9    6.51    3.56
  -5  -9   9    2.64    2.26
  -5  -9   9    3.57    1.14
   4   9  -9    0.16    0.99
   4   9  -9   -0.37    2.02
  -4  -9   9    0.98    3.08
  -4  -9   9    0.59    0.85
  -4  -9   9    1.09    1.94
   3   9  -9   19.00    3.63
   3   9  -9   19.15    2.42
  -3  -9   9   10.05    3.49
  -3  -9   9   17.93    2.20
  -3  -9   9   20.35    3.01
   2   9  -9    3.29    0.83
   2   9  -9    1.61    1.70
  -2  -9   9    1.74    0.78
  -2  -9   9    3.23    1.75
  -2  -9   9    1.29    2.34
   1   9  -9    0.74    0.65
   1   9  -9    2.18    1.57
  -1  -9   9    1.30    2.06
  -1  -9   9    1.71    0.69
  -1  -9   9    0.31    1.53
   0   9  -9    2.96    1.52
   0   9  -9    2.65    0.83
   0  -9   9    2.87    1.56
   0  -9   9    3.86    2.05
   0  -9   9    2.31    0.70
  -1   9  -9    6.43    1.75
  -1   9  -9    5.89    2.04
  -1   9  -9    7.94    1.24
   1  -9   9    9.38    1.77
  -2   9  -9   15.47    3.61
  -2   9  -9   17.20    1.88
   2  -9   9   10.38    2.53
   2  -9   9   17.03    2.57
  -3   9  -9    3.32    0.74
  -3   9  -9    6.43    1.77
   3  -9   9    5.03    1.27
  -4   9  -9    4.09    0.75
  -4   9  -9    8.13    2.01
   4  -9   9    3.27    1.12
  -5   9  -9    1.61    0.52
  -5   9  -9   -1.02    1.62
  -6   9  -9   -0.86    1.96
   6   8  -9   -1.60    2.50
   6   8  -9    2.04    1.18
  -6  -8   9   -0.21    1.94
  -6  -8   9    3.26    1.25
  -6  -8   9    0.24    0.88
  -6  -8   9    0.73    2.90
   5   8  -9    2.37    0.97
  -5  -8   9    0.14    1.71
  -5  -8   9    1.39    0.83
  -5  -8   9    0.82    2.65
   4   8  -9    0.92    1.81
   4   8  -9    2.45    0.85
  -4  -8   9    0.89    1.63
  -4  -8   9    2.13    2.52
  -4  -8   9    2.01    0.74
   3   8  -9    8.99    1.40
   3   8  -9    7.35    4.26
  -3  -8   9    4.18    2.43
  -3  -8   9   10.20    1.38
  -3  -8   9    8.61    1.91
   2   8  -9   -3.07    2.25
   2   8  -9    0.90    0.61
   2   8  -9    0.62    1.32
  -2  -8   9    0.27    1.43
  -2  -8   9   -0.40    0.55
  -2  -8   9    0.96    1.65
   1   8  -9   40.95    4.24
   1   8  -9   38.64    4.92
  -1  -8   9   44.74    4.16
  -1  -8   9   35.79    4.77
   0   8  -9    4.39    1.67
   0   8  -9    6.26    0.96
   0   8  -9    3.85    2.32
   0  -8   9    4.63    0.78
   0  -8   9    3.61    1.78
   0  -8   9    2.14    1.23
  -1   8  -9   -0.19    2.05
  -1   8  -9    0.55    0.52
  -1   8  -9    2.00    1.43
  -1   8  -9   -0.43    1.07
   1  -8   9   -0.58    1.34
   1  -8   9   -1.51    1.02
  -2   8  -9   11.37    1.40
  -2   8  -9   10.00    2.56
  -2   8  -9   14.85    2.33
  -2   8  -9    7.03    1.86
   2  -8   9   10.86    1.78
  -3   8  -9    0.30    2.27
  -3   8  -9    2.37    0.57
  -3   8  -9    3.60    1.35
  -3   8  -9    1.13    1.54
   3  -8   9    1.98    1.44
   3  -8   9    3.33    0.98
  -4   8  -9   18.59    1.95
   4  -8   9   15.80    2.31
  -5   8  -9    0.02    0.41
  -5   8  -9    0.48    1.42
   5  -8   9    0.11    0.81
  -6   8  -9   26.75    4.05
   7   7  -9   25.57    3.70
  -7  -7   9   29.74    4.67
  -7  -7   9   34.51    3.72
   6   7  -9   20.92    4.06
   6   7  -9   17.53    2.52
  -6  -7   9   21.14    2.61
  -6  -7   9   18.77    3.06
  -6  -7   9   15.49    2.21
   5   7  -9    0.18    1.67
   5   7  -9    1.00    0.74
  -5  -7   9    0.98    2.12
  -5  -7   9    0.83    1.33
  -5  -7   9    0.92    0.81
  -5  -7   9    0.88    0.84
  -5  -7   9   -1.31    1.96
   4   7  -9    2.97    0.80
   4   7  -9    0.91    1.41
  -4  -7   9    1.73    0.63
  -4  -7   9    4.75    2.13
  -4  -7   9    2.72    2.00
  -4  -7   9    1.44    1.25
   3   7  -9    3.27    1.34
   3   7  -9    4.49    2.23
  -3  -7   9   -0.10    1.70
  -3  -7   9    1.86    1.70
  -3  -7   9    1.07    0.52
   2   7  -9    3.50    0.82
   2   7  -9    2.06    2.16
   2   7  -9    3.37    1.26
  -2  -7   9    4.28    1.75
  -2  -7   9    4.42    0.72
  -2  -7   9    2.20    1.20
  -2  -7   9    2.46    1.61
   1   7  -9    1.59    1.08
   1   7  -9    0.92    1.75
   1   7  -9    0.86    1.70
   1   7  -9    0.69    0.46
  -1  -7   9    0.48    0.39
  -1  -7   9    0.60    1.41
  -1  -7   9   -0.36    0.97
  -1  -7   9    0.64    1.43
   0   7  -9    2.41    1.31
   0   7  -9    3.35    1.22
   0   7  -9    2.03    1.72
   0   7  -9    4.57    0.78
   0  -7   9    1.03    1.33
   0  -7   9    4.95    1.20
   0  -7   9    0.64    1.68
  -1   7  -9    6.62    1.70
  -1   7  -9   10.43    1.94
   1  -7   9    8.79    1.52
  -2   7  -9   12.23    1.33
  -2   7  -9   10.99    1.43
  -2   7  -9   10.78    1.86
   2  -7   9    8.79    1.89
   2  -7   9    9.65    1.56
  -3   7  -9    0.34    0.35
  -3   7  -9   -0.52    1.29
  -3   7  -9   -0.41    2.22
  -3   7  -9    0.50    1.02
  -3   7  -9   -0.59    0.63
   3  -7   9   -0.45    0.71
   3  -7   9    1.20    1.08
  -4   7  -9    5.32    1.69
  -4   7  -9    6.53    2.20
  -4   7  -9    6.09    0.87
   4  -7   9    4.76    1.03
   4  -7   9    6.41    1.36
  -5   7  -9    3.24    0.58
  -5   7  -9    7.91    1.70
   5  -7   9    3.46    0.85
  -6   7  -9    4.53    0.80
   6  -7   9    3.22    0.95
  -7   7  -9    1.63    0.54
  -7   7  -9    0.37    0.71
  -7   7  -9    0.29    0.87
   8   6  -9    2.11    1.36
  -8  -6   9    0.98    1.94
  -8  -6   9   -0.18    1.17
  -8  -6   9   -2.13    2.90
   7   6  -9    3.70    2.21
   7   6  -9    4.17    1.20
  -7  -6   9    3.95    1.68
  -7  -6   9    4.35    1.08
  -7  -6   9   -0.29    2.28
   6   6  -9    0.72    1.68
   6   6  -9    1.26    0.89
  -6  -6   9    1.79    2.01
  -6  -6   9    0.44    1.41
  -6  -6   9    0.94    0.80
  -6  -6   9    1.17    2.23
   5   6  -9   15.64    2.91
   5   6  -9   16.13    2.02
  -5  -6   9   15.47    1.81
  -5  -6   9   11.73    3.35
  -5  -6   9   16.96    2.04
  -5  -6   9   13.68    2.68
  -5  -6   9   15.41    2.48
   4   6  -9   19.46    2.98
   4   6  -9   19.03    2.29
  -4  -6   9   21.66    2.57
  -4  -6   9   20.43    2.15
  -4  -6   9   14.79    3.00
  -4  -6   9   22.27    3.47
   3   6  -9    1.97    0.57
   3   6  -9    0.34    0.96
   3   6  -9   -0.23    1.96
  -3  -6   9    3.59    1.60
  -3  -6   9   -0.02    0.77
  -3  -6   9    0.63    0.94
  -3  -6   9    0.44    1.39
  -3  -6   9    1.69    0.45
   2   6  -9   14.39    2.35
   2   6  -9   15.31    1.80
   2   6  -9   12.69    2.14
   2   6  -9   10.72    2.65
  -2  -6   9   16.61    2.07
  -2  -6   9   16.80    2.40
  -2  -6   9   16.87    2.84
  -2  -6   9   17.60    1.72
   1   6  -9   -0.18    0.93
   1   6  -9   -0.86    1.38
   1   6  -9   -0.02    0.33
   1   6  -9    1.11    0.87
   1   6  -9    0.65    0.59
  -1  -6   9   -1.16    0.63
  -1  -6   9   -0.31    1.19
  -1  -6   9   -1.07    0.76
  -1  -6   9   -0.32    0.31
  -1  -6   9    0.65    1.16
   0   6  -9   12.55    1.88
   0   6  -9    9.27    1.22
   0   6  -9    5.57    1.46
   0   6  -9    9.20    1.40
   0  -6   9   11.82    1.73
   0  -6   9    8.93    1.48
   0  -6   9   13.41    2.37
  -1   6  -9    3.83    0.63
  -1   6  -9    3.56    1.19
  -1   6  -9    3.85    0.65
  -1   6  -9    2.40    0.72
  -1   6  -9    2.02    1.47
   1  -6   9    4.72    0.74
   1  -6   9    3.87    1.02
   1  -6   9    4.01    1.44
   1  -6   9    2.74    1.38
  -2   6  -9    3.87    1.08
  -2   6  -9    2.48    0.47
  -2   6  -9    1.93    0.52
  -2   6  -9   -0.57    1.14
  -2   6  -9    0.79    1.46
   2  -6   9    1.95    1.08
   2  -6   9    2.42    0.48
   2  -6   9    2.78    1.71
   2  -6   9    1.71    0.78
  -3   6  -9    0.19    0.30
  -3   6  -9    0.71    1.24
  -3   6  -9    1.01    0.95
  -3   6  -9   -0.33    0.53
  -3   6  -9    1.71    1.47
   3  -6   9    0.87    0.84
   3  -6   9   -0.12    0.57
  -4   6  -9    2.84    1.53
  -4   6  -9    3.45    0.88
  -4   6  -9    1.26    1.73
  -4   6  -9    4.83    0.74
   4  -6   9    6.41    0.92
   4  -6   9    6.69    1.38
  -5   6  -9    2.81    1.58
   5  -6   9    4.28    1.22
   5  -6   9    5.40    0.90
  -6   6  -9    0.65    0.37
  -6   6  -9   -0.24    0.51
  -6   6  -9   -0.09    0.60
   6  -6   9    0.83    0.74
  -7   6  -9    2.45    0.99
  -7   6  -9    1.62    0.53
  -7   6  -9    1.83    0.74
   8   5  -9    5.24    1.38
  -8  -5   9    4.77    1.18
  -8  -5   9    6.37    1.87
  -8  -5   9    5.56    2.72
   7   5  -9   -0.39    0.85
   7   5  -9   -1.77    1.78
  -7  -5   9   -0.11    1.39
  -7  -5   9    0.73    0.78
  -7  -5   9    0.63    1.28
  -7  -5   9   -0.44    2.00
   6   5  -9    0.75    0.71
   6   5  -9    1.96    1.43
  -6  -5   9    2.10    1.26
  -6  -5   9   -0.12    1.01
  -6  -5   9    0.49    1.56
  -6  -5   9    1.22    1.56
  -6  -5   9    2.45    0.70
   5   5  -9    9.96    1.36
   5   5  -9   10.64    1.97
  -5  -5   9    5.25    2.01
  -5  -5   9    7.05    1.25
  -5  -5   9    7.82    1.63
  -5  -5   9    8.02    1.81
   4   5  -9   13.43    2.35
   4   5  -9    8.80    2.43
   4   5  -9   14.66    1.68
  -4  -5   9   15.39    2.30
  -4  -5   9   11.78    2.49
  -4  -5   9   14.94    1.90
  -4  -5   9   14.43    1.53
  -4  -5   9   13.83    1.73
  -4  -5   9   13.45    2.67
   3   5  -9   32.75    3.95
   3   5  -9   33.06    3.51
   3   5  -9   32.42    3.95
   3   5  -9   35.13    3.50
  -3  -5   9   31.08    3.88
  -3  -5   9   29.63    4.12
  -3  -5   9   39.56    3.43
  -3  -5   9   35.76    3.65
   2   5  -9    0.81    0.83
   2   5  -9    0.92    0.42
   2   5  -9    1.17    1.43
   2   5  -9   -1.90    0.86
   2   5  -9    0.92    0.50
  -2  -5   9    1.10    1.02
  -2  -5   9    0.73    0.57
  -2  -5   9    2.20    1.25
  -2  -5   9    0.71    0.73
  -2  -5   9    1.16    0.35
   1   5  -9    6.46    0.89
   1   5  -9    2.49    1.42
   1   5  -9    7.45    1.37
   1   5  -9    6.10    0.86
   1   5  -9    6.10    1.21
  -1  -5   9    5.76    0.98
  -1  -5   9    4.26    1.21
  -1  -5   9    3.42    1.25
  -1  -5   9    7.18    1.25
   0   5  -9    1.34    0.57
   0   5  -9    0.58    1.25
   0   5  -9    3.38    0.53
   0   5  -9   -0.10    0.89
   0   5  -9    3.62    0.99
   0  -5   9    1.92    0.54
   0  -5   9    1.90    1.12
   0  -5   9    2.76    0.74
   0  -5   9    1.71    1.07
  -1   5  -9   23.01    2.26
  -1   5  -9   16.78    2.76
  -1   5  -9   22.40    2.22
  -1   5  -9   20.86    2.36
   1  -5   9   22.56    2.53
   1  -5   9   19.74    2.85
   1  -5   9   18.53    2.95
   1  -5   9   25.79    2.34
   1  -5   9   20.12    2.42
  -2   5  -9    7.44    0.98
  -2   5  -9    8.28    0.94
  -2   5  -9    6.13    1.36
   2  -5   9    6.53    1.65
   2  -5   9    9.47    1.30
   2  -5   9    4.89    1.07
   2  -5   9    7.76    1.53
   2  -5   9    8.72    1.05
  -3   5  -9   10.33    1.14
  -3   5  -9    8.42    1.71
  -3   5  -9    9.58    1.27
  -3   5  -9    5.69    1.89
   3  -5   9   11.09    1.77
   3  -5   9   10.66    2.67
   3  -5   9   11.78    1.45
  -4   5  -9   10.05    1.11
  -4   5  -9    5.91    2.09
  -4   5  -9    8.99    1.38
  -4   5  -9    5.83    1.72
   4  -5   9    9.54    1.37
   4  -5   9   13.36    1.74
  -5   5  -9   13.12    1.47
  -5   5  -9    8.83    2.13
   5  -5   9   11.12    1.61
   5  -5   9   14.06    2.08
  -6   5  -9    1.59    0.41
  -6   5  -9    1.69    0.75
  -6   5  -9    2.22    0.58
   6  -5   9    2.03    0.76
   6  -5   9    0.47    1.19
  -7   5  -9    1.42    0.49
  -7   5  -9    1.70    0.72
  -7   5  -9    1.68    1.00
   7  -5   9    1.47    0.88
  -9  -4   9    0.66    1.12
  -9  -4   9    0.57    2.63
  -9  -4   9    0.61    1.82
   8   4  -9    2.83    1.08
  -8  -4   9    1.13    2.19
  -8  -4   9    2.00    1.55
  -8  -4   9    2.83    0.89
   7   4  -9   16.29    2.72
   7   4  -9   13.86    2.04
  -7  -4   9   16.56    2.39
  -7  -4   9    9.62    2.56
  -7  -4   9   15.38    2.42
  -7  -4   9   15.90    2.79
  -7  -4   9   15.87    1.98
   6   4  -9    7.61    1.76
   6   4  -9    6.76    1.12
  -6  -4   9    6.31    1.45
  -6  -4   9    8.86    1.95
  -6  -4   9    6.09    1.23
  -6  -4   9    4.59    1.88
   5   4  -9   -0.76    0.42
   5   4  -9    0.12    0.48
   5   4  -9   -0.25    1.01
  -5  -4   9    1.18    0.72
  -5  -4   9   -0.74    0.90
  -5  -4   9    0.09    0.49
  -5  -4   9   -0.23    1.28
  -5  -4   9   -0.08    1.14
   4   4  -9    0.84    0.92
   4   4  -9    0.42    0.38
   4   4  -9    0.17    0.37
   4   4  -9   -0.02    1.28
   4   4  -9    0.82    0.94
  -4  -4   9    0.54    1.19
  -4  -4   9   -0.41    0.62
  -4  -4   9    1.02    0.79
  -4  -4   9   -0.18    0.38
  -4  -4   9   -1.49    1.10
  -4  -4   9    0.22    0.28
   3   4  -9    2.70    0.95
   3   4  -9    2.51    0.53
   3   4  -9    2.80    0.99
   3   4  -9    1.31    1.28
  -3  -4   9    2.41    0.80
  -3  -4   9    1.95    0.39
  -3  -4   9    2.21    0.68
  -3  -4   9    1.17    0.97
  -3  -4   9    1.54    1.15
   2   4  -9    0.54    0.78
   2   4  -9    1.15    1.14
   2   4  -9    0.51    0.36
   2   4  -9    0.86    0.46
   2   4  -9    0.94    0.69
  -2  -4   9    0.57    0.95
  -2  -4   9    1.77    0.70
  -2  -4   9    0.64    0.48
  -2  -4   9    1.35    0.29
   1   4  -9    3.37    0.97
   1   4  -9    4.85    0.71
   1   4  -9    2.58    1.18
   1   4  -9    5.17    0.74
   1   4  -9    4.44    1.01
  -1  -4   9    4.86    0.93
  -1  -4   9    3.62    0.71
  -1  -4   9    4.60    1.24
  -1  -4   9    3.54    1.17
   0   4  -9   27.79    3.64
   0   4  -9   35.67    3.35
   0   4  -9   37.96    3.40
   0  -4   9   29.05    3.42
   0  -4   9   27.77    3.81
   0  -4   9   29.53    3.85
   0  -4   9   38.95    3.53
   0  -4   9   36.84    3.61
  -1   4  -9    1.59    0.93
  -1   4  -9    0.72    1.13
  -1   4  -9    1.67    0.34
  -1   4  -9    3.56    0.96
  -1   4  -9    1.45    0.31
   1  -4   9    1.73    0.62
   1  -4   9    1.44    1.01
   1  -4   9    1.94    0.52
   1  -4   9    1.99    0.57
   1  -4   9    2.31    0.82
  -2   4  -9    7.49    1.53
  -2   4  -9   11.61    1.23
  -2   4  -9   10.79    1.24
   2  -4   9   11.16    1.54
   2  -4   9    9.26    1.82
   2  -4   9   12.15    1.77
   2  -4   9   12.28    1.48
   2  -4   9   12.14    1.39
  -3   4  -9   33.68    3.64
  -3   4  -9   36.43    3.62
   3  -4   9   32.68    4.38
   3  -4   9   40.35    4.04
   3  -4   9   39.51    3.78
  -4   4  -9    4.53    0.79
  -4   4  -9    4.77    0.75
  -4   4  -9    2.96    1.64
  -4   4  -9    3.49    1.34
   4  -4   9    4.33    0.74
   4  -4   9    4.46    1.00
  -5   4  -9    0.68    1.89
  -5   4  -9   -1.33    1.48
  -5   4  -9    2.63    0.55
  -5   4  -9    2.65    0.65
  -5   4  -9    2.65    0.45
   5  -4   9    3.13    0.99
   5  -4   9    3.82    0.77
  -6   4  -9    2.22    0.45
  -6   4  -9    1.72    0.59
  -6   4  -9    1.79    0.85
   6  -4   9    2.41    1.13
   6  -4   9    3.43    0.81
  -7   4  -9    0.37    0.44
  -7   4  -9    2.29    0.77
  -7   4  -9    0.59    1.06
   7  -4   9    1.04    0.96
  -9  -3   9    9.75    2.11
  -9  -3   9   10.26    1.62
  -8  -3   9    3.07    2.08
  -8  -3   9    5.68    1.59
   7   3  -9   29.56    3.90
   7   3  -9   29.89    3.19
  -7  -3   9   27.93    3.15
  -7  -3   9   32.57    3.34
  -7  -3   9   27.61    3.92
  -7  -3   9   27.02    3.66
   6   3  -9    2.05    1.23
   6   3  -9    3.22    0.71
  -6  -3   9    2.59    1.32
  -6  -3   9    3.11    1.14
  -6  -3   9    1.76    1.95
  -6  -3   9    5.25    0.96
  -6  -3   9    2.78    0.68
   5   3  -9    0.61    0.44
   5   3  -9    0.93    0.97
   5   3  -9    0.58    0.33
  -5  -3   9    1.83    1.12
  -5  -3   9    1.11    1.16
  -5  -3   9    0.22    0.45
  -5  -3   9    1.46    0.92
  -5  -3   9    1.68    0.66
   4   3  -9    0.98    0.86
   4   3  -9   -0.08    0.29
   4   3  -9   -0.50    1.15
   4   3  -9    0.21    0.36
  -4  -3   9   -0.01    0.54
  -4  -3   9    0.51    0.98
  -4  -3   9    0.21    0.24
  -4  -3   9   -0.20    0.68
  -4  -3   9    0.36    0.93
  -4  -3   9    0.39    0.41
   3   3  -9    0.32    1.09
   3   3  -9    2.02    0.46
   3   3  -9    1.31    0.41
   3   3  -9    2.66    0.83
   3   3  -9    3.41    1.00
  -3  -3   9    2.31    0.96
  -3  -3   9    1.49    0.52
  -3  -3   9    0.94    0.89
  -3  -3   9    1.07    0.65
   2   3  -9    4.05    0.96
   2   3  -9    4.88    1.01
   2   3  -9    4.88    0.67
   2   3  -9    1.58    1.15
   2   3  -9    5.16    0.80
  -2  -3   9    3.67    0.70
  -2  -3   9    3.91    1.22
  -2  -3   9    4.24    0.86
   1   3  -9    0.22    0.37
   1   3  -9    0.08    0.64
   1   3  -9    0.80    0.29
   1   3  -9    0.76    0.91
   1   3  -9    0.39    0.66
  -1  -3   9    0.66    0.73
  -1  -3   9   -0.52    0.35
  -1  -3   9    0.43    0.57
  -1  -3   9    0.99    0.48
   0   3  -9    1.31    0.99
   0   3  -9    0.64    0.68
   0   3  -9    0.98    0.41
   0   3  -9    3.00    0.81
   0   3  -9    1.12    0.31
   0  -3   9    1.75    0.51
   0  -3   9    2.31    0.62
   0  -3   9    0.53    0.73
   0  -3   9    0.29    0.46
   0  -3   9    0.92    0.82
  -1   3  -9    0.68    1.05
  -1   3  -9    0.14    0.76
  -1   3  -9    0.31    0.22
  -1   3  -9    2.03    0.82
  -1   3  -9    0.32    0.21
   1  -3   9    0.78    0.44
   1  -3   9   -0.06    0.41
   1  -3   9   -0.02    0.80
   1  -3   9   -0.53    0.45
   1  -3   9    0.59    0.61
  -2   3  -9   34.98    3.65
  -2   3  -9   33.00    3.67
   2  -3   9   37.65    3.79
   2  -3   9   41.51    3.81
   2  -3   9   41.56    4.40
   2  -3   9   37.21    3.83
  -3   3  -9    2.49    1.34
  -3   3  -9    3.20    1.22
   3  -3   9    3.49    0.81
   3  -3   9    4.18    1.39
  -4   3  -9   18.22    3.22
  -4   3  -9   23.15    2.78
  -4   3  -9   22.47    2.43
  -4   3  -9   25.97    2.67
   4  -3   9   29.38    2.65
  -5   3  -9    8.00    2.45
  -5   3  -9    9.36    2.27
  -5   3  -9   10.61    1.38
  -5   3  -9   11.87    1.66
   5  -3   9   12.34    1.95
   5  -3   9   10.11    1.51
  -6   3  -9   -0.29    0.32
  -6   3  -9    0.54    0.57
  -6   3  -9    0.23    0.86
   6  -3   9   -0.30    0.62
   6  -3   9    0.39    1.12
  -7   3  -9   -0.17    1.22
  -7   3  -9    1.08    0.81
  -7   3  -9   -0.33    0.41
   7  -3   9    0.75    0.91
 -10  -2   9   -0.65    1.14
 -10  -2   9   -2.37    1.72
 -10  -2   9    2.09    2.75
  -9  -2   9   -0.49    1.44
  -9  -2   9   -0.64    2.14
  -9  -2   9    1.42    0.89
   8   2  -9    1.19    0.77
  -8  -2   9    0.16    1.27
  -8  -2   9    1.07    0.71
  -8  -2   9    0.65    1.73
   7   2  -9   14.44    2.46
   7   2  -9   12.73    1.69
  -7  -2   9   11.85    2.04
  -7  -2   9   12.21    1.70
  -7  -2   9   14.06    1.85
  -7  -2   9   15.09    2.61
   6   2  -9   18.37    1.93
   6   2  -9   16.86    1.74
  -6  -2   9   12.71    3.22
  -6  -2   9   16.27    2.64
  -6  -2   9   15.26    2.01
  -6  -2   9   18.04    1.92
  -6  -2   9   17.40    2.45
   5   2  -9   28.35    3.64
   5   2  -9   36.51    3.81
   5   2  -9   39.29    3.31
   5   2  -9   30.85    3.40
  -5  -2   9   32.65    3.50
  -5  -2   9   33.59    3.74
  -5  -2   9   30.77    3.90
  -5  -2   9   33.47    3.41
   4   2  -9   21.54    2.73
   4   2  -9   23.86    2.45
   4   2  -9   22.63    2.35
  -4  -2   9   23.43    2.47
  -4  -2   9   23.19    2.95
  -4  -2   9   26.36    2.58
  -4  -2   9   25.30    2.78
   3   2  -9   16.11    1.68
   3   2  -9   13.76    2.08
   3   2  -9   17.32    1.74
  -3  -2   9   16.60    2.04
  -3  -2   9   17.04    2.29
   2   2  -9   15.48    1.43
   2   2  -9   12.25    1.77
   2   2  -9   13.73    1.41
  -2  -2   9   13.81    1.68
  -2  -2   9   11.88    1.52
  -2  -2   9   12.17    1.96
  -2  -2   9   10.09    1.89
   1   2  -9    0.51    0.33
   1   2  -9    1.10    0.82
   1   2  -9    0.93    0.59
   1   2  -9    0.24    0.16
   1   2  -9    1.50    0.70
  -1  -2   9    0.05    0.39
  -1  -2   9    0.16    0.69
  -1  -2   9    0.37    0.47
  -1  -2   9   -0.17    0.68
  -1  -2   9    0.09    0.38
   0   2  -9    0.13    0.65
   0   2  -9    0.70    0.36
   0   2  -9    1.73    0.70
   0   2  -9    0.55    0.90
   0   2  -9    0.18    0.19
   0  -2   9    1.47    0.45
   0  -2   9    0.43    0.43
   0  -2   9    1.15    0.49
   0  -2   9    1.13    0.67
  -1   2  -9    5.24    1.04
  -1   2  -9    5.22    0.70
  -1   2  -9    3.56    1.31
  -1   2  -9    5.92    0.66
   1  -2   9    5.91    0.89
   1  -2   9    7.09    1.20
   1  -2   9    6.64    1.04
   1  -2   9    5.59    0.98
   1  -2   9    7.21    1.44
  -2   2  -9   36.64    4.88
   2  -2   9   49.34    4.88
   2  -2   9   56.52    5.35
   2  -2   9   42.65    4.73
   2  -2   9   45.13    4.70
   2  -2   9   50.98    4.68
  -3   2  -9   12.69    1.36
  -3   2  -9   13.37    1.51
  -3   2  -9   10.90    1.87
  -3   2  -9   10.80    1.23
   3  -2   9   12.70    1.69
   3  -2   9   12.42    1.74
   3  -2   9   12.17    1.43
   3  -2   9   10.09    1.60
  -4   2  -9    0.91    0.61
  -4   2  -9    0.44    0.92
  -4   2  -9    0.95    0.28
  -4   2  -9   -0.21    1.40
  -4   2  -9    0.55    1.48
   4  -2   9    2.47    0.82
   4  -2   9    2.27    1.79
   4  -2   9    2.12    0.58
  -5   2  -9   11.03    1.26
  -5   2  -9   11.45    2.52
  -5   2  -9   11.69    1.48
  -5   2  -9   12.75    2.15
   5  -2   9   11.90    2.02
   5  -2   9   11.27    1.58
  -6   2  -9    2.28    0.45
  -6   2  -9    1.11    1.14
  -6   2  -9    1.51    0.73
   6  -2   9    0.86    0.76
   6  -2   9    2.27    1.23
  -7   2  -9    3.34    1.68
  -7   2  -9    0.39    0.89
  -7   2  -9    0.45    0.49
   7  -2   9    0.46    0.91
 -10  -1   9    0.04    1.55
 -10  -1   9    2.01    2.48
 -10  -1   9    0.70    1.00
  -9  -1   9    4.41    1.43
  -9  -1   9    0.48    1.98
  -9  -1   9    6.38    1.08
   8   1  -9    1.37    1.12
  -8  -1   9    1.59    1.34
  -8  -1   9    0.83    1.09
  -8  -1   9   -0.09    1.55
  -8  -1   9    2.26    1.12
   7   1  -9   -0.41    1.02
   7   1  -9    0.31    0.35
  -7  -1   9    1.10    1.14
  -7  -1   9    0.60    0.64
  -7  -1   9   -0.42    1.28
  -7  -1   9    0.42    0.52
  -7  -1   9    0.75    0.92
   6   1  -9    2.92    0.46
   6   1  -9    2.76    0.61
   6   1  -9    4.39    1.09
  -6  -1   9    4.18    1.02
  -6  -1   9    3.91    1.21
  -6  -1   9    2.55    1.28
  -6  -1   9    3.01    0.70
  -6  -1   9    3.35    0.64
   5   1  -9    7.93    1.40
   5   1  -9    6.86    1.12
   5   1  -9    6.63    0.90
  -5  -1   9    6.36    1.37
  -5  -1   9    5.38    0.93
  -5  -1   9    6.58    1.02
  -5  -1   9    7.18    1.20
  -5  -1   9    4.28    1.33
   4   1  -9  282.84   25.81
   4   1  -9  305.82   25.75
  -4  -1   9  241.37   25.86
  -4  -1   9  225.30   26.08
  -4  -1   9  291.98   25.82
   3   1  -9    5.17    0.61
   3   1  -9    3.52    0.94
   3   1  -9    2.16    1.05
   3   1  -9    3.96    0.52
  -3  -1   9    6.20    0.93
  -3  -1   9    4.40    0.70
  -3  -1   9    3.10    1.00
  -3  -1   9    3.13    0.97
   2   1  -9    5.83    0.66
   2   1  -9    5.17    0.65
   2   1  -9    2.88    0.86
  -2  -1   9    4.39    1.07
  -2  -1   9    6.92    1.13
  -2  -1   9    4.78    0.77
  -2  -1   9    4.88    0.80
  -2  -1   9    7.30    1.37
   1   1  -9    6.45    1.28
   1   1  -9   11.61    1.06
   1   1  -9    8.73    1.06
  -1  -1   9   11.39    1.25
  -1  -1   9    8.36    1.48
  -1  -1   9    9.13    1.20
  -1  -1   9   10.13    1.34
  -1  -1   9    9.16    1.62
   0   1  -9    3.92    0.54
   0   1  -9    3.41    0.89
   0   1  -9    4.33    0.68
   0  -1   9    4.05    0.72
   0  -1   9    5.54    0.78
   0  -1   9    4.36    1.12
   0  -1   9    4.90    1.01
   0  -1   9    3.07    0.80
  -1   1  -9    6.83    0.87
  -1   1  -9    5.22    0.72
  -1   1  -9    4.33    1.03
   1  -1   9    6.08    0.94
   1  -1   9    5.20    0.85
   1  -1   9    6.48    1.41
   1  -1   9    5.56    1.04
   1  -1   9    3.84    0.89
  -2   1  -9    1.48    0.38
  -2   1  -9    1.72    0.27
  -2   1  -9    2.37    0.56
  -2   1  -9    1.17    0.94
  -2   1  -9    1.39    1.20
   2  -1   9    4.15    1.39
   2  -1   9    1.56    0.65
   2  -1   9    2.09    0.68
   2  -1   9    1.61    0.44
   2  -1   9    1.80    0.55
  -3   1  -9    0.21    0.38
  -3   1  -9   -0.70    0.93
  -3   1  -9    0.06    0.18
  -3   1  -9    0.41    1.28
  -3   1  -9    0.37    0.50
   3  -1   9   -0.65    1.55
   3  -1   9    0.05    0.61
   3  -1   9    0.36    0.54
   3  -1   9    0.24    0.42
  -4   1  -9    4.37    1.07
  -4   1  -9    4.17    0.89
  -4   1  -9    5.16    1.23
  -4   1  -9    4.74    0.65
  -4   1  -9    1.39    1.66
   4  -1   9    5.59    0.85
   4  -1   9    5.25    1.80
   4  -1   9    5.97    1.14
  -5   1  -9    0.61    1.90
  -5   1  -9   -0.92    0.57
  -5   1  -9    0.48    0.32
  -5   1  -9    0.00    1.53
   5  -1   9   -0.23    0.53
   5  -1   9   -0.76    0.98
  -6   1  -9    2.86    1.38
  -6   1  -9    0.31    0.41
  -6   1  -9    3.12    0.89
   6  -1   9    0.52    0.71
   6  -1   9   -0.13    1.27
  -7   1  -9    4.26    0.72
  -7   1  -9    3.13    1.15
  -7   1  -9    2.09    1.83
   7  -1   9    3.01    1.22
 -10   0   9    1.90    1.37
 -10   0   9    1.58    2.08
  -9   0   9    2.76    1.18
  -9   0   9    2.46    1.82
   8   0  -9    3.56    1.89
  -8   0   9    4.40    1.67
  -8   0   9    8.21    1.06
  -8   0   9    5.70    1.34
  -8   0   9    6.30    1.26
   7   0  -9    0.65    0.40
   7   0  -9    1.87    0.39
   7   0  -9    2.20    0.97
  -7   0   9    1.30    0.62
  -7   0   9    2.26    1.15
  -7   0   9    1.34    0.54
  -7   0   9    1.30    1.20
  -7   0   9    2.21    0.83
   6   0  -9   12.45    1.85
   6   0  -9   16.71    1.51
   6   0  -9   15.44    1.56
  -6   0   9   13.55    1.65
  -6   0   9   15.34    1.93
  -6   0   9   14.19    2.25
  -6   0   9   13.41    1.73
  -6   0   9   11.36    2.40
   5   0  -9    0.53    0.97
   5   0  -9    1.32    0.71
   5   0  -9    1.34    0.33
   5   0  -9    1.84    0.28
   5   0  -9    3.09    0.83
  -5   0   9    1.19    0.85
  -5   0   9    1.20    0.91
  -5   0   9    2.17    0.62
  -5   0   9    1.81    0.46
  -5   0   9    0.83    0.51
   4   0  -9    2.59    0.32
   4   0  -9    1.78    1.03
   4   0  -9    1.79    0.34
   4   0  -9    1.32    0.72
  -4   0   9    2.04    0.80
  -4   0   9    1.84    0.43
  -4   0   9    1.82    0.88
  -4   0   9    1.95    0.56
  -4   0   9    2.27    0.54
  -4   0   9    1.32    0.75
   3   0  -9   13.84    2.05
   3   0  -9   13.93    1.69
   3   0  -9   19.26    1.64
  -3   0   9   15.40    2.17
  -3   0   9   16.49    1.83
  -3   0   9   15.88    2.13
  -3   0   9   20.68    1.90
   2   0  -9  188.46   18.42
  -2   0   9  195.19   18.73
  -2   0   9  202.57   18.80
  -2   0   9  200.89   18.70
  -2   0   9  177.81   18.49
   1   0  -9    3.14    0.88
   1   0  -9    1.48    0.98
  -1   0   9    3.28    0.75
  -1   0   9    2.61    0.91
  -1   0   9    3.47    0.71
  -1   0   9    4.14    0.66
  -1   0   9    4.38    0.84
   0   0  -9    0.78    0.67
   0   0  -9    0.84    0.36
   0   0  -9    1.33    0.33
   0   0  -9    0.50    0.98
   0   0  -9    1.02    0.17
   0   0   9    1.45    0.90
   0   0   9    1.75    0.41
   0   0   9    1.78    0.60
   0   0   9    1.42    0.60
   0   0   9    1.08    0.53
  -1   0  -9    1.36    0.21
  -1   0  -9    0.31    0.77
  -1   0  -9   -0.62    1.01
  -1   0  -9    0.99    0.35
  -1   0  -9    1.48    0.49
   1   0   9    1.47    0.61
   1   0   9    2.25    0.69
   1   0   9    0.99    0.46
   1   0   9    1.70    0.41
   1   0   9    1.85    1.21
  -2   0  -9    0.60    0.33
  -2   0  -9    0.14    0.17
  -2   0  -9    0.58    0.60
  -2   0  -9   -0.19    1.19
  -2   0  -9   -0.11    0.93
   2   0   9    0.32    0.59
   2   0   9   -0.62    1.23
   2   0   9   -0.18    0.57
   2   0   9    0.48    0.38
   2   0   9    0.90    0.51
  -3   0  -9    0.10    0.21
  -3   0  -9    1.06    0.70
  -3   0  -9   -0.34    1.33
  -3   0  -9    0.19    0.41
   3   0   9   -0.01    0.46
   3   0   9    1.06    1.52
   3   0   9    0.03    0.64
   3   0   9    0.74    0.64
  -4   0  -9    0.39    0.56
  -4   0  -9    0.33    0.91
  -4   0  -9   -0.27    0.27
   4   0   9    2.28    2.15
   4   0   9    0.63    0.59
   4   0   9    0.09    0.90
  -5   0  -9    2.44    0.50
  -5   0  -9    3.92    0.86
   5   0   9    1.71    0.84
   5   0   9    2.99    1.27
  -6   0  -9    3.21    1.89
  -6   0  -9    7.79    1.05
  -6   0  -9    6.38    1.31
   6   0   9    6.18    1.26
 -10   1   9    2.48    1.02
 -10   1   9    2.42    1.67
 -10   1   9    3.68    1.11
  -9   1   9   -0.03    0.73
  -9   1   9   -1.90    1.34
  -9   1   9    0.37    0.78
  -8   1   9    0.84    0.59
  -8   1   9    0.94    0.64
  -8   1   9    0.03    1.01
  -8   1   9    1.16    0.78
  -8   1   9    0.82    1.17
   7  -1  -9   -0.54    0.53
   7  -1  -9    0.82    0.28
  -7   1   9    0.05    0.49
  -7   1   9    0.55    0.50
  -7   1   9    0.60    0.55
  -7   1   9    0.22    0.96
  -7   1   9    1.02    0.60
  -7   1   9    0.78    1.02
   6  -1  -9    0.36    0.59
   6  -1  -9   -0.12    0.22
   6  -1  -9    0.08    0.21
  -6   1   9   -0.06    0.43
  -6   1   9   -0.22    0.44
  -6   1   9   -0.07    0.97
  -6   1   9   -0.14    0.41
   5  -1  -9    1.10    0.71
   5  -1  -9   -0.14    0.96
   5  -1  -9    0.55    0.68
   5  -1  -9    0.41    0.19
   5  -1  -9    0.60    0.16
  -5   1   9    0.11    0.37
  -5   1   9    0.25    0.70
  -5   1   9    0.50    0.85
  -5   1   9    0.21    0.36
  -5   1   9   -0.24    0.45
  -5   1   9    1.72    0.91
   4  -1  -9    6.96    0.69
   4  -1  -9    3.28    1.23
   4  -1  -9    4.56    0.99
  -4   1   9    6.96    0.87
  -4   1   9    5.66    0.87
  -4   1   9    5.28    1.20
  -4   1   9    5.19    1.18
  -4   1   9    7.15    1.23
   3  -1  -9    2.45    1.42
   3  -1  -9    3.68    0.90
   3  -1  -9    5.96    0.73
  -3   1   9    4.63    1.03
  -3   1   9    4.87    0.73
  -3   1   9    4.07    0.72
  -3   1   9    5.18    1.00
  -3   1   9    5.02    1.07
   2  -1  -9    1.14    0.68
   2  -1  -9    0.12    0.23
  -2   1   9    0.05    0.34
  -2   1   9    0.82    0.74
  -2   1   9    0.24    0.54
  -2   1   9    0.53    0.45
  -2   1   9    0.08    0.26
   1  -1  -9   27.01    3.16
   1  -1  -9   32.75    3.11
  -1   1   9   33.51    3.65
  -1   1   9   27.46    3.19
  -1   1   9   31.96    3.38
  -1   1   9   35.79    3.34
  -1   1   9   30.89    3.13
   0  -1  -9   40.93    4.41
   0  -1  -9   47.49    4.65
   0  -1  -9   45.78    4.49
   0   1   9   46.44    4.52
   0   1   9   53.39    4.74
   0   1   9   38.98    4.69
   0   1   9   46.70    4.52
  -1  -1  -9   19.70    2.13
  -1  -1  -9   20.54    2.36
  -1  -1  -9   19.51    3.22
   1   1   9   18.38    2.13
   1   1   9   19.77    2.15
   1   1   9   23.56    2.42
   1   1   9   18.96    2.39
  -2  -1  -9    1.70    0.50
  -2  -1  -9    2.26    0.84
  -2  -1  -9    1.57    0.30
   2   1   9    2.12    0.58
   2   1   9    1.73    0.72
   2   1   9    6.23    1.75
   2   1   9    1.70    0.82
  -3  -1  -9    0.53    0.28
  -3  -1  -9   -0.22    0.88
  -3  -1  -9    1.06    0.63
   3   1   9    1.17    0.47
   3   1   9   -0.34    0.75
   3   1   9    0.46    1.83
  -4  -1  -9    0.63    0.65
  -4  -1  -9    0.08    0.34
  -4  -1  -9    1.37    1.17
   4   1   9    0.62    2.12
   4   1   9   -1.14    0.55
  -5  -1  -9   -0.48    0.86
  -5  -1  -9   -0.26    0.46
  -5  -1  -9    2.77    3.29
   5   1   9   -0.19    1.27
   5   1   9    0.05    0.71
  -6  -1  -9   -0.89    0.63
  -6  -1  -9   -0.21    1.20
  -6  -1  -9    0.62    2.36
   6   1   9    2.46    1.99
   6   1   9   -1.41    0.93
 -10   2   9    2.02    0.96
  -9   2   9    1.81    0.95
  -9   2   9   -0.52    0.95
  -8   2   9    6.57    1.71
  -8   2   9    2.31    0.77
  -8   2   9    4.39    1.06
  -8   2   9    4.81    0.71
  -8   2   9    4.08    0.97
  -8   2   9    4.13    0.63
  -7   2   9    1.39    1.09
  -7   2   9    1.26    0.90
  -7   2   9    1.38    0.35
  -7   2   9    0.32    0.70
  -7   2   9   -0.35    0.63
  -7   2   9   -0.16    0.49
   6  -2  -9    1.06    0.51
   6  -2  -9    0.51    0.26
  -6   2   9    0.01    0.92
  -6   2   9   -0.03    0.49
  -6   2   9    0.99    0.49
  -6   2   9    0.86    0.45
  -6   2   9    1.21    0.91
  -6   2   9    0.46    0.30
  -6   2   9    0.35    0.60
   5  -2  -9    1.77    0.46
   5  -2  -9    0.80    0.67
   5  -2  -9    1.86    0.34
  -5   2   9    2.22    1.00
  -5   2   9    2.51    0.61
  -5   2   9    2.34    0.45
  -5   2   9    1.28    0.85
  -5   2   9    2.15    0.39
  -5   2   9    1.57    0.52
   4  -2  -9   10.33    1.96
   4  -2  -9   15.96    1.69
   4  -2  -9   13.58    1.55
  -4   2   9   15.50    2.08
  -4   2   9   16.92    1.60
  -4   2   9   12.78    2.11
  -4   2   9   14.84    1.72
  -4   2   9   18.21    1.81
   3  -2  -9    2.82    0.47
   3  -2  -9    2.19    0.56
   3  -2  -9    2.40    0.82
  -3   2   9    2.12    0.83
  -3   2   9    2.74    0.87
  -3   2   9    2.56    0.53
  -3   2   9    2.90    0.47
  -3   2   9    4.55    0.80
   2  -2  -9   -0.07    0.43
   2  -2  -9   -0.19    0.28
   2  -2  -9   -1.14    0.75
  -2   2   9    0.06    0.28
  -2   2   9    0.31    0.42
  -2   2   9   -0.75    0.58
  -2   2   9   -0.24    0.75
  -2   2   9    0.46    0.35
   1  -2  -9    5.70    1.07
   1  -2  -9    5.45    0.81
   1  -2  -9    4.67    0.69
  -1   2   9    4.66    0.77
  -1   2   9    6.12    1.04
  -1   2   9    6.47    0.84
  -1   2   9    4.86    1.00
   0  -2  -9    2.85    0.50
   0  -2  -9    2.53    0.58
   0  -2  -9    3.45    0.88
   0   2   9    2.85    0.56
   0   2   9    3.50    0.62
   0   2   9    5.33    1.34
   0   2   9    3.83    0.85
   0   2   9    3.07    0.89
  -1  -2  -9    3.17    1.01
  -1  -2  -9    3.38    0.67
   1   2   9    4.05    0.64
   1   2   9    2.81    1.15
   1   2   9    7.83    2.09
   1   2   9    2.32    0.56
   1   2   9    2.56    0.92
  -2  -2  -9    1.94    0.62
  -2  -2  -9    0.86    1.02
  -2  -2  -9    0.63    0.36
   2   2   9    1.74    1.66
   2   2   9    1.12    0.77
   2   2   9    1.48    0.56
   2   2   9    0.86    0.47
  -3  -2  -9    8.24    1.75
  -3  -2  -9    9.71    1.22
  -3  -2  -9   11.49    1.67
   3   2   9   10.05    2.00
  -4  -2  -9    1.59    0.59
  -4  -2  -9    3.90    1.92
  -4  -2  -9    2.86    0.94
   4   2   9    2.54    1.43
   4   2   9    2.21    0.80
  -5  -2  -9    1.83    2.13
  -5  -2  -9   -1.40    0.68
  -5  -2  -9    1.23    1.32
   5   2   9    0.42    0.96
   5   2   9   -1.18    1.66
  -9   3   9   -1.29    0.72
  -9   3   9   -0.34    1.50
  -8   3   9   -0.74    1.19
  -8   3   9    0.17    0.60
  -7   3   9    1.72    1.10
  -7   3   9    1.93    0.83
  -7   3   9    0.60    0.52
  -6   3   9    0.17    0.90
  -6   3   9    1.55    0.91
  -6   3   9    0.78    0.48
  -6   3   9    0.59    0.40
  -6   3   9    0.98    0.27
  -6   3   9    1.94    0.64
   5  -3  -9   16.13    1.58
  -5   3   9   14.11    2.13
  -5   3   9   14.47    1.73
  -5   3   9   13.57    1.55
  -5   3   9   14.27    2.26
  -5   3   9   17.33    1.72
   4  -3  -9   -0.95    0.74
   4  -3  -9    0.95    0.81
   4  -3  -9    0.48    0.33
  -4   3   9   -0.28    0.42
  -4   3   9   -0.58    0.69
  -4   3   9    0.28    0.27
  -4   3   9   -0.28    0.88
  -4   3   9    0.62    0.62
   3  -3  -9    6.73    1.81
   3  -3  -9    8.09    1.44
   3  -3  -9    8.42    1.00
  -3   3   9    7.01    0.96
  -3   3   9    7.14    1.07
  -3   3   9    7.97    1.50
  -3   3   9   10.39    1.67
   2  -3  -9    0.21    0.41
   2  -3  -9   -0.56    0.70
  -2   3   9   -0.07    0.87
  -2   3   9    0.43    0.36
  -2   3   9   -0.32    0.70
  -2   3   9    0.39    0.51
  -2   3   9    0.88    0.36
   1  -3  -9    5.24    0.85
   1  -3  -9    5.08    0.82
  -1   3   9    5.95    0.86
  -1   3   9    5.72    1.21
  -1   3   9    7.84    1.47
  -1   3   9    4.43    0.82
  -1   3   9    5.85    1.04
   0  -3  -9    3.22    0.64
   0  -3  -9    3.58    0.73
   0  -3  -9    2.86    1.18
   0   3   9    3.66    1.03
   0   3   9    4.78    0.72
   0   3   9    5.62    0.87
   0   3   9    4.33    0.99
  -1  -3  -9    6.80    1.58
  -1  -3  -9    6.45    1.02
  -1  -3  -9    5.00    0.84
   1   3   9    5.24    1.25
   1   3   9    6.69    1.07
   1   3   9    6.47    1.07
   1   3   9    5.81    1.17
  -2  -3  -9    3.92    1.76
  -2  -3  -9    6.06    1.02
   2   3   9    3.70    1.10
   2   3   9    3.23    0.77
   2   3   9    8.01    3.05
   2   3   9    3.43    0.78
  -3  -3  -9    3.55    1.04
  -3  -3  -9    5.06    2.12
   3   3   9    3.60    1.43
   3   3   9    3.32    1.00
  -4  -3  -9    1.61    1.19
  -4  -3  -9    1.61    3.05
   4   3   9    1.94    1.68
   4   3   9    2.42    1.06
  -9   4   9   18.17    3.23
  -8   4   9    2.39    1.40
  -7   4   9   -1.21    1.02
  -6   4   9   15.44    2.33
  -5   4   9    0.46    0.44
  -5   4   9    0.51    0.31
  -5   4   9    0.19    0.92
  -5   4   9    0.75    0.99
   4  -4  -9    0.97    0.50
  -4   4   9    1.56    0.55
  -4   4   9    1.20    0.82
  -4   4   9    1.29    0.51
  -4   4   9    0.90    0.98
  -4   4   9    1.35    0.38
   3  -4  -9    6.22    1.36
   3  -4  -9    6.87    1.07
  -3   4   9    8.16    1.39
  -3   4   9    7.43    1.15
  -3   4   9    8.62    1.53
  -3   4   9    5.75    1.02
   2  -4  -9   16.55    1.71
   2  -4  -9   15.85    2.49
  -2   4   9   15.09    1.95
  -2   4   9   15.08    1.73
  -2   4   9   15.13    2.24
  -2   4   9   16.46    1.76
   1  -4  -9   28.93    3.60
   1  -4  -9   25.53    2.84
   1  -4  -9   29.21    2.99
  -1   4   9   27.34    3.30
  -1   4   9   26.00    2.86
  -1   4   9   29.57    3.14
   0  -4  -9    0.99    0.55
   0  -4  -9   -0.22    0.69
   0  -4  -9    0.98    1.38
   0   4   9    0.51    0.49
   0   4   9    0.85    0.54
   0   4   9    1.57    0.80
   0   4   9    0.62    0.90
  -1  -4  -9    1.93    0.90
  -1  -4  -9    2.30    0.68
   1   4   9    1.60    1.09
   1   4   9    1.60    0.65
  -2  -4  -9   -0.60    0.88
  -2  -4  -9    3.60    1.11
   2   4   9    1.15    1.21
   2   4   9    1.53    0.79
  -3  -4  -9    0.81    1.15
   3   4   9    1.85    1.66
   3   4   9   -0.53    0.82
  -8   5   9   -0.03    1.34
  -7   5   9    5.34    1.58
  -6   5   9    1.75    1.13
  -5   5   9    0.80    0.63
  -5   5   9    2.07    1.14
  -5   5   9    1.23    0.44
  -5   5   9    1.62    1.15
  -4   5   9    0.62    0.64
  -4   5   9    0.44    1.08
  -4   5   9    0.20    0.44
  -4   5   9   -0.69    0.88
  -3   5   9   -0.09    0.44
  -3   5   9    0.70    1.25
  -3   5   9    0.88    0.69
  -3   5   9    1.31    1.00
   2  -5  -9    1.85    0.59
  -2   5   9    1.33    0.82
  -2   5   9    2.25    0.58
  -2   5   9    2.09    1.03
   1  -5  -9    5.56    0.99
  -1   5   9    6.53    0.99
  -1   5   9    6.32    1.30
  -1   5   9    7.54    1.51
   0  -5  -9   -1.80    0.91
   0  -5  -9    0.78    0.69
   0   5   9    1.87    1.07
   0   5   9    1.37    0.66
  -1  -5  -9    3.96    0.97
  -1  -5  -9    5.41    1.36
   1   5   9    5.77    1.09
   1   5   9    4.80    1.52
  -2  -5  -9   -0.36    0.90
   2   5   9   -1.15    0.88
   2   5   9   -0.79    1.45
  -7   6   9    1.01    1.41
  -6   6   9    2.23    1.33
  -5   6   9    8.62    1.44
  -5   6   9   11.57    1.99
  -4   6   9    1.54    1.25
  -4   6   9    0.52    0.89
  -4   6   9    1.10    0.60
  -3   6   9    1.12    1.01
  -3   6   9    2.03    1.27
  -3   6   9    0.46    0.61
   2  -6  -9    0.26    0.71
  -2   6   9    0.29    1.05
  -2   6   9    0.14    1.16
  -2   6   9   -0.14    0.67
   1  -6  -9    1.71    0.85
  -1   6   9   -0.57    0.70
  -1   6   9    1.81    1.21
   0  -6  -9    4.95    1.02
   0   6   9    4.44    1.60
   0   6   9    3.46    1.02
  -3   7   9   -1.06    1.40
   3  10 -10    0.66    1.13
  -3 -10  10    2.14    2.45
  -3 -10  10   -0.28    1.00
   2  10 -10    0.31    0.98
   2  10 -10    4.40    2.31
  -2 -10  10    1.99    2.25
  -2 -10  10    1.11    0.89
   1  10 -10    4.13    2.14
   1  10 -10    4.08    1.15
  -1 -10  10    3.83    0.97
  -1 -10  10    3.43    2.15
   0  10 -10    0.80    0.88
   0  10 -10    0.39    1.79
   0 -10  10    1.82    1.69
  -1  10 -10    4.46    1.97
  -1  10 -10    3.66    0.98
  -2  10 -10   -0.21    1.71
   2 -10  10    1.10    1.52
  -3  10 -10   -0.63    0.63
  -3  10 -10   -1.24    1.77
  -4  10 -10   10.44    1.56
   5   9 -10    8.76    3.15
   5   9 -10    7.34    1.50
  -5  -9  10    8.57    1.50
   4   9 -10   -0.51    1.00
   4   9 -10   -1.46    2.13
  -4  -9  10   -4.18    2.00
  -4  -9  10    1.29    3.15
  -4  -9  10   -0.17    0.84
   3   9 -10    4.00    1.09
   3   9 -10    0.12    1.86
  -3  -9  10    1.12    0.83
  -3  -9  10   -0.20    3.04
  -3  -9  10    6.09    2.00
   2   9 -10    1.60    0.79
   2   9 -10    1.21    1.83
  -2  -9  10    1.36    2.36
  -2  -9  10    1.07    0.74
  -2  -9  10   -1.49    1.62
   1   9 -10   -0.23    0.72
   1   9 -10   -1.07    1.52
  -1  -9  10   -0.46    0.62
  -1  -9  10   -0.89    2.18
  -1  -9  10   -0.38    1.63
   0   9 -10    1.30    0.71
   0   9 -10    2.11    1.60
   0  -9  10    1.87    1.62
   0  -9  10    0.18    2.16
  -1   9 -10    0.34    0.67
  -1   9 -10   -0.15    1.37
   1  -9  10    0.16    1.32
   1  -9  10    0.70    1.86
  -2   9 -10   11.81    2.21
  -2   9 -10    6.66    1.09
   2  -9  10    2.88    1.51
  -3   9 -10    1.38    0.56
  -3   9 -10    1.34    1.47
   3  -9  10    0.67    1.21
  -4   9 -10   11.80    2.45
  -4   9 -10    5.64    0.96
  -5   9 -10    0.18    1.87
  -5   9 -10   -0.45    0.54
   6   8 -10    2.60    3.21
   6   8 -10    3.32    1.30
  -6  -8  10    0.34    3.26
  -6  -8  10    2.62    2.12
  -6  -8  10    3.25    1.04
   5   8 -10    1.39    0.97
   5   8 -10   -1.04    3.49
  -5  -8  10    1.61    2.67
  -5  -8  10   -1.26    1.83
  -5  -8  10   -0.29    0.79
   4   8 -10    3.81    1.03
   4   8 -10    3.30    2.53
  -4  -8  10    1.96    2.47
  -4  -8  10    2.94    1.70
  -4  -8  10    3.53    0.88
   3   8 -10    5.65    2.14
   3   8 -10    3.40    0.83
  -3  -8  10    4.47    2.42
  -3  -8  10    3.90    0.85
  -3  -8  10    3.72    1.68
   2   8 -10    3.36    2.88
   2   8 -10    2.77    1.81
   2   8 -10    2.20    0.69
  -2  -8  10   -0.57    1.38
  -2  -8  10    2.47    0.70
  -2  -8  10    2.36    1.89
   1   8 -10    1.27    0.64
   1   8 -10    0.47    2.64
  -1  -8  10   -0.62    1.81
  -1  -8  10    1.03    1.29
  -1  -8  10    1.23    0.57
   0   8 -10    0.84    2.65
   0   8 -10    3.02    0.75
   0   8 -10    2.13    1.42
   0  -8  10    2.83    1.38
   0  -8  10    0.59    1.71
  -1   8 -10    8.64    2.90
  -1   8 -10   16.10    1.70
  -1   8 -10   12.18    2.29
   1  -8  10   15.62    2.47
   1  -8  10   10.21    2.25
   1  -8  10   13.02    1.70
  -2   8 -10   -4.22    2.59
  -2   8 -10    3.03    1.40
  -2   8 -10   -0.75    1.73
  -2   8 -10    1.78    0.55
   2  -8  10    4.20    1.77
   2  -8  10    2.81    1.17
  -3   8 -10    5.03    0.82
  -3   8 -10    6.14    2.03
  -3   8 -10    8.89    1.94
   3  -8  10    4.34    1.21
   3  -8  10    6.14    1.66
  -4   8 -10    3.21    0.64
  -4   8 -10    6.36    1.92
   4  -8  10    3.47    1.06
  -5   8 -10    7.19    1.11
   5  -8  10    6.43    1.51
  -6   8 -10    0.47    0.73
   7   7 -10   -0.31    1.25
  -7  -7  10   -0.16    2.14
  -7  -7  10   -1.39    3.04
  -7  -7  10   -0.15    0.92
  -7  -7  10   -1.29    1.14
   6   7 -10    1.75    2.20
   6   7 -10   -0.54    0.97
  -6  -7  10   -0.51    0.97
  -6  -7  10   -0.48    0.74
  -6  -7  10   -1.09    2.45
  -6  -7  10    3.46    1.88
   5   7 -10    0.47    1.72
   5   7 -10    0.19    0.81
  -5  -7  10    4.04    2.35
  -5  -7  10    1.71    0.71
  -5  -7  10    2.79    1.63
   4   7 -10    8.59    1.31
   4   7 -10    8.94    2.06
  -4  -7  10    7.56    1.09
  -4  -7  10    1.77    2.41
  -4  -7  10    4.94    1.67
  -4  -7  10    7.42    2.46
   3   7 -10    4.14    1.46
   3   7 -10    3.61    0.85
  -3  -7  10    6.26    0.88
  -3  -7  10    1.98    2.10
  -3  -7  10    3.65    2.06
  -3  -7  10    7.72    1.64
   2   7 -10    1.27    2.18
   2   7 -10    1.40    0.63
   2   7 -10   -0.21    1.15
  -2  -7  10    3.92    1.84
  -2  -7  10    2.73    1.81
  -2  -7  10   -2.44    1.21
  -2  -7  10    0.90    0.49
   1   7 -10   -1.38    2.00
   1   7 -10    0.30    0.48
   1   7 -10   -0.11    1.05
  -1  -7  10   -0.73    0.94
  -1  -7  10   -0.97    1.32
  -1  -7  10   -0.13    0.40
   0   7 -10   12.76    2.36
   0   7 -10   21.41    2.76
   0   7 -10   18.57    2.01
   0  -7  10   15.87    2.48
  -1   7 -10   18.75    2.21
   1  -7  10   20.69    2.73
   1  -7  10   21.85    2.27
  -2   7 -10    2.76    2.11
  -2   7 -10    6.43    1.62
  -2   7 -10    0.11    1.48
  -2   7 -10    2.52    0.74
  -2   7 -10    4.25    0.68
   2  -7  10    2.48    1.49
   2  -7  10    2.27    1.01
  -3   7 -10    2.67    1.71
  -3   7 -10    1.44    0.98
  -3   7 -10    2.53    0.51
  -3   7 -10   -0.53    2.01
   3  -7  10    1.62    1.22
   3  -7  10    1.95    0.84
  -4   7 -10    1.50    1.82
  -4   7 -10   -0.57    1.33
   4  -7  10   -0.35    1.09
   4  -7  10    1.62    0.76
  -5   7 -10    3.74    0.64
   5  -7  10    4.91    1.08
  -6   7 -10    1.35    0.68
  -6   7 -10    0.20    0.75
   8   6 -10    5.71    1.58
  -8  -6  10    4.10    3.11
  -8  -6  10    3.75    1.42
  -8  -6  10    1.66    2.13
   7   6 -10    7.91    1.47
  -7  -6  10    6.07    1.24
  -7  -6  10    0.90    2.61
  -7  -6  10    4.32    1.94
   6   6 -10    3.31    1.97
  -6  -6  10    2.60    1.66
  -6  -6  10    4.70    0.94
  -6  -6  10    5.31    2.35
  -6  -6  10    5.77    1.18
   5   6 -10    2.19    1.52
   5   6 -10    1.69    0.69
  -5  -6  10    1.76    0.59
  -5  -6  10    2.47    1.89
  -5  -6  10    0.29    0.67
  -5  -6  10    1.62    1.82
  -5  -6  10    0.65    1.25
   4   6 -10    8.71    1.51
   4   6 -10   11.46    2.13
  -4  -6  10   12.55    2.52
  -4  -6  10   12.64    1.37
  -4  -6  10    6.97    1.74
   3   6 -10    2.08    2.19
   3   6 -10    7.25    1.20
   3   6 -10    7.90    1.71
  -3  -6  10    5.86    1.94
  -3  -6  10    8.52    1.04
  -3  -6  10    7.04    1.94
   2   6 -10    6.58    1.02
   2   6 -10    5.70    1.48
   2   6 -10    4.45    2.04
  -2  -6  10    3.84    1.75
  -2  -6  10    7.15    0.87
  -2  -6  10    3.72    1.57
  -2  -6  10    5.87    1.32
  -2  -6  10    3.72    1.15
   1   6 -10    5.04    1.29
   1   6 -10    5.89    1.27
   1   6 -10    6.61    0.93
   1   6 -10    3.68    1.97
  -1  -6  10    3.96    1.57
  -1  -6  10    5.61    1.26
  -1  -6  10    2.80    1.37
   0   6 -10    2.59    1.30
   0   6 -10    2.35    0.58
   0   6 -10    1.04    1.66
   0   6 -10    3.81    1.15
   0  -6  10    3.08    1.53
   0  -6  10    5.37    1.51
   0  -6  10    2.36    0.93
  -1   6 -10    0.54    1.58
  -1   6 -10    1.51    1.24
  -1   6 -10    0.23    0.37
  -1   6 -10   -0.05    0.93
  -1   6 -10    0.16    0.42
   1  -6  10    0.71    1.12
   1  -6  10    0.51    0.47
   1  -6  10    0.52    1.50
   1  -6  10    0.88    0.79
  -2   6 -10   -0.40    0.30
  -2   6 -10    0.51    0.49
  -2   6 -10    0.25    1.71
  -2   6 -10   -0.66    1.23
  -2   6 -10    0.70    0.91
   2  -6  10    0.50    0.46
   2  -6  10    0.04    1.05
   2  -6  10   -0.65    0.69
  -3   6 -10    8.38    1.38
  -3   6 -10    9.73    1.16
  -3   6 -10    6.61    2.28
  -3   6 -10    6.85    1.89
   3  -6  10   13.88    1.64
   3  -6  10    9.26    1.72
  -4   6 -10    9.92    1.28
   4  -6  10   12.01    1.70
   4  -6  10   12.17    2.10
  -5   6 -10    1.67    0.58
   5  -6  10    0.96    0.69
   5  -6  10    1.08    1.20
  -6   6 -10    0.12    0.62
  -6   6 -10    0.29    0.76
  -6   6 -10   -0.58    0.43
   6  -6  10    0.89    0.96
  -7   6 -10    1.87    0.59
   8   5 -10   -1.08    1.20
  -8  -5  10    6.86    2.09
  -8  -5  10   -0.85    0.92
  -8  -5  10    1.76    2.75
   7   5 -10   -1.27    0.85
   7   5 -10   -0.12    3.12
  -7  -5  10   -1.08    1.55
  -7  -5  10    2.07    2.08
  -7  -5  10    1.30    0.87
   6   5 -10    2.84    0.91
   6   5 -10    4.18    1.79
  -6  -5  10    3.65    1.94
  -6  -5  10    3.54    0.86
  -6  -5  10    3.95    1.38
  -6  -5  10    0.62    1.85
  -6  -5  10    4.73    1.44
   5   5 -10    3.29    0.74
   5   5 -10    3.23    1.52
  -5  -5  10    3.81    1.82
  -5  -5  10    3.89    0.89
  -5  -5  10    3.07    0.98
  -5  -5  10    5.29    0.75
  -5  -5  10    3.58    1.31
  -5  -5  10    4.74    1.70
   4   5 -10   15.20    2.64
   4   5 -10   16.28    1.95
  -4  -5  10   18.57    3.19
  -4  -5  10   14.78    2.40
  -4  -5  10   18.37    1.82
  -4  -5  10   14.99    2.28
   3   5 -10   15.45    2.34
   3   5 -10   13.49    1.74
   3   5 -10   12.99    1.65
  -3  -5  10   11.86    2.26
  -3  -5  10   12.70    2.24
  -3  -5  10   14.49    2.18
  -3  -5  10   15.09    1.53
   2   5 -10    2.72    0.72
   2   5 -10    1.92    0.50
   2   5 -10    2.27    0.95
   2   5 -10    0.22    1.05
   2   5 -10    1.93    1.61
  -2  -5  10    2.58    0.43
  -2  -5  10    2.34    0.82
  -2  -5  10    0.74    1.12
  -2  -5  10    0.96    1.17
  -2  -5  10    2.20    0.91
   1   5 -10   -0.01    0.75
   1   5 -10   -0.88    1.41
   1   5 -10    0.06    0.59
   1   5 -10   -0.20    1.03
   1   5 -10    0.73    0.35
  -1  -5  10   -0.27    0.97
  -1  -5  10    0.76    0.87
  -1  -5  10    0.90    0.59
  -1  -5  10    0.57    1.10
   0   5 -10   -0.86    1.35
   0   5 -10    0.99    0.55
   0   5 -10    0.14    0.30
   0   5 -10   -0.20    0.84
   0   5 -10    2.43    1.05
   0  -5  10    1.68    1.12
   0  -5  10    0.79    0.64
   0  -5  10   -1.26    0.63
   0  -5  10    0.41    0.60
   0  -5  10    0.82    1.44
  -1   5 -10    0.56    1.49
  -1   5 -10   -0.18    0.85
  -1   5 -10   -0.63    1.07
  -1   5 -10    0.07    0.33
  -1   5 -10    0.17    0.29
  -1   5 -10    0.44    0.58
   1  -5  10   -0.98    0.92
   1  -5  10   -0.18    0.69
   1  -5  10    0.01    1.28
   1  -5  10   -0.71    0.69
   1  -5  10   -0.10    0.48
  -2   5 -10   -0.50    0.39
  -2   5 -10    0.10    0.92
  -2   5 -10   -1.62    1.47
  -2   5 -10    0.17    0.29
   2  -5  10    1.30    0.97
   2  -5  10    1.46    0.62
   2  -5  10    0.20    0.49
   2  -5  10    0.30    1.39
  -3   5 -10    0.72    0.33
  -3   5 -10    0.36    1.77
  -3   5 -10    1.38    1.10
  -3   5 -10    0.46    0.56
  -3   5 -10   -0.39    1.36
   3  -5  10    1.10    0.92
   3  -5  10    0.49    0.55
   3  -5  10    1.62    0.60
  -4   5 -10   -0.13    0.72
  -4   5 -10    2.61    1.75
  -4   5 -10   -0.80    1.81
  -4   5 -10    0.60    1.15
   4  -5  10    2.70    0.69
   4  -5  10    1.15    0.88
  -5   5 -10    3.76    0.86
  -5   5 -10    3.72    0.71
   5  -5  10    4.04    0.88
   5  -5  10    1.44    1.18
  -6   5 -10    1.51    0.67
  -6   5 -10    2.79    0.97
  -6   5 -10    1.69    0.49
   6  -5  10    2.33    0.98
  -7   5 -10    4.48    0.76
  -7   5 -10    5.51    1.08
  -7   5 -10    5.68    1.46
  -9  -4  10    4.42    2.15
  -9  -4  10   -0.40    2.82
  -9  -4  10    1.26    1.07
   8   4 -10    2.18    1.06
  -8  -4  10    1.14    2.35
  -8  -4  10   -0.72    1.63
  -8  -4  10    0.98    0.87
   7   4 -10    1.30    1.94
   7   4 -10    0.57    0.77
  -7  -4  10    0.03    0.70
  -7  -4  10    0.32    1.89
  -7  -4  10   -0.44    1.37
  -7  -4  10    2.65    1.37
   6   4 -10    6.54    1.73
   6   4 -10    5.66    1.05
  -6  -4  10    7.54    1.37
  -6  -4  10    4.54    1.98
  -6  -4  10    5.32    1.90
  -6  -4  10    6.17    1.02
  -6  -4  10    4.61    1.49
   5   4 -10    2.83    0.68
   5   4 -10    2.36    1.18
  -5  -4  10    2.15    0.87
  -5  -4  10    2.35    0.71
  -5  -4  10    2.95    0.56
  -5  -4  10    0.22    2.74
  -5  -4  10    2.16    1.17
  -5  -4  10    2.55    1.66
   4   4 -10    9.44    1.75
   4   4 -10    8.12    1.20
   4   4 -10    9.11    1.15
  -4  -4  10    7.35    1.62
  -4  -4  10    7.07    1.88
  -4  -4  10    9.54    1.04
  -4  -4  10    9.84    1.40
  -4  -4  10    5.66    1.86
   3   4 -10    6.52    1.30
   3   4 -10    4.40    1.76
   3   4 -10    5.66    0.88
   3   4 -10    2.87    1.68
   3   4 -10    3.99    0.79
  -3  -4  10    6.49    1.27
  -3  -4  10    6.30    1.04
  -3  -4  10    6.50    1.58
  -3  -4  10    7.18    0.75
  -3  -4  10    3.23    1.49
   2   4 -10   24.74    2.44
   2   4 -10   20.66    2.93
   2   4 -10   25.24    2.50
  -2  -4  10   28.41    2.90
  -2  -4  10   22.34    2.59
  -2  -4  10   21.46    3.13
  -2  -4  10   17.08    3.10
   1   4 -10    6.51    0.86
   1   4 -10    2.96    1.54
   1   4 -10    4.27    1.28
   1   4 -10   10.24    1.65
   1   4 -10    6.31    0.91
  -1  -4  10    6.58    1.48
  -1  -4  10    5.91    1.13
  -1  -4  10    5.64    1.05
  -1  -4  10    5.24    1.42
  -1  -4  10    7.60    1.31
   0   4 -10   29.83    2.99
   0   4 -10   27.45    3.06
   0   4 -10   22.32    3.40
   0  -4  10   30.56    4.32
   0  -4  10   34.82    3.19
   0  -4  10   36.23    3.34
   0  -4  10   25.27    3.12
  -1   4 -10    8.99    1.05
  -1   4 -10    5.60    1.35
  -1   4 -10    9.66    1.00
   1  -4  10   10.81    1.28
   1  -4  10    6.90    1.87
   1  -4  10    7.02    1.21
   1  -4  10   10.62    1.43
   1  -4  10    9.20    1.81
  -2   4 -10    0.28    1.15
  -2   4 -10    1.56    1.49
  -2   4 -10    0.39    0.29
  -2   4 -10    0.72    0.37
  -2   4 -10   -0.08    0.90
   2  -4  10    0.57    0.53
   2  -4  10    1.09    0.54
   2  -4  10    0.45    0.71
   2  -4  10    0.29    1.30
  -3   4 -10    0.61    0.98
  -3   4 -10    0.18    0.46
  -3   4 -10    0.42    1.27
  -3   4 -10   -0.91    1.53
   3  -4  10   -0.03    0.53
   3  -4  10   -0.18    0.67
  -4   4 -10    1.64    1.97
  -4   4 -10    0.90    0.68
  -4   4 -10    2.74    0.57
   4  -4  10    2.66    0.94
   4  -4  10    2.57    0.70
  -5   4 -10    5.80    0.88
  -5   4 -10    5.99    1.06
  -5   4 -10    4.80    0.75
   5  -4  10    4.87    0.93
   5  -4  10    4.39    1.30
  -6   4 -10    2.40    1.03
  -6   4 -10    1.20    0.70
  -6   4 -10    1.99    0.48
   6  -4  10    2.75    0.89
  -7   4 -10    0.35    1.28
  -7   4 -10    1.27    0.89
  -7   4 -10    1.45    0.52
   7  -4  10   -0.93    1.01
  -9  -3  10    2.17    2.66
  -9  -3  10    2.27    1.07
  -9  -3  10   -0.07    1.72
   8   3 -10    4.80    1.10
  -8  -3  10    1.63    1.59
  -8  -3  10    3.80    0.96
  -8  -3  10    3.41    2.22
   7   3 -10    3.56    0.83
   7   3 -10    2.52    1.61
  -7  -3  10    3.42    1.37
  -7  -3  10    0.69    1.75
  -7  -3  10    1.72    0.70
  -7  -3  10    1.93    1.08
  -7  -3  10    1.34    2.37
   6   3 -10    6.92    1.08
   6   3 -10    9.03    1.83
  -6  -3  10    7.93    1.16
  -6  -3  10    6.29    2.00
  -6  -3  10    5.54    1.21
  -6  -3  10    8.35    1.90
  -6  -3  10    9.65    1.67
   5   3 -10   -0.04    0.45
   5   3 -10    0.09    0.35
   5   3 -10    1.06    1.14
  -5  -3  10    1.33    1.31
  -5  -3  10    0.35    0.52
  -5  -3  10    1.10    0.75
  -5  -3  10    1.00    1.18
   4   3 -10   58.83    5.37
   4   3 -10   53.26    4.73
   4   3 -10   33.17    6.76
   4   3 -10   47.27    4.80
  -4  -3  10   43.65    5.33
  -4  -3  10   42.89    4.90
  -4  -3  10   50.07    5.16
   3   3 -10    3.68    0.61
   3   3 -10    2.68    1.41
   3   3 -10    5.22    1.17
   3   3 -10    3.23    0.57
  -3  -3  10    1.66    1.06
  -3  -3  10    4.03    0.98
  -3  -3  10    2.57    1.04
  -3  -3  10    3.23    0.75
   2   3 -10    4.23    0.64
   2   3 -10    3.87    1.05
   2   3 -10    4.02    0.65
   2   3 -10    1.38    1.24
  -2  -3  10    4.12    1.14
  -2  -3  10    2.86    0.72
  -2  -3  10    3.11    0.80
  -2  -3  10    3.67    1.25
   1   3 -10    2.31    0.98
   1   3 -10    6.01    0.91
   1   3 -10    2.78    1.41
   1   3 -10    5.01    0.69
  -1  -3  10    6.48    1.08
  -1  -3  10    6.49    1.12
  -1  -3  10    3.57    0.76
  -1  -3  10    6.27    1.44
  -1  -3  10    4.49    1.29
   0   3 -10   -0.57    0.77
   0   3 -10    0.15    1.18
   0   3 -10    1.29    0.48
   0   3 -10    3.76    1.01
   0   3 -10    0.97    0.26
   0  -3  10    0.11    0.52
   0  -3  10    0.99    0.62
   0  -3  10    0.81    0.99
   0  -3  10    0.28    0.55
   0  -3  10    1.17    0.83
  -1   3 -10    7.82    0.89
  -1   3 -10    5.98    0.81
   1  -3  10    8.19    1.73
   1  -3  10    7.86    1.21
   1  -3  10    7.12    1.15
   1  -3  10    8.35    1.53
   1  -3  10    7.41    1.18
  -2   3 -10   -0.43    0.85
  -2   3 -10   -0.61    1.02
  -2   3 -10   -0.11    0.23
  -2   3 -10   -0.66    1.43
  -2   3 -10    0.34    0.33
   2  -3  10   -1.14    1.16
   2  -3  10    0.08    0.45
   2  -3  10    0.16    0.70
   2  -3  10    0.11    0.67
   2  -3  10   -0.63    0.54
  -3   3 -10   12.51    1.46
   3  -3  10   13.70    1.63
   3  -3  10   10.94    1.91
   3  -3  10   12.28    1.75
   3  -3  10   15.52    2.75
  -4   3 -10    0.18    2.05
  -4   3 -10    0.18    0.42
  -4   3 -10    0.96    0.59
  -4   3 -10    0.39    0.26
   4  -3  10   -0.07    0.56
   4  -3  10    1.06    0.91
  -5   3 -10   -0.04    2.33
  -5   3 -10    0.88    0.78
  -5   3 -10   -0.55    0.28
  -5   3 -10    0.61    0.53
   5  -3  10   -0.52    0.61
   5  -3  10   -0.40    0.99
  -6   3 -10   -0.73    0.66
  -6   3 -10    1.58    1.07
  -6   3 -10   -0.10    0.39
   6  -3  10    1.38    1.32
   6  -3  10    1.01    0.78
  -7   3 -10    2.45    0.59
  -7   3 -10    3.90    1.63
  -7   3 -10    1.08    1.00
   7  -3  10    2.36    1.08
  -9  -2  10    3.20    2.38
  -9  -2  10    0.88    1.67
  -9  -2  10    4.30    1.07
   8   2 -10    6.73    1.16
  -8  -2  10    2.58    2.02
  -8  -2  10    5.57    1.58
  -8  -2  10    7.23    1.13
   7   2 -10    0.03    1.29
   7   2 -10   -0.06    0.58
  -7  -2  10    0.76    1.55
  -7  -2  10   -0.01    0.56
  -7  -2  10   -0.27    1.11
  -7  -2  10   -0.35    1.37
   6   2 -10   27.54    2.89
  -6  -2  10   29.81    3.41
  -6  -2  10   27.08    2.90
  -6  -2  10   25.81    3.65
   5   2 -10   59.83    5.83
   5   2 -10   58.26    5.72
  -5  -2  10   61.72    6.19
  -5  -2  10   61.68    5.85
  -5  -2  10   54.29    6.34
   4   2 -10   36.03    3.43
  -4  -2  10   30.78    3.99
  -4  -2  10   35.78    3.77
  -4  -2  10   32.72    3.55
   3   2 -10    3.95    0.65
   3   2 -10    1.04    1.32
   3   2 -10    4.55    0.61
  -3  -2  10    2.71    1.10
  -3  -2  10    3.90    1.15
  -3  -2  10    3.91    0.76
  -3  -2  10    4.42    0.95
   2   2 -10   10.22    1.22
   2   2 -10   10.80    1.20
  -2  -2  10    9.40    1.77
  -2  -2  10   10.08    1.39
  -2  -2  10   13.46    1.59
  -2  -2  10   11.93    1.70
   1   2 -10   10.06    1.17
   1   2 -10    9.62    1.09
   1   2 -10    7.27    1.46
  -1  -2  10    9.93    1.38
  -1  -2  10    9.20    1.41
  -1  -2  10   10.03    1.34
  -1  -2  10   10.33    1.94
  -1  -2  10   12.23    1.83
   0   2 -10    0.40    0.93
   0   2 -10    3.13    0.57
   0   2 -10    1.45    1.22
   0   2 -10    3.25    0.54
   0  -2  10    3.32    0.92
   0  -2  10    1.81    1.03
   0  -2  10    4.25    0.80
   0  -2  10    4.43    0.79
   0  -2  10    4.91    0.79
  -1   2 -10    0.31    1.35
  -1   2 -10    0.88    0.88
  -1   2 -10    1.18    1.06
  -1   2 -10   -0.08    0.22
   1  -2  10    0.53    0.58
   1  -2  10    0.41    0.55
   1  -2  10    0.16    1.03
   1  -2  10    0.47    0.52
   1  -2  10   -0.25    0.39
  -2   2 -10    0.12    0.32
  -2   2 -10   -0.02    1.57
  -2   2 -10    0.19    0.40
   2  -2  10   -0.57    0.67
   2  -2  10    0.28    0.63
   2  -2  10   -0.10    1.33
   2  -2  10   -0.01    0.38
   2  -2  10    0.34    0.62
  -3   2 -10   47.29    5.18
  -3   2 -10   56.26    5.44
  -3   2 -10   47.21    5.28
   3  -2  10   62.58    6.45
   3  -2  10   50.77    5.51
   3  -2  10   56.43    5.38
   3  -2  10   62.34    5.69
  -4   2 -10   23.65    2.50
  -4   2 -10   23.93    2.78
  -4   2 -10   22.80    2.33
   4  -2  10   22.55    2.60
  -5   2 -10    3.84    0.59
  -5   2 -10    4.72    1.19
  -5   2 -10    5.30    0.93
   5  -2  10    3.22    1.27
   5  -2  10    3.99    0.96
  -6   2 -10   -0.02    1.31
  -6   2 -10    0.45    0.44
  -6   2 -10    0.15    0.80
   6  -2  10    0.77    1.44
   6  -2  10    0.12    0.83
  -9  -1  10    3.67    2.37
  -9  -1  10   10.90    1.85
  -9  -1  10    8.73    1.33
  -8  -1  10    0.30    1.65
  -8  -1  10   -0.87    0.75
  -8  -1  10    2.99    1.16
   7   1 -10    0.40    0.62
   7   1 -10    0.67    1.19
   7   1 -10    0.34    0.39
  -7  -1  10    1.16    0.59
  -7  -1  10   -0.10    1.27
  -7  -1  10   -1.56    1.37
  -7  -1  10    0.90    0.75
  -7  -1  10   -1.24    0.90
   6   1 -10    0.96    0.49
   6   1 -10    1.75    0.34
   6   1 -10    2.04    1.05
  -6  -1  10    1.21    1.17
  -6  -1  10    1.00    0.70
  -6  -1  10    0.42    1.20
  -6  -1  10    1.72    0.54
   5   1 -10   32.22    3.01
  -5  -1  10   31.53    3.34
  -5  -1  10   22.34    3.65
  -5  -1  10   27.59    3.61
  -5  -1  10   32.86    3.06
  -5  -1  10   28.09    3.16
   4   1 -10   26.09    3.42
   4   1 -10   29.38    2.98
  -4  -1  10   34.57    3.70
  -4  -1  10   35.05    3.24
  -4  -1  10   27.81    3.67
   3   1 -10   10.39    0.97
   3   1 -10    9.69    1.04
   3   1 -10    5.56    1.37
  -3  -1  10    7.32    1.49
  -3  -1  10    7.73    1.25
  -3  -1  10    7.36    1.54
  -3  -1  10   10.27    1.37
  -3  -1  10   10.47    1.69
   2   1 -10    3.82    0.55
   2   1 -10    1.97    1.26
   2   1 -10    3.26    0.55
  -2  -1  10    2.98    1.07
  -2  -1  10    4.06    0.87
  -2  -1  10    3.67    1.01
  -2  -1  10    4.52    0.76
  -2  -1  10    6.79    0.95
   1   1 -10   33.60    3.77
  -1  -1  10   42.94    4.10
  -1  -1  10   36.90    3.92
  -1  -1  10   36.59    4.31
  -1  -1  10   40.55    4.20
  -1  -1  10   42.55    3.96
   0   1 -10    5.70    1.39
   0   1 -10    7.85    1.05
   0  -1  10    8.13    1.36
   0  -1  10   10.56    1.21
   0  -1  10   10.17    1.48
   0  -1  10    9.47    1.30
  -1   1 -10   -0.11    1.34
  -1   1 -10    1.38    0.23
  -1   1 -10    1.01    0.45
  -1   1 -10    1.40    0.39
   1  -1  10    0.64    1.22
   1  -1  10    0.85    0.44
   1  -1  10    0.60    0.59
   1  -1  10    2.47    0.79
  -2   1 -10    0.61    0.39
  -2   1 -10    2.97    1.73
  -2   1 -10    0.23    0.50
  -2   1 -10    0.53    0.19
   2  -1  10    0.48    0.44
   2  -1  10   -2.39    1.40
   2  -1  10    0.16    0.66
   2  -1  10   -0.42    0.63
  -3   1 -10    3.47    0.67
  -3   1 -10    2.65    0.41
  -3   1 -10    2.61    2.52
  -3   1 -10    3.53    0.84
   3  -1  10    2.58    0.68
   3  -1  10    5.37    2.13
   3  -1  10    2.70    0.91
  -4   1 -10   -0.14    0.29
  -4   1 -10    0.10    0.85
  -4   1 -10    0.83    0.56
   4  -1  10   -0.17    0.56
   4  -1  10    0.66    0.97
  -5   1 -10    2.46    0.78
  -5   1 -10    1.03    1.27
   5  -1  10    3.75    0.92
   5  -1  10    3.36    1.42
  -6   1 -10   -0.40    1.60
  -6   1 -10    0.01    0.49
  -6   1 -10   -0.49    0.91
   6  -1  10    0.85    0.95
   6  -1  10   -1.20    1.75
 -10   0  10    2.83    1.16
  -9   0  10   -1.92    1.78
  -9   0  10   -0.64    1.08
  -9   0  10    1.51    0.83
  -8   0  10    0.76    0.67
  -8   0  10   -1.12    0.88
  -8   0  10    0.84    1.44
   7   0 -10   -0.37    0.33
   7   0 -10    0.55    1.10
   7   0 -10   -0.25    0.37
  -7   0  10    1.26    1.35
  -7   0  10   -0.41    0.54
  -7   0  10    1.11    0.69
  -7   0  10   -0.02    0.75
  -7   0  10   -0.17    1.21
  -7   0  10   -0.15    0.57
   6   0 -10    0.06    0.90
   6   0 -10   -0.64    0.29
   6   0 -10    0.12    0.26
  -6   0  10   -0.55    1.10
  -6   0  10    0.17    0.63
  -6   0  10    0.38    0.64
  -6   0  10   -0.42    0.99
  -6   0  10    0.91    0.41
  -6   0  10    0.83    0.49
   5   0 -10    0.05    0.26
   5   0 -10    1.53    0.89
   5   0 -10    0.20    0.21
  -5   0  10    1.02    0.59
  -5   0  10    0.73    0.58
  -5   0  10   -0.39    0.97
  -5   0  10    0.67    0.44
   4   0 -10    1.55    0.81
   4   0 -10    1.46    0.90
  -4   0  10    1.17    0.91
  -4   0  10    0.24    0.81
  -4   0  10    0.85    0.53
  -4   0  10    0.73    0.49
  -4   0  10    1.28    0.82
   3   0 -10   77.37    6.74
  -3   0  10   73.39    6.87
  -3   0  10   69.32    7.12
  -3   0  10   65.49    6.83
  -3   0  10   60.75    7.12
   2   0 -10    0.20    1.18
   2   0 -10    0.14    0.78
   2   0 -10    0.54    0.21
  -2   0  10    0.50    0.40
  -2   0  10   -0.26    0.92
  -2   0  10    1.06    0.63
  -2   0  10    1.00    0.62
   1   0 -10   44.84    5.11
   1   0 -10   50.08    4.76
  -1   0  10   52.38    4.84
  -1   0  10   51.61    5.07
  -1   0  10   39.20    4.81
  -1   0  10   54.37    5.36
   0   0 -10    0.21    0.30
   0   0 -10    0.23    0.42
   0   0 -10   -0.62    1.64
   0   0 -10    0.33    0.14
   0   0  10    0.20    0.61
   0   0  10    0.43    0.51
   0   0  10    0.69    0.57
   0   0  10   -0.84    1.03
   0   0  10    0.29    0.34
  -1   0 -10    4.07    0.68
  -1   0 -10    4.58    0.51
  -1   0 -10    5.18    0.93
   1   0  10    4.30    0.75
   1   0  10    5.41    1.02
   1   0  10    2.79    0.92
   1   0  10    7.36    1.69
   1   0  10    3.49    0.82
  -2   0 -10    3.83    0.53
  -2   0 -10    4.11    0.93
  -2   0 -10    4.25    0.74
   2   0  10    3.32    0.97
   2   0  10    6.54    2.05
   2   0  10    5.17    0.82
   2   0  10    4.23    0.88
   2   0  10    3.84    1.03
  -3   0 -10    4.02    0.83
  -3   0 -10    4.61    1.13
  -3   0 -10    3.26    0.48
   3   0  10    4.54    1.19
   3   0  10    2.32    0.63
   3   0  10    4.98    2.19
  -4   0 -10    0.51    1.16
  -4   0 -10   -0.55    0.66
  -4   0 -10    0.08    0.35
   4   0  10    0.15    1.39
   4   0  10    1.21    0.66
  -5   0 -10    0.58    0.70
  -5   0 -10   -1.60    1.56
  -5   0 -10    0.71    0.93
   5   0  10    0.88    1.41
   5   0  10    0.07    0.87
  -6   0 -10   -0.21    1.84
  -6   0 -10    0.31    0.63
  -6   0 -10    0.77    1.19
   6   0  10    0.42    1.99
   6   0  10   -0.53    0.94
  -9   1  10    1.26    0.84
  -9   1  10    0.61    1.41
  -9   1  10    0.65    0.78
  -8   1  10   -0.57    1.20
  -8   1  10   -0.89    0.64
  -8   1  10   -0.54    1.14
  -8   1  10   -0.35    0.62
   7  -1 -10    2.56    0.49
  -7   1  10    3.60    1.38
  -7   1  10    5.13    0.83
  -7   1  10    4.65    0.77
  -7   1  10    2.81    1.14
  -7   1  10    4.26    1.44
  -7   1  10    3.38    0.73
  -6   1  10    3.64    0.59
  -6   1  10    2.67    0.75
  -6   1  10    2.60    0.98
  -6   1  10    3.06    0.66
  -6   1  10    5.09    1.36
  -6   1  10    3.79    0.69
  -6   1  10    3.06    1.40
   5  -1 -10    0.36    0.22
  -5   1  10    0.45    0.43
  -5   1  10   -0.21    0.70
  -5   1  10    0.08    0.54
  -5   1  10   -0.93    1.00
   4  -1 -10    1.41    1.35
   4  -1 -10    2.26    0.48
  -4   1  10    2.37    1.07
  -4   1  10   -0.12    0.94
  -4   1  10    1.83    0.60
  -4   1  10    3.14    0.54
  -4   1  10    1.96    0.90
   3  -1 -10   13.95    1.41
   3  -1 -10   14.37    1.49
  -3   1  10   10.87    2.01
  -3   1  10   13.32    1.47
  -3   1  10   11.26    1.88
  -3   1  10   14.41    1.77
  -3   1  10    9.55    1.53
   2  -1 -10   20.79    2.06
  -2   1  10   19.72    2.11
  -2   1  10   16.98    2.14
  -2   1  10   18.59    2.65
  -2   1  10   20.97    2.49
  -2   1  10   22.14    2.36
   1  -1 -10   72.35    7.37
   1  -1 -10   78.68    7.27
  -1   1  10   65.45    7.30
  -1   1  10   80.28    7.51
  -1   1  10   77.29    7.31
   0  -1 -10    0.33    0.38
   0  -1 -10    0.22    0.60
   0   1  10    0.07    0.70
   0   1  10   -0.32    1.20
   0   1  10   -0.19    0.55
   0   1  10    0.14    0.46
  -1  -1 -10    1.58    0.77
  -1  -1 -10    0.30    0.44
   1   1  10    0.01    0.73
   1   1  10    0.62    0.55
   1   1  10    1.26    1.50
   1   1  10    0.42    0.45
  -2  -1 -10    6.14    1.29
  -2  -1 -10    4.60    0.85
  -2  -1 -10    4.69    0.69
   2   1  10    4.42    1.22
   2   1  10    4.64    1.15
   2   1  10   10.95    2.29
   2   1  10    6.45    1.00
   2   1  10    5.02    0.91
  -3  -1 -10    0.09    1.17
  -3  -1 -10    0.79    0.66
  -3  -1 -10    0.71    0.35
   3   1  10    3.94    2.38
   3   1  10    0.95    0.65
   3   1  10    0.52    0.99
  -4  -1 -10    2.69    0.54
  -4  -1 -10    1.70    0.88
  -4  -1 -10    5.00    1.67
   4   1  10    0.99    1.26
   4   1  10    1.88    0.81
  -5  -1 -10   -0.78    1.02
  -5  -1 -10    3.07    2.05
  -5  -1 -10    0.32    0.79
   5   1  10    0.87    1.69
   5   1  10    0.43    0.95
  -9   2  10   -0.43    0.84
  -9   2  10    1.82    1.70
  -8   2  10    1.09    1.09
  -8   2  10    2.04    1.57
  -8   2  10    1.64    0.74
  -8   2  10    1.52    0.84
  -8   2  10    2.59    0.49
   7  -2 -10    0.41    0.53
  -7   2  10    1.02    1.12
  -7   2  10    0.46    0.74
  -7   2  10    0.99    0.70
  -7   2  10   -0.16    1.23
  -7   2  10    0.27    0.58
  -7   2  10    1.33    0.38
   6  -2 -10    0.74    0.35
   6  -2 -10    0.57    0.75
  -6   2  10    1.21    0.62
  -6   2  10    0.13    1.13
  -6   2  10    1.06    0.60
  -6   2  10    0.58    0.99
  -6   2  10    0.99    0.52
  -6   2  10    0.47    0.34
   5  -2 -10    2.79    0.47
   5  -2 -10    3.49    0.68
  -5   2  10    2.09    1.33
  -5   2  10    2.31    0.70
  -5   2  10    4.78    0.81
  -5   2  10    0.79    1.00
  -5   2  10    2.56    0.49
   4  -2 -10    0.51    0.32
   4  -2 -10   -0.12    0.53
  -4   2  10    0.05    0.77
  -4   2  10    0.01    0.54
  -4   2  10    0.31    0.30
  -4   2  10    0.21    0.52
  -4   2  10    1.41    1.00
   3  -2 -10    2.12    0.59
   3  -2 -10    3.01    0.73
  -3   2  10    3.23    0.68
  -3   2  10    1.88    1.04
  -3   2  10    3.03    0.97
  -3   2  10    2.98    0.69
  -3   2  10    3.57    0.55
   2  -2 -10    2.92    0.58
   2  -2 -10    3.56    0.79
  -2   2  10    4.04    0.67
  -2   2  10    2.61    0.91
  -2   2  10    3.13    1.16
  -2   2  10    3.04    0.75
   1  -2 -10   16.02    1.72
   1  -2 -10   16.39    2.02
  -1   2  10   12.23    1.74
  -1   2  10   20.29    2.73
  -1   2  10   14.80    1.69
  -1   2  10   15.50    1.94
  -1   2  10   13.51    2.11
   0  -2 -10    4.14    1.44
   0  -2 -10    4.45    0.77
   0  -2 -10    3.90    0.63
   0   2  10    5.41    1.06
   0   2  10    4.57    0.73
   0   2  10    5.11    0.84
   0   2  10    3.89    1.05
  -1  -2 -10   13.42    1.55
  -1  -2 -10    9.39    1.31
  -1  -2 -10   11.06    2.22
   1   2  10   13.18    1.83
   1   2  10    9.45    1.72
   1   2  10   11.22    1.56
   1   2  10   10.37    1.45
  -2  -2 -10    2.98    1.28
  -2  -2 -10    2.03    0.74
   2   2  10    1.98    0.67
   2   2  10    1.84    1.01
  -3  -2 -10    2.90    1.70
  -3  -2 -10    3.33    0.95
   3   2  10    3.94    0.91
   3   2  10    3.83    1.38
  -4  -2 -10    1.22    1.04
  -4  -2 -10   -0.99    2.18
   4   2  10   -1.39    1.39
   4   2  10   -0.63    0.96
  -9   3  10   37.49    4.90
  -8   3  10    3.87    1.52
  -7   3  10   -0.02    1.21
  -6   3  10    0.39    1.03
  -6   3  10    1.14    0.35
  -6   3  10    2.13    1.19
  -6   3  10    0.85    1.07
  -6   3  10    1.35    0.51
   5  -3 -10    0.75    0.43
  -5   3  10    0.33    0.45
  -5   3  10    0.67    0.92
  -5   3  10   -0.63    0.60
  -5   3  10   -0.43    1.22
  -5   3  10    0.17    0.32
   4  -3 -10   -0.98    0.86
  -4   3  10    1.18    0.59
  -4   3  10    0.32    0.48
  -4   3  10    0.68    0.91
   3  -3 -10    3.42    1.03
   3  -3 -10    3.07    0.61
  -3   3  10    2.88    0.71
  -3   3  10    3.09    0.70
  -3   3  10    2.36    0.97
  -3   3  10    3.02    1.13
  -3   3  10    3.14    0.56
   2  -3 -10   19.21    2.14
   2  -3 -10   19.61    2.65
  -2   3  10   20.80    2.64
  -2   3  10   18.28    2.07
  -2   3  10   21.97    2.31
  -2   3  10   17.56    2.12
   1  -3 -10   31.52    3.21
   1  -3 -10   25.91    3.05
  -1   3  10   30.76    3.37
  -1   3  10   29.20    3.17
  -1   3  10   32.70    3.16
  -1   3  10   36.99    3.68
   0  -3 -10    6.09    0.86
   0  -3 -10    4.85    1.50
   0  -3 -10    6.79    1.01
   0   3  10    5.85    0.95
   0   3  10    5.41    1.20
   0   3  10    6.94    1.12
   0   3  10    5.48    1.32
  -1  -3 -10    3.21    1.57
  -1  -3 -10    1.90    0.59
  -1  -3 -10   -0.18    0.76
   1   3  10    0.69    0.99
   1   3  10    2.08    0.69
   1   3  10    1.49    1.00
   1   3  10    0.10    0.89
  -2  -3 -10    2.07    0.93
  -2  -3 -10    1.35    0.72
   2   3  10    1.42    0.76
   2   3  10    0.93    1.19
  -3  -3 -10   -0.42    1.08
   3   3  10    1.24    0.88
   3   3  10    2.13    1.47
  -8   4  10   14.73    2.49
  -7   4  10    0.36    1.27
  -6   4  10    0.30    0.50
  -6   4  10    0.38    1.10
  -5   4  10   -0.62    1.30
  -5   4  10   -0.75    0.99
  -5   4  10   -0.26    0.53
  -4   4  10   -0.17    0.40
  -4   4  10    0.53    1.19
  -4   4  10    0.06    0.56
  -4   4  10    0.11    0.93
  -3   4  10   -0.11    0.61
  -3   4  10   -0.14    0.42
  -3   4  10    0.13    0.92
  -3   4  10   -0.51    1.31
   2  -4 -10    4.93    0.95
  -2   4  10    4.96    1.04
  -2   4  10    3.42    1.18
  -2   4  10    4.69    0.79
   1  -4 -10   -0.03    0.73
   1  -4 -10    0.99    0.53
  -1   4  10   -0.29    0.77
  -1   4  10    0.47    0.52
  -1   4  10    1.92    1.04
   0  -4 -10    3.65    0.76
   0  -4 -10    4.75    1.04
   0   4  10    4.01    1.21
   0   4  10    2.13    0.74
   0   4  10    3.67    1.26
  -1  -4 -10    4.82    1.05
  -1  -4 -10    7.47    1.35
   1   4  10    8.07    1.21
   1   4  10    6.88    1.60
  -2  -4 -10    3.32    0.99
  -2  -4 -10    5.26    1.46
   2   4  10    3.85    1.03
   2   4  10    2.53    1.61
  -7   5  10   16.92    2.68
  -6   5  10   18.85    2.97
  -5   5  10    5.29    0.79
  -5   5  10    4.49    1.04
  -5   5  10    9.34    1.68
  -4   5  10    1.14    1.20
  -4   5  10   -0.51    0.51
  -4   5  10    0.05    0.76
  -3   5  10    8.23    1.29
  -3   5  10   10.27    1.72
  -3   5  10    6.68    1.66
  -2   5  10    3.68    0.82
  -2   5  10    4.71    1.44
  -2   5  10    5.15    1.19
   1  -5 -10    1.38    0.72
  -1   5  10    1.85    1.26
  -1   5  10    0.86    1.11
  -1   5  10    1.66    0.72
   0  -5 -10    0.23    0.80
   0   5  10   -1.31    1.17
   0   5  10   -0.82    0.75
  -1  -5 -10    1.25    1.04
   1   5  10    1.44    0.99
   1   5  10    2.99    1.64
  -5   6  10   -0.21    1.47
  -5   6  10    0.67    1.02
  -4   6  10    3.26    1.55
  -4   6  10    0.73    0.73
  -4   6  10    0.14    1.10
  -3   6  10    9.09    1.94
  -3   6  10    5.42    1.52
  -3   6  10    6.37    1.10
  -2   6  10    1.85    0.84
  -2   6  10   -1.47    1.45
  -2   6  10   -0.41    1.30
   2  10 -11    2.27    2.31
   2  10 -11    2.87    1.10
  -2 -10  11    0.55    0.96
  -2 -10  11   -0.25    2.26
   1  10 -11   -1.64    2.08
   1  10 -11    1.12    0.99
  -1 -10  11   -1.13    0.85
  -1 -10  11   -0.17    1.99
   0  10 -11    0.72    0.94
   0  10 -11   -0.58    1.92
   0 -10  11    1.79    2.07
  -1  10 -11    0.21    0.83
  -1  10 -11    0.23    1.83
   1 -10  11   -0.44    1.71
  -2  10 -11   -3.51    1.83
  -2  10 -11    0.95    0.79
   2 -10  11   -2.15    1.76
   4   9 -11   -0.79    0.91
   4   9 -11   -0.61    2.30
  -4  -9  11   -3.22    3.33
  -4  -9  11    0.90    0.98
  -4  -9  11    3.56    2.36
   3   9 -11   -1.23    0.83
   3   9 -11    2.10    2.10
  -3  -9  11    0.23    3.04
  -3  -9  11   -0.46    0.82
  -3  -9  11   -1.77    2.07
   2   9 -11    1.31    1.89
   2   9 -11    2.31    0.94
  -2  -9  11   -0.82    2.50
  -2  -9  11   -0.16    0.77
  -2  -9  11    1.80    1.94
   1   9 -11   -0.79    1.76
   1   9 -11    0.27    0.76
  -1  -9  11   -2.47    2.31
  -1  -9  11    3.25    1.56
   0   9 -11    1.07    0.75
   0   9 -11    0.06    1.57
   0  -9  11    0.58    1.60
   0  -9  11    2.76    2.49
  -1   9 -11   11.31    2.36
  -1   9 -11    6.09    1.14
   1  -9  11    0.42    3.68
   1  -9  11    9.16    1.92
  -2   9 -11    0.00    1.53
  -2   9 -11    0.65    0.63
  -3   9 -11    6.03    2.09
  -3   9 -11    3.84    0.86
   3  -9  11    5.48    1.66
  -4   9 -11    4.87    2.25
   5   8 -11    8.53    3.01
   5   8 -11    8.18    1.44
  -5  -8  11    6.41    2.27
  -5  -8  11    5.40    3.27
  -5  -8  11    8.28    1.35
   4   8 -11    2.48    0.99
   4   8 -11    4.03    3.44
  -4  -8  11    2.46    1.99
  -4  -8  11   -0.26    2.38
   3   8 -11    0.86    0.71
  -3  -8  11   -0.36    0.68
  -3  -8  11    0.26    1.63
   2   8 -11    0.51    0.65
   2   8 -11   -0.09    1.61
  -2  -8  11    0.65    1.45
  -2  -8  11    0.21    0.65
  -2  -8  11   -4.01    2.05
   1   8 -11   -0.08    0.66
   1   8 -11   -0.14    1.40
   1   8 -11    3.16    3.12
  -1  -8  11   -0.26    1.24
  -1  -8  11   -1.03    1.82
   0   8 -11   24.73    2.88
   0   8 -11   29.14    3.83
   0  -8  11   25.86    3.63
  -1   8 -11   30.01    3.17
   1  -8  11   27.38    4.46
   1  -8  11   29.49    3.14
   1  -8  11   33.42    4.14
  -2   8 -11   -0.04    1.46
  -2   8 -11    0.51    0.49
   2  -8  11    1.18    1.14
   2  -8  11    0.55    1.74
  -3   8 -11    3.48    0.71
  -3   8 -11    3.44    1.56
   3  -8  11    2.17    1.18
  -4   8 -11   -1.59    1.62
  -4   8 -11   -0.02    0.49
   4  -8  11   -1.24    0.98
  -5   8 -11    9.23    2.54
   6   7 -11    7.80    1.34
  -6  -7  11   11.59    2.31
  -6  -7  11    1.68    2.97
   5   7 -11    0.38    0.86
   5   7 -11    0.35    1.89
  -5  -7  11    1.14    0.76
  -5  -7  11   -3.75    1.60
  -5  -7  11    1.55    2.42
   4   7 -11   -0.86    0.72
   4   7 -11    0.20    1.69
  -4  -7  11   -0.50    1.47
  -4  -7  11   -0.37    2.14
  -4  -7  11    0.92    0.62
   3   7 -11    5.48    1.06
   3   7 -11    7.02    1.85
  -3  -7  11    5.95    1.71
  -3  -7  11    5.09    2.31
  -3  -7  11    7.37    1.14
   2   7 -11    0.40    0.58
   2   7 -11    0.35    1.28
  -2  -7  11    0.41    1.80
  -2  -7  11   -0.06    0.48
  -2  -7  11    0.30    1.28
   1   7 -11    0.35    2.39
   1   7 -11    0.28    0.52
   1   7 -11   -0.70    1.17
  -1  -7  11    1.89    1.72
  -1  -7  11    0.72    1.22
   0   7 -11    0.57    1.21
   0   7 -11   -3.05    2.19
   0   7 -11    0.40    0.45
   0  -7  11   -1.22    1.42
   0  -7  11    1.40    1.10
   0  -7  11   -0.91    0.79
  -1   7 -11    3.39    1.59
  -1   7 -11    2.24    2.41
  -1   7 -11    3.58    0.70
   1  -7  11    3.77    1.25
   1  -7  11    2.63    0.73
   1  -7  11    1.97    1.48
  -2   7 -11    0.46    0.46
  -2   7 -11   -2.61    2.50
  -2   7 -11    0.03    1.19
   2  -7  11    1.63    1.38
   2  -7  11    0.68    0.94
  -3   7 -11    5.46    1.66
   3  -7  11    3.85    1.13
   3  -7  11    2.94    1.56
  -4   7 -11    8.01    1.18
   4  -7  11    8.95    1.49
  -5   7 -11   10.10    2.42
   7   6 -11    1.39    1.12
  -7  -6  11    3.23    1.11
  -7  -6  11    1.24    1.02
  -7  -6  11    1.34    2.00
  -7  -6  11   -2.45    2.68
   6   6 -11    1.44    2.03
   6   6 -11    3.50    1.04
  -6  -6  11   -0.20    2.34
  -6  -6  11    3.52    0.85
  -6  -6  11    4.92    1.07
  -6  -6  11    2.59    1.75
   5   6 -11    1.52    1.66
   5   6 -11    1.65    0.93
  -5  -6  11    1.53    2.01
  -5  -6  11   -0.78    1.43
  -5  -6  11    0.25    0.57
   4   6 -11    3.77    0.81
   4   6 -11    4.36    1.61
  -4  -6  11    3.84    2.17
  -4  -6  11    2.40    1.85
  -4  -6  11    3.12    1.44
  -4  -6  11    5.25    0.77
   3   6 -11    3.50    0.72
   3   6 -11    2.60    1.31
  -3  -6  11    1.09    1.80
  -3  -6  11    2.09    1.69
  -3  -6  11    2.01    1.22
  -3  -6  11    4.05    0.66
   2   6 -11   11.86    1.61
   2   6 -11   15.29    2.45
  -2  -6  11   14.95    2.41
  -2  -6  11   10.46    2.37
   1   6 -11   -0.29    2.10
   1   6 -11    0.89    0.44
   1   6 -11    1.08    0.96
  -1  -6  11   -0.54    0.96
  -1  -6  11   -1.19    1.36
  -1  -6  11   -2.68    1.62
   0   6 -11    6.42    1.44
   0   6 -11   -0.20    1.99
   0  -6  11    4.40    0.97
   0  -6  11    3.32    1.21
   0  -6  11    3.59    1.50
   0  -6  11    3.66    1.72
  -1   6 -11    0.33    0.98
  -1   6 -11    0.40    0.38
  -1   6 -11   -0.38    2.06
   1  -6  11    1.16    0.61
   1  -6  11    1.51    1.31
   1  -6  11    1.31    0.91
  -2   6 -11    0.43    0.57
  -2   6 -11    0.41    0.37
  -2   6 -11    0.05    1.43
  -2   6 -11   -0.48    2.18
   2  -6  11    0.70    0.58
   2  -6  11    0.26    0.72
   2  -6  11   -1.03    1.15
  -3   6 -11    0.65    0.43
  -3   6 -11    3.24    2.59
  -3   6 -11    1.17    1.31
  -3   6 -11    0.69    0.71
   3  -6  11   -0.22    0.80
   3  -6  11    2.22    1.16
  -4   6 -11   12.23    1.51
   4  -6  11   12.08    2.02
   4  -6  11   16.37    2.45
  -5   6 -11    1.41    0.64
   5  -6  11    0.86    0.90
  -6   6 -11    0.52    0.92
  -6   6 -11    1.90    0.54
  -6   6 -11   -0.04    0.77
   6  -6  11    0.87    1.01
  -8  -5  11    0.69    2.06
  -8  -5  11   -0.10    1.05
  -8  -5  11   -1.51    2.80
   7   5 -11    0.52    0.87
  -7  -5  11   -0.07    1.66
  -7  -5  11   -0.78    2.38
  -7  -5  11    0.51    0.87
   6   5 -11    0.40    0.81
   6   5 -11    0.94    1.63
  -6  -5  11    3.23    2.06
  -6  -5  11   -0.28    0.55
  -6  -5  11    0.80    1.39
  -6  -5  11    0.32    0.79
  -6  -5  11    2.54    1.43
   5   5 -11    1.94    1.37
   5   5 -11    0.12    0.64
  -5  -5  11    0.61    0.50
  -5  -5  11    2.10    1.11
  -5  -5  11   -1.16    1.88
  -5  -5  11    2.18    1.36
  -5  -5  11   -1.35    1.71
   4   5 -11    5.73    1.02
   4   5 -11    5.74    1.55
  -4  -5  11    6.82    1.93
  -4  -5  11    5.35    1.36
  -4  -5  11    6.64    0.94
  -4  -5  11    6.61    1.26
   3   5 -11    4.70    1.33
   3   5 -11    3.94    0.75
  -3  -5  11    1.80    0.96
  -3  -5  11    3.52    0.55
  -3  -5  11    0.86    1.47
  -3  -5  11    0.20    1.52
  -3  -5  11    2.79    1.17
   2   5 -11   20.42    2.28
   2   5 -11   18.65    2.08
  -2  -5  11   16.54    2.93
  -2  -5  11   22.99    2.77
  -2  -5  11   17.53    2.48
  -2  -5  11   17.07    3.10
   1   5 -11    3.18    0.65
   1   5 -11    0.21    1.71
   1   5 -11    2.05    0.80
   1   5 -11    5.64    1.35
  -1  -5  11    3.19    1.48
  -1  -5  11    3.64    1.66
  -1  -5  11    3.42    0.97
  -1  -5  11    2.15    0.89
  -1  -5  11    4.90    1.06
   0   5 -11    2.41    1.08
   0   5 -11    0.23    0.65
   0   5 -11    1.21    0.41
   0   5 -11    1.27    1.71
   0  -5  11   -0.29    1.16
   0  -5  11    1.60    0.94
   0  -5  11    0.77    0.65
   0  -5  11   -0.69    1.53
  -1   5 -11    3.75    0.62
  -1   5 -11    0.44    1.85
  -1   5 -11    4.99    0.76
   1  -5  11    3.89    0.92
   1  -5  11    4.50    1.46
   1  -5  11    3.22    1.82
   1  -5  11    5.06    0.87
  -2   5 -11    1.17    2.03
  -2   5 -11    3.35    0.59
  -2   5 -11    2.64    0.59
   2  -5  11    2.38    0.70
   2  -5  11    3.48    0.90
   2  -5  11    3.15    1.18
  -3   5 -11    0.51    0.62
  -3   5 -11    0.15    0.34
  -3   5 -11    0.56    2.43
  -3   5 -11    0.15    1.90
   3  -5  11    0.05    1.01
   3  -5  11    0.63    0.67
   3  -5  11    1.85    0.71
  -4   5 -11    5.82    1.16
   4  -5  11    6.88    1.51
  -5   5 -11    3.31    0.92
   5  -5  11    2.74    1.34
   5  -5  11    3.90    1.01
  -6   5 -11    3.80    0.89
  -6   5 -11    2.40    0.57
  -6   5 -11    1.67    1.12
   6  -5  11    5.28    1.17
  -8  -4  11   10.28    3.19
  -8  -4  11   15.79    2.61
  -8  -4  11   13.64    2.14
   7   4 -11    5.31    1.03
  -7  -4  11    2.11    2.12
  -7  -4  11    4.89    1.02
  -7  -4  11    2.89    1.68
   6   4 -11    5.98    1.03
   6   4 -11    5.98    1.94
  -6  -4  11    6.98    1.71
  -6  -4  11    8.08    1.06
  -6  -4  11    5.75    1.39
  -6  -4  11    2.07    1.95
  -6  -4  11    6.60    1.07
   5   4 -11    4.62    1.49
   5   4 -11    2.13    0.67
  -5  -4  11   -0.20    1.49
  -5  -4  11    1.77    1.18
  -5  -4  11    2.32    1.08
  -5  -4  11    1.04    1.98
   4   4 -11    4.87    0.82
   4   4 -11    4.69    1.34
   4   4 -11    3.65    0.66
  -4  -4  11    3.49    1.02
  -4  -4  11    2.00    1.80
  -4  -4  11    4.32    1.64
  -4  -4  11    4.21    1.26
   3   4 -11   15.44    1.82
   3   4 -11   18.17    1.79
  -3  -4  11   16.80    2.09
  -3  -4  11   13.63    2.78
  -3  -4  11   10.16    2.43
   2   4 -11   15.85    1.67
   2   4 -11   16.80    1.81
  -2  -4  11   14.43    2.71
  -2  -4  11   11.72    2.45
  -2  -4  11   15.60    2.24
  -2  -4  11   12.63    1.97
   1   4 -11    5.94    0.89
   1   4 -11    6.16    0.95
   1   4 -11   10.60    1.84
   1   4 -11    3.18    1.74
  -1  -4  11    4.95    1.13
  -1  -4  11    6.60    1.73
  -1  -4  11    5.60    1.68
  -1  -4  11    6.04    1.11
  -1  -4  11    7.10    1.25
   0   4 -11    0.34    0.91
   0   4 -11   -0.31    0.54
   0   4 -11    0.41    0.32
   0  -4  11   -0.07    0.70
   0  -4  11   -1.52    1.27
   0  -4  11    0.49    1.02
   0  -4  11    0.05    0.71
   0  -4  11   -0.49    0.57
  -1   4 -11    7.47    0.97
  -1   4 -11    3.36    1.98
  -1   4 -11    6.34    1.06
  -1   4 -11    8.10    0.89
   1  -4  11   10.67    1.96
   1  -4  11    7.13    1.27
   1  -4  11    5.27    1.94
   1  -4  11    8.67    1.27
  -2   4 -11    1.65    1.06
  -2   4 -11   -3.30    1.87
  -2   4 -11    0.99    0.42
   2  -4  11   -0.29    0.65
   2  -4  11    2.05    1.02
   2  -4  11   -0.15    1.74
   2  -4  11    0.89    0.65
  -3   4 -11    1.21    0.63
  -3   4 -11    2.05    1.28
  -3   4 -11    1.47    2.29
   3  -4  11    1.57    0.76
   3  -4  11    1.32    0.87
   3  -4  11    1.42    0.78
  -4   4 -11   -0.28    0.30
  -4   4 -11    0.07    0.49
  -4   4 -11   -1.68    0.75
  -4   4 -11    0.15    0.56
  -4   4 -11    1.08    2.54
   4  -4  11   -0.37    0.57
   4  -4  11    0.40    1.01
  -5   4 -11    3.22    0.78
  -5   4 -11    3.68    0.60
  -5   4 -11    3.91    1.04
   5  -4  11    3.70    1.00
   5  -4  11    3.57    1.40
  -6   4 -11    2.24    0.81
  -6   4 -11    1.08    0.48
  -6   4 -11    1.00    1.24
   6  -4  11    0.46    0.90
  -9  -3  11   -0.17    2.90
  -9  -3  11   -0.66    1.89
  -9  -3  11   -0.35    0.97
  -8  -3  11   -0.77    1.66
  -8  -3  11    0.99    0.79
  -8  -3  11   -3.03    2.17
   7   3 -11    6.39    1.08
  -7  -3  11    2.11    1.94
  -7  -3  11    6.26    1.06
  -7  -3  11    4.50    1.56
   6   3 -11   15.82    2.65
   6   3 -11   11.02    1.58
  -6  -3  11   11.44    1.62
  -6  -3  11   13.92    2.09
  -6  -3  11   10.48    2.42
  -6  -3  11    8.86    1.55
   5   3 -11   20.48    2.20
   5   3 -11   25.99    3.12
   5   3 -11   19.18    2.05
  -5  -3  11   15.76    3.32
  -5  -3  11   20.52    2.78
  -5  -3  11   18.05    2.47
  -5  -3  11   18.17    3.27
  -5  -3  11   19.01    2.23
   4   3 -11    6.66    0.97
  -4  -3  11    6.60    1.59
  -4  -3  11    5.44    1.80
  -4  -3  11    8.82    1.45
  -4  -3  11    8.53    1.28
   3   3 -11    3.60    0.58
   3   3 -11    6.06    1.32
   3   3 -11    3.54    0.58
  -3  -3  11    1.99    0.77
  -3  -3  11    3.33    1.10
  -3  -3  11    2.19    1.27
  -3  -3  11    3.48    1.27
   2   3 -11    6.90    1.97
   2   3 -11   10.87    1.33
   2   3 -11   12.01    1.27
  -2  -3  11   11.34    1.85
  -2  -3  11   11.56    2.28
  -2  -3  11    9.15    1.92
  -2  -3  11   11.06    1.77
   1   3 -11    6.32    0.90
   1   3 -11    8.75    1.11
   1   3 -11    4.22    1.70
  -1  -3  11    7.17    1.66
  -1  -3  11    7.19    1.68
  -1  -3  11    5.60    1.05
  -1  -3  11    7.88    1.28
  -1  -3  11    9.51    1.38
   0   3 -11    2.44    0.64
   0   3 -11    2.79    0.51
   0   3 -11    1.04    1.52
   0  -3  11    4.24    0.86
   0  -3  11    5.16    0.92
   0  -3  11    2.94    1.11
   0  -3  11    3.39    0.87
   0  -3  11    3.95    1.48
  -1   3 -11   20.31    2.18
  -1   3 -11   18.37    2.34
   1  -3  11   19.82    2.44
   1  -3  11   19.59    2.58
   1  -3  11   25.07    2.46
   1  -3  11   25.31    2.86
   1  -3  11   22.26    3.56
  -2   3 -11   -0.75    0.99
  -2   3 -11   -0.11    0.63
  -2   3 -11   -1.62    1.85
   2  -3  11    0.26    0.85
   2  -3  11    0.10    0.58
   2  -3  11   -0.89    0.67
   2  -3  11    0.06    1.47
  -3   3 -11   39.46    3.87
  -3   3 -11   40.39    4.15
  -3   3 -11   43.33    4.01
   3  -3  11   34.57    4.20
   3  -3  11   42.72    4.43
   3  -3  11   36.94    4.09
  -4   3 -11   20.72    2.37
  -4   3 -11   16.80    2.05
   4  -3  11   18.18    2.25
   4  -3  11   16.57    2.66
  -5   3 -11   -0.44    0.35
  -5   3 -11   -1.08    0.59
  -5   3 -11    0.79    1.00
   5  -3  11    0.91    0.81
   5  -3  11    0.86    1.31
  -6   3 -11    1.80    0.54
  -6   3 -11    3.74    1.43
  -6   3 -11    1.43    0.89
   6  -3  11    0.38    0.92
  -9  -2  11    1.08    2.48
  -9  -2  11    0.33    0.86
  -9  -2  11    2.04    1.68
  -8  -2  11    2.83    0.82
  -8  -2  11    1.12    1.48
  -8  -2  11   -0.37    2.08
   7   2 -11    4.35    0.86
  -7  -2  11    4.46    0.93
  -7  -2  11    3.74    1.33
  -7  -2  11    2.34    1.89
   6   2 -11    1.09    0.40
   6   2 -11   -0.36    0.49
  -6  -2  11    0.38    0.57
  -6  -2  11    0.67    1.02
  -6  -2  11    2.05    1.51
  -6  -2  11    0.25    1.49
  -6  -2  11   -0.08    0.85
   5   2 -11    4.19    0.68
   5   2 -11    2.90    0.51
   5   2 -11    5.23    1.32
  -5  -2  11    3.06    1.51
  -5  -2  11    3.39    1.04
  -5  -2  11    1.86    1.42
  -5  -2  11    5.34    1.01
   4   2 -11    6.91    0.89
   4   2 -11    5.33    0.73
  -4  -2  11    5.17    1.00
  -4  -2  11    3.59    1.38
   3   2 -11   19.61    1.96
   3   2 -11   16.64    1.99
  -3  -2  11   17.74    2.27
  -3  -2  11   20.73    2.88
  -3  -2  11   16.85    2.79
  -3  -2  11   22.71    2.47
  -3  -2  11   23.27    2.70
   2   2 -11    1.46    0.43
   2   2 -11    1.72    0.39
  -2  -2  11    2.95    1.13
  -2  -2  11    3.75    0.76
  -2  -2  11    2.66    0.89
  -2  -2  11    2.54    1.15
  -2  -2  11    1.66    0.65
   1   2 -11    2.38    0.50
   1   2 -11    4.12    1.16
   1   2 -11    1.58    0.38
   1   2 -11    1.79    1.50
  -1  -2  11    0.97    0.65
  -1  -2  11    0.88    0.97
  -1  -2  11    3.27    1.27
  -1  -2  11    3.03    0.85
  -1  -2  11    1.77    0.65
   0   2 -11    5.96    0.79
   0   2 -11    5.48    0.82
   0   2 -11    2.74    1.66
   0  -2  11    7.55    1.79
   0  -2  11    5.95    1.06
   0  -2  11    8.45    1.50
   0  -2  11    6.91    1.16
   0  -2  11    6.42    1.08
  -1   2 -11    0.99    1.71
  -1   2 -11    3.24    0.71
   1  -2  11    7.08    1.27
   1  -2  11    3.46    1.76
   1  -2  11    4.57    1.05
   1  -2  11    4.67    0.99
   1  -2  11    4.47    1.07
  -2   2 -11    0.12    0.48
  -2   2 -11   -0.23    0.21
  -2   2 -11    0.05    0.39
   2  -2  11    0.73    1.72
   2  -2  11   -1.34    0.73
   2  -2  11   -0.06    0.51
   2  -2  11   -0.52    0.73
  -3   2 -11    0.48    0.50
  -3   2 -11   -0.19    0.63
  -3   2 -11    0.74    0.26
   3  -2  11    0.06    0.55
   3  -2  11    1.63    1.00
  -4   2 -11   19.45    2.31
  -4   2 -11   18.28    2.07
   4  -2  11   23.30    2.46
   4  -2  11   23.80    3.00
  -5   2 -11    0.27    0.76
  -5   2 -11    0.23    1.22
  -5   2 -11    1.41    0.43
   5  -2  11    1.62    1.51
   5  -2  11    1.66    0.92
  -6   2 -11   -0.62    0.51
  -6   2 -11    0.42    1.59
  -6   2 -11   -1.74    0.94
   6  -2  11   -0.87    1.05
  -9  -1  11    5.41    2.44
  -9  -1  11    7.17    1.33
  -9  -1  11    6.47    1.63
  -8  -1  11    3.74    0.93
  -8  -1  11    3.70    1.28
  -8  -1  11    4.07    1.91
   7   1 -11    2.73    0.65
  -7  -1  11    1.31    1.08
  -7  -1  11   -0.56    1.52
  -7  -1  11    0.56    0.67
   6   1 -11    5.04    0.79
   6   1 -11    6.84    0.96
  -6  -1  11    3.52    1.56
  -6  -1  11    5.76    0.90
  -6  -1  11    4.85    1.15
  -6  -1  11    6.54    1.14
  -6  -1  11    6.13    1.62
   5   1 -11   15.00    1.35
   5   1 -11   13.21    1.45
  -5  -1  11   11.58    1.88
  -5  -1  11    8.54    2.02
  -5  -1  11   11.29    2.11
  -5  -1  11   12.19    1.82
   4   1 -11    0.51    0.92
   4   1 -11    0.12    0.29
  -4  -1  11   -0.41    1.10
  -4  -1  11    0.07    1.06
  -4  -1  11    0.97    0.74
  -4  -1  11    0.44    1.67
   3   1 -11    4.13    0.62
   3   1 -11    2.82    0.48
  -3  -1  11    3.22    1.16
  -3  -1  11    2.54    0.78
  -3  -1  11    1.09    1.18
  -3  -1  11    2.09    0.99
  -3  -1  11    3.81    0.79
   2   1 -11    4.16    0.62
   2   1 -11    3.64    0.56
  -2  -1  11    2.98    1.14
  -2  -1  11    2.82    0.74
  -2  -1  11    3.73    0.94
  -2  -1  11    4.21    0.81
  -2  -1  11    4.57    1.21
   1   1 -11    1.04    0.93
   1   1 -11    0.21    0.32
   1   1 -11    0.28    0.24
  -1  -1  11   -0.07    0.69
  -1  -1  11    0.81    1.12
  -1  -1  11    0.27    0.61
  -1  -1  11    0.34    0.47
  -1  -1  11    0.22    0.64
   0   1 -11    8.02    1.07
   0   1 -11   10.88    1.24
   0   1 -11    8.00    1.15
   0  -1  11    7.67    1.37
   0  -1  11    8.33    1.30
   0  -1  11    9.75    1.60
   0  -1  11    5.91    1.70
  -1   1 -11    5.42    1.02
  -1   1 -11    4.54    0.76
  -1   1 -11    4.61    0.57
  -1   1 -11    5.85    0.85
   1  -1  11    4.69    1.02
   1  -1  11    4.33    0.80
   1  -1  11    4.19    1.09
   1  -1  11    6.15    1.05
   1  -1  11    4.04    1.75
  -2   1 -11    5.21    0.65
  -2   1 -11    6.14    1.07
  -2   1 -11    5.62    0.87
   2  -1  11    5.01    0.91
   2  -1  11    6.20    2.12
   2  -1  11    5.41    1.31
   2  -1  11    4.21    1.17
  -3   1 -11    1.88    0.95
  -3   1 -11    2.01    0.37
  -3   1 -11    2.67    0.67
   3  -1  11    2.33    2.63
   3  -1  11    2.66    0.78
   3  -1  11    1.56    1.79
  -4   1 -11    3.70    0.84
  -4   1 -11    3.18    0.53
  -4   1 -11    3.09    1.77
   4  -1  11    3.68    0.82
   4  -1  11    2.42    1.32
  -5   1 -11   -0.15    0.45
  -5   1 -11   -0.61    0.85
  -5   1 -11   -0.70    1.54
   5  -1  11    0.72    1.47
   5  -1  11   -1.40    0.78
  -9   0  11    6.79    1.28
  -9   0  11    6.86    1.38
  -9   0  11    5.75    2.10
  -8   0  11   20.19    3.78
  -8   0  11   29.18    2.93
  -8   0  11   27.63    3.13
  -7   0  11    8.25    1.32
  -7   0  11    8.31    2.72
  -7   0  11    7.36    1.79
  -7   0  11    8.54    1.20
   6   0 -11    1.37    0.34
   6   0 -11    1.14    0.38
   6   0 -11    4.31    1.34
  -6   0  11   -1.07    1.20
  -6   0  11    1.17    1.30
  -6   0  11    1.13    0.73
  -6   0  11    2.38    1.15
  -6   0  11    3.04    0.63
  -6   0  11    0.95    0.84
   5   0 -11    0.10    1.08
   5   0 -11    0.72    0.26
   5   0 -11    0.93    0.42
  -5   0  11    1.79    0.75
  -5   0  11    1.34    1.05
  -5   0  11    0.41    0.94
  -5   0  11    0.33    0.55
  -5   0  11   -0.56    1.22
   4   0 -11    8.65    0.94
  -4   0  11    5.82    1.10
  -4   0  11   10.03    1.82
  -4   0  11    6.36    1.61
  -4   0  11    9.02    1.72
   3   0 -11   23.95    2.19
  -3   0  11   21.77    2.72
  -3   0  11   18.34    2.92
  -3   0  11   19.76    2.41
  -3   0  11   21.22    2.95
   2   0 -11    3.02    0.61
  -2   0  11    5.35    1.75
  -2   0  11    1.52    1.23
  -2   0  11    2.25    0.71
   1   0 -11   10.73    1.34
   1   0 -11    9.13    1.12
  -1   0  11    9.55    1.25
  -1   0  11   11.84    2.13
  -1   0  11    7.85    1.23
  -1   0  11    6.62    1.69
   0   0 -11    8.32    1.40
   0   0 -11   11.33    1.26
   0   0  11    9.05    1.31
   0   0  11   11.73    2.10
   0   0  11   11.06    1.60
  -1   0 -11    9.43    1.53
  -1   0 -11    8.22    1.13
  -1   0 -11    7.63    1.18
  -1   0 -11    8.63    0.89
   1   0  11    7.83    1.24
   1   0  11    8.03    1.29
   1   0  11    7.65    1.45
   1   0  11   12.27    2.43
   1   0  11    8.09    1.65
  -2   0 -11    5.01    1.20
  -2   0 -11    6.72    0.99
  -2   0 -11    6.00    0.74
   2   0  11    9.52    2.47
   2   0  11    6.01    1.29
   2   0  11    4.74    1.30
   2   0  11    6.55    1.04
  -3   0 -11    0.71    1.12
  -3   0 -11   -0.49    0.65
  -3   0 -11    0.10    0.32
   3   0  11    0.26    2.93
   3   0  11    0.58    0.65
   3   0  11   -0.39    1.03
  -4   0 -11    3.79    1.13
  -4   0 -11    5.69    1.96
  -4   0 -11    3.97    0.64
   4   0  11    3.24    1.47
   4   0  11    4.42    1.04
  -5   0 -11    0.21    2.03
  -5   0 -11   -0.58    1.04
   5   0  11    0.52    1.65
   5   0  11    0.34    0.91
  -9   1  11   -0.47    0.93
  -9   1  11   -1.09    0.71
  -9   1  11    0.71    1.40
  -8   1  11    0.77    0.77
  -8   1  11    1.04    0.66
  -8   1  11    1.69    1.26
  -8   1  11    3.53    1.82
  -7   1  11    2.99    1.50
  -7   1  11    2.50    0.72
  -7   1  11    2.76    0.67
  -7   1  11    1.65    1.09
  -7   1  11    2.35    1.67
  -6   1  11    1.83    1.68
  -6   1  11    0.75    0.98
  -6   1  11    1.66    1.29
  -6   1  11    2.59    0.59
  -6   1  11    0.65    0.89
   5  -1 -11   18.64    2.03
  -5   1  11   13.75    2.94
  -5   1  11   15.64    2.24
  -5   1  11   17.28    2.37
  -5   1  11   19.60    2.70
  -5   1  11   22.52    2.07
  -4   1  11   13.32    2.28
  -4   1  11   15.57    1.74
  -4   1  11   14.78    2.56
  -4   1  11   18.00    2.08
  -4   1  11   14.03    1.94
   3  -1 -11    4.75    0.91
   3  -1 -11    3.78    0.61
  -3   1  11    3.29    0.79
  -3   1  11    2.94    0.63
  -3   1  11    4.66    0.96
  -3   1  11    3.65    1.30
  -3   1  11    3.82    1.09
   2  -1 -11   22.02    2.27
   2  -1 -11   19.57    2.09
  -2   1  11   19.91    2.42
  -2   1  11   19.71    2.61
  -2   1  11   15.09    2.89
  -2   1  11   17.25    2.26
  -2   1  11   22.57    2.17
   1  -1 -11    7.31    1.19
   1  -1 -11    6.54    1.04
  -1   1  11    7.14    1.26
  -1   1  11    9.89    1.97
  -1   1  11    5.74    1.34
  -1   1  11    7.35    1.08
  -1   1  11    8.20    1.30
   0  -1 -11    1.71    0.57
   0  -1 -11    3.44    0.95
   0   1  11    2.34    0.88
   0   1  11    3.30    1.03
   0   1  11    5.22    1.96
   0   1  11    3.10    0.77
   0   1  11    2.61    0.61
  -1  -1 -11    5.73    0.95
  -1  -1 -11    5.34    1.25
  -1  -1 -11    4.13    0.70
   1   1  11    4.87    1.23
   1   1  11    9.40    2.39
   1   1  11    6.81    1.22
   1   1  11    5.50    1.10
   1   1  11    6.46    0.97
  -2  -1 -11    1.61    1.21
  -2  -1 -11    1.23    0.74
   2   1  11    1.65    1.07
   2   1  11    0.40    0.62
   2   1  11    1.69    0.97
  -3  -1 -11    1.82    1.55
  -3  -1 -11    1.50    0.80
   3   1  11    3.00    1.32
   3   1  11    2.74    0.82
  -4  -1 -11    1.98    1.05
   4   1  11    3.23    1.65
   4   1  11    2.24    1.00
  -9   2  11    0.26    1.96
  -8   2  11    2.51    1.69
  -8   2  11   -0.21    0.80
  -8   2  11   -0.45    0.39
  -7   2  11    0.82    0.40
  -7   2  11    1.00    1.72
  -7   2  11   -0.16    0.73
  -7   2  11   -0.09    1.38
  -6   2  11   -0.46    1.43
  -6   2  11    1.15    0.67
  -6   2  11    1.02    0.40
  -6   2  11   -0.24    1.10
  -5   2  11    2.42    1.65
  -5   2  11    2.65    1.10
  -5   2  11    2.09    0.48
  -5   2  11    3.68    1.21
  -5   2  11    3.25    0.79
   4  -2 -11    0.63    0.76
   4  -2 -11    0.87    0.43
  -4   2  11   -0.36    1.22
  -4   2  11    0.60    0.61
  -4   2  11    1.41    1.03
  -4   2  11    0.89    0.72
  -4   2  11    0.92    0.37
   3  -2 -11    2.46    0.88
   3  -2 -11    2.44    0.58
  -3   2  11    2.70    0.75
  -3   2  11    2.02    0.96
  -3   2  11    1.11    0.74
  -3   2  11    2.84    0.54
  -3   2  11    1.78    1.18
   2  -2 -11    5.91    0.81
   2  -2 -11    4.45    1.05
  -2   2  11    3.65    0.97
  -2   2  11    5.52    1.27
  -2   2  11    4.88    0.80
  -2   2  11    6.51    1.59
  -2   2  11    4.87    1.00
   1  -2 -11    3.73    0.77
   1  -2 -11    3.72    1.08
  -1   2  11    6.28    1.86
  -1   2  11    3.29    1.13
  -1   2  11    5.13    0.78
  -1   2  11    4.09    0.97
  -1   2  11    2.87    0.81
   0  -2 -11   14.88    1.77
   0  -2 -11   15.05    2.51
   0   2  11   12.55    2.00
   0   2  11   13.33    1.70
   0   2  11   14.16    2.26
   0   2  11   11.70    1.86
  -1  -2 -11    0.52    0.53
  -1  -2 -11    0.56    0.77
  -1  -2 -11    1.63    1.34
   1   2  11    0.92    0.65
   1   2  11    3.12    1.46
   1   2  11    1.51    0.93
   1   2  11    0.39    1.02
  -2  -2 -11   -1.48    0.92
  -2  -2 -11    0.41    0.63
   2   2  11    1.16    1.15
   2   2  11    0.40    0.67
  -3  -2 -11    1.79    1.13
   3   2  11   -1.42    1.31
   3   2  11   -0.21    0.91
  -8   3  11    6.23    2.04
  -7   3  11   -0.95    1.36
  -6   3  11    2.53    0.69
  -6   3  11    2.63    0.50
  -6   3  11    0.98    1.26
  -6   3  11    2.13    1.93
  -5   3  11    0.31    0.40
  -5   3  11    1.72    1.82
  -5   3  11   -0.49    1.06
  -5   3  11    0.08    0.55
  -4   3  11    0.19    0.60
  -4   3  11    0.19    0.40
  -4   3  11    0.59    1.06
  -3   3  11   12.90    2.26
  -3   3  11   14.31    1.81
  -3   3  11   12.00    1.53
   2  -3 -11   21.31    2.43
  -2   3  11   20.61    2.93
  -2   3  11   24.43    2.62
  -2   3  11   19.94    2.33
   1  -3 -11    6.17    1.04
  -1   3  11    6.84    1.21
  -1   3  11    4.03    1.31
  -1   3  11    4.63    0.85
   0  -3 -11    4.14    0.76
   0  -3 -11    4.90    1.07
   0   3  11    4.98    1.42
   0   3  11    4.74    0.94
   0   3  11    4.65    1.25
  -1  -3 -11    4.37    0.86
  -1  -3 -11    4.32    1.16
   1   3  11    3.98    0.94
   1   3  11    6.16    1.37
  -2  -3 -11    1.92    1.21
   2   3  11   -0.96    0.78
   2   3  11   -0.27    1.35
  -7   4  11    2.01    1.62
  -6   4  11    0.51    0.46
  -6   4  11   -0.24    0.63
  -5   4  11   -0.79    1.18
  -5   4  11    0.12    0.51
  -5   4  11   -0.18    0.64
  -4   4  11    1.56    0.76
  -4   4  11    1.37    1.21
  -4   4  11    0.92    0.58
  -3   4  11    3.08    1.37
  -3   4  11    2.08    0.84
  -3   4  11    2.60    0.65
  -2   4  11    0.54    1.19
  -2   4  11    0.59    0.88
  -2   4  11    0.61    0.63
  -1   4  11   -0.51    0.95
  -1   4  11   -0.39    0.64
  -1   4  11   -0.47    1.22
   0   4  11    3.02    1.29
   0   4  11    3.00    1.53
   0   4  11    3.69    0.87
   1   4  11    1.06    0.94
   1   4  11   -0.79    1.43
  -5   5  11    0.32    0.63
  -5   5  11   -1.17    1.44
  -5   5  11    0.90    0.94
  -4   5  11    2.25    1.00
  -4   5  11    2.20    0.73
  -4   5  11    1.32    1.46
  -3   5  11    0.76    1.42
  -3   5  11    1.31    1.05
  -3   5  11   -0.28    0.69
  -2   5  11   -0.67    1.13
  -2   5  11    0.76    1.43
  -2   5  11   -0.59    0.72
  -1   5  11   -0.71    1.38
  -1   5  11   -0.74    1.60
  -1   5  11    1.73    0.87
   0  10 -12    3.86    2.24
   0  10 -12    0.48    0.97
   3   9 -12    2.95    1.10
   3   9 -12    6.32    2.43
  -3  -9  12    1.29    3.43
  -3  -9  12    4.79    2.24
  -3  -9  12    2.82    0.97
   2   9 -12    3.87    1.10
   2   9 -12    7.66    2.31
  -2  -9  12    5.52    2.88
  -2  -9  12    4.50    1.92
  -2  -9  12    4.84    1.04
   1   9 -12   -0.09    0.83
  -1  -9  12    1.94    3.04
  -1  -9  12    2.96    1.88
   0   9 -12   14.04    2.01
   0   9 -12   16.84    3.00
   0  -9  12   12.60    2.55
  -1   9 -12    4.08    2.07
  -1   9 -12    2.41    0.80
   1  -9  12   -0.57    1.69
  -2   9 -12    0.42    0.68
  -2   9 -12    1.34    1.85
   2  -9  12    0.27    1.53
  -3   9 -12    0.77    2.06
  -3   9 -12    0.85    0.67
   3  -9  12   -2.87    1.37
   5   8 -12    0.56    1.06
   5   8 -12   -1.24    2.76
  -5  -8  12    1.16    0.96
  -5  -8  12   -1.29    2.96
  -5  -8  12    0.32    2.20
   4   8 -12    0.57    0.96
   4   8 -12    0.23    2.13
  -4  -8  12    2.74    2.94
  -4  -8  12    1.28    1.92
  -4  -8  12   -0.66    0.87
   3   8 -12    1.59    1.96
   3   8 -12   -0.98    0.80
  -3  -8  12    0.92    1.67
  -3  -8  12   -0.16    0.72
  -3  -8  12   -1.38    2.26
   2   8 -12    0.75    0.75
   2   8 -12    0.92    1.72
  -2  -8  12    3.38    1.72
   1   8 -12   -0.37    0.65
   1   8 -12    0.04    1.52
  -1  -8  12    0.72    2.03
  -1  -8  12    0.96    1.52
   0   8 -12    0.24    0.62
   0   8 -12   -0.25    1.43
   0  -8  12   -0.19    1.01
   0  -8  12   -1.78    1.33
   0  -8  12    1.37    2.11
  -1   8 -12    3.76    1.79
  -1   8 -12    1.26    0.67
   1  -8  12    1.46    0.86
   1  -8  12    3.96    1.41
   1  -8  12    2.29    2.10
  -2   8 -12    7.76    1.27
   2  -8  12    6.13    2.12
   2  -8  12    8.09    1.68
  -3   8 -12    8.68    2.34
  -3   8 -12    4.17    0.82
   3  -8  12    2.76    1.48
  -4   8 -12    4.33    2.16
   4  -8  12    3.15    1.32
   6   7 -12    0.50    1.10
  -6  -7  12   -0.78    2.11
  -6  -7  12    2.13    3.11
   5   7 -12    3.95    2.18
   5   7 -12    2.63    0.98
  -5  -7  12    3.75    0.89
  -5  -7  12   -1.46    2.39
  -5  -7  12    4.92    1.96
   4   7 -12    5.56    1.98
   4   7 -12    1.40    0.79
  -4  -7  12    1.03    2.25
  -4  -7  12    1.31    0.72
  -4  -7  12    0.32    1.70
   3   7 -12    3.87    1.66
   3   7 -12    1.39    0.78
  -3  -7  12   -0.48    1.50
  -3  -7  12    1.08    2.08
  -3  -7  12    0.51    0.61
   2   7 -12    0.89    0.61
   2   7 -12   -1.56    1.33
  -2  -7  12    2.74    1.47
  -2  -7  12   -1.89    2.00
   1   7 -12    8.02    1.14
   1   7 -12    5.34    1.69
  -1  -7  12    6.56    1.60
  -1  -7  12    5.16    2.11
   0   7 -12    0.00    0.49
   0   7 -12    2.90    4.16
   0  -7  12    0.68    1.07
   0  -7  12    0.91    0.86
   0  -7  12    0.37    1.74
  -1   7 -12    3.17    1.46
  -1   7 -12   -0.38    2.94
  -1   7 -12    3.22    0.68
   1  -7  12    2.43    1.21
   1  -7  12    1.85    1.76
   1  -7  12    1.32    0.78
  -2   7 -12    8.74    1.29
   2  -7  12    9.26    2.11
   2  -7  12    8.65    1.69
   2  -7  12   10.24    1.47
  -3   7 -12    1.24    0.50
  -3   7 -12    1.24    1.85
   3  -7  12    0.08    1.04
   3  -7  12   -0.16    1.58
  -4   7 -12    2.66    1.90
  -4   7 -12    0.95    0.54
   4  -7  12   -0.41    1.11
  -5   7 -12    0.81    0.78
   5  -7  12   -1.79    1.08
   7   6 -12    2.26    1.23
  -7  -6  12    0.66    2.23
  -7  -6  12    2.87    1.24
  -7  -6  12    3.62    2.98
   6   6 -12    0.89    0.97
  -6  -6  12    1.61    1.84
  -6  -6  12    0.40    0.75
  -6  -6  12   -0.75    2.36
   5   6 -12    1.13    0.79
   5   6 -12    0.80    1.81
  -5  -6  12   -3.13    1.51
  -5  -6  12    1.36    2.19
  -5  -6  12    0.82    0.62
   4   6 -12   10.27    2.08
   4   6 -12    9.15    1.68
  -4  -6  12    7.30    1.90
  -4  -6  12    7.00    2.65
  -4  -6  12    8.89    1.24
   3   6 -12   10.80    2.15
  -3  -6  12    8.05    1.75
  -3  -6  12    6.63    2.44
  -3  -6  12    8.85    2.55
   2   6 -12    2.02    0.63
   2   6 -12    0.73    1.16
  -2  -6  12   -0.66    1.71
  -2  -6  12    0.68    1.25
  -2  -6  12    0.72    1.94
   1   6 -12    0.61    0.53
   1   6 -12    0.38    1.23
  -1  -6  12   -0.33    0.96
  -1  -6  12    0.74    1.00
  -1  -6  12   -2.05    1.96
  -1  -6  12    1.73    1.65
   0   6 -12   -1.48    1.11
   0   6 -12   -3.34    2.48
   0   6 -12    0.60    0.47
   0  -6  12    0.19    1.10
   0  -6  12    0.49    1.57
   0  -6  12   -0.03    0.73
  -1   6 -12    0.53    0.42
  -1   6 -12   -0.79    2.53
  -1   6 -12    1.34    1.36
   1  -6  12    0.84    0.70
   1  -6  12   -0.46    1.00
   1  -6  12    1.46    1.54
  -2   6 -12    4.19    0.75
  -2   6 -12    4.72    2.89
   2  -6  12    8.83    1.93
   2  -6  12    6.72    1.25
   2  -6  12    4.68    0.95
  -3   6 -12    5.80    1.88
  -3   6 -12    1.03    0.49
   3  -6  12    1.34    0.97
   3  -6  12    1.52    1.29
   4  -6  12   13.65    2.25
  -5   6 -12    3.68    0.94
  -5   6 -12    3.76    1.16
   5  -6  12    4.23    1.09
   7   5 -12    1.16    1.08
  -7  -5  12    0.35    1.88
  -7  -5  12    1.24    1.06
  -7  -5  12   -1.32    2.51
   6   5 -12    1.33    0.91
  -6  -5  12    1.82    2.28
  -6  -5  12   -0.93    1.62
  -6  -5  12    2.37    0.65
   5   5 -12    0.92    0.72
   5   5 -12    1.60    1.69
  -5  -5  12   -1.38    1.84
  -5  -5  12    1.60    1.46
  -5  -5  12    1.25    0.51
   4   5 -12    0.50    0.61
   4   5 -12    1.80    1.27
  -4  -5  12    2.98    1.51
  -4  -5  12   -0.28    1.12
  -4  -5  12   -1.38    1.75
  -4  -5  12   -3.02    1.81
   3   5 -12    5.99    0.95
   3   5 -12    8.40    1.62
  -3  -5  12    6.37    2.02
  -3  -5  12    6.08    1.45
  -3  -5  12    2.32    1.85
   2   5 -12    0.26    0.46
   2   5 -12   -0.80    1.02
  -2  -5  12   -0.42    0.92
  -2  -5  12   -0.47    1.53
  -2  -5  12   -1.19    1.71
   1   5 -12    5.35    1.44
   1   5 -12    2.03    0.60
  -1  -5  12    4.12    1.02
  -1  -5  12    3.68    1.04
  -1  -5  12    1.59    1.74
  -1  -5  12    0.92    1.41
   0   5 -12    5.51    3.67
   0  -5  12   11.41    2.44
   0  -5  12   17.01    1.96
   0  -5  12   12.21    2.64
   0  -5  12   14.63    2.17
  -1   5 -12    2.24    2.36
  -1   5 -12    0.21    0.37
  -1   5 -12    2.12    1.39
   1  -5  12   -0.36    0.68
   1  -5  12   -0.67    1.10
   1  -5  12    0.73    0.79
  -2   5 -12    3.14    1.41
  -2   5 -12    0.42    0.67
  -2   5 -12    0.29    2.60
  -2   5 -12    1.04    0.40
   2  -5  12    1.29    1.18
   2  -5  12    0.61    0.85
   2  -5  12    1.36    0.76
  -3   5 -12   -0.82    3.16
  -3   5 -12    0.43    0.37
   3  -5  12    0.67    0.86
   3  -5  12    0.71    1.13
   3  -5  12    0.61    0.78
  -4   5 -12    4.91    0.94
  -4   5 -12    5.50    1.11
   4  -5  12    4.79    1.51
   4  -5  12    5.34    1.12
  -5   5 -12    3.41    0.79
  -5   5 -12    1.01    1.03
  -5   5 -12    1.05    0.50
   5  -5  12    2.50    1.02
  -8  -4  12    0.87    1.01
  -8  -4  12   -0.09    2.02
  -8  -4  12    1.26    2.84
   7   4 -12    0.28    0.91
  -7  -4  12   -0.74    0.84
  -7  -4  12    0.52    2.50
  -7  -4  12   -0.93    1.65
   6   4 -12    1.11    0.76
  -6  -4  12   -1.09    2.06
  -6  -4  12    1.59    0.53
  -6  -4  12    3.13    1.46
  -6  -4  12    2.16    0.83
   5   4 -12    1.03    0.61
   5   4 -12    2.44    1.49
  -5  -4  12   -1.60    1.14
  -5  -4  12   -0.97    1.65
  -5  -4  12   -1.80    1.12
  -5  -4  12    1.51    2.28
   4   4 -12    0.38    1.15
   4   4 -12   -0.78    0.49
  -4  -4  12    1.34    1.71
  -4  -4  12   -1.89    1.49
  -4  -4  12    0.85    1.08
  -4  -4  12   -0.19    1.02
   3   4 -12    0.59    0.59
   3   4 -12    0.40    1.18
   3   4 -12    0.95    0.51
  -3  -4  12   -0.96    1.51
  -3  -4  12   -0.28    0.95
  -3  -4  12   -0.07    0.89
  -3  -4  12    2.40    1.66
   2   4 -12    0.76    1.09
   2   4 -12   -0.02    0.63
   2   4 -12    0.17    0.39
  -2  -4  12   -1.03    1.49
  -2  -4  12    0.61    1.00
  -2  -4  12    0.22    0.93
  -2  -4  12   -0.32    0.87
  -2  -4  12    0.24    1.28
   1   4 -12    9.61    1.32
   1   4 -12   11.34    1.25
  -1  -4  12   10.54    1.73
  -1  -4  12    8.23    1.45
  -1  -4  12   11.69    1.78
  -1  -4  12    7.74    2.05
   0   4 -12    4.34    0.70
   0   4 -12    4.20    0.82
   0  -4  12    3.42    1.51
   0  -4  12    2.93    1.01
   0  -4  12    6.25    2.01
   0  -4  12    3.47    0.97
  -1   4 -12    0.20    0.76
  -1   4 -12    0.22    0.54
  -1   4 -12    0.21    1.17
   1  -4  12   -2.46    1.89
   1  -4  12    1.36    1.04
   1  -4  12   -0.09    0.74
   1  -4  12    1.83    0.80
  -2   4 -12    0.53    0.37
  -2   4 -12    2.47    1.47
  -2   4 -12    1.23    0.50
   2  -4  12    0.58    0.77
   2  -4  12    1.58    0.79
   2  -4  12    0.66    1.03
  -3   4 -12    1.98    0.58
   3  -4  12    2.53    1.23
   3  -4  12    2.78    0.88
   3  -4  12    1.65    0.99
  -4   4 -12    2.38    0.70
  -4   4 -12    2.69    0.92
   4  -4  12    2.36    1.36
   4  -4  12    1.65    0.85
  -5   4 -12    3.20    0.65
  -5   4 -12    5.03    0.98
  -5   4 -12    4.56    1.34
   5  -4  12    5.59    1.20
  -8  -3  12    1.12    2.63
  -8  -3  12    4.24    1.11
  -8  -3  12    5.68    1.92
   7   3 -12   -0.78    0.76
  -7  -3  12    0.28    1.48
  -7  -3  12    1.60    0.82
  -7  -3  12    1.50    2.14
   6   3 -12   -0.95    0.61
  -6  -3  12   -0.67    1.22
  -6  -3  12    0.63    0.72
  -6  -3  12   -0.39    1.80
   5   3 -12   11.01    1.33
   5   3 -12   14.64    2.59
   5   3 -12    9.06    1.15
  -5  -3  12    6.14    1.96
  -5  -3  12    9.34    1.55
  -5  -3  12    7.31    1.55
  -5  -3  12    3.97    2.02
   4   3 -12    2.47    1.34
   4   3 -12    1.54    0.52
   4   3 -12    1.50    0.45
  -4  -3  12    1.35    0.97
  -4  -3  12    1.34    1.55
  -4  -3  12    0.53    0.90
  -4  -3  12    2.05    1.43
   3   3 -12    7.57    1.19
   3   3 -12    9.94    1.19
  -3  -3  12   14.88    2.76
  -3  -3  12    8.75    2.00
  -3  -3  12    8.52    2.42
  -3  -3  12    8.35    1.45
  -3  -3  12    8.57    1.50
   2   3 -12    0.08    0.35
   2   3 -12    0.68    1.13
   2   3 -12    0.00    0.47
  -2  -3  12    1.82    1.48
  -2  -3  12    0.48    0.81
  -2  -3  12    0.37    0.89
  -2  -3  12    0.93    1.22
  -2  -3  12    1.11    0.86
   1   3 -12   10.19    1.25
   1   3 -12    9.45    1.46
  -1  -3  12    9.46    1.55
  -1  -3  12   12.36    1.81
  -1  -3  12   10.51    1.71
  -1  -3  12   11.25    2.12
  -1  -3  12   11.32    2.18
   0   3 -12    2.72    0.58
   0   3 -12    4.13    0.77
   0  -3  12    3.18    1.77
   0  -3  12    5.42    1.03
   0  -3  12    4.42    1.21
   0  -3  12    5.24    1.11
   0  -3  12    3.39    1.04
  -1   3 -12    5.45    1.05
  -1   3 -12    7.95    0.96
   1  -3  12    7.72    2.26
   1  -3  12    5.30    1.18
   1  -3  12    6.52    1.51
   1  -3  12    9.19    1.43
  -2   3 -12    0.36    0.62
  -2   3 -12    2.07    0.57
   2  -3  12    0.94    0.87
   2  -3  12    0.79    0.64
   2  -3  12    1.52    1.07
  -3   3 -12   10.73    1.29
  -3   3 -12   12.99    1.53
   3  -3  12   15.34    2.46
   3  -3  12   10.71    1.84
   3  -3  12   11.63    1.78
  -4   3 -12    1.53    0.72
  -4   3 -12    2.40    1.00
  -4   3 -12    1.72    0.43
   4  -3  12    2.15    0.85
   4  -3  12    0.98    1.47
  -5   3 -12    1.83    1.35
  -5   3 -12   -0.25    0.74
  -5   3 -12    0.24    0.45
   5  -3  12    1.00    0.90
   5  -3  12    2.16    1.70
  -8  -2  12    6.18    2.67
  -8  -2  12    9.75    2.03
  -8  -2  12   13.11    1.86
  -7  -2  12    3.78    2.01
  -7  -2  12   -0.55    1.23
  -7  -2  12    1.15    0.97
   6   2 -12    1.19    0.57
   6   2 -12    0.09    0.43
  -6  -2  12    0.41    0.66
  -6  -2  12   -0.58    1.61
  -6  -2  12    0.60    1.08
   5   2 -12    0.61    0.47
   5   2 -12    1.79    1.26
   5   2 -12    0.42    0.37
  -5  -2  12    0.59    1.46
  -5  -2  12    0.55    0.93
  -5  -2  12    0.50    1.61
  -5  -2  12    2.45    0.96
   4   2 -12   15.68    1.82
   4   2 -12   17.79    1.75
  -4  -2  12   18.05    3.13
  -4  -2  12   14.39    2.27
  -4  -2  12   20.69    2.82
  -4  -2  12   14.57    2.95
   3   2 -12   26.96    2.61
   3   2 -12   26.60    2.67
  -3  -2  12   30.65    3.08
  -3  -2  12   21.60    3.66
  -3  -2  12   29.27    3.30
  -3  -2  12   19.78    2.96
   2   2 -12   -0.59    1.08
   2   2 -12   -0.31    0.30
   2   2 -12    0.16    0.40
  -2  -2  12    0.28    0.63
  -2  -2  12   -0.43    1.09
  -2  -2  12    0.52    0.75
   1   2 -12    2.72    0.60
   1   2 -12    2.49    0.50
  -1  -2  12    3.66    0.86
  -1  -2  12    3.70    0.95
  -1  -2  12    3.13    0.94
  -1  -2  12    1.77    1.54
   0   2 -12   -0.14    0.53
   0   2 -12   -1.13    1.12
   0   2 -12   -0.38    0.30
   0  -2  12    1.96    1.67
   0  -2  12    0.32    0.92
   0  -2  12    0.24    0.60
   0  -2  12    1.08    0.94
   0  -2  12    0.71    0.81
  -1   2 -12    0.94    0.48
  -1   2 -12    1.04    0.58
  -1   2 -12    1.71    0.65
   1  -2  12    1.32    1.19
   1  -2  12    1.06    0.86
   1  -2  12    0.83    0.57
   1  -2  12   -1.33    1.98
  -2   2 -12    2.47    0.71
  -2   2 -12    2.45    0.58
  -2   2 -12    2.18    0.37
   2  -2  12    2.37    0.65
   2  -2  12    5.14    2.53
   2  -2  12    1.71    1.83
  -3   2 -12    0.03    0.31
  -3   2 -12    0.78    0.61
  -3   2 -12   -0.81    0.83
   3  -2  12   -0.42    0.66
   3  -2  12    0.14    1.06
  -4   2 -12    8.64    1.61
  -4   2 -12    5.37    1.17
   4  -2  12    7.32    1.35
   4  -2  12    9.13    1.81
  -5   2 -12    5.29    1.16
  -5   2 -12    2.64    1.67
  -5   2 -12    4.38    0.72
   5  -2  12    2.71    1.79
   5  -2  12    4.31    1.11
  -8  -1  12   17.60    2.71
  -8  -1  12   12.92    2.95
  -8  -1  12   18.29    2.22
  -7  -1  12    2.66    1.84
  -7  -1  12    6.03    1.01
  -7  -1  12    5.10    1.30
   6   1 -12    0.95    0.55
   6   1 -12    1.52    0.49
  -6  -1  12    1.74    0.99
  -6  -1  12    3.00    1.55
   5   1 -12    5.67    1.50
   5   1 -12    2.24    0.49
   5   1 -12    1.72    0.38
  -5  -1  12    3.13    1.43
  -5  -1  12    0.07    0.81
  -5  -1  12    3.22    1.65
  -5  -1  12    1.43    1.32
   4   1 -12    3.50    0.59
   4   1 -12    5.70    1.43
   4   1 -12    2.07    0.39
  -4  -1  12    2.60    0.94
  -4  -1  12    2.67    1.18
  -4  -1  12    3.13    1.36
  -4  -1  12    3.18    0.87
  -4  -1  12    2.42    1.52
   3   1 -12    0.70    0.33
   3   1 -12    0.22    0.26
   3   1 -12    1.79    1.20
  -3  -1  12    0.89    0.91
  -3  -1  12    1.08    0.78
  -3  -1  12    0.34    0.62
  -3  -1  12    1.16    1.02
  -3  -1  12   -0.05    1.28
   2   1 -12    2.40    1.35
   2   1 -12    0.97    0.35
   2   1 -12    0.77    0.28
  -2  -1  12    0.66    0.93
  -2  -1  12    1.24    0.86
  -2  -1  12    0.80    1.41
  -2  -1  12    2.41    0.81
  -2  -1  12    0.71    0.60
  -1  -1  12   10.15    1.54
  -1  -1  12   10.16    1.73
  -1  -1  12   10.54    1.57
  -1  -1  12   14.52    2.00
  -1  -1  12    8.46    2.16
   0   1 -12    0.40    0.18
   0   1 -12    0.54    0.58
   0   1 -12    0.32    0.41
   0   1 -12   -0.99    0.76
   0  -1  12    0.85    0.84
   0  -1  12    1.18    1.76
   0  -1  12    0.32    0.54
   0  -1  12   -0.01    0.85
   0  -1  12    0.76    0.86
  -1   1 -12    0.38    0.59
  -1   1 -12    0.78    0.62
  -1   1 -12    0.38    0.22
  -1   1 -12    0.47    0.48
   1  -1  12    1.51    0.95
   1  -1  12    2.11    2.07
   1  -1  12    0.90    0.61
   1  -1  12    1.38    0.96
  -2   1 -12    0.78    0.61
  -2   1 -12    0.56    0.28
  -2   1 -12    0.21    0.85
   2  -1  12    1.01    1.00
   2  -1  12    0.93    0.98
   2  -1  12   -0.51    2.53
   2  -1  12   -0.06    0.63
  -3   1 -12   -0.16    0.34
  -3   1 -12    0.52    0.68
  -3   1 -12   -0.74    1.14
   3  -1  12    0.54    1.14
   3  -1  12   -0.04    0.73
  -4   1 -12    0.56    0.85
  -4   1 -12    2.84    1.53
   4  -1  12    2.79    1.55
   4  -1  12    1.67    0.97
  -8   0  12    6.82    1.94
  -8   0  12    4.10    1.13
  -8   0  12    5.72    1.12
  -7   0  12    2.68    1.82
  -7   0  12    1.08    0.86
  -7   0  12    2.79    0.80
  -7   0  12    0.96    1.40
  -6   0  12    5.54    1.77
  -6   0  12    5.33    1.00
  -6   0  12    2.79    1.35
   5   0 -12    1.00    0.40
  -5   0  12    0.53    0.64
  -5   0  12    1.80    1.29
  -5   0  12    0.73    1.08
  -5   0  12   -0.42    1.54
   4   0 -12   -0.10    0.31
  -4   0  12    0.18    0.81
  -4   0  12    1.11    1.00
  -4   0  12   -1.00    1.39
  -4   0  12    1.07    0.57
  -4   0  12    0.67    0.89
  -3   0  12    0.10    0.83
  -3   0  12    0.03    1.35
  -3   0  12   -0.76    0.85
  -3   0  12    1.18    0.79
  -3   0  12   -0.28    0.51
   2   0 -12    1.80    0.47
   2   0 -12    1.22    0.58
  -2   0  12    0.91    0.79
  -2   0  12   -0.24    0.76
  -2   0  12    0.90    1.32
  -2   0  12    0.61    0.88
  -2   0  12    1.25    0.52
   1   0 -12    0.53    0.44
   1   0 -12    0.43    0.65
  -1   0  12    0.66    0.76
  -1   0  12   -0.84    1.50
  -1   0  12    0.54    0.85
  -1   0  12    0.86    0.51
  -1   0  12   -0.37    0.85
   0   0 -12    5.83    0.83
   0   0 -12    4.11    0.95
   0   0  12    5.24    2.00
   0   0  12    4.80    1.12
   0   0  12    3.95    1.07
   0   0  12    2.31    1.08
   0   0  12    3.99    0.82
  -1   0 -12    1.93    0.92
  -1   0 -12    1.39    0.59
   1   0  12    1.03    0.60
   1   0  12    0.57    0.88
   1   0  12    0.77    1.00
  -2   0 -12    3.62    0.81
  -2   0 -12    6.30    1.39
  -2   0 -12    2.19    0.62
   2   0  12    3.41    0.84
   2   0  12    4.94    1.36
   2   0  12    4.53    1.30
  -3   0 -12   -1.49    1.43
  -3   0 -12   -0.77    0.83
   3   0  12   -0.89    1.26
   3   0  12    1.45    0.75
  -4   0 -12    0.73    2.17
  -4   0 -12   -0.13    0.98
   4   0  12   -0.31    1.63
   4   0  12    0.33    0.86
  -8   1  12    5.42    1.50
  -8   1  12    5.22    2.18
  -8   1  12    5.58    0.97
  -7   1  12    6.29    1.52
  -7   1  12    8.81    2.14
  -7   1  12    9.31    1.32
  -6   1  12   13.58    2.07
  -6   1  12    8.31    2.08
  -6   1  12   11.79    1.52
  -5   1  12    3.01    0.70
  -5   1  12    4.13    1.09
  -5   1  12    2.62    1.40
   4  -1 -12    2.80    0.69
  -4   1  12    4.41    1.05
  -4   1  12    4.39    1.78
  -4   1  12    4.12    1.30
  -4   1  12    5.29    0.80
   3  -1 -12    0.83    0.47
   3  -1 -12    0.12    0.63
  -3   1  12    0.11    0.72
  -3   1  12    0.72    0.98
  -3   1  12    1.99    1.03
  -3   1  12    0.59    0.47
   2  -1 -12   -0.38    0.71
   2  -1 -12   -0.41    0.46
  -2   1  12    0.15    1.00
  -2   1  12   -0.35    0.45
  -2   1  12    0.46    0.74
  -2   1  12   -0.38    0.78
  -2   1  12    0.78    2.06
   1  -1 -12    2.20    0.57
   1  -1 -12    0.87    1.02
  -1   1  12    0.31    0.52
  -1   1  12    1.61    0.90
  -1   1  12    1.26    0.79
  -1   1  12    0.18    1.01
   0  -1 -12    8.24    1.28
   0  -1 -12    4.97    1.35
   0   1  12    7.24    1.40
   0   1  12    5.82    1.04
   0   1  12    6.87    1.52
   0   1  12    7.28    1.39
  -1  -1 -12    1.97    0.84
  -1  -1 -12    3.81    1.44
   1   1  12    3.81    1.17
   1   1  12    4.12    0.89
   1   1  12    4.07    1.28
  -2  -1 -12    1.66    0.85
   2   1  12    0.41    1.27
   2   1  12    0.72    0.81
  -3  -1 -12    6.88    1.42
   3   1  12    6.10    1.26
   3   1  12    3.88    1.67
  -8   2  12    9.64    2.45
  -8   2  12   11.77    1.88
  -8   2  12   10.14    1.31
  -7   2  12    0.97    0.84
  -7   2  12    0.33    1.59
  -7   2  12    1.89    0.52
  -6   2  12    5.56    1.59
  -6   2  12    2.23    0.56
  -6   2  12    2.36    0.87
  -5   2  12    2.28    0.56
  -5   2  12    3.13    1.40
  -5   2  12    1.55    0.79
  -4   2  12    1.97    1.30
  -4   2  12    3.48    0.85
  -4   2  12    2.77    0.60
   3  -2 -12    3.41    0.79
  -3   2  12    4.86    1.01
  -3   2  12    4.27    1.37
  -3   2  12    3.81    0.74
   2  -2 -12   17.88    2.17
  -2   2  12   20.29    2.45
  -2   2  12   18.43    2.80
  -2   2  12   18.43    2.11
   1  -2 -12    6.26    1.03
  -1   2  12    5.35    1.25
  -1   2  12    7.35    1.64
  -1   2  12    5.09    0.96
   0  -2 -12    4.38    0.93
   0   2  12    4.54    1.36
   0   2  12    1.72    0.74
   0   2  12    2.59    1.10
  -1  -2 -12   -0.55    0.89
   1   2  12   -0.07    0.73
   1   2  12    1.04    1.13
   1   2  12    2.12    1.37
  -2  -2 -12    1.55    1.17
   2   2  12   -0.81    0.87
   2   2  12    2.33    1.46
  -7   3  12    3.84    0.89
  -7   3  12    3.81    0.65
  -7   3  12    4.00    1.96
  -6   3  12    4.80    0.76
  -6   3  12    2.66    1.69
  -6   3  12    4.15    0.92
  -5   3  12    8.15    1.86
  -5   3  12    6.51    1.00
  -5   3  12    9.41    1.47
  -4   3  12    0.58    0.74
  -4   3  12   -0.39    0.50
  -4   3  12    0.07    1.21
  -3   3  12    0.88    1.28
  -3   3  12    0.74    0.56
  -3   3  12    1.60    0.84
  -2   3  12   -0.40    1.22
  -2   3  12    1.52    0.88
  -2   3  12    1.19    0.60
  -1   3  12   16.55    2.84
  -1   3  12   12.92    2.32
  -1   3  12   15.51    1.96
   0   3  12    0.13    0.77
   0   3  12    2.94    1.45
   0   3  12    0.12    1.09
   1   3  12    0.39    1.34
   1   3  12   -0.41    0.91
  -5   4  12   10.44    1.80
  -5   4  12   11.14    2.30
  -5   4  12    9.49    1.46
  -4   4  12    0.06    0.86
  -4   4  12    0.62    0.63
  -4   4  12    0.77    1.60
  -3   4  12    0.02    0.66
  -3   4  12    2.18    1.54
  -3   4  12    0.36    0.97
  -2   4  12    2.11    0.80
  -2   4  12    2.68    1.21
  -2   4  12    0.64    1.58
  -1   4  12    0.48    0.87
  -1   4  12    0.49    1.25
  -1   4  12   -0.31    1.55
   2   9 -13    1.80    1.02
   2   9 -13    0.57    2.31
  -2  -9  13   -1.37    3.09
  -2  -9  13    2.39    2.13
   1   9 -13    7.96    2.61
   1   9 -13    4.12    1.10
  -1  -9  13    2.08    3.69
  -1  -9  13    5.57    2.09
   0   9 -13    2.07    2.24
   0   9 -13    0.57    0.79
   0  -9  13    1.43    2.00
  -1   9 -13    7.13    2.27
  -1   9 -13    5.24    1.04
   1  -9  13    5.36    1.95
   4   8 -13    1.30    2.40
   4   8 -13    1.17    1.07
  -4  -8  13   -0.98    2.07
  -4  -8  13    0.15    2.89
   3   8 -13    1.32    2.14
   3   8 -13    1.66    0.94
  -3  -8  13    3.50    2.88
  -3  -8  13   -0.36    1.73
   2   8 -13    2.40    1.86
   2   8 -13    0.79    0.84
  -2  -8  13    1.90    1.81
  -2  -8  13   -2.68    2.54
   1   8 -13    2.62    0.85
   1   8 -13    0.63    1.73
  -1  -8  13    0.84    1.47
  -1  -8  13    1.84    1.70
  -1  -8  13   -1.50    2.39
   0   8 -13    1.96    0.73
   0   8 -13    2.69    1.92
   0  -8  13    0.44    1.07
   0  -8  13   -2.19    1.58
   0  -8  13    1.16    2.68
  -1   8 -13   35.76    3.65
   1  -8  13   29.50    5.49
   1  -8  13   35.86    4.46
  -2   8 -13   15.82    1.97
   2  -8  13   15.86    2.38
  -3   8 -13    3.73    0.86
  -3   8 -13    7.55    2.50
   3  -8  13    5.83    1.58
   5   7 -13    1.31    1.00
  -5  -7  13   -0.13    2.77
  -5  -7  13    0.37    2.04
   4   7 -13    6.88    1.28
   4   7 -13    6.24    2.27
  -4  -7  13    2.73    2.58
  -4  -7  13    9.16    2.15
   3   7 -13    7.62    1.21
   3   7 -13    4.46    2.17
  -3  -7  13    6.62    1.84
  -3  -7  13    3.09    2.34
   2   7 -13    1.33    0.72
   2   7 -13    0.84    1.81
  -2  -7  13    2.56    2.26
  -2  -7  13    4.09    1.63
   1   7 -13   -0.54    0.60
  -1  -7  13   -0.37    1.22
  -1  -7  13   -0.47    1.38
  -1  -7  13    0.17    2.64
   0   7 -13    2.79    1.72
   0   7 -13    1.19    0.56
   0  -7  13   -3.76    2.01
   0  -7  13    1.24    1.35
   0  -7  13    2.34    0.99
  -1   7 -13   10.83    2.26
  -1   7 -13    5.29    0.87
   1  -7  13    3.11    1.14
   1  -7  13    5.86    1.43
   1  -7  13    4.32    2.05
  -2   7 -13    6.01    2.18
  -2   7 -13    1.15    0.57
   2  -7  13    2.94    1.85
   2  -7  13   -0.06    1.21
  -3   7 -13    1.92    0.61
   3  -7  13    3.74    1.29
  -4   7 -13    7.27    2.54
  -6  -6  13    3.14    2.82
  -6  -6  13    3.32    2.15
   5   6 -13    0.22    0.82
  -5  -6  13   -0.84    1.69
  -5  -6  13   -2.74    2.36
   4   6 -13    2.58    1.85
   4   6 -13    1.62    0.82
  -4  -6  13    2.19    2.43
  -4  -6  13    3.46    1.59
   3   6 -13   -2.20    1.48
   3   6 -13    1.38    0.66
  -3  -6  13   -0.43    1.90
  -3  -6  13   -0.24    1.45
   2   6 -13   -0.47    1.44
  -2  -6  13    2.07    1.42
  -2  -6  13    5.38    3.14
  -2  -6  13   -1.95    1.90
   1   6 -13    0.37    1.50
   1   6 -13    0.02    0.51
  -1  -6  13    0.49    3.23
  -1  -6  13    0.70    1.29
  -1  -6  13    1.17    1.11
   0   6 -13    2.27    0.59
   0   6 -13    3.13    1.62
   0  -6  13    1.63    1.00
   0  -6  13    0.02    1.20
   0  -6  13   -0.54    1.82
  -1   6 -13    0.16    1.67
  -1   6 -13    1.11    0.53
   1  -6  13   -0.47    1.05
   1  -6  13    0.04    1.62
   1  -6  13    0.36    0.85
  -2   6 -13    0.40    0.52
  -2   6 -13    1.81    1.79
   2  -6  13    1.26    1.28
   2  -6  13   -0.80    1.64
   2  -6  13    2.22    1.10
  -3   6 -13    4.16    2.16
  -3   6 -13    0.38    0.50
   3  -6  13    1.81    1.12
   3  -6  13    0.03    1.46
  -4   6 -13    4.47    0.91
   4  -6  13    0.65    1.18
  -7  -5  13    1.69    2.85
  -7  -5  13    0.28    2.14
   6   5 -13    2.08    0.94
  -6  -5  13    0.47    1.74
  -6  -5  13    0.68    2.62
   5   5 -13    3.02    0.87
  -5  -5  13    2.26    2.23
  -5  -5  13    0.96    1.55
   4   5 -13    0.24    1.60
   4   5 -13   -0.16    0.62
  -4  -5  13   -1.82    1.23
  -4  -5  13    1.85    2.09
   3   5 -13    1.12    1.36
   3   5 -13    1.03    0.60
  -3  -5  13   -0.58    1.93
  -3  -5  13   -0.35    2.29
  -3  -5  13    0.46    1.29
   2   5 -13    0.13    1.42
  -2  -5  13   -0.36    2.09
  -2  -5  13    0.81    1.08
  -2  -5  13    1.61    1.82
  -2  -5  13    0.32    1.16
   1   5 -13    0.47    0.49
   1   5 -13    1.57    1.37
  -1  -5  13    1.31    0.99
  -1  -5  13    1.77    1.74
  -1  -5  13   -1.26    2.31
  -1  -5  13    0.24    1.16
   0   5 -13    0.50    0.44
   0   5 -13    1.86    1.58
   0  -5  13    0.33    0.92
   0  -5  13    0.73    1.66
   0  -5  13    1.27    1.00
  -1   5 -13    7.52    1.11
   1  -5  13    9.23    1.55
   1  -5  13    5.27    1.26
   1  -5  13    9.85    2.12
  -2   5 -13    7.14    1.17
   2  -5  13   10.15    2.07
   2  -5  13    9.42    1.50
   2  -5  13    8.37    1.47
   3  -5  13    1.82    0.96
   3  -5  13    1.31    1.41
  -4   5 -13    1.22    0.78
  -4   5 -13    1.47    0.94
  -4   5 -13    1.68    0.52
   4  -5  13    1.93    1.05
   4  -5  13    1.04    2.46
  -7  -4  13    1.03    2.69
  -7  -4  13    1.71    1.89
   6   4 -13    2.63    0.95
  -6  -4  13    1.19    2.38
  -6  -4  13    4.07    1.73
   5   4 -13    0.90    2.38
   5   4 -13    4.14    0.81
  -5  -4  13    3.67    1.58
  -5  -4  13    2.02    2.02
   4   4 -13    0.01    1.43
   4   4 -13    0.78    0.59
  -4  -4  13    2.70    1.28
  -4  -4  13    1.59    1.77
  -4  -4  13   -0.87    1.17
   3   4 -13    9.62    1.24
   3   4 -13    7.68    1.29
  -3  -4  13    7.58    2.37
  -3  -4  13    8.97    1.75
  -3  -4  13    5.98    1.52
  -3  -4  13    6.52    2.14
  -3  -4  13    9.17    1.83
   2   4 -13    2.31    0.79
   2   4 -13    3.26    1.48
   2   4 -13    1.83    0.53
  -2  -4  13    2.73    1.16
  -2  -4  13    3.29    1.66
  -2  -4  13    0.38    2.08
  -2  -4  13    2.93    1.21
   1   4 -13    2.31    0.56
   1   4 -13    2.41    0.85
   1   4 -13    4.59    1.62
  -1  -4  13    0.41    2.13
  -1  -4  13    2.01    1.43
  -1  -4  13    1.95    0.97
   0   4 -13    0.08    0.80
   0   4 -13    0.36    0.40
   0   4 -13    1.46    1.42
   0  -4  13    1.23    2.36
   0  -4  13    0.07    0.95
   0  -4  13    0.28    1.47
   0  -4  13    0.10    0.89
  -1   4 -13    1.92    0.50
  -1   4 -13    3.35    1.60
   1  -4  13    1.33    0.94
   1  -4  13    2.33    0.93
   2  -4  13    3.25    0.96
   2  -4  13    1.52    2.23
   2  -4  13    2.02    1.06
  -3   4 -13   -0.90    0.79
  -3   4 -13    0.64    0.63
  -3   4 -13    0.48    0.38
   3  -4  13    0.65    1.30
   3  -4  13    0.88    0.89
  -4   4 -13   -0.45    0.74
  -4   4 -13    0.66    0.44
  -4   4 -13   -0.78    1.00
   4  -4  13    0.84    1.05
   4  -4  13   -0.45    1.61
  -8  -3  13   -2.92    1.88
  -8  -3  13    2.05    2.92
  -8  -3  13    1.23    1.05
  -7  -3  13   -2.36    1.51
  -7  -3  13    1.57    2.44
   6   3 -13    0.32    0.70
  -6  -3  13   -1.07    1.36
  -6  -3  13    0.46    2.08
   5   3 -13    1.43    0.65
  -5  -3  13    3.18    1.27
  -5  -3  13    2.23    1.79
   4   3 -13   39.30    4.22
   4   3 -13   45.68    4.32
  -4  -3  13   37.51    4.71
  -4  -3  13   50.02    4.90
  -4  -3  13   37.84    5.39
  -4  -3  13   48.08    5.14
   3   3 -13   20.93    2.15
   3   3 -13   20.13    2.12
  -3  -3  13   14.15    3.02
  -3  -3  13   24.42    2.94
  -3  -3  13   22.88    2.81
  -3  -3  13   16.15    3.39
  -3  -3  13   15.92    2.76
   2   3 -13    2.45    0.65
   2   3 -13    3.03    0.61
  -2  -3  13    5.27    2.05
  -2  -3  13    4.38    1.21
  -2  -3  13    2.54    1.50
  -2  -3  13    1.20    1.06
  -2  -3  13    2.48    1.01
   1   3 -13    0.85    0.42
   1   3 -13    0.63    1.40
   1   3 -13   -0.11    0.66
  -1  -3  13   -1.37    1.91
  -1  -3  13    0.64    0.92
  -1  -3  13   -1.20    1.19
  -1  -3  13    0.13    0.84
   0   3 -13    1.33    0.73
   0   3 -13    0.79    0.44
   0   3 -13    4.67    1.58
   0  -3  13    1.84    0.83
   0  -3  13    2.62    2.24
   0  -3  13    0.15    0.93
   0  -3  13    0.25    1.17
  -1   3 -13    0.26    0.88
   1  -3  13    2.14    1.13
   1  -3  13    2.33    0.85
   1  -3  13    4.00    1.09
   1  -3  13   -0.82    2.50
  -2   3 -13   -0.10    0.57
  -2   3 -13   -0.48    0.32
  -2   3 -13    0.36    0.77
   2  -3  13   -1.12    1.02
   2  -3  13    0.40    0.71
   2  -3  13   -0.11    1.19
  -3   3 -13   -0.12    0.92
  -3   3 -13    0.24    0.64
   3  -3  13   -0.11    1.38
   3  -3  13   -1.39    0.86
  -4   3 -13   29.36    3.78
  -4   3 -13   29.37    3.22
  -4   3 -13   28.91    2.90
   4  -3  13   31.32    4.18
   4  -3  13   23.17    3.41
  -8  -2  13    2.17    1.60
  -8  -2  13    1.32    1.06
  -8  -2  13    0.36    2.59
  -7  -2  13    0.10    1.36
  -7  -2  13    2.88    2.22
   6   2 -13    0.38    0.64
  -6  -2  13    0.13    1.87
  -6  -2  13   -0.02    1.20
   5   2 -13    0.21    0.48
  -5  -2  13    1.66    1.62
  -5  -2  13   -0.05    0.99
  -5  -2  13    0.30    1.46
   4   2 -13   -0.25    0.43
   4   2 -13    0.07    0.38
   4   2 -13    0.41    1.47
  -4  -2  13   -0.28    1.39
  -4  -2  13    1.20    1.08
  -4  -2  13   -0.01    1.22
  -4  -2  13    2.46    0.94
   3   2 -13   -0.04    0.37
   3   2 -13    0.41    0.40
   3   2 -13    0.95    1.56
  -3  -2  13    2.07    1.71
  -3  -2  13    1.26    1.07
  -3  -2  13    0.34    0.88
  -3  -2  13   -0.06    1.27
  -3  -2  13    1.59    1.11
   2   2 -13    1.43    0.50
   2   2 -13    5.30    1.64
   2   2 -13    2.22    0.50
  -2  -2  13    0.39    1.00
  -2  -2  13    3.18    1.38
  -2  -2  13    0.17    1.08
  -2  -2  13    3.60    1.97
  -2  -2  13    1.67    0.87
   1   2 -13    3.80    0.65
   1   2 -13    3.47    0.70
  -1  -2  13    3.89    2.21
  -1  -2  13    4.91    1.29
  -1  -2  13    6.88    1.09
  -1  -2  13    2.72    1.23
  -1  -2  13    5.15    1.36
   0  -2  13   13.02    2.40
   0  -2  13   15.26    1.99
   0  -2  13   14.04    3.07
   0  -2  13   12.33    2.24
  -1   2 -13    1.38    0.70
  -1   2 -13    1.03    0.56
  -1   2 -13    0.99    0.29
   1  -2  13    1.00    1.13
   1  -2  13    0.86    0.70
   1  -2  13    2.71    3.55
   1  -2  13   -0.76    1.01
  -2   2 -13    4.20    0.87
  -2   2 -13    4.51    0.72
  -2   2 -13    5.86    1.16
   2  -2  13    5.31    1.38
   2  -2  13    4.93    1.52
   2  -2  13    5.66    1.17
  -3   2 -13    2.66    0.83
  -3   2 -13    4.24    1.35
  -3   2 -13    1.50    0.45
   3  -2  13    1.94    1.49
   3  -2  13    0.94    0.96
  -4   2 -13    0.85    0.88
  -4   2 -13    0.22    1.51
   4  -2  13    1.86    1.03
   4  -2  13    0.93    1.77
  -8  -1  13    1.64    1.32
  -8  -1  13    3.33    2.27
  -8  -1  13   -0.64    1.14
  -7  -1  13    5.82    1.36
  -7  -1  13    1.41    1.92
  -7  -1  13    6.95    2.22
  -6  -1  13    1.11    1.64
  -6  -1  13    3.46    1.09
  -6  -1  13   -0.22    1.72
   5   1 -13    3.35    0.63
  -5  -1  13    1.82    1.49
  -5  -1  13    4.63    1.55
  -5  -1  13    3.15    1.03
   4   1 -13   -0.34    0.40
  -4  -1  13   -0.08    0.74
  -4  -1  13    0.20    1.18
  -4  -1  13   -1.22    1.20
   3   1 -13    0.50    0.39
   3   1 -13    1.23    1.47
  -3  -1  13   -1.48    1.02
  -3  -1  13    0.35    0.69
  -3  -1  13   -0.81    1.04
  -3  -1  13   -0.44    0.99
  -2  -1  13    4.59    1.24
  -2  -1  13    3.42    1.21
  -2  -1  13    3.00    0.83
  -2  -1  13    1.47    1.12
   1   1 -13   13.43    1.72
   1   1 -13   13.77    1.50
  -1  -1  13    8.38    1.78
  -1  -1  13   10.74    1.70
  -1  -1  13    9.28    1.70
  -1  -1  13   12.67    2.19
   0   1 -13   18.58    2.14
   0   1 -13   18.61    1.86
   0   1 -13   20.47    2.38
   0  -1  13   17.96    2.27
   0  -1  13   14.47    2.70
   0  -1  13   22.44    2.77
  -1   1 -13    0.13    0.28
  -1   1 -13    0.35    0.60
  -1   1 -13    2.16    0.92
   1  -1  13   -0.57    0.68
   1  -1  13    0.04    1.12
   1  -1  13   -0.61    1.13
  -2   1 -13    1.21    0.73
  -2   1 -13    1.74    1.22
   2  -1  13    0.82    1.26
   2  -1  13   -0.08    0.78
   2  -1  13    0.62    1.27
  -3   1 -13   -0.71    0.90
  -3   1 -13   -0.11    1.83
   3  -1  13   -0.97    1.44
   3  -1  13    0.17    0.88
  -8   0  13    3.99    2.33
  -8   0  13    0.78    1.76
  -8   0  13    1.57    0.97
  -7   0  13   15.67    3.31
  -7   0  13   20.05    3.28
  -7   0  13   21.41    2.47
  -6   0  13   12.12    1.68
  -6   0  13    9.62    2.20
  -6   0  13    7.93    1.92
  -5   0  13    3.79    0.86
  -5   0  13    3.46    1.32
  -5   0  13    3.55    1.65
  -4   0  13   -0.86    0.61
  -4   0  13   -0.40    1.00
  -4   0  13   -1.23    1.15
   3   0 -13    4.95    0.80
  -3   0  13    4.74    1.28
  -3   0  13    4.07    0.87
  -3   0  13    5.38    1.44
   2   0 -13   -0.36    0.50
  -2   0  13    0.81    1.15
  -2   0  13    0.09    0.96
  -2   0  13   -0.42    0.55
   1   0 -13    1.64    0.60
  -1   0  13   -0.50    0.58
  -1   0  13    0.09    1.02
  -1   0  13    2.45    1.02
   0   0 -13   10.20    1.36
   0   0  13    5.43    1.16
   0   0  13    7.34    1.64
   0   0  13    6.20    1.47
  -1   0 -13    1.68    0.78
   1   0  13    1.80    1.41
   1   0  13    2.28    0.81
   1   0  13    3.96    1.32
  -2   0 -13   -0.11    0.88
   2   0  13   -1.70    0.84
   2   0  13    0.22    1.33
   2   0  13    1.37    1.52
  -7   1  13    9.23    2.30
  -7   1  13    9.65    1.79
  -7   1  13    9.01    1.51
  -6   1  13    1.29    1.57
  -6   1  13    1.29    0.66
  -6   1  13    2.05    1.08
  -5   1  13    9.59    1.89
  -5   1  13   10.32    2.08
  -5   1  13    7.77    1.18
  -4   1  13   13.16    2.04
  -4   1  13   12.03    2.12
  -4   1  13    8.93    1.47
  -3   1  13    1.51    1.34
  -3   1  13    2.19    0.68
  -3   1  13    2.73    1.02
   2  -1 -13   -1.37    0.59
  -2   1  13    1.04    1.27
  -2   1  13   -0.08    0.58
  -2   1  13   -0.28    0.88
   1  -1 -13    0.80    0.74
  -1   1  13    1.15    0.65
  -1   1  13   -0.98    1.21
  -1   1  13    1.95    1.01
   0  -1 -13    0.18    0.79
   0   1  13    1.03    1.32
   0   1  13    1.10    1.08
   0   1  13   -0.20    0.72
  -1  -1 -13    0.91    0.97
   1   1  13    0.30    0.75
   1   1  13    0.31    1.38
   1   1  13    0.90    1.31
  -2  -1 -13    1.73    1.19
   2   1  13    1.18    1.59
   2   1  13    1.53    1.03
  -6   2  13    4.12    1.04
  -6   2  13    3.04    0.73
  -6   2  13    2.02    1.70
  -5   2  13    1.32    1.50
  -5   2  13    2.17    0.92
  -5   2  13    0.38    0.56
  -4   2  13    3.80    0.79
  -4   2  13    5.14    1.14
  -4   2  13    3.35    1.70
  -3   2  13    4.69    1.67
  -3   2  13    5.36    0.92
  -3   2  13    4.80    1.20
  -2   2  13    7.63    1.75
  -2   2  13    5.07    0.98
  -2   2  13    6.26    1.34
  -1   2  13    7.92    1.98
  -1   2  13   11.33    1.66
   0   2  13    4.56    1.42
   0   2  13    2.19    0.94
   0   2  13    5.79    1.66
  -5   3  13    0.14    0.64
  -5   3  13   -0.82    1.60
  -5   3  13    1.42    0.95
  -4   3  13    2.56    1.69
  -4   3  13   -0.59    0.93
  -4   3  13    0.19    0.65
  -3   3  13    1.26    0.72
  -3   3  13    1.06    1.51
  -3   3  13   -0.12    0.99
  -2   3  13    0.30    1.14
  -2   3  13    0.63    1.66
  -2   3  13    0.33    0.78
  -1   3  13   10.78    2.46
   3   8 -14    2.48    2.57
   3   8 -14    2.36    1.01
   2   8 -14    3.39    2.36
   2   8 -14    1.91    0.93
  -2  -8  14   -0.63    2.99
  -2  -8  14   -0.30    2.05
   1   8 -14    1.46    0.84
   1   8 -14    5.47    2.40
  -1  -8  14   -1.31    2.99
  -1  -8  14    2.90    1.87
  -1  -8  14    2.38    1.58
   0   8 -14    4.03    2.19
   0   8 -14    1.35    0.75
   0  -8  14    1.15    1.76
   0  -8  14    2.10    2.88
  -1   8 -14    0.20    0.67
  -1   8 -14    2.62    2.35
   1  -8  14    0.98    1.67
   4   7 -14    1.65    1.00
  -4  -7  14    1.77    2.09
  -4  -7  14    0.82    2.77
   3   7 -14   -1.29    1.91
   3   7 -14    0.58    0.80
  -3  -7  14    1.23    2.72
  -3  -7  14   -0.44    1.79
   2   7 -14   -0.57    0.71
   2   7 -14    0.07    2.27
  -2  -7  14    0.79    1.59
  -2  -7  14    2.79    1.63
  -2  -7  14   -5.25    2.52
   1   7 -14    1.10    1.94
   1   7 -14    0.21    0.68
  -1  -7  14    1.44    1.33
  -1  -7  14    0.66    2.43
  -1  -7  14   -0.37    1.53
   0   7 -14    1.39    2.03
   0   7 -14    0.11    0.59
   0  -7  14   -0.57    2.38
   0  -7  14    0.44    1.18
   0  -7  14    1.73    1.58
  -1   7 -14    5.02    2.28
  -1   7 -14    2.53    0.70
   1  -7  14    3.36    1.51
   1  -7  14   -1.79    2.27
  -2   7 -14    8.92    1.40
   2  -7  14    6.84    1.68
   5   6 -14   -0.83    0.95
  -5  -6  14   -1.56    1.90
  -5  -6  14   -0.31    2.95
   4   6 -14    0.01    0.78
  -4  -6  14   -3.10    1.62
  -4  -6  14   -0.53    2.54
   3   6 -14    4.65    0.93
   3   6 -14    1.67    1.92
  -3  -6  14    1.42    2.32
  -3  -6  14    1.83    1.72
   2   6 -14    9.65    1.49
  -2  -6  14    6.36    2.46
  -2  -6  14    8.52    1.97
  -2  -6  14   10.34    2.00
   1   6 -14    4.29    0.83
   1   6 -14    6.79    2.09
  -1  -6  14    3.81    1.34
  -1  -6  14    5.91    1.78
  -1  -6  14    0.62    2.06
   0   6 -14    0.29    1.96
   0   6 -14   -0.51    0.55
   0  -6  14   -1.04    1.86
   0  -6  14    0.71    1.30
  -1   6 -14    0.05    0.56
  -1   6 -14    3.18    1.89
   1  -6  14    3.54    1.99
   1  -6  14    0.19    1.30
   1  -6  14    0.67    1.10
  -2   6 -14    1.23    1.88
  -2   6 -14    0.37    0.54
   2  -6  14    0.98    1.78
   2  -6  14    3.20    1.37
  -3   6 -14    7.50    2.70
   3  -6  14    3.85    1.49
   6   5 -14    2.01    1.26
  -6  -5  14    3.77    2.17
  -6  -5  14    1.11    2.86
   5   5 -14   -0.64    0.82
  -5  -5  14   -0.65    1.68
  -5  -5  14   -2.66    2.46
   4   5 -14   -0.69    0.72
  -4  -5  14   -0.74    1.50
  -4  -5  14   -0.11    2.26
   3   5 -14    2.25    1.76
   3   5 -14    0.43    0.65
  -3  -5  14   -1.00    1.45
  -3  -5  14   -0.51    1.28
  -3  -5  14    2.57    2.27
   2   5 -14    1.72    0.60
   2   5 -14    6.03    1.98
  -2  -5  14    1.63    1.34
  -2  -5  14    2.77    1.35
  -2  -5  14   -1.34    1.80
   1   5 -14    0.96    1.72
   1   5 -14   -0.26    0.51
  -1  -5  14   -1.30    1.14
  -1  -5  14    0.67    1.24
  -1  -5  14   -0.08    1.79
   0   5 -14    2.41    0.63
   0  -5  14    2.67    1.25
   0  -5  14    2.85    1.74
   0  -5  14    1.21    1.13
  -1   5 -14    7.34    1.16
   1  -5  14    3.67    1.76
   1  -5  14    7.76    1.49
  -2   5 -14    3.13    2.23
   2  -5  14    3.46    1.14
   2  -5  14    0.40    1.22
   2  -5  14    2.30    1.75
  -3   5 -14    0.21    0.82
   3  -5  14    0.57    1.00
   3  -5  14    0.25    1.71
  -6  -4  14    0.82    2.66
  -6  -4  14    1.24    1.80
   5   4 -14    5.21    1.08
  -5  -4  14    4.81    2.46
  -5  -4  14    6.17    1.75
   4   4 -14    8.83    1.23
  -4  -4  14    5.94    2.32
  -4  -4  14    9.17    1.99
  -4  -4  14    7.57    1.94
   3   4 -14    8.87    2.08
   3   4 -14    3.46    0.71
  -3  -4  14    1.35    1.41
  -3  -4  14    2.45    1.29
  -3  -4  14    1.58    1.94
   2   4 -14    1.96    1.81
  -2  -4  14    1.50    1.84
  -2  -4  14   -0.21    1.10
  -2  -4  14   -1.62    1.13
   1   4 -14   -0.48    0.45
   1   4 -14    0.66    1.72
  -1  -4  14   -0.37    1.09
  -1  -4  14    0.89    1.06
  -1  -4  14    0.31    1.57
   0   4 -14    3.06    1.83
   0   4 -14    1.22    0.53
   0  -4  14   -0.08    1.12
   0  -4  14    1.11    1.02
   0  -4  14    1.63    1.64
  -1   4 -14    1.02    0.50
  -1   4 -14    0.53    1.92
   1  -4  14   -0.05    1.43
   1  -4  14    1.77    1.06
   1  -4  14    0.40    1.14
  -2   4 -14    9.70    1.68
   2  -4  14    9.72    2.22
   2  -4  14   13.75    2.38
  -3   4 -14    0.13    0.46
  -3   4 -14    1.47    0.96
  -3   4 -14    0.38    0.75
   3  -4  14    5.37    1.87
   3  -4  14    0.21    1.02
  -7  -3  14   -3.79    1.73
  -7  -3  14   -1.56    2.62
  -6  -3  14    1.74    2.40
  -6  -3  14    1.33    1.58
   5   3 -14   -1.00    0.61
  -5  -3  14   -2.68    1.65
  -5  -3  14   -1.54    1.98
  -5  -3  14   -1.80    1.29
   4   3 -14   10.41    1.46
  -4  -3  14    6.07    2.37
  -4  -3  14   13.34    2.43
  -4  -3  14   12.07    1.91
   3   3 -14    5.50    2.03
   3   3 -14    3.05    0.70
  -3  -3  14    3.52    1.31
  -3  -3  14    1.12    1.64
  -3  -3  14    4.55    1.49
   2   3 -14   10.07    1.42
  -2  -3  14   11.17    2.01
  -2  -3  14   10.71    2.32
  -2  -3  14   14.84    2.02
   1   3 -14   -1.21    1.70
  -1  -3  14    1.71    1.16
  -1  -3  14    0.42    0.95
  -1  -3  14    1.69    1.47
   0   3 -14    5.45    1.99
   0   3 -14    1.73    0.52
   0  -3  14    4.10    1.03
   0  -3  14    2.21    1.40
   0  -3  14    1.41    1.19
  -1   3 -14    0.86    0.66
  -1   3 -14   -0.46    0.86
   1  -3  14   -0.99    0.82
   1  -3  14    2.19    1.44
   1  -3  14   -0.49    1.21
  -2   3 -14    4.69    1.40
  -2   3 -14    4.21    0.86
  -2   3 -14    3.72    0.59
   2  -3  14    4.62    1.62
   2  -3  14    3.19    1.00
   2  -3  14    3.65    1.41
  -3   3 -14   -0.85    1.27
  -3   3 -14   -0.57    0.80
   3  -3  14    0.46    1.74
   3  -3  14    0.85    1.06
  -7  -2  14    3.65    1.65
  -7  -2  14    5.15    2.57
  -7  -2  14    4.82    2.59
  -6  -2  14    4.16    2.15
  -6  -2  14    1.62    2.01
  -6  -2  14    1.21    1.35
  -5  -2  14    4.05    1.77
  -5  -2  14    3.99    1.24
  -5  -2  14   -0.39    1.81
   4   2 -14    0.09    0.49
  -4  -2  14    1.69    1.06
  -4  -2  14   -1.33    1.54
  -4  -2  14    0.30    1.44
   3   2 -14   11.87    1.49
  -3  -2  14   10.03    1.97
  -3  -2  14   13.45    2.16
  -3  -2  14   13.15    2.47
   2   2 -14    3.33    2.72
   2   2 -14    0.00    0.47
  -2  -2  14    0.43    0.96
  -2  -2  14    0.90    1.32
  -2  -2  14    1.75    1.22
  -1  -2  14    0.62    1.18
  -1  -2  14    0.65    0.87
  -1  -2  14    1.10    1.22
   0   2 -14    0.12    0.63
   0   2 -14   -0.35    0.83
   0  -2  14    0.94    0.83
   0  -2  14   -0.71    1.25
   0  -2  14   -0.67    1.19
  -1   2 -14    0.56    0.68
  -1   2 -14    0.37    0.97
   1  -2  14   -0.14    1.32
   1  -2  14    0.07    0.84
   1  -2  14    0.23    1.35
  -2   2 -14    1.27    1.26
  -2   2 -14    2.63    0.85
   2  -2  14    2.17    1.44
   2  -2  14    1.37    1.69
   2  -2  14    1.95    1.01
  -7  -1  14    2.66    2.18
  -7  -1  14    4.64    2.35
  -7  -1  14   -0.82    1.17
  -6  -1  14    1.08    1.07
  -6  -1  14    2.84    1.93
  -6  -1  14    1.87    1.83
  -5  -1  14   -0.63    1.50
  -5  -1  14   -0.45    0.96
  -5  -1  14    2.29    1.58
   4   1 -14    0.39    0.51
  -4  -1  14    0.90    1.44
  -4  -1  14    1.62    0.92
  -4  -1  14    2.24    1.47
  -3  -1  14    2.18    1.38
  -3  -1  14    1.01    1.34
  -3  -1  14    2.72    0.98
   2   1 -14    2.08    0.67
  -2  -1  14    2.61    0.84
  -2  -1  14   -0.80    1.29
  -2  -1  14    1.48    1.24
   1   1 -14    6.16    1.09
  -1  -1  14    9.08    1.34
  -1  -1  14    5.73    1.60
  -1  -1  14    9.05    1.78
   0   1 -14    2.89    0.83
   0  -1  14    4.05    1.55
   0  -1  14    2.61    1.33
   0  -1  14    3.11    0.95
  -1   1 -14    4.78    0.93
   1  -1  14    2.09    1.51
   1  -1  14    1.66    1.57
   1  -1  14    3.26    1.03
  -2   1 -14   -1.39    0.90
   2  -1  14    0.36    0.92
   2  -1  14    0.04    1.71
   2  -1  14   -0.79    1.51
  -6   0  14    0.72    1.88
  -6   0  14    0.63    1.44
  -6   0  14    1.54    0.89
  -5   0  14   -0.41    1.57
  -5   0  14    3.76    1.44
  -5   0  14    2.64    0.92
  -4   0  14    3.35    1.43
  -4   0  14    4.58    0.98
  -4   0  14    6.08    1.74
  -3   0  14    2.42    1.22
  -3   0  14    2.91    0.84
  -3   0  14    2.06    1.57
   2   0 -14    0.94    0.72
  -2   0  14    0.08    0.72
  -2   0  14    2.14    1.17
  -2   0  14    0.41    1.34
   1   0 -14    3.27    0.89
  -1   0  14    4.97    0.96
  -1   0  14    2.86    1.32
  -1   0  14    1.81    1.49
   0   0 -14   -0.71    0.82
   0   0  14    1.74    1.34
   0   0  14    2.65    1.47
   0   0  14    0.53    0.84
  -1   0 -14   10.47    1.55
   1   0  14    6.67    1.45
   1   0  14   11.20    2.10
   1   0  14    9.59    2.07
  -6   1  14    6.05    1.47
  -6   1  14    6.83    2.18
  -6   1  14    5.47    1.04
  -5   1  14    6.52    1.48
  -5   1  14    5.31    1.95
  -5   1  14    5.36    0.99
  -4   1  14   -0.40    1.02
  -4   1  14   -1.00    1.56
  -4   1  14    1.04    0.70
  -3   1  14   -2.78    1.41
  -3   1  14   -1.64    0.65
  -3   1  14    1.00    1.04
  -2   1  14   -0.95    0.70
  -2   1  14   -0.06    1.10
  -2   1  14   -0.92    1.47
  -1   1  14    1.26    1.26
  -1   1  14    2.87    0.85
   0   1  14    0.95    1.43
   0   1  14   -1.34    1.65
   0   1  14   -0.33    0.87
  -4   2  14    5.51    2.13
  -3   2  14   -1.36    0.74
  -3   2  14    0.74    1.18
  -3   2  14    0.31    1.76
   2   7 -15   18.96    3.63
   2   7 -15   14.45    2.31
  -2  -7  15   18.20    4.06
  -2  -7  15   21.20    3.42
  -2  -7  15   17.77    2.96
   1   7 -15   -0.86    2.26
   1   7 -15   -0.56    0.71
  -1  -7  15    2.02    1.72
  -1  -7  15   -1.15    2.70
  -1  -7  15   -1.58    1.52
   0   7 -15    4.52    2.69
   4   6 -15    0.74    0.93
  -4  -6  15    1.87    2.00
  -4  -6  15   -0.32    2.85
   3   6 -15    3.00    0.93
  -3  -6  15    5.33    2.97
  -3  -6  15    3.54    1.93
  -3  -6  15    4.57    2.04
   2   6 -15   -1.98    2.48
   2   6 -15    1.25    0.67
  -2  -6  15    0.74    1.74
  -2  -6  15   -1.93    2.47
  -2  -6  15   -0.35    1.58
   1   6 -15   16.97    2.15
  -1  -6  15   19.48    2.87
  -1  -6  15   18.24    3.61
  -1  -6  15   14.92    2.97
   0   6 -15    1.03    2.18
   0   6 -15   -0.33    0.65
   0  -6  15    0.28    2.29
   0  -6  15   -0.55    1.33
   0  -6  15    2.28    1.36
  -1   6 -15   11.11    2.68
  -1   6 -15    3.67    0.89
   1  -6  15    4.05    1.54
   1  -6  15    3.98    2.27
   5   5 -15    7.02    1.35
  -5  -5  15    1.85    2.95
  -5  -5  15   10.14    2.34
   4   5 -15    2.61    0.87
  -4  -5  15   -0.99    2.45
  -4  -5  15    1.44    1.99
  -4  -5  15   -3.84    1.62
   3   5 -15    5.16    0.99
  -3  -5  15    3.77    2.54
  -3  -5  15    5.83    1.89
  -3  -5  15    6.23    1.85
   2   5 -15    0.37    0.67
  -2  -5  15    0.61    1.40
  -2  -5  15    4.38    2.41
  -2  -5  15    2.24    1.52
   1   5 -15    1.68    0.68
   1   5 -15    6.55    2.50
  -1  -5  15    2.84    1.50
  -1  -5  15    3.64    1.44
  -1  -5  15    4.70    2.12
   0   5 -15    4.97    3.99
   0   5 -15    2.30    0.70
   0  -5  15    5.39    2.11
   0  -5  15    0.22    1.34
  -1   5 -15    2.83    0.74
   1  -5  15    3.57    2.01
   1  -5  15    3.00    1.43
   1  -5  15    4.08    1.50
  -5  -4  15   -0.21    1.72
  -5  -4  15    1.21    2.56
  -5  -4  15    1.58    2.07
  -4  -4  15    1.22    1.58
  -4  -4  15   -2.11    1.70
  -4  -4  15   -1.06    2.29
   3   4 -15    6.39    1.10
  -3  -4  15    9.59    1.95
  -3  -4  15    8.39    2.58
  -3  -4  15    7.58    1.83
   2   4 -15   12.78    1.79
  -2  -4  15   12.58    2.34
  -2  -4  15   20.17    2.88
  -2  -4  15   15.84    3.08
   1   4 -15    1.43    0.64
  -1  -4  15    0.90    1.44
  -1  -4  15    0.32    1.27
  -1  -4  15    0.53    1.91
   0   4 -15    8.88    2.53
   0   4 -15    4.69    0.85
   0  -4  15    3.43    1.91
   0  -4  15    4.65    1.42
   0  -4  15    3.97    1.55
   1  -4  15    6.21    2.13
   1  -4  15    3.54    1.59
   1  -4  15    6.45    1.41
  -6  -3  15    0.08    2.41
  -5  -3  15    1.88    2.36
  -5  -3  15    2.09    1.61
  -5  -3  15    1.41    1.92
   4   3 -15   10.43    1.57
  -4  -3  15   13.93    2.38
  -4  -3  15   12.15    2.04
  -4  -3  15    6.39    2.56
   3   3 -15   27.62    3.29
  -3  -3  15   31.16    4.21
  -3  -3  15   34.90    4.83
  -3  -3  15   35.51    3.93
   2   3 -15   22.59    2.41
  -2  -3  15   20.20    3.09
  -2  -3  15   18.03    3.36
  -2  -3  15   24.61    4.01
   1   3 -15    3.38    0.74
  -1  -3  15    7.97    1.87
  -1  -3  15    3.54    1.29
  -1  -3  15    7.18    1.88
   0  -3  15    5.10    1.26
   0  -3  15    4.41    1.87
  -1   3 -15    0.30    0.83
   1  -3  15    1.59    1.11
   1  -3  15   -0.74    1.59
   1  -3  15    0.52    1.70
  -6  -2  15    2.02    2.54
  -5  -2  15   -1.77    1.25
  -5  -2  15   -1.09    2.02
  -5  -2  15   -0.50    1.89
  -4  -2  15    2.95    1.96
  -4  -2  15    4.15    1.34
  -4  -2  15    3.94    1.87
   3   2 -15   -0.42    0.54
  -3  -2  15    1.80    1.63
  -3  -2  15   -1.15    1.59
  -3  -2  15    0.38    1.13
  -2  -2  15    7.72    1.49
  -2  -2  15    7.81    2.07
  -2  -2  15    6.91    1.97
   1   2 -15    2.04    0.82
  -1  -2  15    3.08    1.60
  -1  -2  15   -0.88    0.98
  -1  -2  15    1.06    1.55
   0   2 -15    8.42    1.24
   0  -2  15    5.28    1.90
   0  -2  15    8.08    1.45
   0  -2  15   10.30    2.14
   1  -2  15   10.90    2.17
  -5  -1  15   -1.12    1.75
  -5  -1  15   -1.41    1.93
  -5  -1  15    0.71    1.10
  -4  -1  15    3.91    1.82
  -4  -1  15    6.19    1.23
  -4  -1  15    3.14    1.76
  -3  -1  15   -0.26    1.69
  -3  -1  15   -1.00    1.43
  -3  -1  15    0.45    0.98
  -2  -1  15    1.07    1.48
  -2  -1  15    2.37    1.66
  -2  -1  15    1.03    0.90
   1   1 -15    1.58    0.88
  -1  -1  15   -0.23    1.44
  -1  -1  15    0.74    1.69
  -1  -1  15    2.66    1.02
   0   1 -15    5.90    1.29
   0  -1  15    5.97    1.98
   0  -1  15    7.07    1.45
   0  -1  15    8.88    2.02
  -4   0  15    1.17    0.91
  -4   0  15    0.81    1.51
  -4   0  15    3.28    1.98
  -3   0  15    3.43    1.03
  -3   0  15    3.47    1.97
  -3   0  15    4.23    1.59
  -2   0  15    1.49    1.82
  -2   0  15    3.06    1.58
  -2   0  15    5.01    1.14
  -2  -4  16    3.65    1.88
  -2  -3  16   -0.21    1.82
   0   0   0    0.00    0.00
;
_shelx_hkl_checksum              23730
_olex2_submission_special_instructions 'No special instructions were received'
loop_
_space_group_symop_operation_xyz
'x, y, z'
'-x, -y, -z'
loop_
_atom_site_label
_atom_site_type_symbol
_atom_site_fract_x
_atom_site_fract_y
_atom_site_fract_z
_atom_site_U_iso_or_equiv
_atom_site_adp_type
_atom_site_occupancy
_atom_site_site_symmetry_order
_atom_site_calc_flag
_atom_site_refinement_flags_posn
O1 O 0.14083(15) 0.35685(14) -0.06218(10) 0.0253(3) Uani 1 1 d .
N1 N 0.08672(16) 0.19416(16) 0.22950(11) 0.0177(3) Uani 1 1 d .
N2 N 0.04785(16) 0.39671(16) 0.11986(11) 0.0186(3) Uani 1 1 d .
H2 H -0.0318 0.4486 0.0972 0.022 Uiso 1 1 calc R
C1 C -0.3042(2) 0.5651(2) 0.43245(15) 0.0266(4) Uani 1 1 d .
H1 H -0.3879 0.6067 0.4726 0.032 Uiso 1 1 calc R
C2 C -0.3109(2) 0.3856(2) 0.38820(15) 0.0252(4) Uani 1 1 d .
H2A H -0.3998 0.3073 0.3979 0.030 Uiso 1 1 calc R
C3 C -0.18443(19) 0.3202(2) 0.32870(13) 0.0199(3) Uani 1 1 d .
C4 C -0.1838(2) 0.1329(2) 0.28415(15) 0.0224(3) Uani 1 1 d .
H4 H -0.2755 0.0509 0.2875 0.027 Uiso 1 1 calc R
C5 C -0.05277(19) 0.0772(2) 0.23838(14) 0.0196(3) Uani 1 1 d .
H5 H -0.0546 -0.0431 0.2117 0.023 Uiso 1 1 calc R
C6 C 0.20416(19) 0.13315(19) 0.15892(13) 0.0183(3) Uani 1 1 d .
C7 C 0.28004(19) -0.01373(19) 0.17865(14) 0.0191(3) Uani 1 1 d .
C8 C 0.3134(2) -0.0334(2) 0.29807(15) 0.0230(4) Uani 1 1 d .
H8 H 0.2818 0.0423 0.3660 0.028 Uiso 1 1 calc R
C9 C 0.3937(2) -0.1658(2) 0.31592(15) 0.0263(4) Uani 1 1 d .
H9 H 0.4173 -0.1768 0.3962 0.032 Uiso 1 1 calc R
C10 C 0.4387(2) -0.2813(2) 0.21489(17) 0.0280(4) Uani 1 1 d .
H10 H 0.4921 -0.3699 0.2272 0.034 Uiso 1 1 calc R
C11 C -0.1745(2) 0.6833(2) 0.41758(15) 0.0253(4) Uani 1 1 d .
H11 H -0.1710 0.8039 0.4473 0.030 Uiso 1 1 calc R
C12 C -0.0495(2) 0.6214(2) 0.35823(14) 0.0223(3) Uani 1 1 d .
H12 H 0.0378 0.7006 0.3478 0.027 Uiso 1 1 calc R
C13 C -0.05420(19) 0.4414(2) 0.31432(13) 0.0183(3) Uani 1 1 d .
C14 C 0.08114(19) 0.37844(19) 0.24600(13) 0.0170(3) Uani 1 1 d .
H14 H 0.1969 0.4544 0.2982 0.020 Uiso 1 1 calc R
C15 C 0.2485(2) 0.2133(2) 0.07911(14) 0.0209(3) Uani 1 1 d .
H15 H 0.3459 0.1944 0.0483 0.025 Uiso 1 1 calc R
C16 C 0.1450(2) 0.33040(19) 0.04003(14) 0.0194(3) Uani 1 1 d .
C17 C 0.4040(2) -0.2644(2) 0.09548(16) 0.0249(4) Uani 1 1 d .
H17 H 0.4334 -0.3425 0.0274 0.030 Uiso 1 1 calc R
C18 C 0.32538(19) -0.1311(2) 0.07700(15) 0.0213(3) Uani 1 1 d .
H18 H 0.3029 -0.1200 -0.0033 0.026 Uiso 1 1 calc R
loop_
_atom_site_aniso_label
_atom_site_aniso_U_11
_atom_site_aniso_U_22
_atom_site_aniso_U_33
_atom_site_aniso_U_23
_atom_site_aniso_U_13
_atom_site_aniso_U_12
O1 0.0400(7) 0.0245(6) 0.0206(5) 0.0116(4) 0.0158(5) 0.0162(5)
N1 0.0220(6) 0.0172(6) 0.0173(6) 0.0076(5) 0.0078(5) 0.0083(5)
N2 0.0229(6) 0.0214(6) 0.0169(6) 0.0093(5) 0.0082(5) 0.0116(5)
C1 0.0276(8) 0.0385(9) 0.0216(7) 0.0120(7) 0.0119(6) 0.0204(8)
C2 0.0207(8) 0.0341(9) 0.0244(8) 0.0122(7) 0.0089(6) 0.0094(7)
C3 0.0207(7) 0.0266(8) 0.0145(6) 0.0083(6) 0.0050(5) 0.0097(6)
C4 0.0211(7) 0.0233(8) 0.0234(7) 0.0088(6) 0.0076(6) 0.0039(6)
C5 0.0235(8) 0.0176(7) 0.0177(7) 0.0065(6) 0.0055(6) 0.0050(6)
C6 0.0196(7) 0.0191(7) 0.0164(7) 0.0058(6) 0.0042(5) 0.0068(6)
C7 0.0192(7) 0.0187(7) 0.0221(7) 0.0089(6) 0.0064(6) 0.0073(6)
C8 0.0249(8) 0.0236(8) 0.0220(7) 0.0094(6) 0.0061(6) 0.0074(7)
C9 0.0266(8) 0.0273(8) 0.0272(8) 0.0160(7) 0.0020(6) 0.0064(7)
C10 0.0240(8) 0.0205(8) 0.0409(10) 0.0145(7) 0.0032(7) 0.0088(7)
C11 0.0321(9) 0.0260(8) 0.0213(7) 0.0076(6) 0.0090(6) 0.0167(7)
C12 0.0265(8) 0.0221(8) 0.0204(7) 0.0076(6) 0.0080(6) 0.0094(6)
C13 0.0207(7) 0.0233(8) 0.0124(6) 0.0069(6) 0.0038(5) 0.0092(6)
C14 0.0201(7) 0.0166(7) 0.0153(6) 0.0063(5) 0.0045(5) 0.0061(6)
C15 0.0230(7) 0.0228(8) 0.0218(7) 0.0093(6) 0.0106(6) 0.0107(6)
C16 0.0245(7) 0.0160(7) 0.0185(7) 0.0059(6) 0.0078(6) 0.0056(6)
C17 0.0228(8) 0.0200(8) 0.0332(8) 0.0077(7) 0.0105(6) 0.0093(6)
C18 0.0220(7) 0.0222(8) 0.0213(7) 0.0083(6) 0.0072(6) 0.0075(6)
loop_
_atom_type_symbol
_atom_type_description
_atom_type_scat_dispersion_real
_atom_type_scat_dispersion_imag
_atom_type_scat_source
C C 0.0033 0.0016 'International Tables Vol C Tables 4.2.6.8 and 6.1.1.4'
H H 0.0000 0.0000 'International Tables Vol C Tables 4.2.6.8 and 6.1.1.4'
N N 0.0061 0.0033 'International Tables Vol C Tables 4.2.6.8 and 6.1.1.4'
O O 0.0106 0.0060 'International Tables Vol C Tables 4.2.6.8 and 6.1.1.4'
loop_
_geom_angle_atom_site_label_1
_geom_angle_atom_site_label_2
_geom_angle_atom_site_label_3
_geom_angle
C5 N1 C6 121.59(12)
C5 N1 C14 121.54(12)
C6 N1 C14 112.65(12)
C14 N2 H2 120.8
C16 N2 H2 120.8
C16 N2 C14 118.49(12)
C2 C1 H1 119.7
C11 C1 H1 119.7
C11 C1 C2 120.59(14)
C1 C2 H2A 119.7
C1 C2 C3 120.60(16)
C3 C2 H2A 119.7
C2 C3 C4 122.29(15)
C13 C3 C2 118.11(14)
C13 C3 C4 119.60(13)
C3 C4 H4 119.7
C5 C4 C3 120.68(14)
C5 C4 H4 119.7
N1 C5 H5 119.0
C4 C5 N1 122.02(14)
C4 C5 H5 119.0
N1 C6 C7 118.50(13)
C15 C6 N1 119.02(13)
C15 C6 C7 122.45(13)
C8 C7 C6 121.43(13)
C8 C7 C18 119.01(14)
C18 C7 C6 119.51(13)
C7 C8 H8 119.9
C9 C8 C7 120.26(14)
C9 C8 H8 119.9
C8 C9 H9 119.8
C10 C9 C8 120.42(15)
C10 C9 H9 119.8
C9 C10 H10 120.1
C17 C10 C9 119.77(14)
C17 C10 H10 120.1
C1 C11 H11 120.2
C1 C11 C12 119.69(15)
C12 C11 H11 120.2
C11 C12 H12 119.9
C11 C12 C13 120.16(15)
C13 C12 H12 119.9
C3 C13 C14 120.60(13)
C12 C13 C3 120.85(14)
C12 C13 C14 118.51(14)
N1 C14 C13 113.00(12)
N1 C14 H14 108.0
N2 C14 N1 109.36(11)
N2 C14 C13 110.39(11)
N2 C14 H14 108.0
C13 C14 H14 108.0
C6 C15 H15 119.5
C6 C15 C16 120.96(13)
C16 C15 H15 119.5
O1 C16 N2 123.21(13)
O1 C16 C15 122.13(13)
N2 C16 C15 114.54(13)
C10 C17 H17 119.9
C10 C17 C18 120.24(14)
C18 C17 H17 119.9
C7 C18 H18 119.9
C17 C18 C7 120.28(14)
C17 C18 H18 119.9
loop_
_geom_bond_atom_site_label_1
_geom_bond_atom_site_label_2
_geom_bond_distance
O1 C16 1.2427(17)
N1 C5 1.396(2)
N1 C6 1.4019(19)
N1 C14 1.4691(19)
N2 H2 0.8600
N2 C14 1.4640(18)
N2 C16 1.3484(18)
C1 H1 0.9300
C1 C2 1.382(2)
C1 C11 1.382(2)
C2 H2A 0.9300
C2 C3 1.405(2)
C3 C4 1.455(2)
C3 C13 1.396(2)
C4 H4 0.9300
C4 C5 1.338(2)
C5 H5 0.9300
C6 C7 1.486(2)
C6 C15 1.348(2)
C7 C8 1.395(2)
C7 C18 1.398(2)
C8 H8 0.9300
C8 C9 1.389(2)
C9 H9 0.9300
C9 C10 1.385(2)
C10 H10 0.9300
C10 C17 1.385(2)
C11 H11 0.9300
C11 C12 1.385(2)
C12 H12 0.9300
C12 C13 1.388(2)
C13 C14 1.514(2)
C14 H14 0.9800
C15 H15 0.9300
C15 C16 1.474(2)
C17 H17 0.9300
C17 C18 1.392(2)
C18 H18 0.9300
loop_
_geom_torsion_atom_site_label_1
_geom_torsion_atom_site_label_2
_geom_torsion_atom_site_label_3
_geom_torsion_atom_site_label_4
_geom_torsion
N1 C6 C7 C8 -32.4(2)
N1 C6 C7 C18 150.02(14)
N1 C6 C15 C16 -15.5(2)
C1 C2 C3 C4 178.20(14)
C1 C2 C3 C13 -0.8(2)
C1 C11 C12 C13 -0.2(2)
C2 C1 C11 C12 -0.2(2)
C2 C3 C4 C5 -174.03(14)
C2 C3 C13 C12 0.3(2)
C2 C3 C13 C14 -177.41(12)
C3 C4 C5 N1 -0.9(2)
C3 C13 C14 N1 -14.62(18)
C3 C13 C14 N2 108.18(15)
C4 C3 C13 C12 -178.72(13)
C4 C3 C13 C14 3.5(2)
C5 N1 C6 C7 -47.67(18)
C5 N1 C6 C15 134.48(15)
C5 N1 C14 N2 -104.48(14)
C5 N1 C14 C13 18.90(18)
C6 N1 C5 C4 -167.20(14)
C6 N1 C14 N2 52.75(15)
C6 N1 C14 C13 176.14(11)
C6 C7 C8 C9 -176.30(14)
C6 C7 C18 C17 177.04(14)
C6 C15 C16 O1 -154.74(15)
C6 C15 C16 N2 21.4(2)
C7 C6 C15 C16 166.73(13)
C7 C8 C9 C10 -1.1(2)
C8 C7 C18 C17 -0.6(2)
C8 C9 C10 C17 0.2(2)
C9 C10 C17 C18 0.5(2)
C10 C17 C18 C7 -0.3(2)
C11 C1 C2 C3 0.8(2)
C11 C12 C13 C3 0.2(2)
C11 C12 C13 C14 177.99(13)
C12 C13 C14 N1 167.58(12)
C12 C13 C14 N2 -69.61(16)
C13 C3 C4 C5 5.0(2)
C14 N1 C5 C4 -12.0(2)
C14 N1 C6 C7 155.10(12)
C14 N1 C6 C15 -22.75(18)
C14 N2 C16 O1 -171.49(13)
C14 N2 C16 C15 12.42(19)
C15 C6 C7 C8 145.33(16)
C15 C6 C7 C18 -32.2(2)
C16 N2 C14 N1 -48.52(17)
C16 N2 C14 C13 -173.43(13)
C18 C7 C8 C9 1.3(2)
