#------------------------------------------------------------------------------
#$Date: 2019-11-04 14:17:27 +0200 (Mon, 04 Nov 2019) $
#$Revision: 222991 $
#$URL: file:///home/coder/svn-repositories/cod/cif/4/03/44/4034473.cif $
#------------------------------------------------------------------------------
#
# This file is available in the Crystallography Open Database (COD),
# http://www.crystallography.net/
#
# All data on this site have been placed in the public domain by the
# contributors.
#
data_4034473
loop_
_publ_author_name
'Liu, Zhongsu'
'Zhang, Wenjing'
'Guo, Shan'
'Zhu, Jin'
_publ_section_title
;
 Spiro[indene-1,4'-oxa-zolidinones] Synthesis via Rh(III)-Catalyzed
 Coupling of 4-Phenyl-1,3-oxazol-2(3<i>H</i>)-ones with Alkynes: A
 Redox-Neutral Approach.
;
_journal_issue                   18
_journal_name_full               'The Journal of organic chemistry'
_journal_page_first              11945
_journal_page_last               11957
_journal_paper_doi               10.1021/acs.joc.9b01804
_journal_volume                  84
_journal_year                    2019
_chemical_formula_sum            'C18 H14 Cl N O2'
_chemical_formula_weight         311.75
_space_group_crystal_system      triclinic
_space_group_IT_number           2
_space_group_name_Hall           '-P 1'
_space_group_name_H-M_alt        'P -1'
_atom_sites_solution_hydrogens   geom
_audit_creation_method           SHELXL-2016/6
_cell_angle_alpha                86.145(16)
_cell_angle_beta                 86.215(10)
_cell_angle_gamma                68.042(9)
_cell_formula_units_Z            2
_cell_length_a                   8.7578(9)
_cell_length_b                   9.4458(14)
_cell_length_c                   10.0094(13)
_cell_measurement_reflns_used    8053
_cell_measurement_temperature    173(2)
_cell_measurement_theta_max      68.23
_cell_measurement_theta_min      4.43
_cell_volume                     765.47(18)
_computing_structure_refinement  'SHELXL-2016/6 (Sheldrick, 2016)'
_computing_structure_solution    'SHELXT 2014/5 (Sheldrick, 2014)'
_diffrn_ambient_temperature      173(2)
_diffrn_measured_fraction_theta_full 0.990
_diffrn_measured_fraction_theta_max 0.983
_diffrn_measurement_device_type  'Bruker APEX-II CCD'
_diffrn_measurement_method       '\f and \w scans'
_diffrn_radiation_type           CuK\a
_diffrn_radiation_wavelength     1.54178
_diffrn_reflns_av_R_equivalents  0.0250
_diffrn_reflns_av_unetI/netI     0.0226
_diffrn_reflns_Laue_measured_fraction_full 0.990
_diffrn_reflns_Laue_measured_fraction_max 0.983
_diffrn_reflns_limit_h_max       10
_diffrn_reflns_limit_h_min       -10
_diffrn_reflns_limit_k_max       11
_diffrn_reflns_limit_k_min       -11
_diffrn_reflns_limit_l_max       12
_diffrn_reflns_limit_l_min       -11
_diffrn_reflns_number            9271
_diffrn_reflns_point_group_measured_fraction_full 0.990
_diffrn_reflns_point_group_measured_fraction_max 0.983
_diffrn_reflns_theta_full        67.679
_diffrn_reflns_theta_max         68.514
_diffrn_reflns_theta_min         4.431
_exptl_absorpt_coefficient_mu    2.260
_exptl_crystal_colour            colorless
_exptl_crystal_density_diffrn    1.353
_exptl_crystal_description       block
_exptl_crystal_F_000             324
_exptl_crystal_size_max          0.240
_exptl_crystal_size_mid          0.220
_exptl_crystal_size_min          0.200
_exptl_transmission_factor_max   0.7531
_exptl_transmission_factor_min   0.5615
_refine_diff_density_max         0.426
_refine_diff_density_min         -0.422
_refine_diff_density_rms         0.038
_refine_ls_extinction_method     none
_refine_ls_goodness_of_fit_ref   1.044
_refine_ls_hydrogen_treatment    constr
_refine_ls_matrix_type           full
_refine_ls_number_parameters     200
_refine_ls_number_reflns         2773
_refine_ls_number_restraints     0
_refine_ls_restrained_S_all      1.044
_refine_ls_R_factor_all          0.0367
_refine_ls_R_factor_gt           0.0354
_refine_ls_shift/su_max          0.000
_refine_ls_shift/su_mean         0.000
_refine_ls_structure_factor_coef Fsqd
_refine_ls_weighting_details
'w=1/[\s^2^(Fo^2^)+(0.0518P)^2^+0.2911P] where P=(Fo^2^+2Fc^2^)/3'
_refine_ls_weighting_scheme      calc
_refine_ls_wR_factor_gt          0.0966
_refine_ls_wR_factor_ref         0.0980
_reflns_Friedel_coverage         0.000
_reflns_number_gt                2645
_reflns_number_total             2773
_reflns_threshold_expression     'I > 2\s(I)'
_cod_data_source_file            jo9b01804_si_002.cif
_cod_data_source_block           t_a
_cod_database_code               4034473
_shelx_shelxl_version_number     2016/6
_shelx_space_group_comment
;
The symmetry employed for this shelxl refinement is uniquely defined
by the following loop, which should always be used as a source of
symmetry information in preference to the above space-group names.
They are only intended as comments.
;
_shelx_estimated_absorpt_t_min   0.613
_shelx_estimated_absorpt_t_max   0.661
_shelx_res_file
;
TITL t_a.res in P-1
    t_a.res
    created by SHELXL-2016/6 at 18:31:11 on 26-Apr-2019
REM Old TITL t in P-1
REM SHELXT solution in P-1
REM R1 0.134,  Rweak 0.007,  Alpha 0.034,  Orientation as input
REM Formula found by SHELXT:  C18 N O2 Cl
CELL  1.54178   8.7578   9.4458  10.0094   86.145   86.215   68.042
ZERR   2.000   0.0009   0.0014   0.0013    0.016    0.010    0.009
LATT  1
SFAC C H N O CL
UNIT 36 28 2 4 2
ACTA
SIZE 0.24 0.22 0.20
CONF
TEMP -100.150
L.S. 10
BOND $H
LIST 6
FMAP 2
PLAN 20
WGHT    0.051800    0.291100
FVAR       1.83639
CL1   5    0.158628    0.884850    0.265165    11.00000    0.05088    0.04858 =
         0.03206    0.01629   -0.00599   -0.01888
C1    1    0.267775    0.481482    0.761299    11.00000    0.03562    0.03440 =
         0.01974   -0.00039    0.00004   -0.01752
N1    3    0.157338    0.525155    0.879879    11.00000    0.03343    0.03725 =
         0.01869   -0.00047   -0.00152   -0.01264
AFIX  43
H1    2    0.052011    0.583089    0.877654    11.00000   -1.20000
AFIX   0
O1    4    0.401692    0.411894    0.967267    11.00000    0.03654    0.04446 =
         0.02181    0.00407   -0.00439   -0.01978
O2    4    0.178716    0.458259    1.106250    11.00000    0.04401    0.05260 =
         0.01837    0.00073   -0.00116   -0.02119
C2    1    0.263303    0.343713    0.691156    11.00000    0.03350    0.03269 =
         0.02399   -0.00055    0.00053   -0.01644
C4    1    0.227945    0.535693    0.529165    11.00000    0.03148    0.03543 =
         0.02161   -0.00080    0.00146   -0.01519
C3    1    0.245824    0.375136    0.559118    11.00000    0.03641    0.03393 =
         0.02328   -0.00264    0.00176   -0.01669
C6    1    0.219127    0.751941    0.651127    11.00000    0.05141    0.03846 =
         0.02744   -0.00230   -0.00393   -0.02316
AFIX  43
H6    2    0.224170    0.795329    0.732855    11.00000   -1.20000
AFIX   0
C5    1    0.236153    0.601350    0.648446    11.00000    0.03513    0.03454 =
         0.02137    0.00125   -0.00116   -0.01777
C9    1    0.203806    0.620837    0.408923    11.00000    0.03560    0.04002 =
         0.02084    0.00035    0.00046   -0.01674
AFIX  43
H9    2    0.198120    0.577808    0.327172    11.00000   -1.20000
AFIX   0
C8    1    0.188295    0.772338    0.413641    11.00000    0.03471    0.04015 =
         0.02643    0.00850   -0.00162   -0.01612
C7    1    0.194312    0.839174    0.531009    11.00000    0.05000    0.03460 =
         0.03606    0.00424   -0.00429   -0.02107
AFIX  43
H7    2    0.181630    0.943631    0.529663    11.00000   -1.20000
AFIX   0
C10   1    0.433402    0.446854    0.827815    11.00000    0.03903    0.04465 =
         0.02119    0.00209   -0.00163   -0.02225
AFIX  23
H10A  2    0.521841    0.358789    0.787091    11.00000   -1.20000
H10B  2    0.466355    0.536632    0.818151    11.00000   -1.20000
AFIX   0
C11   1    0.237072    0.465538    0.993197    11.00000    0.03760    0.03407 =
         0.02216   -0.00101   -0.00331   -0.01742
C12   1    0.242278    0.271315    0.453369    11.00000    0.06368    0.04073 =
         0.02710   -0.00591   -0.00046   -0.02377
AFIX 137
H12A  2    0.138041    0.316158    0.407824    11.00000   -1.50000
H12B  2    0.252111    0.171617    0.495162    11.00000   -1.50000
H12C  2    0.334365    0.258338    0.388027    11.00000   -1.50000
AFIX   0
C13   1    0.286839    0.198395    0.768991    11.00000    0.03955    0.03429 =
         0.02260    0.00064   -0.00520   -0.01923
C14   1    0.167275    0.190366    0.864780    11.00000    0.03716    0.03877 =
         0.03220    0.00522   -0.00348   -0.01771
AFIX  43
H14   2    0.067166    0.275891    0.875570    11.00000   -1.20000
AFIX   0
C15   1    0.193430    0.058402    0.944445    11.00000    0.04815    0.04629 =
         0.03331    0.00977   -0.00486   -0.02610
AFIX  43
H15   2    0.110955    0.053775    1.009265    11.00000   -1.20000
AFIX   0
C16   1    0.339123   -0.066796    0.930116    11.00000    0.06003    0.03647 =
         0.03023    0.00635   -0.01286   -0.02290
AFIX  43
H16   2    0.357345   -0.156377    0.986097    11.00000   -1.20000
AFIX   0
C17   1    0.457749   -0.061205    0.834410    11.00000    0.05273    0.03276 =
         0.03604   -0.00275   -0.00940   -0.01154
AFIX  43
H17   2    0.557087   -0.147569    0.823715    11.00000   -1.20000
AFIX   0
C18   1    0.432389    0.070225    0.753704    11.00000    0.04374    0.03848 =
         0.03028   -0.00448    0.00038   -0.01656
AFIX  43
H18   2    0.514318    0.073224    0.687676    11.00000   -1.20000
AFIX   0
HKLF 4




REM  t_a.res in P-1
REM R1 =  0.0354 for    2645 Fo > 4sig(Fo)  and  0.0367 for all    2773 data
REM    200 parameters refined using      0 restraints

END

WGHT      0.0464      0.3035

REM Highest difference peak  0.426,  deepest hole -0.422,  1-sigma level  0.038
Q1    1   0.0479  0.5155  0.8779  11.00000  0.05    0.43
Q2    1   0.2597  0.5469  0.7138  11.00000  0.05    0.24
Q3    1   0.3505  0.4618  0.7861  11.00000  0.05    0.22
Q4    1   0.2054  0.3677  0.6292  11.00000  0.05    0.22
Q5    1   0.2706  0.4019  0.7299  11.00000  0.05    0.21
Q6    1   0.2744  0.2731  0.7309  11.00000  0.05    0.20
Q7    1   0.3081  0.3395  0.6201  11.00000  0.05    0.19
Q8    1   0.2007  0.5787  0.5928  11.00000  0.05    0.19
Q9    1   0.2015  0.8174  0.3498  11.00000  0.05    0.18
Q10   1   0.2307  0.3156  0.3685  11.00000  0.05    0.17
Q11   1   0.1764  0.5838  0.4796  11.00000  0.05    0.17
Q12   1   0.2437  0.5647  0.5859  11.00000  0.05    0.17
Q13   1   0.3486  0.1383  0.7590  11.00000  0.05    0.17
Q14   1   0.2033  0.5105  0.8168  11.00000  0.05    0.16
Q15   1   0.1470  0.8138  0.4714  11.00000  0.05    0.16
Q16   1   0.2308  0.4555  0.5366  11.00000  0.05    0.15
Q17   1   0.2464  0.5622  0.4755  11.00000  0.05    0.15
Q18   1   0.1926  0.6758  0.6557  11.00000  0.05    0.15
Q19   1   0.1832  0.8044  0.5846  11.00000  0.05    0.15
Q20   1   0.2128  0.1853  0.7948  11.00000  0.05    0.15
;
_shelx_res_checksum              24012
_shelx_hkl_file
;
  -1   0   0   32.60    1.30
  -1   0   0   36.50    1.50
  -1   0   0   31.40    1.40
  -1   0   0   35.50    1.50
  -1   0   0   36.80    1.30
   1   0   0   37.70    1.40
   1   0   0   28.70    1.40
   1   0   0   33.70    1.40
   1   0   0   32.70    1.30
  -4   0   0  837.72   27.90
   4   0   0  862.21   27.60
  -5   0   0 4413.46  132.19
  -5   0   0 4203.48  129.59
   5   0   0 4031.40  128.59
   5   0   0 4112.99  128.99
  -6   0   0    3.10    1.40
  -6   0   0    3.90    1.20
  -6   0   0    4.70    2.80
  -6   0   0    3.80    1.40
   6   0   0    3.50    1.20
  -7   0   0  109.09    6.10
  -7   0   0  119.19    6.50
   7   0   0  118.29    6.40
   7   0   0  116.49    6.60
  -8   0   0   79.19    4.80
  -8   0   0   68.79    3.80
   8   0   0   83.39    5.00
  -9   0   0   66.69    4.00
   9   0   0   66.19    4.00
   9  -1   0    1.30    0.80
  -9   1   0    1.20    0.90
   8  -1   0   26.10    2.80
  -8   1   0   21.00    2.30
   7  -1   0  115.69    6.50
   7  -1   0  120.89    7.00
  -7   1   0  115.09    6.10
  -7   1   0  109.19    8.20
  -7   1   0   99.49    5.40
   6  -1   0  445.86   16.80
  -6   1   0  449.26   20.20
  -6   1   0  437.06   16.50
  -6   1   0  443.96   16.90
  -6   1   0  441.46   18.10
   5  -1   0   79.19    4.80
   5  -1   0   79.29    4.60
  -5   1   0   80.19    4.70
  -5   1   0   82.09    4.90
  -5   1   0   76.09    5.00
   4  -1   0   67.19    3.80
   4  -1   0   71.29    4.10
  -4   1   0   69.09    4.20
   3  -1   0   10.50    1.30
  -3   1   0   10.30    1.40
   2  -1   0   21.40    1.50
  -2   1   0   22.60    1.60
   1  -1   0   93.59    3.60
  -1   1   0   91.79    3.70
  -1   1   0   95.79    3.50
   0  -1   0 3578.64  109.99
  -1  -1   0    9.60    0.90
   1   1   0    9.90    0.60
  -3  -1   0   40.20    2.20
  -3  -1   0   36.90    2.10
  -4  -1   0 6707.13  201.88
  -4  -1   0 6550.25  201.48
  -5  -1   0 2728.63   83.79
   5   1   0 2760.42   83.79
   5   1   0 2579.54   83.49
  -6  -1   0 3212.68  103.89
  -6  -1   0 3390.06  103.59
  -6  -1   0 3350.56  103.49
  -6  -1   0 3227.28  103.69
   6   1   0 3435.06  103.59
   6   1   0 3311.77  103.29
  -7  -1   0  757.22   26.70
  -7  -1   0  733.33   26.40
  -7  -1   0  793.62   26.50
   7   1   0  748.23   26.30
   7   1   0  779.32   26.70
  -8  -1   0  548.15   20.50
  -8  -1   0  615.74   21.60
   8   1   0  624.64   21.50
  -9  -1   0   15.40    2.10
  -9  -1   0   10.50    1.10
  10   1   0    5.30    1.00
   8  -2   0  103.39    5.70
  -8   2   0  108.09    5.20
   7  -2   0   22.20    2.80
  -7   2   0   13.80    3.60
  -7   2   0   20.90    2.30
   6  -2   0    1.30    1.00
  -6   2   0    2.10    2.50
  -6   2   0    4.30    1.40
  -6   2   0    2.30    1.20
  -6   2   0    5.00    2.00
   5  -2   0  539.45   20.30
   5  -2   0  519.55   19.00
  -5   2   0  518.05   19.30
  -5   2   0  511.65   20.50
  -5   2   0  537.05   23.40
  -5   2   0  494.35   18.40
   4  -2   0   80.29    4.50
   4  -2   0   87.79    5.30
  -4   2   0   81.99    5.30
   3  -2   0 1217.78   39.40
  -3   2   0 1198.18   39.50
   2  -2   0  124.79    5.60
  -2   2   0  128.39    5.80
   0   2   0 6390.46  193.08
  -1  -2   0 1516.95   45.80
   1   2   0 1426.46   44.80
  -2  -2   0  364.46   12.20
  -2  -2   0  341.67   10.70
   2   2   0  332.97   11.10
  -3  -2   0  217.18    8.10
   3   2   0  194.48    7.20
  -4  -2   0 1438.66   43.80
   4   2   0 1304.57   42.90
  -5  -2   0    3.30    1.00
   5   2   0    2.10    0.80
   5   2   0    3.90    0.90
  -6  -2   0   93.29    5.40
  -6  -2   0   98.79    5.40
   6   2   0   99.29    5.20
   6   2   0  114.09    5.50
  -7  -2   0   75.79    4.90
  -7  -2   0   78.69    4.70
  -7  -2   0   74.99    5.00
   7   2   0   71.09    4.60
   7   2   0   74.59    4.60
  -8  -2   0  235.48    9.60
  -8  -2   0  210.08    9.70
  -8  -2   0  213.68    9.70
   8   2   0  219.18    9.80
   8   2   0  233.78    9.70
  -9  -2   0  114.29    5.70
  -9  -2   0   98.39    4.90
   9   2   0  122.29    5.70
 -10  -2   0  181.38    7.20
  10   2   0  184.98    7.20
   8  -3   0   22.90    2.20
   7  -3   0  285.97   12.30
  -7   3   0  285.27   15.10
  -7   3   0  297.57   11.20
   6  -3   0   61.99    4.70
  -6   3   0   62.79    6.90
  -6   3   0   57.09    3.50
  -6   3   0   69.39    6.60
  -6   3   0   62.59    4.00
   5  -3   0   38.50    4.80
   5  -3   0   39.00    3.60
  -5   3   0   37.80    5.80
  -5   3   0   33.20    4.10
  -5   3   0   40.40    3.60
  -5   3   0   45.90    3.20
   4  -3   0   18.50    2.30
   4  -3   0   17.90    2.70
  -4   3   0   18.50    2.90
  -4   3   0   19.40    2.20
  -4   3   0   14.70    3.80
  -4   3   0   14.40    2.50
   3  -3   0 1927.61   65.29
   3  -3   0 2136.39   67.29
  -3   3   0 2209.58   67.59
   2  -3   0   13.60    1.80
   1  -3   0 2241.08   69.09
   1  -3   0 2274.87   69.99
  -1   3   0 2280.27   68.69
  -1   3   0 2200.98   70.19
   0   3   0 6688.13  197.58
   0   3   0 6341.17  196.88
  -1  -3   0  393.06   13.20
   1   3   0  362.26   12.10
  -3  -3   0 1561.04   48.30
   3   3   0 1461.55   46.60
   4   3   0 1711.93   54.69
   4   3   0 1812.02   54.59
  -5  -3   0 2371.76   73.29
   5   3   0 2321.17   71.69
   5   3   0 2240.48   71.69
  -6  -3   0 2027.50   63.69
  -6  -3   0 1821.62   62.49
  -6  -3   0 2020.90   62.89
   6   3   0 2013.70   62.59
   6   3   0 2049.99   62.59
  -7  -3   0   -0.80    0.70
  -7  -3   0    1.10    1.30
  -7  -3   0    1.90    1.10
   7   3   0   -0.30    0.70
   7   3   0    0.90    0.80
  -8  -3   0  100.19    5.40
  -8  -3   0   98.59    6.00
  -8  -3   0   99.59    5.30
   8   3   0  101.79    5.40
   8   3   0  100.39    5.70
  -9  -3   0  774.42   26.70
  -9  -3   0  820.02   26.80
   9   3   0  812.62   26.80
  10   3   0    1.10    0.60
   7  -4   0   65.59    4.10
  -7   4   0   55.89    5.20
   6  -4   0   20.50    2.70
  -6   4   0   16.30    4.40
  -6   4   0   16.40    2.10
   5  -4   0    3.70    1.40
   5  -4   0    1.50    3.30
  -5   4   0    6.10    2.90
  -5   4   0    4.40    1.50
  -5   4   0    2.40    2.30
  -5   4   0    3.40    1.40
   4  -4   0  138.09    8.80
   4  -4   0  134.69    7.20
  -4   4   0  146.69    6.50
  -4   4   0  132.39   10.60
  -4   4   0  132.59    7.40
  -4   4   0  147.09    9.00
   3  -4   0   91.29    5.00
   3  -4   0   92.09    6.20
  -3   4   0   89.89    4.60
  -3   4   0   87.19    5.70
  -3   4   0   96.39    6.50
  -3   4   0   88.59    7.70
   2  -4   0  350.46   13.60
   2  -4   0  327.17   11.90
  -2   4   0  304.37   13.30
   1  -4   0   27.30    2.40
   1  -4   0   28.70    2.00
  -1   4   0   26.10    2.50
   0  -4   0  208.38    8.20
   0  -4   0  213.28    8.30
  -1  -4   0  162.48    6.50
  -1  -4   0  179.38    7.10
   1   4   0  149.69    5.30
   1   4   0  165.58    6.00
  -2  -4   0 2140.69   66.69
   2   4   0 2103.29   64.99
  -3  -4   0 2042.90   64.39
   3   4   0 2017.80   62.39
  -4  -4   0  726.73   24.70
   4   4   0  663.83   22.30
   4   4   0  692.83   22.40
  -5  -4   0  455.05   17.60
   5   4   0  434.26   15.20
   5   4   0  452.55   15.30
  -6  -4   0  653.13   23.80
  -6  -4   0  654.73   21.90
   6   4   0  639.94   21.30
   6   4   0  570.74   24.70
   6   4   0  625.54   21.20
  -7  -4   0    5.70    1.50
  -7  -4   0    5.90    1.40
   7   4   0    3.90    1.00
   7   4   0    5.40    1.40
  -8  -4   0  111.89    5.80
  -8  -4   0  108.69    6.60
  -8  -4   0  111.89    5.30
   8   4   0  121.29    5.80
   8   4   0  112.19    5.80
  -9  -4   0   40.50    3.60
  -9  -4   0   39.60    2.70
  -9  -4   0   39.60    3.00
   9   4   0   41.50    2.90
 -10  -4   0    2.00    0.70
  10   4   0    2.90    0.80
   7  -5   0   13.60    1.50
   6  -5   0   40.00    3.30
  -6   5   0   40.70    5.20
   5  -5   0    4.30    1.30
  -5   5   0    3.60    1.30
   4  -5   0   35.30    4.80
   4  -5   0   36.80    3.50
  -4   5   0   39.80    3.10
  -4   5   0   50.79    6.40
  -4   5   0   41.10    5.20
  -4   5   0   37.60    3.40
   3  -5   0  423.16   16.10
   3  -5   0  425.36   18.30
  -3   5   0  415.06   15.10
  -3   5   0  434.66   18.50
  -3   5   0  449.46   21.50
  -3   5   0  425.36   17.10
   2  -5   0   50.19    4.20
   2  -5   0   51.29    3.30
  -2   5   0   50.09    4.40
  -2   5   0   43.60    5.10
  -2   5   0   48.70    4.10
   1  -5   0    1.30    0.60
   1  -5   0    0.30    0.70
   1  -5   0    0.40    0.60
  -1   5   0   -0.40    0.90
   0  -5   0  150.18    6.90
   0  -5   0  144.29    6.60
   0  -5   0  145.49    6.00
   0   5   0  149.19    7.10
  -1  -5   0  803.72   26.10
  -1  -5   0  747.73   25.20
  -1  -5   0  796.22   26.50
   1   5   0  782.32   25.10
  -2  -5   0  269.07    9.70
  -2  -5   0  276.57   10.20
  -2  -5   0  272.57   11.00
   2   5   0  258.67    8.80
   2   5   0  273.77    9.60
  -3  -5   0   56.49    4.00
  -3  -5   0   55.39    3.00
  -3  -5   0   50.09    3.00
   3   5   0   51.29    2.60
   3   5   0   52.09    2.70
  -4  -5   0 2013.60   62.39
  -4  -5   0 1889.51   62.29
  -4  -5   0 2132.59   65.09
   4   5   0 1969.90   61.89
   4   5   0 2012.30   61.99
  -5  -5   0  393.96   13.30
  -5  -5   0  366.76   13.50
  -5  -5   0  423.76   16.50
  -5  -5   0  382.46   14.20
   5   5   0  366.46   13.30
   5   5   0  387.06   14.80
   5   5   0  395.66   13.50
  -6  -5   0  637.64   22.00
  -6  -5   0  620.84   24.60
   6   5   0  642.24   21.40
   6   5   0  660.03   23.00
   6   5   0  626.14   21.30
  -7  -5   0  380.66   14.60
  -7  -5   0  373.26   17.00
   7   5   0  391.06   14.30
   7   5   0  390.56   15.60
   7   5   0  402.06   14.10
  -8  -5   0  162.48    7.50
   8   5   0  153.78    7.20
   8   5   0  159.18    7.00
  -9  -5   0  228.68    9.60
  -9  -5   0  236.98   10.60
   9   5   0  235.68    9.00
 -10  -5   0  234.08    8.80
 -10  -5   0  218.48    8.50
  10   5   0  238.08    8.30
   6  -6   0   14.60    1.60
  -6   6   0   12.70    2.30
   5  -6   0  450.15   16.50
  -5   6   0  424.56   20.40
   4  -6   0    9.50    1.90
  -4   6   0    5.30    2.60
   3  -6   0   61.69    5.60
   3  -6   0   64.19    4.40
  -3   6   0   64.19    5.90
  -3   6   0   63.99    4.60
  -3   6   0   67.99    7.20
   2  -6   0  100.39    5.50
   2  -6   0   98.89    6.90
  -2   6   0   99.29    6.10
  -2   6   0  114.19    7.50
  -2   6   0  114.09    9.00
   1  -6   0  546.25   21.20
   1  -6   0  533.95   19.30
  -1   6   0  550.54   23.60
  -1   6   0  572.14   21.50
  -1   6   0  577.94   20.50
   0  -6   0  646.14   23.30
   0  -6   0  646.64   22.40
   0  -6   0  675.13   23.90
   0   6   0  695.43   23.30
   0   6   0  675.63   24.10
  -1  -6   0   35.60    2.50
  -1  -6   0   37.70    3.20
  -1  -6   0   38.30    3.00
  -2  -6   0 1265.87   41.20
  -2  -6   0 1228.18   40.30
  -2  -6   0 1271.17   42.10
   2   6   0 1238.88   40.10
   2   6   0 1332.27   41.00
  -3  -6   0   23.80    2.00
  -3  -6   0   24.30    2.80
  -3  -6   0   23.90    2.20
   3   6   0   20.90    1.50
   3   6   0   24.30    2.00
  -4  -6   0  225.78    9.10
  -4  -6   0  245.78   11.20
  -4  -6   0  221.48    9.60
  -4  -6   0  223.58    8.90
   4   6   0  229.98    8.70
   4   6   0  229.58    9.90
   4   6   0  227.08    8.40
  -5  -6   0    5.90    1.20
  -5  -6   0    5.70    1.40
  -5  -6   0    5.90    1.40
   5   6   0    6.50    1.10
   5   6   0    4.30    1.40
   5   6   0    6.30    1.30
  -6  -6   0  312.87   14.80
  -6  -6   0  314.17   12.40
   6   6   0  305.57   11.20
   6   6   0  295.17   13.00
   6   6   0  312.47   11.50
  -7  -6   0    5.80    2.30
  -7  -6   0    4.10    1.10
   7   6   0    5.70    1.20
   7   6   0    3.30    1.10
   7   6   0    5.70    1.70
  -8  -6   0  232.58   10.20
   8   6   0  253.37    9.30
   8   6   0  232.98   10.70
  -9  -6   0  256.87   11.60
  -9  -6   0  236.08   10.20
   9   6   0  269.17    9.40
 -10  -6   0   16.50    2.00
 -10  -6   0   15.00    1.40
  10   6   0   13.10    1.60
   5  -7   0    0.00    0.60
  -5   7   0    0.50    1.20
   4  -7   0  296.47   11.60
  -4   7   0  275.37   15.00
   3  -7   0   94.99    5.50
  -3   7   0   95.29    4.60
   2  -7   0  654.73   23.50
   2  -7   0  650.03   26.20
  -2   7   0  652.93   26.20
  -2   7   0  691.53   28.80
  -2   7   0  679.13   24.00
   1  -7   0 1046.80   37.80
   1  -7   0 1074.89   35.50
  -1   7   0 1058.09   40.50
  -1   7   0 1047.80   37.80
  -1   7   0 1109.69   36.50
   0  -7   0  355.06   15.30
   0  -7   0  361.16   13.60
   0   7   0  351.76   17.30
   0   7   0  360.36   14.30
   0   7   0  369.66   15.50
  -1  -7   0  857.21   28.30
  -1  -7   0  803.72   29.60
  -1  -7   0  827.42   29.70
   1   7   0  874.21   30.00
   1   7   0  868.81   29.00
  -2  -7   0  185.38    8.70
  -2  -7   0  178.18    7.80
  -2  -7   0  181.38    9.20
   2   7   0  182.58    7.70
   2   7   0  204.48    8.70
   2   7   0  186.48    8.90
  -3  -7   0  402.56   16.50
  -3  -7   0  385.46   14.70
  -3  -7   0  391.36   15.10
  -3  -7   0  389.86   14.30
   3   7   0  402.06   15.10
   3   7   0  404.46   14.20
  -4  -7   0   37.40    3.20
  -4  -7   0   39.40    3.10
  -4  -7   0   40.50    2.90
  -4  -7   0   40.30    4.00
   4   7   0   43.20    3.60
   4   7   0   39.00    3.00
  -5  -7   0  279.87   10.70
  -5  -7   0  282.57   13.50
  -5  -7   0  274.07   11.50
  -5  -7   0  269.67   11.10
   5   7   0  278.47   11.90
   5   7   0  286.97   10.10
   5   7   0  266.77   10.80
  -6  -7   0   -0.30    1.30
  -6  -7   0    4.00    1.20
   6   7   0    4.10    1.20
   6   7   0    1.30    1.50
   6   7   0    1.20    1.00
  -7  -7   0  155.68   10.30
  -7  -7   0  165.08    8.00
   7   7   0  169.98    8.50
   7   7   0  161.38    7.40
   7   7   0  170.78    6.70
  -8  -7   0   44.90    3.40
   8   7   0   48.40    3.90
   8   7   0   49.80    2.90
  -9  -7   0    3.60    1.50
  -9  -7   0    2.90    0.90
   9   7   0    0.40    1.30
   9   7   0    2.60    1.50
 -10  -7   0   77.69    3.50
 -10  -7   0   72.49    4.10
   4  -8   0    4.60    1.00
  -4   8   0    1.80    1.30
   3  -8   0    4.80    1.20
  -3   8   0   -1.00    1.30
   2  -8   0   55.89    4.00
  -2   8   0   54.29    3.40
   1  -8   0  177.98    8.30
  -1   8   0  176.68   11.50
  -1   8   0  176.28    8.40
   0  -8   0    5.60    1.70
   0  -8   0    2.00    0.90
   0   8   0    1.90    2.00
   0   8   0    3.10    1.30
   0   8   0    2.20    1.60
  -1  -8   0  451.25   19.10
  -1  -8   0  481.85   17.40
   1   8   0  474.25   21.30
   1   8   0  481.15   19.50
   1   8   0  487.25   18.30
  -2  -8   0  550.54   22.50
  -2  -8   0  575.64   22.20
  -2  -8   0  594.14   20.60
   2   8   0  601.24   21.50
   2   8   0  597.04   22.40
  -3  -8   0  756.92   27.40
  -3  -8   0  787.12   26.10
  -3  -8   0  768.42   26.60
  -3  -8   0  758.22   28.70
   3   8   0  759.52   27.40
  -4  -8   0  162.88    8.50
  -4  -8   0  177.08    8.10
  -4  -8   0  179.88    7.80
  -4  -8   0  169.98    9.90
   4   8   0  185.68    9.00
   4   8   0  170.28    7.80
   4   8   0  185.18    8.80
  -5  -8   0  457.05   16.40
  -5  -8   0  449.06   19.70
  -5  -8   0  476.05   17.30
   5   8   0  485.55   17.90
   5   8   0  439.66   16.60
  -6  -8   0   16.90    2.10
  -6  -8   0   18.30    3.30
   6   8   0   17.60    2.40
   6   8   0   13.40    2.50
  -7  -8   0   94.79    5.20
   7   8   0   80.49    5.30
  -8  -8   0  106.59    5.40
   8   8   0  106.89    5.80
  -9  -8   0   10.30    1.30
  -9  -8   0    9.90    2.00
   9   8   0   11.40    1.80
   2  -9   0   28.80    2.50
  -2   9   0   20.30    3.40
   1  -9   0    9.50    1.50
  -1   9   0    6.40    1.30
  -1   9   0    2.90    1.80
   0  -9   0    7.70    1.60
   0   9   0    6.70    2.60
   0   9   0    5.20    1.40
  -1  -9   0  243.68   10.00
   1   9   0  227.78   13.10
   1   9   0  222.48   10.40
  -2  -9   0   58.19    3.80
   2   9   0   46.10    4.00
   2   9   0   49.40    5.40
  -3  -9   0    5.00    1.80
  -3  -9   0    4.40    1.10
   3   9   0    3.00    2.10
   3   9   0    2.60    1.30
  -4  -9   0  713.93   24.70
  -4  -9   0  732.83   25.50
   4   9   0  737.13   26.10
  -5  -9   0  200.38    8.70
  -5  -9   0  182.78    7.90
   5   9   0  205.78    9.50
  -6  -9   0  190.38    8.20
   6   9   0  177.28    8.70
  -7  -9   0  518.35   18.20
   7   9   0  509.95   18.90
  -8  -9   0   40.10    2.70
   8   9   0   40.50    3.10
  -9  -9   0  399.16   13.20
  -9  -9   0  413.76   14.30
   9   9   0  327.67   17.20
   1 -10   0   20.20    1.80
  -1  10   0   13.90    2.60
   0 -10   0   20.50    2.10
   0  10   0   17.90    3.40
  -1 -10   0  206.88    8.40
   1  10   0  189.88   10.60
   1  10   0  183.08    8.30
  -2 -10   0  121.89    5.80
   2  10   0  114.29    6.30
   2  10   0  111.09    7.70
  -3 -10   0   24.70    2.30
   3  10   0   25.40    2.80
   3  10   0   23.80    3.60
  -4 -10   0  243.38   10.00
  -4 -10   0  229.68    9.00
   4  10   0  219.28   10.10
  -5 -10   0   19.20    2.40
   5  10   0   24.00    2.70
  -6 -10   0    2.80    0.90
   6  10   0    2.40    1.00
  -7 -10   0   79.09    4.10
   7  10   0   73.39    4.50
  -8 -10   0  161.18    6.30
  -8 -10   0  159.98    6.90
   8  10   0  142.59    6.50
  -2 -11   0    4.00    1.00
   2  11   0    4.50    1.10
   2  11   0    6.50    2.00
  -3 -11   0   17.20    1.90
   3  11   0   14.30    1.80
   4  11   0   26.10    2.30
  -5 -11   0   35.60    3.10
   5  11   0   44.10    3.10
  -6 -11   0   11.80    1.50
   6  11   0   11.70    1.50
   5  11  -1    0.30    0.60
   4  11  -1   15.90    1.80
   3  11  -1    3.10    0.90
  -3 -11   1    5.60    1.00
  -2 -11   1  116.59    4.90
   7  10  -1    6.40    1.40
  -7 -10   1    6.00    1.10
   6  10  -1  116.99    6.10
  -6 -10   1  123.89    5.70
   5  10  -1    0.50    0.80
  -5 -10   1    0.80    1.10
  -5 -10   1    0.90    1.10
   4  10  -1   11.20    1.80
  -4 -10   1   10.90    1.60
   3  10  -1  105.89    5.90
  -3 -10   1  113.99    5.50
   2  10  -1   61.69    4.10
   2  10  -1   59.39    5.30
  -2 -10   1   73.89    4.10
   1  10  -1    3.40    1.00
   1  10  -1    1.80    1.70
  -1 -10   1    2.90    1.00
   0  10  -1   48.10    4.60
   0 -10   1   54.89    3.30
  -1  10  -1   16.50    2.60
   1 -10   1   25.20    2.00
   8   9  -1  188.28    8.40
  -8  -9   1  217.38    8.20
   7   9  -1   46.20    3.70
  -7  -9   1   48.30    3.20
   6   9  -1  117.79    6.50
  -6  -9   1  121.09    5.90
   5   9  -1   60.09    4.40
  -5  -9   1   60.99    4.00
  -5  -9   1   65.09    3.70
   4   9  -1  100.19    5.90
  -4  -9   1   91.59    4.90
  -4  -9   1   92.09    5.40
   3   9  -1    1.70    2.50
   3   9  -1    6.60    1.60
   2   9  -1   32.90    3.20
   2   9  -1   29.00    4.40
  -2  -9   1   37.60    3.00
   1   9  -1  210.28   12.50
   1   9  -1  219.08    9.70
  -1  -9   1  227.08    9.40
   0   9  -1   11.50    1.90
   0   9  -1    9.60    2.70
  -1   9  -1   57.99    6.10
   1  -9   1   67.99    4.10
  -2   9  -1   77.79    6.40
   2  -9   1   93.19    4.70
   9   8  -1   43.50    2.90
  -9  -8   1   45.10    2.80
  -9  -8   1   46.30    3.60
   8   8  -1  119.19    6.30
  -8  -8   1  128.39    6.10
   7   8  -1  946.41   32.30
  -7  -8   1  937.61   31.70
   6   8  -1  290.17   12.80
  -6  -8   1  312.77   12.30
   5   8  -1  387.46   14.50
   5   8  -1  427.76   15.90
  -5  -8   1  391.16   14.30
  -5  -8   1  369.76   17.10
  -5  -8   1  390.86   15.00
   4   8  -1  201.08    8.30
   4   8  -1  190.68    9.00
  -4  -8   1  192.48    8.60
  -4  -8   1  192.48    8.20
  -4  -8   1  185.58   10.40
  -4  -8   1  185.98    9.00
   3   8  -1   60.99    6.20
   3   8  -1   66.39    5.50
   3   8  -1   79.59    4.90
  -3  -8   1   70.09    5.50
  -3  -8   1   75.29    4.20
  -3  -8   1   65.39    4.80
   2   8  -1  148.09    8.30
   2   8  -1  160.48    7.70
   2   8  -1  139.09    9.40
  -2  -8   1  149.88    8.10
  -2  -8   1  150.78    7.00
  -2  -8   1  139.79    8.30
   1   8  -1  391.26   18.90
   1   8  -1  406.66   17.10
   1   8  -1  402.26   15.60
  -1  -8   1  409.76   16.90
  -1  -8   1  378.56   19.90
  -1  -8   1  417.36   15.10
   0   8  -1   82.59    6.70
   0   8  -1   70.19    4.80
   0   8  -1   77.69    7.30
   0  -8   1   80.39    4.70
   0  -8   1   76.09    5.90
  -1   8  -1  248.88   14.50
   1  -8   1  258.97   10.70
  -2   8  -1   26.10    4.40
   2  -8   1   33.60    2.90
  -3   8  -1    4.30    2.00
   3  -8   1    4.70    1.20
  -4   8  -1  143.99    8.30
   4  -8   1  149.39    6.20
   9   7  -1   41.20    3.00
  -9  -7   1   40.50    3.60
  -9  -7   1   37.20    2.80
   8   7  -1  111.09    6.30
  -8  -7   1  116.79    6.10
   7   7  -1  116.29    6.70
  -7  -7   1  108.89    6.10
  -7  -7   1  121.49   10.90
   6   7  -1    1.30    1.20
   6   7  -1    0.70    1.10
  -6  -7   1    1.20    0.90
  -6  -7   1    0.80    1.20
   5   7  -1   93.89    4.90
   5   7  -1   89.19    5.70
  -5  -7   1   92.69    6.60
  -5  -7   1   84.39    5.00
  -5  -7   1   88.59    5.30
  -5  -7   1   90.19    4.60
   4   7  -1  647.54   22.40
   4   7  -1  627.14   21.00
  -4  -7   1  596.54   21.80
  -4  -7   1  597.14   23.60
  -4  -7   1  618.54   21.10
  -4  -7   1  613.24   21.80
   3   7  -1  210.18    8.40
   3   7  -1  216.58    9.40
   3   7  -1  220.18    9.50
  -3  -7   1  213.38    9.40
  -3  -7   1  209.38    8.60
  -3  -7   1  206.88   10.40
  -3  -7   1  208.48    9.10
   2   7  -1    8.20    2.00
   2   7  -1    8.20    1.60
  -2  -7   1    7.00    1.30
  -2  -7   1    7.30    1.70
   1   7  -1  605.54   22.40
   1   7  -1  575.84   24.40
   1   7  -1  610.84   21.10
  -1  -7   1  574.54   21.90
  -1  -7   1  590.44   21.80
  -1  -7   1  610.94   20.50
   0   7  -1   44.20    3.50
   0   7  -1   41.40    5.00
   0   7  -1   48.20    4.60
   0  -7   1   45.80    3.20
   0  -7   1   42.10    4.00
  -1   7  -1   15.70    2.20
  -1   7  -1   10.10    3.00
  -1   7  -1   15.60    3.40
   1  -7   1   16.90    2.00
   1  -7   1   17.00    2.70
  -2   7  -1   84.69    6.70
  -2   7  -1   86.09    8.00
  -2   7  -1   84.19    4.60
   2  -7   1   83.09    4.90
   2  -7   1   81.79    6.50
  -3   7  -1  356.06   18.90
   3  -7   1  374.66   14.20
  -4   7  -1  117.79    8.90
   4  -7   1  110.09    5.70
  -5   7  -1   61.29    5.10
   5  -7   1   65.19    3.50
 -10  -6   1    3.10    0.80
 -10  -6   1    1.30    1.50
   9   6  -1   23.00    1.90
   9   6  -1   16.50    2.60
  -9  -6   1   25.40    2.40
  -9  -6   1   23.30    2.60
   8   6  -1  162.38    8.30
   8   6  -1  176.18    6.80
  -8  -6   1  164.68    7.70
   7   6  -1   10.30    1.50
   7   6  -1    8.60    2.10
   7   6  -1    8.10    1.50
  -7  -6   1    7.50    2.50
  -7  -6   1    8.90    1.80
   6   6  -1  118.59    5.10
   6   6  -1  111.19    5.30
   6   6  -1  108.59    6.40
  -6  -6   1  113.49    6.00
  -6  -6   1  113.69    7.60
   5   6  -1  449.56   15.40
   5   6  -1  448.96   14.90
   5   6  -1  450.15   16.90
  -5  -6   1  405.26   15.60
  -5  -6   1  447.06   15.60
  -5  -6   1  437.06   16.30
  -5  -6   1  462.25   18.50
   4   6  -1    3.90    1.20
   4   6  -1    3.50    0.90
   4   6  -1    1.80    0.90
  -4  -6   1    6.40    1.70
  -4  -6   1    4.00    1.40
   3   6  -1   19.20    2.10
   3   6  -1   20.60    1.70
   3   6  -1   15.80    2.20
  -3  -6   1   19.00    2.00
  -3  -6   1   17.80    1.70
  -3  -6   1   19.00    2.40
   2   6  -1 1213.78   39.30
   2   6  -1 1179.68   37.90
   2   6  -1 1258.17   39.00
  -2  -6   1 1193.68   39.10
  -2  -6   1 1195.78   38.20
  -2  -6   1 1151.88   39.90
   1   6  -1   26.40    2.30
   1   6  -1   25.10    2.70
  -1  -6   1   23.20    2.50
  -1  -6   1   24.90    2.40
  -1  -6   1   28.90    2.10
   0   6  -1   11.50    2.20
   0   6  -1    9.90    1.60
   0   6  -1    8.80    2.60
   0  -6   1   12.00    1.70
   0  -6   1    9.10    1.30
   0  -6   1   12.00    1.80
  -1   6  -1  379.66   16.00
  -1   6  -1  380.36   18.30
  -1   6  -1  351.46   14.20
  -1   6  -1  389.46   14.40
   1  -6   1  366.46   13.40
   1  -6   1  368.36   15.10
  -2   6  -1  403.76   16.40
  -2   6  -1  460.85   16.40
  -2   6  -1  436.66   18.90
  -2   6  -1  451.65   21.50
   2  -6   1  432.56   15.80
   2  -6   1  426.86   17.80
  -3   6  -1  345.07   16.10
  -3   6  -1  330.07   18.50
  -3   6  -1  324.77   12.00
   3  -6   1  327.97   15.40
   3  -6   1  333.07   13.00
  -4   6  -1    4.20    2.10
   4  -6   1    2.30    1.10
  -5   6  -1  229.18   13.50
   5  -6   1  243.18   10.00
  -6   6  -1    5.70    1.70
   6  -6   1    4.10    1.00
  10   5  -1    4.00    1.00
   9   5  -1  210.98    7.80
  -9  -5   1  202.28    9.00
  -9  -5   1  182.78    8.30
   8   5  -1    4.80    1.70
  -8  -5   1    3.40    1.00
   7   5  -1  210.48    8.50
   7   5  -1  203.28    9.70
   7   5  -1  214.18    8.70
  -7  -5   1  221.38    9.30
  -7  -5   1  205.78   11.30
   6   5  -1    1.30    0.80
   6   5  -1    2.00    0.70
   6   5  -1    4.30    1.50
  -6  -5   1    3.00    1.00
  -6  -5   1    2.50    1.50
   5   5  -1    5.50    1.30
   5   5  -1    3.70    0.80
  -5  -5   1    4.70    1.60
  -5  -5   1    4.20    1.00
  -5  -5   1    5.40    1.20
   4   5  -1  308.47   10.70
   4   5  -1  311.27   10.90
  -4  -5   1  312.37   13.10
  -4  -5   1  316.47   11.30
   3   5  -1  262.97    9.40
  -3  -5   1  268.27    9.80
  -3  -5   1  274.97   11.40
   2   5  -1 1614.14   49.70
  -2  -5   1 1604.74   51.59
  -2  -5   1 1584.74   49.99
   1   5  -1 2279.47   69.59
   1   5  -1 2200.58   68.19
  -1  -5   1 2122.29   68.19
  -1  -5   1 2221.08   69.69
  -1  -5   1 2228.78   69.19
   0   5  -1  367.36   13.80
   0  -5   1  333.37   11.90
   0  -5   1  341.07   12.90
   0  -5   1  329.97   12.60
  -1   5  -1 2132.79   69.99
  -1   5  -1 2178.38   67.19
   1  -5   1 2095.69   65.89
   1  -5   1 1954.20   64.49
   1  -5   1 2003.50   64.29
  -2   5  -1  318.47   14.20
  -2   5  -1  306.57   12.40
  -2   5  -1  314.97   16.40
  -2   5  -1  286.67   12.20
   2  -5   1  293.07   11.20
   2  -5   1  314.57   13.10
  -3   5  -1  412.26   15.60
  -3   5  -1  431.76   21.40
  -3   5  -1  403.76   16.30
  -3   5  -1  427.46   18.60
  -3   5  -1  414.86   14.90
   3  -5   1  417.46   15.40
   3  -5   1  423.66   17.60
  -4   5  -1  489.25   23.90
  -4   5  -1  479.95   16.80
  -4   5  -1  447.66   20.70
   4  -5   1  464.05   20.20
   4  -5   1  472.65   17.70
  -5   5  -1    1.80    2.10
   5  -5   1    4.90    1.50
  -6   5  -1   68.89    6.70
   6  -5   1   70.79    4.50
   7  -5   1    0.50    0.70
  10   4  -1   15.00    1.40
 -10  -4   1   13.90    1.60
   9   4  -1   17.70    1.80
  -9  -4   1   16.80    1.80
  -9  -4   1   17.10    2.00
   8   4  -1  337.67   14.20
   8   4  -1  330.67   12.70
   8   4  -1  345.67   12.50
  -8  -4   1  325.87   12.80
  -8  -4   1  297.37   12.00
  -8  -4   1  326.47   13.70
   7   4  -1  145.99    7.40
   7   4  -1  142.39    6.60
   7   4  -1  144.39    6.50
  -7  -4   1  125.19    6.20
  -7  -4   1  145.89    7.10
  -7  -4   1  145.09    8.30
   6   4  -1  576.54   19.20
   6   4  -1  594.74   20.60
   6   4  -1  563.64   19.20
  -6  -4   1  580.54   20.10
  -6  -4   1  500.85   19.20
  -6  -4   1  560.14   21.60
   5   4  -1  546.05   17.70
   5   4  -1  508.65   17.70
  -5  -4   1  514.45   17.70
  -5  -4   1  548.95   20.30
  -5  -4   1  528.85   18.70
   4   4  -1   38.90    2.30
   4   4  -1   41.70    2.30
  -4  -4   1   44.40    2.60
  -4  -4   1   44.70    3.60
   3   4  -1  414.86   12.90
  -3  -4   1  406.46   13.50
  -3  -4   1  341.67   13.10
  -3  -4   1  411.66   15.00
   2   4  -1 4217.28  131.89
  -2  -4   1 4462.75  134.09
   1   4  -1  767.52   24.10
  -1  -4   1  760.22   25.60
   0   4  -1  351.96   13.50
   0  -4   1  411.36   13.30
   0  -4   1  339.37   13.00
  -1   4  -1  483.75   17.70
   1  -4   1  459.75   15.90
   1  -4   1  479.85   16.70
  -2   4  -1  613.14   22.70
   2  -4   1  641.14   21.70
   2  -4   1  573.34   19.90
  -3   4  -1  133.69    7.20
  -3   4  -1  144.99    8.50
  -3   4  -1  137.09    6.10
  -3   4  -1  138.19   10.10
  -3   4  -1  120.19    6.70
   3  -4   1  149.49    7.70
   3  -4   1  137.29    6.20
  -4   4  -1   81.09    4.40
  -4   4  -1   70.09    6.20
  -4   4  -1   76.59    8.00
  -4   4  -1   68.89    4.40
   4  -4   1   77.49    6.10
   4  -4   1   77.49    4.70
  -5   4  -1  646.34   28.00
  -5   4  -1  693.63   31.20
  -5   4  -1  717.13   23.60
   5  -4   1  678.53   24.60
  -6   4  -1   93.19    8.90
  -6   4  -1   99.59    5.20
   6  -4   1  101.09    6.00
  -7   4  -1  116.59    8.00
   7  -4   1  118.39    5.90
  10   3  -1   49.40    2.70
 -10  -3   1   41.50    2.40
 -10  -3   1   49.40    2.60
   9   3  -1   41.80    2.90
  -9  -3   1   39.00    2.90
  -9  -3   1   38.50    2.90
   8   3  -1   29.00    3.00
   8   3  -1   31.10    2.70
  -8  -3   1   30.50    2.90
  -8  -3   1   31.10    3.30
  -8  -3   1   31.30    2.90
   7   3  -1  118.09    6.00
   7   3  -1  120.79    6.00
  -7  -3   1  121.09    6.30
  -7  -3   1  116.19    6.30
   6   3  -1  134.09    6.20
   6   3  -1  130.99    6.00
  -6  -3   1  131.09    6.90
  -6  -3   1  129.09    6.50
   5   3  -1  500.05   16.90
   5   3  -1  487.55   17.00
  -5  -3   1  501.85   18.50
   4   3  -1 2508.95   77.29
   4   3  -1 2422.16   77.39
  -4  -3   1 2616.84   79.49
   3   3  -1 1534.45   49.10
  -3  -3   1 1656.03   51.19
   2   3  -1  167.88    5.80
  -2  -3   1  175.28    7.40
   1   3  -1 2329.47   71.49
   1   3  -1 2371.46   71.89
  -1  -3   1 2377.66   73.29
   0   3  -1 4678.53  142.99
  -1   3  -1  745.63   25.20
   1  -3   1  738.53   24.00
   1  -3   1  765.22   24.50
  -2   3  -1 1241.98   41.50
   2  -3   1 1285.27   40.70
  -3   3  -1  673.83   24.90
   3  -3   1  691.13   24.10
  -4   3  -1  536.15   19.10
  -4   3  -1  580.74   20.80
  -4   3  -1  570.14   21.90
  -4   3  -1  536.75   18.70
  -4   3  -1  550.44   24.60
   4  -3   1  511.05   18.90
   4  -3   1  493.75   20.40
  -5   3  -1   59.69    6.00
  -5   3  -1   61.89    4.00
  -5   3  -1   62.79    7.30
  -5   3  -1   63.99    5.10
   5  -3   1   59.19    4.30
   5  -3   1   63.69    5.80
  -6   3  -1  157.58   11.00
  -6   3  -1  168.98   12.50
  -6   3  -1  183.98    7.90
   6  -3   1  171.18    8.70
  -7   3  -1  276.67   10.50
  -7   3  -1  265.47   14.70
   7  -3   1  253.37   11.20
  -8   3  -1    1.60    1.80
   8  -3   1    2.30    0.90
  10   2  -1   69.39    3.40
 -10  -2   1   68.09    3.50
   9   2  -1   19.60    2.10
  -9  -2   1   14.60    1.80
  -9  -2   1   16.60    2.20
   8   2  -1   21.80    2.50
   8   2  -1   22.20    2.50
  -8  -2   1   21.70    2.40
  -8  -2   1   19.90    2.60
   7   2  -1  401.76   15.20
   7   2  -1  405.96   15.10
  -7  -2   1  390.56   15.40
  -7  -2   1  405.96   15.60
  -7  -2   1  385.06   15.60
   6   2  -1   74.69    4.30
   6   2  -1   72.99    4.30
  -6  -2   1   68.89    4.60
  -6  -2   1   69.99    4.10
   5   2  -1   29.50    2.30
   5   2  -1   31.10    2.40
  -5  -2   1   31.90    2.60
   4   2  -1 1684.23   54.49
   4   2  -1 1797.62   54.39
  -4  -2   1 1761.72   55.49
   3   2  -1  200.98    7.30
   3   2  -1  205.18    7.30
  -3  -2   1  229.38    8.70
   2   2  -1 1313.57   42.80
   2   2  -1 1399.86   43.00
  -2  -2   1 1496.75   44.40
   1   2  -1 3243.98   96.79
   1   2  -1 3117.09   96.29
   0   2  -1 4028.50  132.49
   0   2  -1 4545.45  133.09
   0   2  -1 4545.85  133.19
  -1   2  -1 1667.93   52.49
  -1   2  -1 1741.53   52.49
   1  -2   1 1637.44   51.69
  -2   2  -1    9.30    1.50
  -2   2  -1   15.00    1.70
  -3   2  -1  262.77   10.80
   3  -2   1  254.67   10.10
  -4   2  -1  188.18    9.00
  -4   2  -1  151.38    8.40
   4  -2   1  182.78    8.20
   4  -2   1  176.08    7.40
  -5   2  -1  231.78   13.70
  -5   2  -1  227.48    9.50
  -5   2  -1  238.48   11.70
  -5   2  -1  222.18    9.20
   5  -2   1  235.98   10.60
   5  -2   1  220.48    9.60
  -6   2  -1  752.12   25.90
  -6   2  -1  797.42   32.30
  -6   2  -1  724.13   29.10
   6  -2   1  751.82   26.70
  -7   2  -1   61.09    3.90
  -7   2  -1   66.39    6.60
   7  -2   1   59.79    4.40
  -8   2  -1    3.50    2.50
  -8   2  -1    1.10    0.90
   8  -2   1    2.30    1.00
 -10  -1   1    1.20    0.80
   9   1  -1 1926.21   59.19
  -9  -1   1 1801.72   59.09
   8   1  -1  495.45   17.80
  -8  -1   1  452.15   17.60
  -8  -1   1  486.65   18.10
   7   1  -1 2871.91   91.59
   7   1  -1 2897.81   91.39
  -7  -1   1 2976.70   91.99
  -7  -1   1 2891.41   91.89
   6   1  -1 1844.72   58.29
   6   1  -1 1871.91   58.39
  -6  -1   1 1763.12   58.79
   5   1  -1   30.20    2.50
   5   1  -1   34.60    2.60
  -5  -1   1   33.70    2.10
  -5  -1   1   28.00    2.20
   4   1  -1 6942.91  218.38
  -4  -1   1 7279.27  217.98
  -4  -1   1 7305.87  218.28
   3   1  -1  696.53   22.20
  -3  -1   1  679.93   22.40
  -3  -1   1  667.93   21.40
  -2  -1   1  363.16   12.30
   1   1  -1  300.97    9.30
   1   1  -1  290.97    9.50
  -1  -1   1  301.67   10.00
  -1  -1   1  303.27    9.60
   0  -1   1 5166.98  156.08
  -1   1  -1  136.99    5.30
  -1   1  -1  144.89    5.30
  -2   1  -1   16.60    1.50
  -2   1  -1   18.10    1.50
   2  -1   1   17.50    1.00
   2  -1   1   22.80    1.00
  -3   1  -1 2374.26   77.59
  -3   1  -1 2554.34   77.69
   3  -1   1 2558.04   76.99
  -4   1  -1    4.90    1.30
   4  -1   1    4.70    1.10
  -5   1  -1  211.18   10.00
  -5   1  -1  220.78   12.00
  -5   1  -1  217.28    9.00
   5  -1   1  210.98    8.80
   5  -1   1  204.78    8.70
  -6   1  -1   87.99    7.40
  -6   1  -1   87.09    6.20
  -6   1  -1   84.49    5.00
  -6   1  -1   83.39    4.50
   6  -1   1   83.39    5.00
  -7   1  -1  135.49    9.50
  -7   1  -1  128.69    6.60
  -7   1  -1  133.69    8.40
   7  -1   1  130.29    6.90
   7  -1   1  127.49    7.30
  -8   1  -1   18.60    3.90
  -8   1  -1   20.90    2.30
   8  -1   1   18.20    2.30
   9  -1   1    0.90    0.80
   9   0  -1  107.29    5.40
  -9   0   1  103.49    5.10
   8   0  -1   13.50    2.10
  -8   0   1   13.80    2.20
  -8   0   1    9.00    1.80
   7   0  -1 1014.80   35.40
   7   0  -1 1031.00   35.10
  -7   0   1 1039.90   35.50
  -7   0   1 1057.99   35.10
   6   0  -1  607.84   21.80
  -6   0   1  641.54   22.70
  -6   0   1  606.64   21.80
  -6   0   1  604.94   22.10
   5   0  -1 3100.89   95.19
   5   0  -1 2996.40   95.39
  -5   0   1 3110.39   96.19
  -5   0   1 3038.20   95.09
   4   0  -1 4160.48  126.49
   4   0  -1 4197.38  126.99
  -4   0   1 3999.80  126.19
   3   0  -1  869.91   29.00
  -3   0   1  896.11   28.00
  -3   0   1  923.31   28.40
   0   0  -1  127.29    4.60
   0   0  -1  156.58    4.70
   0   0  -1  138.09    4.30
   0   0  -1  142.89    4.80
   0   0   1  137.19    4.60
   0   0   1  133.89    4.80
   0   0   1  147.69    4.30
   0   0   1  146.39    4.70
  -1   0  -1  869.71   26.80
  -1   0  -1  851.51   26.70
  -2   0  -1   20.10    1.30
  -2   0  -1   20.60    1.60
   2   0   1   18.70    1.00
  -3   0  -1   68.99    3.70
  -3   0  -1   77.69    3.50
   3   0   1   71.09    3.00
  -4   0  -1 1953.50   62.49
   4   0   1 2015.30   61.29
  -5   0  -1 2927.61   90.89
  -5   0  -1 2945.81   91.59
   5   0   1 2955.90   90.39
   5   0   1 2825.02   89.09
  -6   0  -1    6.30    1.70
  -6   0  -1    5.90    2.40
  -6   0  -1    8.40    1.90
  -6   0  -1    4.70    1.30
  -6   0  -1    6.60    1.60
   6   0   1    4.50    1.20
   6   0   1    4.50    1.30
  -7   0  -1   -1.00    1.90
  -7   0  -1    1.10    2.20
  -7   0  -1    3.30    1.50
  -7   0  -1   -3.40    2.00
  -7   0  -1    1.20    0.80
   7   0   1   -0.50    0.90
   7   0   1    2.00    1.00
  -8   0  -1  106.09    7.80
  -8   0  -1  121.39    6.20
   8   0   1  119.99    6.30
  -9   0  -1   36.80    2.80
   9   0   1   37.60    2.90
   9  -1  -1    6.60    1.40
  -9   1   1    7.90    1.20
   8  -1  -1  148.29    7.30
  -8   1   1  145.49    6.60
  -8   1   1  122.19    5.50
   7  -1  -1   29.50    3.10
   7  -1  -1   30.20    3.40
  -7   1   1   31.80    2.90
  -7   1   1   26.00    2.90
   6  -1  -1  156.28    9.20
   6  -1  -1  168.68    8.20
  -6   1   1  161.98    7.90
  -6   1   1  159.38    8.70
  -6   1   1  161.58   10.20
  -6   1   1  166.38    8.60
   5  -1  -1  463.95   17.00
   5  -1  -1  450.45   17.60
  -5   1   1  453.35   17.30
  -5   1   1  472.95   17.80
   4  -1  -1  592.24   20.60
   4  -1  -1  560.04   19.70
  -4   1   1  573.24   19.90
   3  -1  -1  308.07   11.50
  -3   1   1  304.67   11.10
  -3   1   1  303.57   11.30
   2  -1  -1  237.78    8.80
  -2   1   1  227.48    7.50
  -2   1   1  249.38    8.50
  -2   1   1  237.08    8.70
  -2   1   1  236.48    7.60
  -1   1   1 9531.25  288.07
  -3  -1  -1   94.49    3.80
  -3  -1  -1   94.49    4.30
   3   1   1   99.19    4.10
  -4  -1  -1 4784.32  144.19
  -4  -1  -1 4619.64  143.59
  -6  -1  -1   14.90    2.10
  -6  -1  -1   17.50    2.70
  -6  -1  -1   15.80    1.90
   6   1   1   17.30    2.00
   6   1   1   13.60    1.90
  -7  -1  -1   27.20    3.00
  -7  -1  -1   22.80    2.30
  -7  -1  -1   22.20    2.80
  -7  -1  -1   17.70    3.90
   7   1   1   24.70    2.70
   7   1   1   25.30    2.50
  -8  -1  -1  288.47   11.20
  -8  -1  -1  326.67   12.90
   8   1   1  327.07   12.70
   8   1   1  342.37   18.50
  -9  -1  -1    6.40    1.60
   9   1   1    5.30    1.30
  10   1   1    0.50    0.50
   8  -2  -1    7.40    1.70
  -8   2   1    7.70    1.50
   7  -2  -1  208.58    9.80
  -7   2   1  193.18    8.60
  -7   2   1  201.18   11.40
  -7   2   1  188.48    8.50
   6  -2  -1  494.45   19.10
  -6   2   1  494.95   20.30
  -6   2   1  534.25   23.00
  -6   2   1  454.25   18.90
  -6   2   1  484.45   17.90
   5  -2  -1   82.09    5.20
   5  -2  -1   79.59    5.90
  -5   2   1   84.69    5.60
  -5   2   1   74.49    4.80
  -5   2   1   80.99    5.80
  -5   2   1   81.29    6.80
   4  -2  -1  125.29    6.10
   4  -2  -1  122.19    6.90
  -4   2   1  126.39    6.80
   3  -2  -1 9513.55  297.27
   3  -2  -1 9999.00  298.77
  -3   2   1 9806.12  298.27
  -3   2   1 9823.82  297.67
   2  -2  -1   68.89    3.90
  -2   2   1   64.49    3.60
   1  -2  -1 1153.98   36.50
  -1   2   1 1145.89   35.90
  -3  -2  -1 1506.75   44.70
  -3  -2  -1 1331.37   43.30
   3   2   1 1395.86   43.70
  -4  -2  -1 1934.21   66.09
  -4  -2  -1 2293.07   67.69
   4   2   1 2263.97   66.99
   5   2   1 3360.86  105.79
   5   2   1 3516.15  105.99
  -6  -2  -1 1198.78   37.50
  -6  -2  -1 1119.49   37.70
  -6  -2  -1 1118.09   38.70
   6   2   1 1150.48   37.50
   6   2   1 1186.98   37.80
  -7  -2  -1   21.50    2.20
  -7  -2  -1   19.60    2.60
   7   2   1   18.30    2.40
   7   2   1   21.20    2.30
  -8  -2  -1  356.36   14.40
  -8  -2  -1  342.07   13.20
  -8  -2  -1  374.36   14.20
   8   2   1  370.16   14.00
   8   2   1  367.26   14.30
  -9  -2  -1  139.79    5.70
  -9  -2  -1  168.78    7.40
   9   2   1  163.58    7.10
  10   2   1   25.70    2.00
   8  -3  -1    7.90    1.60
  -8   3   1    8.90    1.20
   7  -3  -1   24.00    2.80
  -7   3   1   28.80    4.70
  -7   3   1   28.80    2.50
   6  -3  -1   72.89    5.30
  -6   3   1   70.69    7.60
  -6   3   1   65.09    7.20
  -6   3   1   69.39    4.30
  -6   3   1   68.99    4.80
   5  -3  -1  472.35   20.20
   5  -3  -1  450.05   17.80
  -5   3   1  453.65   21.80
  -5   3   1  428.76   18.10
  -5   3   1  469.85   16.70
  -5   3   1  442.76   19.30
   4  -3  -1  449.95   17.00
   4  -3  -1  453.25   18.80
  -4   3   1  435.56   18.20
  -4   3   1  452.75   16.30
  -4   3   1  461.65   18.10
  -4   3   1  436.46   20.80
   3  -3  -1  388.66   15.50
   3  -3  -1  369.36   13.90
  -3   3   1  361.36   14.80
   2  -3  -1   30.30    2.40
   2  -3  -1   36.20    3.10
  -2   3   1   33.80    2.80
  -2   3   1   38.20    2.40
   1  -3  -1  601.24   21.30
  -1   3   1  645.24   20.20
   0  -3  -1   26.70    2.00
   0  -3  -1   29.90    2.10
   0   3   1   29.10    1.60
  -1  -3  -1 2562.04   78.99
  -1  -3  -1 2512.85   78.29
   1   3   1 2638.34   77.79
   1   3   1 2489.95   77.69
  -2  -3  -1  709.03   23.60
  -2  -3  -1  716.43   22.40
   2   3   1  690.43   22.10
  -3  -3  -1    5.40    0.70
  -3  -3  -1    5.70    0.60
   3   3   1    5.80    0.80
  -4  -3  -1   23.10    2.30
   4   3   1   21.70    1.70
   4   3   1   24.40    1.70
  -5  -3  -1   41.00    3.20
   5   3   1   32.40    2.30
   5   3   1   31.10    2.30
  -6  -3  -1  182.88    7.70
  -6  -3  -1  175.98    7.50
   6   3   1  184.08    7.70
   6   3   1  178.28    7.70
  -7  -3  -1  377.46   13.60
  -7  -3  -1  341.37   14.70
  -7  -3  -1  347.57   13.40
   7   3   1  367.06   13.80
   7   3   1  368.56   13.70
  -8  -3  -1   94.19    5.00
  -8  -3  -1   93.59    5.80
  -8  -3  -1   91.69    5.00
   8   3   1   94.39    5.10
   8   3   1   82.79    5.10
  -9  -3  -1  128.69    6.10
  -9  -3  -1  141.99    6.80
  -9  -3  -1  142.29    6.40
   9   3   1  148.29    6.50
  10   3   1    1.20    0.70
   7  -4  -1   32.40    2.90
  -7   4   1   32.00    2.20
  -7   4   1   21.80    3.90
   6  -4  -1    3.90    1.50
  -6   4   1    3.20    1.00
  -6   4   1    5.60    1.50
  -6   4   1    4.10    2.50
   5  -4  -1  129.19    9.70
   5  -4  -1  141.09    8.10
  -5   4   1  159.18   11.60
  -5   4   1  153.98    8.10
  -5   4   1  139.99    9.50
  -5   4   1  154.28    6.90
   4  -4  -1  835.12   33.60
   4  -4  -1  872.91   31.30
  -4   4   1  875.41   32.20
  -4   4   1  929.41   30.00
  -4   4   1  952.30   37.00
  -4   4   1  938.61   33.60
   3  -4  -1  400.86   15.90
   3  -4  -1  399.26   17.70
  -3   4   1  410.26   17.30
  -3   4   1  448.46   20.10
  -3   4   1  413.76   15.10
  -3   4   1  475.45   17.90
   2  -4  -1 1348.27   43.10
   2  -4  -1 1262.77   44.70
  -2   4   1 1401.46   44.40
   1  -4  -1 1939.61   62.29
   1  -4  -1 2016.50   63.69
  -1   4   1 2031.20   61.59
   0  -4  -1  573.84   19.40
   0  -4  -1  538.05   19.00
   0   4   1  556.14   17.80
  -2  -4  -1   77.39    4.40
   2   4   1   70.79    3.10
  -3  -4  -1 2971.90   91.29
  -3  -4  -1 2964.80   89.39
   3   4   1 2915.01   88.99
   3   4   1 2790.82   88.99
  -4  -4  -1 1594.14   51.79
  -4  -4  -1 1770.02   54.89
   4   4   1 1682.33   52.19
  -5  -4  -1   10.50    1.40
  -5  -4  -1   10.20    1.90
   5   4   1    9.20    1.30
   5   4   1    7.30    1.10
  -6  -4  -1  136.29    7.70
  -6  -4  -1  133.29    6.10
   6   4   1  130.59    5.90
   6   4   1  135.99    6.10
  -7  -4  -1   70.09    4.20
  -7  -4  -1   61.59    3.60
   7   4   1   68.59    4.10
   7   4   1   70.89    4.10
  -8  -4  -1  174.38    9.00
  -8  -4  -1  152.68    6.90
  -8  -4  -1  166.28    7.70
   8   4   1  181.78    7.60
   8   4   1  171.58    7.80
  -9  -4  -1    0.70    0.70
  -9  -4  -1    0.10    1.10
   9   4   1    0.10    0.80
 -10  -4  -1   73.99    4.20
  10   4   1   92.39    4.00
   6  -5  -1   13.00    1.90
  -6   5   1    9.50    2.90
  -6   5   1   12.50    1.60
   5  -5  -1  238.78   10.90
  -5   5   1  220.18    9.50
  -5   5   1  232.88    9.20
  -5   5   1  240.18   14.60
   4  -5  -1   85.89    7.40
   4  -5  -1   93.59    6.00
  -4   5   1   93.39    6.10
  -4   5   1   88.59    4.70
  -4   5   1   92.19    8.60
  -4   5   1   99.69    7.50
   3  -5  -1  196.88    9.30
   3  -5  -1  186.08   11.00
  -3   5   1  190.68   10.50
  -3   5   1  191.28    8.10
  -3   5   1  229.08   10.90
  -3   5   1  198.78   12.40
   2  -5  -1  443.96   16.60
   2  -5  -1  438.96   18.50
  -2   5   1  460.95   18.00
  -2   5   1  455.25   18.00
  -2   5   1  450.35   20.10
   1  -5  -1  673.03   24.00
   1  -5  -1  643.74   22.30
  -1   5   1  684.03   23.60
  -1   5   1  627.54   23.20
   0  -5  -1 1976.10   63.79
   0  -5  -1 2037.20   63.09
   0  -5  -1 2106.69   64.49
   0   5   1 1952.50   61.79
  -1  -5  -1 1009.40   32.40
  -1  -5  -1 1039.20   33.20
  -1  -5  -1 1024.10   33.60
   1   5   1  998.00   32.00
   1   5   1  966.70   31.30
  -2  -5  -1 4948.90  145.79
  -2  -5  -1 4748.43  144.49
  -2  -5  -1 4686.23  143.89
   2   5   1 4670.13  143.59
   2   5   1 4481.95  143.09
  -3  -5  -1 2526.65   78.09
  -3  -5  -1 2596.14   80.19
  -3  -5  -1 2531.25   77.99
   3   5   1 2448.85   77.29
   3   5   1 2493.75   77.49
  -4  -5  -1  132.39    7.30
  -4  -5  -1  111.19    5.30
  -4  -5  -1  132.49    5.40
   4   5   1  123.89    5.10
   4   5   1  116.29    5.10
  -5  -5  -1 1592.84   52.19
  -5  -5  -1 1555.64   49.30
   5   5   1 1519.85   48.50
   5   5   1 1510.25   48.30
  -6  -5  -1 1602.54   55.79
  -6  -5  -1 1679.63   52.69
   6   5   1 1728.73   54.29
   6   5   1 1607.44   51.99
   6   5   1 1624.94   51.89
  -7  -5  -1  807.32   27.60
   7   5   1  822.52   27.30
   7   5   1  813.72   27.00
  -8  -5  -1  123.29    6.40
  -8  -5  -1  128.19    7.80
   8   5   1  122.69    6.10
   8   5   1  134.69    6.10
  -9  -5  -1   32.90    3.40
  -9  -5  -1   37.00    2.90
   9   5   1   36.10    2.60
 -10  -5  -1    5.90    1.40
 -10  -5  -1    5.10    1.00
  10   5   1    8.70    1.20
   6  -6  -1    9.70    1.40
  -6   6   1    6.90    1.70
   5  -6  -1   -0.60    0.70
  -5   6   1    0.10    1.30
   4  -6  -1   32.60    3.20
  -4   6   1   25.80    4.50
  -4   6   1   27.40    2.80
   3  -6  -1  123.79    8.60
   3  -6  -1  130.39    7.00
  -3   6   1  130.59    8.50
  -3   6   1  124.89    7.50
  -3   6   1  134.19    9.90
   2  -6  -1  501.85   18.70
   2  -6  -1  503.95   21.10
  -2   6   1  495.05   20.30
  -2   6   1  509.45   22.60
  -2   6   1  518.85   20.00
   1  -6  -1    5.70    1.30
   1  -6  -1    6.80    2.10
  -1   6   1    6.50    1.70
  -1   6   1    5.30    1.70
   0  -6  -1   34.00    3.40
   0  -6  -1   30.20    2.60
  -1  -6  -1 1150.08   38.10
  -1  -6  -1 1080.69   36.70
  -1  -6  -1 1095.89   38.00
   1   6   1 1230.08   37.80
  -2  -6  -1  229.78   10.40
  -2  -6  -1  227.88    9.60
  -2  -6  -1  223.08    8.90
   2   6   1  238.48    9.50
   2   6   1  217.38    7.80
   2   6   1  216.98    8.50
  -3  -6  -1 1018.60   34.30
  -3  -6  -1  989.00   32.50
  -3  -6  -1  978.70   32.00
   3   6   1  955.20   31.20
   3   6   1  942.41   31.10
   3   6   1 1015.70   32.70
   3   6   1  979.40   31.70
  -4  -6  -1 1388.06   46.40
  -4  -6  -1 1301.37   44.00
  -4  -6  -1 1319.97   43.40
  -4  -6  -1 1385.86   43.90
   4   6   1 1349.86   43.20
   4   6   1 1322.47   42.80
   4   6   1 1473.25   44.80
  -5  -6  -1    7.30    2.10
  -5  -6  -1    3.70    1.10
   5   6   1    6.30    1.20
   5   6   1    6.80    1.20
  -6  -6  -1  102.59    5.70
  -6  -6  -1  102.29    7.60
   6   6   1   98.59    6.10
   6   6   1  103.39    4.80
   6   6   1   95.19    4.90
  -7  -6  -1  219.08    9.60
  -7  -6  -1  209.48   12.30
   7   6   1  223.58    8.80
   7   6   1  210.88    8.90
   7   6   1  225.48   10.30
  -8  -6  -1  100.39    5.60
   8   6   1  104.19    5.10
  -9  -6  -1  134.19    6.20
  -9  -6  -1  133.99    7.60
   9   6   1  134.19    5.80
 -10  -6  -1    6.50    1.40
 -10  -6  -1    7.80    1.10
  10   6   1    8.10    1.10
   5  -7  -1   17.00    1.70
  -5   7   1   15.60    2.50
   4  -7  -1   70.29    4.40
  -4   7   1   73.69    6.60
   3  -7  -1   18.10    2.30
  -3   7   1   10.60    2.10
  -3   7   1   14.40    3.40
   2  -7  -1   20.40    2.40
   2  -7  -1   21.70    3.60
  -2   7   1   15.20    3.20
  -2   7   1   15.70    3.70
   1  -7  -1  174.68    8.30
   1  -7  -1  178.58   10.20
  -1   7   1  187.28    9.80
  -1   7   1  173.68   11.20
  -1   7   1  182.58    9.30
   0  -7  -1  156.48    7.50
   0  -7  -1  148.69    8.70
   0   7   1  163.08    8.70
   0   7   1  173.58    8.40
  -1  -7  -1 2361.76   74.09
  -1  -7  -1 2386.86   75.99
  -1  -7  -1 2213.28   75.49
   1   7   1 2464.75   75.09
  -2  -7  -1   50.19    3.80
  -2  -7  -1   61.99    4.40
  -2  -7  -1   55.49    3.60
  -2  -7  -1   55.29    4.60
   2   7   1   52.69    3.40
   2   7   1   56.89    4.10
  -3  -7  -1 2928.01   92.79
  -3  -7  -1 2798.92   90.29
  -3  -7  -1 2884.81   89.99
  -3  -7  -1 2879.21   91.09
   3   7   1 2964.20   89.79
  -4  -7  -1 1057.69   35.30
  -4  -7  -1 1074.59   35.70
  -4  -7  -1 1082.69   38.00
  -4  -7  -1 1058.19   34.80
   4   7   1 1075.19   34.90
   4   7   1 1066.99   33.90
   4   7   1 1049.49   35.70
  -5  -7  -1  260.67   10.70
  -5  -7  -1  249.48   12.90
  -5  -7  -1  246.58    9.90
   5   7   1  258.17   11.10
   5   7   1  254.77    9.50
   5   7   1  255.37   10.10
  -6  -7  -1  852.91   28.60
  -6  -7  -1  839.82   32.00
   6   7   1  818.12   27.10
   6   7   1  812.82   27.70
   6   7   1  839.12   29.20
  -7  -7  -1    7.50    1.60
   7   7   1    6.70    1.60
   7   7   1    7.90    1.80
   7   7   1    5.90    1.30
  -8  -7  -1   12.50    1.80
   8   7   1   14.10    1.60
  -9  -7  -1    9.40    1.40
  -9  -7  -1    8.60    2.10
   9   7   1    9.90    1.50
 -10  -7  -1  107.29    5.40
 -10  -7  -1  112.49    4.50
   4  -8  -1  233.08    8.90
  -4   8   1  220.58   10.90
   3  -8  -1  419.36   15.30
  -3   8   1  397.66   18.60
   2  -8  -1  250.97   10.80
  -2   8   1  255.87   10.80
  -2   8   1  258.77   14.40
   1  -8  -1  156.58    7.70
  -1   8   1  146.09   10.50
  -1   8   1  144.49    7.80
   0  -8  -1 1629.54   52.59
   0  -8  -1 1539.65   55.19
   0   8   1 1641.74   57.59
   0   8   1 1641.04   55.09
   0   8   1 1660.13   53.79
  -1  -8  -1   67.29    5.60
  -1  -8  -1   77.29    4.70
   1   8   1   74.69    5.90
   1   8   1   68.99    5.00
  -2  -8  -1  773.72   28.90
  -2  -8  -1  777.32   27.90
  -2  -8  -1  799.72   27.20
   2   8   1  812.72   28.90
   2   8   1  811.82   28.30
  -3  -8  -1  245.18   10.70
  -3  -8  -1  228.98   11.20
  -3  -8  -1  228.88   11.90
  -3  -8  -1  248.88   10.10
   3   8   1  264.27   11.30
   3   8   1  264.17   10.30
  -4  -8  -1    3.00    1.00
  -4  -8  -1    7.20    1.90
  -4  -8  -1    5.40    1.80
  -4  -8  -1    4.10    1.20
   4   8   1    2.90    1.40
   4   8   1    5.10    1.50
  -5  -8  -1   61.69    5.80
  -5  -8  -1   67.19    4.30
   5   8   1   63.89    4.10
   5   8   1   70.39    4.90
  -6  -8  -1  405.46   14.80
  -6  -8  -1  368.76   17.60
   6   8   1  353.16   14.20
   6   8   1  388.16   15.40
  -8  -8  -1  244.28    9.80
   8   8   1  238.58   10.30
  -9  -8  -1   58.09    4.30
  -9  -8  -1   54.99    3.20
   2  -9  -1   12.90    1.80
  -2   9   1    8.10    2.40
   1  -9  -1  203.48    8.70
  -1   9   1  189.68    8.60
   0  -9  -1    6.60    1.50
   0   9   1    2.90    1.90
   0   9   1    2.70    1.30
  -1  -9  -1  168.48    8.00
   1   9   1  169.38    8.80
   1   9   1  177.08   11.10
  -2  -9  -1  449.06   16.40
  -2  -9  -1  418.26   17.60
   2   9   1  467.55   20.30
   2   9   1  433.06   17.50
  -3  -9  -1   45.70    3.30
  -3  -9  -1   41.40    3.50
   3   9   1   43.50    3.90
  -4  -9  -1  841.62   28.50
  -4  -9  -1  872.21   29.50
   4   9   1  857.41   30.30
  -5  -9  -1   67.69    4.30
   5   9   1   65.49    4.90
  -6  -9  -1  335.17   12.90
   6   9   1  323.57   13.70
  -7  -9  -1  370.46   13.10
   7   9   1  314.37   13.50
  -8  -9  -1  304.07   11.00
   8   9   1  273.37   11.30
  -9  -9  -1    9.60    1.20
  -9  -9  -1   12.00    1.60
   1 -10  -1   60.09    3.30
  -1  10   1   51.99    4.70
   0 -10  -1   38.90    2.70
   0  10   1   33.30    4.00
   0  10   1   30.70    2.50
  -1 -10  -1    0.80    0.90
   1  10   1   -0.90    1.20
   1  10   1   -0.40    0.70
  -2 -10  -1    0.10    0.80
   2  10   1    3.90    1.70
   2  10   1    0.30    0.90
  -3 -10  -1  340.77   13.50
  -3 -10  -1  330.37   12.40
   3  10   1  338.27   13.80
   3  10   1  321.27   15.00
  -4 -10  -1    4.60    1.40
   4  10   1    2.90    1.90
   4  10   1    2.10    1.20
  -5 -10  -1   31.80    2.80
   5  10   1   34.20    3.20
  -6 -10  -1  181.48    7.90
  -7 -10  -1    2.70    0.90
   7  10   1    4.80    1.20
  -8 -10  -1    1.00    0.60
  -8 -10  -1    1.20    0.70
   8  10   1    1.20    0.80
   2  11   1    4.20    1.60
   2  11   1    3.10    1.00
   3  11   1   10.40    1.70
   3  11   1    9.50    2.30
   4  11   1   51.29    3.70
  -5 -11  -1   32.80    2.60
  -5 -11  -1   32.20    2.20
   5  11   1   31.10    2.70
  -6 -11  -1  161.38    6.30
  -6 -11  -1  158.18    6.60
   6  11   1  165.68    7.20
  -3 -11   2  198.98    7.40
   7  10  -2   22.50    2.20
  -7 -10   2   28.60    2.10
   6  10  -2   83.39    4.80
  -6 -10   2   92.39    4.50
   5  10  -2  177.38    8.20
  -5 -10   2  194.88    7.30
   4  10  -2   82.69    4.80
  -4 -10   2   97.19    4.60
   3  10  -2   16.80    2.00
  -3 -10   2   21.40    2.00
   2  10  -2    5.60    1.30
  -2 -10   2    5.80    1.20
   1  10  -2  291.47   13.10
  -1 -10   2  323.07   11.70
   0  10  -2  132.99    7.40
   0 -10   2  158.08    6.50
   8   9  -2    1.00    0.70
  -8  -9   2    0.00    0.60
   7   9  -2    1.70    0.90
  -7  -9   2    1.70    0.80
   6   9  -2    1.70    1.00
  -6  -9   2   -1.10    1.80
  -6  -9   2    0.80    0.70
   5   9  -2    1.30    1.00
  -5  -9   2    2.40    0.80
  -5  -9   2    0.10    1.10
   4   9  -2    4.20    1.40
  -4  -9   2    7.80    1.30
   3   9  -2   12.20    1.80
  -3  -9   2   10.80    1.70
   2   9  -2    3.50    1.30
   2   9  -2    1.20    2.30
  -2  -9   2    3.90    1.10
   1   9  -2    7.30    2.60
   1   9  -2    1.80    1.10
  -1  -9   2    3.80    1.10
   0   9  -2   53.39    5.80
   0  -9   2   67.49    4.00
  -1   9  -2    1.50    1.70
   1  -9   2    7.50    1.40
  -2   9  -2   36.40    4.00
   2  -9   2   48.50    3.00
   9   8  -2  240.78    9.70
  -9  -8   2  281.07    9.70
  -9  -8   2  253.77   10.60
   8   8  -2   53.79    3.80
  -8  -8   2   61.59    3.80
   7   8  -2  147.89    7.80
  -7  -8   2  165.68    7.50
   6   8  -2  464.55   18.20
  -6  -8   2  488.25   17.60
  -6  -8   2  478.65   16.50
  -5  -8   2  488.75   18.90
  -5  -8   2  515.75   18.40
  -5  -8   2  519.75   17.70
  -5  -8   2  490.05   20.70
   4   8  -2   37.10    3.20
  -4  -8   2   34.10    3.40
  -4  -8   2   30.80    2.90
  -4  -8   2   32.10    3.80
  -4  -8   2   32.60    2.70
  -3  -8   2  843.22   27.30
  -3  -8   2  770.32   29.70
  -3  -8   2  807.52   28.70
   2   8  -2  950.20   35.90
   2   8  -2  934.61   33.90
   2   8  -2 1002.80   32.40
  -2  -8   2  979.00   31.70
  -2  -8   2  940.21   33.20
  -2  -8   2  905.71   33.90
   1   8  -2  289.67   15.60
   1   8  -2  306.37   12.20
   1   8  -2  315.37   14.30
  -1  -8   2  305.67   11.80
  -1  -8   2  304.17   13.60
   0   8  -2  692.83   29.20
   0   8  -2  672.03   29.70
   0   8  -2  694.03   24.00
   0  -8   2  710.53   26.80
   0  -8   2  750.72   24.40
  -1   8  -2  236.48   13.90
   1  -8   2  249.68   10.10
  -2   8  -2  128.49    9.30
   2  -8   2  141.09    6.60
  -3   8  -2   74.39    6.50
   3  -8   2   76.49    4.20
   9   7  -2   13.20    1.80
  -9  -7   2   15.00    1.60
  -9  -7   2   15.30    2.20
   8   7  -2  415.56   16.40
  -8  -7   2  448.46   16.10
   7   7  -2  406.56   16.60
  -7  -7   2  417.26   15.70
   6   7  -2  512.85   19.40
   6   7  -2  489.15   17.50
  -6  -7   2  497.05   18.30
  -6  -7   2  483.05   20.50
  -6  -7   2  486.05   17.10
   5   7  -2  516.45   17.40
   5   7  -2  511.75   19.10
  -5  -7   2  492.35   18.30
  -5  -7   2  500.05   17.30
  -5  -7   2  485.75   20.20
  -5  -7   2  459.45   17.90
   4   7  -2   92.29    4.60
   4   7  -2   94.99    5.60
  -4  -7   2   93.69    6.40
  -4  -7   2   85.79    4.60
  -4  -7   2   86.29    5.30
  -4  -7   2   85.99    5.20
   3   7  -2   36.50    4.00
   3   7  -2   37.40    3.10
   3   7  -2   36.30    2.50
  -3  -7   2   33.30    3.60
  -3  -7   2   32.20    2.60
  -3  -7   2   32.40    3.10
   2   7  -2  328.67   12.40
   2   7  -2  324.87   15.60
   2   7  -2  314.47   13.50
  -2  -7   2  318.97   13.10
  -2  -7   2  298.97   13.50
  -2  -7   2  319.17   11.90
   1   7  -2  727.33   26.80
   1   7  -2  720.13   24.60
   1   7  -2  709.03   29.00
  -1  -7   2  700.33   26.00
  -1  -7   2  730.43   24.30
  -1  -7   2  739.73   26.00
   0   7  -2   96.49    5.60
   0   7  -2  103.19    7.30
   0   7  -2  109.29    5.50
   0   7  -2  106.39    8.70
   0  -7   2  108.59    6.60
   0  -7   2  107.29    5.30
  -1   7  -2 2159.38   67.49
  -1   7  -2 2066.69   68.29
  -1   7  -2 2177.48   71.49
  -1   7  -2 2176.08   74.49
   1  -7   2 2168.38   67.69
   1  -7   2 2144.69   70.29
  -2   7  -2  108.39    9.30
  -2   7  -2  107.49    9.00
   2  -7   2  113.09    5.70
  -3   7  -2  112.39    9.10
   3  -7   2  110.39    5.70
  -4   7  -2  337.57   16.50
   4  -7   2  325.67   12.40
  -5   7  -2    8.10    2.00
   5  -7   2    9.90    1.50
 -10  -6   2  100.69    4.50
   9   6  -2  274.87   11.40
  -9  -6   2  289.47   11.50
  -9  -6   2  275.67   10.80
   8   6  -2   62.39    4.60
  -8  -6   2   65.99    4.20
   7   6  -2   37.30    3.60
   7   6  -2   37.70    3.10
  -7  -6   2   33.10    4.50
  -7  -6   2   45.50    3.40
   6   6  -2  331.07   12.10
   6   6  -2  339.37   13.70
  -6  -6   2  329.97   13.00
  -6  -6   2  329.97   15.30
  -6  -6   2  328.27   12.10
   5   6  -2  287.17   11.90
   5   6  -2  288.67   10.50
  -5  -6   2  281.77   10.70
  -5  -6   2  284.97   11.40
  -5  -6   2  275.77   13.10
   4   6  -2   12.70    1.60
   4   6  -2   16.00    2.00
  -4  -6   2   11.70    2.10
  -4  -6   2   15.00    2.00
  -4  -6   2   14.00    1.60
   3   6  -2    0.00    1.00
   3   6  -2    2.00    1.10
   3   6  -2    2.10    0.80
  -3  -6   2    5.00    1.60
  -3  -6   2    4.40    1.00
   2   6  -2  380.76   13.60
   2   6  -2  356.36   14.00
  -2  -6   2  335.37   12.80
  -2  -6   2  373.66   14.80
   1   6  -2  307.07   11.30
   1   6  -2  311.07   14.90
   1   6  -2  311.67   12.80
  -1  -6   2  298.27   12.20
  -1  -6   2  291.97   12.40
  -1  -6   2  286.27   10.90
   0   6  -2    2.80    2.30
   0   6  -2    6.00    1.20
   0   6  -2    4.70    1.60
   0   6  -2    7.30    1.50
   0  -6   2    5.90    1.20
   0  -6   2    5.30    1.50
   0  -6   2    6.40    1.50
  -1   6  -2  867.01   30.80
  -1   6  -2  950.20   33.80
  -1   6  -2  951.10   36.80
  -1   6  -2  957.20   30.70
   1  -6   2  913.81   31.90
   1  -6   2  903.61   30.00
  -2   6  -2   12.20    2.50
  -2   6  -2   10.10    2.60
  -2   6  -2   11.70    3.40
   2  -6   2   12.80    1.70
   2  -6   2   10.10    2.20
  -3   6  -2   98.19    9.20
  -3   6  -2   88.39    7.30
   3  -6   2   83.89    6.50
   3  -6   2   92.09    5.00
  -4   6  -2  176.48   12.40
   4  -6   2  178.78    8.00
  -5   6  -2  140.29    9.90
   5  -6   2  145.09    6.60
   6  -6   2    1.00    0.90
 -10  -5   2    8.00    1.20
   9   5  -2   25.60    2.00
   9   5  -2   26.30    3.20
  -9  -5   2   27.80    2.50
   8   5  -2   58.59    4.20
   8   5  -2   54.79    3.10
  -8  -5   2   51.19    3.70
   7   5  -2  258.07   11.10
   7   5  -2  258.97    9.60
   7   5  -2  256.67    9.90
  -7  -5   2  231.18   12.60
  -7  -5   2  255.67   10.70
   6   5  -2  364.86   14.20
   6   5  -2  355.96   12.70
   6   5  -2  361.26   12.50
  -6  -5   2  352.26   13.80
  -6  -5   2  331.47   12.60
  -6  -5   2  360.16   15.80
   5   5  -2   93.49    4.20
   5   5  -2  100.39    4.40
   5   5  -2   96.49    5.50
  -5  -5   2   99.99    4.70
  -5  -5   2  100.59    6.50
  -5  -5   2   94.19    5.20
   4   5  -2 1387.16   44.30
   4   5  -2 1376.16   42.80
  -4  -5   2 1369.06   45.90
  -4  -5   2 1340.27   43.40
   3   5  -2  886.51   27.80
   3   5  -2  822.82   28.10
  -3  -5   2  878.41   28.30
  -3  -5   2  907.31   30.60
   2   5  -2  255.47    9.20
   2   5  -2  263.47   10.30
  -2  -5   2  275.47   11.50
   1   5  -2  101.29    5.40
  -1  -5   2   88.79    5.40
   0   5  -2  894.71   30.00
   0  -5   2  826.62   27.60
   0  -5   2  873.81   29.10
   0  -5   2  853.71   28.90
  -1   5  -2    7.00    2.00
  -1   5  -2   11.70    2.60
  -1   5  -2    7.50    1.80
   1  -5   2   10.30    1.60
   1  -5   2   10.70    1.40
   1  -5   2    8.40    1.20
  -2   5  -2  104.29    7.00
  -2   5  -2   99.39    8.50
  -2   5  -2   85.39    5.20
   2  -5   2   98.29    5.70
   2  -5   2   90.79    4.40
  -3   5  -2  849.81   30.00
  -3   5  -2  903.61   36.50
  -3   5  -2  866.21   32.80
   3  -5   2  819.22   28.30
   3  -5   2  857.31   30.80
  -4   5  -2  746.03   32.60
  -4   5  -2  719.13   29.40
   4  -5   2  724.13   25.10
   4  -5   2  710.33   27.60
  -5   5  -2   64.09    7.30
   5  -5   2   71.39    4.60
  -6   5  -2  602.44   25.50
   6  -5   2  598.14   20.80
 -10  -4   2   55.89    3.10
   9   4  -2   14.90    1.60
  -9  -4   2   15.00    1.80
  -9  -4   2   14.30    1.70
   8   4  -2    1.80    1.30
   8   4  -2    0.20    0.70
  -8  -4   2    1.50    0.70
  -8  -4   2    4.10    1.30
   7   4  -2   29.50    2.50
   7   4  -2   31.20    3.20
   7   4  -2   33.10    2.70
  -7  -4   2   35.30    3.10
  -7  -4   2   32.70    2.90
  -7  -4   2   33.70    4.40
   6   4  -2  337.07   12.10
   6   4  -2  330.47   13.30
   6   4  -2  333.87   12.00
  -6  -4   2  330.77   13.20
  -6  -4   2  320.67   14.40
   5   4  -2  149.19    7.30
   5   4  -2  149.88    6.20
   5   4  -2  153.98    6.20
  -5  -4   2  143.29    7.10
  -5  -4   2  173.48    8.60
  -5  -4   2  153.68    6.40
   4   4  -2    6.10    1.00
   4   4  -2    8.70    0.90
   3   4  -2   85.49    3.40
   3   4  -2   80.69    3.30
  -3  -4   2   84.49    5.20
  -3  -4   2   83.19    4.00
   2   4  -2 1445.76   45.00
   2   4  -2 1423.26   44.20
  -2  -4   2 1475.65   46.80
  -2  -4   2 1396.06   44.90
   1   4  -2 1400.66   45.60
   1   4  -2 1490.15   44.40
  -1  -4   2 1418.66   46.40
   0   4  -2 2076.59   66.79
   0  -4   2 2149.19   66.59
  -1   4  -2  477.75   18.20
   1  -4   2  472.85   16.70
   1  -4   2  486.65   16.90
  -2   4  -2  178.08    9.30
  -2   4  -2  170.48   11.20
   2  -4   2  170.18    6.40
   2  -4   2  182.78    7.90
  -3   4  -2 1161.78   40.10
  -3   4  -2 1232.68   40.50
  -3   4  -2 1190.38   46.10
  -3   4  -2 1212.08   39.10
  -3   4  -2 1211.28   42.80
   3  -4   2 1198.48   38.60
   3  -4   2 1304.97   41.10
  -4   4  -2   33.30    4.90
  -4   4  -2   22.40    3.90
  -4   4  -2   31.50    5.50
  -4   4  -2   26.50    2.70
  -4   4  -2   25.00    3.20
   4  -4   2   28.80    3.80
   4  -4   2   31.50    2.80
  -5   4  -2   18.00    4.20
  -5   4  -2   23.10    2.60
  -5   4  -2   25.50    5.20
   5  -4   2   14.50    2.60
  -6   4  -2    2.70    2.40
   6  -4   2    6.60    1.70
  -7   4  -2   95.99    7.20
   7  -4   2   89.99    4.70
  10   3  -2   -0.90    0.80
 -10  -3   2    0.70    0.50
 -10  -3   2    1.80    0.80
   9   3  -2   43.90    2.90
  -9  -3   2   41.40    3.00
  -9  -3   2   44.40    3.20
   8   3  -2   30.20    2.60
  -8  -3   2   32.30    2.90
  -8  -3   2   33.00    3.00
   7   3  -2   28.80    2.50
   7   3  -2   28.00    2.60
   7   3  -2   28.70    3.20
  -7  -3   2   28.40    3.00
  -7  -3   2   29.70    3.00
   6   3  -2  160.48    7.00
   6   3  -2  153.28    7.80
   6   3  -2  158.68    6.80
  -6  -3   2  156.98    8.00
  -6  -3   2  147.59    7.60
   5   3  -2   74.99    3.70
   5   3  -2   71.19    3.80
  -5  -3   2   74.49    4.60
  -5  -3   2   69.19    3.60
  -5  -3   2   68.89    4.90
   4   3  -2  190.18    7.30
   4   3  -2  186.98    7.10
  -4  -3   2  203.28    9.20
  -4  -3   2  195.58    7.70
   3   3  -2  936.81   29.50
  -3  -3   2  954.60   31.80
  -3  -3   2  954.10   31.10
   2   3  -2 3275.67  100.39
   2   3  -2 3315.47  100.99
   2   3  -2 3298.57  100.69
  -2  -3   2 3346.77  102.49
   1   3  -2    9.70    0.70
   1   3  -2    9.10    1.10
   1   3  -2    7.70    0.50
   1   3  -2    7.20    1.10
  -1  -3   2    8.40    1.20
   0   3  -2 4210.08  128.39
   0   3  -2 4270.87  128.49
   0  -3   2 4080.19  128.39
  -1   3  -2 1049.99   35.00
  -1   3  -2 1125.39   35.40
   1  -3   2 1046.60   34.20
  -2   3  -2    4.00    1.40
   2  -3   2    2.90    0.90
   2  -3   2    3.00    0.70
  -3   3  -2   60.09    4.80
  -3   3  -2   55.59    4.20
  -3   3  -2   57.69    6.00
   3  -3   2   59.09    3.90
  -4   3  -2  684.63   23.60
  -4   3  -2  715.63   27.10
  -4   3  -2  661.53   24.20
  -4   3  -2  714.33   25.50
  -4   3  -2  750.22   30.50
   4  -3   2  673.43   25.40
  -5   3  -2  491.65   18.50
  -5   3  -2  527.05   25.40
  -5   3  -2  511.05   18.10
  -5   3  -2  508.25   21.90
   5  -3   2  478.45   18.30
  -6   3  -2  529.15   18.40
  -6   3  -2  467.05   22.40
  -6   3  -2  501.85   25.00
   6  -3   2  522.85   19.20
  -7   3  -2  228.78   13.70
   7  -3   2  222.68    9.70
  -8   3  -2    2.50    1.50
   8  -3   2    3.60    1.10
  10   2  -2    5.20    1.20
 -10  -2   2    3.80    0.70
   9   2  -2    1.90    0.80
  -9  -2   2    1.20    0.70
  -9  -2   2    1.90    1.10
   8   2  -2    1.50    0.90
  -8  -2   2    1.90    0.90
  -8  -2   2    3.40    1.60
   7   2  -2  370.86   14.10
   7   2  -2  372.86   15.10
   7   2  -2  365.76   14.10
  -7  -2   2  357.86   14.90
   6   2  -2   98.69    6.00
   6   2  -2  105.39    5.40
   6   2  -2   99.79    5.20
  -6  -2   2  102.09    5.30
  -6  -2   2   94.79    5.80
   5   2  -2  151.68    6.70
   5   2  -2  152.28    6.50
  -5  -2   2  152.98    7.90
  -5  -2   2  154.38    7.30
   4   2  -2   77.99    3.90
   4   2  -2   79.49    3.70
  -4  -2   2   81.19    4.90
   3   2  -2  195.88    7.10
  -3  -2   2  222.38    8.70
  -3  -2   2  198.78    7.70
   2   2  -2  509.55   16.00
   2   2  -2  516.15   15.80
  -2  -2   2  498.05   16.40
  -2  -2   2  494.35   17.20
   1   2  -2 1155.28   34.70
   1   2  -2 1115.19   33.90
   1   2  -2 1078.29   34.30
  -1  -2   2 1129.09   35.30
  -1  -2   2 1076.39   34.20
   0   2  -2   18.70    1.50
   0   2  -2   18.60    1.50
   0  -2   2   17.20    1.50
   0  -2   2   18.20    0.90
  -1   2  -2  437.56   14.90
  -1   2  -2  445.26   15.00
   1  -2   2  413.76   14.40
  -2   2  -2 1559.04   50.09
  -2   2  -2 1592.64   50.49
   2  -2   2 1639.84   49.50
   2  -2   2 1533.55   48.90
  -3   2  -2 1359.76   43.40
  -3   2  -2 1356.36   42.90
   3  -2   2 1224.18   41.80
  -4   2  -2  323.77   16.00
  -4   2  -2  324.17   13.90
  -4   2  -2  292.77   11.70
  -4   2  -2  310.77   13.30
   4  -2   2  330.67   12.70
  -5   2  -2  198.38    8.60
  -5   2  -2  179.18    8.70
  -5   2  -2  181.38    9.90
  -5   2  -2  209.88   10.90
  -5   2  -2  218.58   13.10
   5  -2   2  190.18    8.40
  -6   2  -2  425.66   16.60
  -6   2  -2  459.65   16.60
  -6   2  -2  470.35   22.60
  -6   2  -2  433.96   19.60
   6  -2   2  432.86   16.70
  -7   2  -2   19.10    4.40
  -7   2  -2   20.20    2.20
   7  -2   2   15.20    2.40
  -8   2  -2   96.89    7.00
   8  -2   2   99.29    5.10
   9   1  -2  138.89    6.20
  -9  -1   2  123.59    5.90
  -9  -1   2  140.09    6.40
   8   1  -2    3.50    1.20
  -8  -1   2   -0.30    1.20
  -8  -1   2    2.30    1.10
   7   1  -2   32.50    3.20
   7   1  -2   34.70    3.10
  -7  -1   2   34.30    3.50
  -7  -1   2   34.80    3.40
   6   1  -2    7.60    1.50
   6   1  -2    9.90    1.70
  -6  -1   2    8.40    2.00
   5   1  -2  360.96   13.40
   5   1  -2  332.77   13.00
  -5  -1   2  358.26   14.30
  -5  -1   2  378.06   12.70
   4   1  -2 1018.30   33.60
  -4  -1   2 1082.69   34.30
  -4  -1   2 1026.10   34.00
  -3  -1   2 3710.53  113.19
  -3  -1   2 3639.74  112.89
  -2  -1   2  836.82   26.50
  -2  -1   2  826.72   26.80
   1   1  -2 3018.20   87.29
   1   1  -2 2907.21   88.19
  -1  -1   2 2734.73   87.39
   0  -1   2 5279.67  159.38
  -1   1  -2 2926.91   88.29
  -1   1  -2 2830.92   88.29
  -2   1  -2 1754.72   55.99
  -2   1  -2 1820.12   55.79
  -3   1  -2  157.18    7.10
  -3   1  -2  152.08    6.60
   3  -1   2  158.48    6.10
  -4   1  -2  176.28    7.90
  -4   1  -2  170.18    8.20
   4  -1   2  168.28    6.90
  -5   1  -2  824.12   28.40
  -5   1  -2  863.51   28.00
  -5   1  -2  766.42   29.30
  -5   1  -2  848.82   29.80
  -5   1  -2  892.21   32.80
   5  -1   2  777.32   27.20
  -6   1  -2  151.58    9.00
  -6   1  -2  147.29    7.70
  -6   1  -2  165.08    7.70
  -6   1  -2  156.78   10.90
   6  -1   2  157.28    7.30
   6  -1   2  170.38    8.20
  -7   1  -2   17.10    4.30
  -7   1  -2   19.40    4.00
  -7   1  -2   22.00    2.50
   7  -1   2   20.40    3.10
  -8   1  -2   26.10    4.00
  -8   1  -2   20.60    2.40
   8  -1   2   23.40    2.60
   9  -1   2   75.49    3.80
   9   0  -2  270.47    9.90
  -9   0   2  261.87    9.70
  -9   0   2  215.58    8.40
   8   0  -2   16.80    2.40
  -8   0   2   17.80    2.30
  -8   0   2   17.30    2.30
   7   0  -2 2679.83   85.59
   7   0  -2 2667.43   85.89
  -7   0   2 2728.93   86.79
  -7   0   2 2751.12   85.89
   6   0  -2   22.00    2.40
  -6   0   2   20.10    2.80
   5   0  -2 2771.82   84.79
   5   0  -2 2700.23   85.69
  -5   0   2 2674.33   83.99
  -5   0   2 2693.83   85.99
   4   0  -2 1017.50   34.00
   4   0  -2 1077.19   35.00
  -4   0   2 1099.19   34.90
  -4   0   2  981.80   33.20
  -4   0   2 1073.09   33.10
   3   0  -2 1397.26   44.40
  -3   0   2 1446.86   44.30
  -3   0   2 1299.57   42.80
  -3   0   2 1392.96   43.50
   2   0  -2 1603.64   48.70
  -2   0   2 1622.44   48.40
  -2   0   2 1512.95   48.00
  -2   0   2 1434.26   47.10
   1   0  -2  604.14   20.10
  -1   0   2  625.04   19.70
   0   0  -2    6.30    0.90
   0   0  -2    6.80    0.40
   0   0   2    5.70    0.70
  -1   0  -2 3091.29   93.69
   1   0   2 3040.00   92.89
  -2   0  -2 1617.14   50.39
  -2   0  -2 1622.64   50.59
  -3   0  -2 4158.28  125.79
   3   0   2 4016.20  123.99
  -4   0  -2  324.67   11.80
  -4   0  -2  315.57   12.40
   4   0   2  306.17   10.10
  -5   0  -2  101.89    5.40
  -5   0  -2  112.89    6.30
   5   0   2  109.49    5.10
   5   0   2  102.79    5.40
  -6   0  -2  371.56   12.90
  -6   0  -2  377.26   15.80
  -6   0  -2  392.26   18.20
  -6   0  -2  375.66   15.00
  -6   0  -2  394.76   14.70
   6   0   2  353.26   13.90
   6   0   2  396.26   14.80
  -7   0  -2  229.38   10.20
  -7   0  -2  236.88   13.10
  -7   0  -2  224.28   11.40
  -7   0  -2  228.08   10.00
   7   0   2  221.48    9.70
   7   0   2  230.48   10.40
  -8   0  -2  138.99    6.90
  -8   0  -2  131.79    8.70
   8   0   2  126.59    6.50
   9   0   2   44.10    3.00
   9  -1  -2   15.00    1.70
  -9   1   2   16.60    1.60
   8  -1  -2   60.79    4.10
  -8   1   2   50.79    3.50
  -8   1   2   44.50    3.20
   7  -1  -2  130.89    7.40
   7  -1  -2  133.99    7.30
  -7   1   2  131.59    6.70
  -7   1   2  112.79    7.10
   6  -1  -2   37.10    4.60
   6  -1  -2   36.40    3.40
  -6   1   2   36.70    4.00
   5  -1  -2  631.44   22.70
   5  -1  -2  633.64   23.70
  -5   1   2  649.93   22.70
  -5   1   2  653.83   23.90
   4  -1  -2    2.60    1.00
   4  -1  -2    0.60    0.70
  -4   1   2    1.20    0.70
  -4   1   2    0.40    0.70
   3  -1  -2 4669.43  148.49
  -3   1   2 5017.70  147.49
  -3   1   2 4854.61  148.29
  -3   1   2 4874.11  149.29
   2  -1  -2  210.98    8.20
  -2   1   2  190.08    7.80
   1  -1  -2  427.06   14.20
  -1   1   2  398.96   13.80
   0  -1  -2 3120.19   90.59
   0   1   2 2848.81   89.59
   0   1   2 2900.01   90.09
  -1  -1  -2 1012.60   30.80
   1   1   2  965.00   30.20
  -2  -1  -2  518.35   17.20
  -2  -1  -2  527.85   17.40
   2   1   2  527.25   16.60
  -3  -1  -2    5.10    0.80
   3   1   2    4.10    0.70
  -4  -1  -2 1123.39   35.80
  -4  -1  -2 1119.79   36.70
   4   1   2 1132.79   35.80
  -5  -1  -2   39.90    3.30
   5   1   2   48.40    3.00
   5   1   2   39.70    2.80
  -6  -1  -2   55.79    4.30
  -6  -1  -2   62.49    5.40
  -6  -1  -2   54.79    3.90
  -6  -1  -2   58.29    3.30
  -6  -1  -2   58.39    4.40
   6   1   2   60.09    3.90
   6   1   2   58.99    3.70
  -7  -1  -2    0.10    1.60
  -7  -1  -2    5.70    1.70
  -7  -1  -2   -0.30    1.00
   7   1   2    1.80    1.00
   7   1   2    2.60    1.00
  -8  -1  -2  101.69    5.80
  -8  -1  -2   96.59    5.70
   8   1   2   97.09    5.30
   9   1   2    1.40    0.90
  10   1   2    1.10    0.70
   8  -2  -2   39.40    3.20
  -8   2   2   46.00    2.90
  -8   2   2   35.70    1.90
   7  -2  -2    9.10    2.10
  -7   2   2    8.70    1.60
   6  -2  -2   11.40    3.50
  -6   2   2    9.80    2.40
  -6   2   2   13.00    5.80
   5  -2  -2  190.48    9.20
   5  -2  -2  183.28   10.20
  -5   2   2  187.78   10.00
  -5   2   2  193.08    9.50
  -5   2   2  196.88   11.40
   4  -2  -2    3.00    1.30
   4  -2  -2    2.40    1.00
  -4   2   2    2.40    1.20
  -4   2   2    2.60    0.90
  -4   2   2    1.20    1.30
   3  -2  -2  811.72   28.30
   3  -2  -2  792.92   27.00
  -3   2   2  860.11   27.60
  -3   2   2  791.52   27.30
   2  -2  -2  210.58    8.90
  -2   2   2  205.48    8.30
   1  -2  -2 2460.05   75.89
  -1   2   2 2419.06   75.19
   0  -2  -2  331.37   11.80
   0   2   2  344.77   11.30
   0   2   2  341.17   11.00
  -1  -2  -2 3312.37  101.89
   1   2   2 3365.76  101.29
  -3  -2  -2  218.68    8.10
   3   2   2  227.18    7.80
  -4  -2  -2  306.17   10.90
   4   2   2  326.07   11.20
  -5  -2  -2 2029.70   65.29
   5   2   2 2231.38   65.79
   5   2   2 2041.50   65.29
  -6  -2  -2  165.68    6.70
  -6  -2  -2  152.38    9.30
  -6  -2  -2  149.69    7.90
  -6  -2  -2  148.79    6.90
   6   2   2  158.48    7.10
   6   2   2  153.38    6.80
  -7  -2  -2  795.12   27.00
  -7  -2  -2  790.72   26.20
  -7  -2  -2  805.82   30.10
  -7  -2  -2  778.72   28.00
   7   2   2  781.92   27.10
   7   2   2  792.02   26.80
  -8  -2  -2   89.79    5.50
  -8  -2  -2   87.89    4.30
  -8  -2  -2   91.19    5.30
   8   2   2   91.09    5.40
   8   2   2   91.59    5.00
  -9  -2  -2   75.69    4.40
   9   2   2   75.59    4.20
  10   2   2  266.07    9.60
   8  -3  -2  222.28    8.70
  -8   3   2  215.28    8.00
   7  -3  -2  100.89    6.00
  -7   3   2  106.19    5.20
  -7   3   2  102.69    5.00
   6  -3  -2  115.79    7.20
  -6   3   2  128.19    9.50
  -6   3   2  124.59    7.30
  -6   3   2  120.09    6.10
   5  -3  -2  349.67   16.90
   5  -3  -2  355.96   15.00
  -5   3   2  345.17   16.00
  -5   3   2  358.36   13.70
  -5   3   2  363.86   18.30
  -5   3   2  333.37   15.60
   4  -3  -2  533.45   19.90
   4  -3  -2  546.15   22.10
  -4   3   2  545.25   21.40
  -4   3   2  525.45   23.30
  -4   3   2  518.45   20.80
   3  -3  -2  242.28   10.50
   3  -3  -2  262.77   12.20
  -3   3   2  263.07   10.40
  -3   3   2  268.27   12.00
  -3   3   2  240.78   11.00
   2  -3  -2 1596.54   52.49
   2  -3  -2 1665.33   54.09
  -2   3   2 1710.03   52.39
   1  -3  -2 1286.87   42.30
  -1   3   2 1313.37   41.10
   0  -3  -2  843.72   27.90
   0   3   2  851.71   26.70
   0   3   2  836.62   26.70
  -1  -3  -2 3098.79   99.79
  -1  -3  -2 3366.96   99.29
   1   3   2 3198.28   98.49
   1   3   2 3239.08   98.29
  -2  -3  -2  593.74   20.50
  -2  -3  -2  611.94   19.30
   2   3   2  574.44   18.70
  -3  -3  -2  229.58    9.30
  -3  -3  -2  205.78    8.10
  -3  -3  -2  210.38    7.20
   3   3   2  217.38    7.60
  -4  -3  -2   42.50    2.40
  -4  -3  -2   44.00    3.40
   4   3   2   43.00    2.40
   4   3   2   41.30    2.40
  -5  -3  -2  302.87   10.50
   5   3   2  325.87   11.30
  -6  -3  -2   22.00    2.70
  -6  -3  -2   21.50    2.00
  -6  -3  -2   24.00    2.20
   6   3   2   27.00    2.30
   6   3   2   22.20    2.10
  -7  -3  -2  312.77   13.70
  -7  -3  -2  302.97   12.00
  -7  -3  -2  327.27   12.20
   7   3   2  337.97   12.60
   7   3   2  308.27   12.10
  -8  -3  -2  869.71   28.90
  -8  -3  -2  855.61   30.40
  -8  -3  -2  844.22   28.70
   8   3   2  896.81   29.00
   8   3   2  852.91   29.30
  -9  -3  -2  201.78    7.90
  -9  -3  -2  250.67   10.30
   9   3   2  255.57    9.50
  10   3   2  180.78    7.00
   7  -4  -2   78.89    4.70
  -7   4   2   77.39    3.80
   6  -4  -2  326.67   13.90
  -6   4   2  320.07   12.10
  -6   4   2  335.07   13.00
  -6   4   2  329.17   16.80
   5  -4  -2    0.70    1.20
   5  -4  -2    2.00    2.90
  -5   4   2    0.20    1.30
  -5   4   2    2.50    1.20
  -5   4   2    3.00    2.40
   4  -4  -2  305.97   15.60
   4  -4  -2  283.27   13.20
  -4   4   2  326.37   17.10
  -4   4   2  294.27   14.40
  -4   4   2  327.47   12.20
  -4   4   2  330.27   15.00
   3  -4  -2 1284.77   45.90
   3  -4  -2 1344.17   48.60
  -3   4   2 1418.66   45.00
  -3   4   2 1359.46   48.00
  -3   4   2 1490.25   47.30
  -3   4   2 1495.15   50.29
   2  -4  -2   24.80    2.50
   2  -4  -2   24.40    3.20
  -2   4   2   25.40    3.20
  -2   4   2   30.60    2.50
  -2   4   2   30.50    2.90
   1  -4  -2 2270.57   76.19
   1  -4  -2 2461.15   78.09
  -1   4   2 2608.14   75.89
   0  -4  -2   23.40    2.40
   0  -4  -2   17.10    1.80
   0   4   2   19.10    1.60
  -1  -4  -2 2991.70   91.39
  -1  -4  -2 2765.42   91.69
   1   4   2 2919.11   89.89
   1   4   2 3078.69   89.99
  -2  -4  -2 2875.81   91.19
  -2  -4  -2 2963.70   89.99
   2   4   2 2944.01   88.89
   2   4   2 2843.62   89.09
  -3  -4  -2 2148.49   67.59
  -3  -4  -2 2129.09   65.39
   3   4   2 2118.09   64.89
   3   4   2 2041.60   64.89
  -4  -4  -2    1.60    0.90
   4   4   2    0.90    0.50
   4   4   2    0.90    0.50
  -5  -4  -2  698.13   23.50
  -5  -4  -2  735.93   26.00
   5   4   2  670.43   22.90
   5   4   2  703.63   23.10
  -6  -4  -2  867.91   28.60
   6   4   2  849.81   28.20
   6   4   2  864.01   28.40
  -7  -4  -2  299.17   11.90
  -7  -4  -2  337.57   12.70
  -7  -4  -2  333.07   14.50
   7   4   2  342.77   12.70
   7   4   2  339.97   12.50
  -8  -4  -2    3.10    1.00
  -8  -4  -2    1.50    1.20
   8   4   2    0.00    0.60
   8   4   2    2.80    1.10
  -9  -4  -2    1.30    0.70
  -9  -4  -2    1.80    1.10
   9   4   2    1.50    0.70
 -10  -4  -2    0.20    1.10
  10   4   2    1.80    0.80
   6  -5  -2   52.69    3.80
  -6   5   2   37.00    4.50
  -6   5   2   46.90    2.60
   5  -5  -2  255.77   11.50
  -5   5   2  249.68   14.30
  -5   5   2  240.98    9.40
  -5   5   2  235.28   10.80
   4  -5  -2    3.90    2.70
   4  -5  -2   11.90    2.20
  -4   5   2    7.60    2.10
  -4   5   2    3.10    2.50
  -4   5   2    7.10    2.70
  -4   5   2    8.40    1.90
   3  -5  -2  390.56   16.00
   3  -5  -2  388.26   18.40
  -3   5   2  402.06   17.50
  -3   5   2  429.06   19.70
  -3   5   2  382.26   14.40
  -3   5   2  401.46   17.10
   2  -5  -2   21.80    2.40
   2  -5  -2   26.40    3.50
  -2   5   2   21.20    3.10
  -2   5   2   19.80    2.80
  -2   5   2   21.20    2.30
   1  -5  -2   17.10    2.00
   1  -5  -2   20.30    2.80
  -1   5   2   12.80    2.40
  -1   5   2   15.80    1.70
   0  -5  -2  895.91   31.00
   0  -5  -2  968.20   32.70
   0   5   2  961.40   30.10
  -1  -5  -2  322.77   13.00
  -1  -5  -2  338.07   13.40
  -1  -5  -2  317.77   12.00
   1   5   2  337.67   11.50
   1   5   2  316.67   11.20
  -2  -5  -2  211.38    8.90
  -2  -5  -2  203.18    8.20
  -2  -5  -2  210.18    9.70
   2   5   2  199.38    7.60
   2   5   2  199.88    7.60
   2   5   2  215.68    7.80
  -3  -5  -2  104.49    5.20
  -3  -5  -2  118.49    5.70
  -3  -5  -2  123.89    7.00
   3   5   2  125.39    5.00
   3   5   2  115.99    4.80
  -4  -5  -2   14.50    1.60
  -4  -5  -2    9.00    1.50
  -4  -5  -2   11.40    1.90
   4   5   2   12.20    1.30
   4   5   2   12.70    1.40
  -5  -5  -2   25.30    3.40
  -5  -5  -2   27.40    2.40
   5   5   2   25.70    2.00
   5   5   2   28.20    2.10
  -6  -5  -2 1018.10   33.80
   6   5   2 1009.20   32.90
   6   5   2 1028.40   33.10
  -7  -5  -2  495.25   18.10
   7   5   2  492.15   17.30
   7   5   2  491.95   17.50
  -8  -5  -2  287.67   13.50
  -8  -5  -2  294.97   11.90
   8   5   2  297.37   11.30
   8   5   2  299.87   11.70
  -9  -5  -2  125.69    7.10
  -9  -5  -2  121.19    5.70
   9   5   2  131.99    5.80
 -10  -5  -2   12.20    1.90
  10   5   2   12.80    1.40
   6  -6  -2  144.09    6.10
   5  -6  -2  220.98    9.30
  -5   6   2  190.48    7.40
  -5   6   2  211.98   11.50
   4  -6  -2   73.39    5.00
  -4   6   2   66.29    4.90
  -4   6   2   69.99    6.80
   3  -6  -2  202.08   12.10
   3  -6  -2  212.58   10.10
  -3   6   2  218.78   11.10
  -3   6   2  204.18   11.10
  -3   6   2  210.18   12.80
   2  -6  -2  343.47   16.10
   2  -6  -2  347.27   13.80
  -2   6   2  311.47   14.50
  -2   6   2  329.77   14.80
  -2   6   2  309.77   16.40
   1  -6  -2   35.80    3.20
   1  -6  -2   36.50    4.20
  -1   6   2   41.70    3.70
   0  -6  -2    5.90    1.80
   0  -6  -2    7.50    1.60
   0   6   2    4.80    1.40
  -1  -6  -2 1419.86   45.60
  -1  -6  -2 1426.76   47.20
   1   6   2 1379.06   44.30
   1   6   2 1437.26   46.40
  -2  -6  -2 1450.35   48.00
  -2  -6  -2 1505.65   47.30
  -2  -6  -2 1378.46   45.80
   2   6   2 1385.96   44.70
   2   6   2 1415.26   45.20
   2   6   2 1509.05   46.80
   2   6   2 1381.76   44.80
  -3  -6  -2 2530.75   79.99
  -3  -6  -2 2379.16   79.89
  -3  -6  -2 2605.84   82.69
  -3  -6  -2 2572.94   80.99
   3   6   2 2762.82   80.99
   3   6   2 2594.14   79.69
   3   6   2 2536.15   79.19
   3   6   2 2543.25   79.29
  -4  -6  -2  556.64   20.40
  -4  -6  -2  643.34   23.90
  -4  -6  -2  582.84   21.20
  -4  -6  -2  610.74   21.00
   4   6   2  623.94   20.10
   4   6   2  604.44   20.40
   4   6   2  619.64   21.70
  -5  -6  -2  210.28   11.40
  -5  -6  -2  202.28    8.80
   5   6   2  206.78    8.10
   5   6   2  209.18    8.30
   5   6   2  204.38    9.30
  -6  -6  -2  547.75   19.80
   6   6   2  540.15   19.00
   6   6   2  556.04   20.50
   6   6   2  556.74   18.80
  -7  -6  -2  209.38    9.20
   7   6   2  206.48    8.70
   7   6   2  211.98    8.50
  -8  -6  -2   12.40    2.50
  -8  -6  -2   10.00    1.60
   8   6   2   10.80    1.60
  -9  -6  -2    3.80    1.40
  -9  -6  -2    0.10    0.50
   9   6   2    1.40    0.70
 -10  -6  -2   74.09    4.30
 -10  -6  -2   53.79    2.70
  10   6   2   68.69    3.10
   5  -7  -2   21.60    1.90
  -5   7   2   19.40    2.50
   4  -7  -2   20.50    2.20
  -4   7   2   12.60    1.70
  -4   7   2   18.60    3.40
   3  -7  -2   52.39    4.00
  -3   7   2   51.79    5.80
  -3   7   2   52.69    4.30
   2  -7  -2    3.80    1.30
   2  -7  -2    1.50    2.10
  -2   7   2    2.80    1.30
  -2   7   2    7.40    2.30
  -2   7   2    2.70    1.60
   1  -7  -2  674.43   27.40
   1  -7  -2  702.53   25.00
  -1   7   2  724.03   26.40
  -1   7   2  700.73   26.40
   0  -7  -2   32.60    3.90
   0  -7  -2   26.50    2.70
   0   7   2   31.20    3.40
   0   7   2   25.60    3.20
  -1  -7  -2   73.09    5.20
  -1  -7  -2   81.49    4.80
  -1  -7  -2   87.19    6.30
   1   7   2   87.09    5.60
  -2  -7  -2    0.70    0.90
  -2  -7  -2    4.20    1.20
  -2  -7  -2    5.30    1.80
   2   7   2   -0.40    0.80
   2   7   2    2.20    1.10
  -3  -7  -2    2.20    1.20
  -3  -7  -2    3.60    1.40
  -3  -7  -2    1.40    0.90
   3   7   2    1.50    1.10
   3   7   2    3.10    0.90
   3   7   2    1.60    1.30
  -4  -7  -2   78.19    6.10
  -4  -7  -2   75.29    5.20
  -4  -7  -2   70.29    4.20
  -4  -7  -2   73.09    4.50
   4   7   2   74.29    5.00
   4   7   2   76.29    3.90
   4   7   2   84.49    4.30
   4   7   2   73.19    4.30
  -5  -7  -2   84.19    6.80
  -5  -7  -2   85.09    4.90
   5   7   2   85.69    4.30
   5   7   2   78.09    5.20
   5   7   2   87.09    4.70
   5   7   2   80.59    4.70
  -6  -7  -2  602.64   21.20
   6   7   2  575.64   20.50
   6   7   2  606.64   20.10
   6   7   2  586.54   21.80
   7   7   2  105.19    6.30
   7   7   2  114.59    5.70
   7   7   2  115.69    5.30
  -8  -7  -2  232.18   12.10
  -8  -7  -2  238.48    9.80
   8   7   2  245.48    9.20
  -9  -7  -2   17.60    2.70
  -9  -7  -2   22.90    2.00
   9   7   2   20.60    1.80
 -10  -7  -2   46.00    2.30
 -10  -7  -2   43.80    3.30
   4  -8  -2   30.50    2.20
  -4   8   2   21.90    3.00
   3  -8  -2    6.60    1.40
  -3   8   2    5.60    2.10
  -3   8   2    3.50    1.00
   2  -8  -2  320.67   12.60
  -2   8   2  314.27   12.90
  -2   8   2  280.97   15.50
   1  -8  -2   50.19    3.80
  -1   8   2   45.60    5.70
  -1   8   2   47.20    4.30
   0  -8  -2  125.69    8.40
   0  -8  -2  122.39    6.60
   0   8   2  128.39    7.80
   0   8   2  120.49    7.30
  -1  -8  -2  462.95   17.20
  -1  -8  -2  454.45   19.50
  -1  -8  -2  435.16   17.90
   1   8   2  479.85   18.90
   1   8   2  452.75   18.30
  -2  -8  -2  445.46   17.60
  -2  -8  -2  452.85   18.90
  -2  -8  -2  459.25   16.90
   2   8   2  453.75   18.00
  -3  -8  -2    2.60    1.30
  -3  -8  -2    2.80    1.00
  -3  -8  -2    3.00    1.70
   3   8   2    3.20    1.20
  -4  -8  -2   95.29    5.50
  -4  -8  -2   84.29    4.90
   4   8   2   92.39    5.90
   4   8   2   95.09    5.10
  -5  -8  -2  523.15   19.20
   5   8   2  526.65   18.90
   5   8   2  535.05   20.30
  -6  -8  -2   35.60    3.00
   6   8   2   36.60    3.40
   6   8   2   26.10    2.80
   6   8   2   30.30    2.40
  -7  -8  -2  270.37   11.00
   7   8   2  266.07   11.70
   7   8   2  276.57   10.00
  -8  -8  -2    1.70    0.80
  -8  -8  -2    1.40    1.30
   8   8   2    3.90    1.50
   8   8   2    3.10    1.10
  -9  -8  -2    2.20    1.00
  -9  -8  -2    2.80    0.80
   2  -9  -2  132.89    5.90
  -2   9   2  115.39    5.00
  -2   9   2  127.79    8.10
   1  -9  -2   19.30    2.20
  -1   9   2   23.50    4.10
  -1   9   2   24.20    2.50
   0  -9  -2  524.35   19.00
   0   9   2  520.85   22.90
  -1  -9  -2  322.27   12.50
   1   9   2  314.57   13.80
   1   9   2  297.27   15.80
  -2  -9  -2  296.57   13.10
  -2  -9  -2  320.87   12.30
   2   9   2  295.77   13.30
  -3  -9  -2  517.55   18.30
  -3  -9  -2  510.85   19.40
   3   9   2  501.15   19.80
  -4  -9  -2   65.59    4.60
   4   9   2   60.19    4.80
  -5  -9  -2   70.29    4.60
   5   9   2   69.09    5.10
  -6  -9  -2   98.39    5.30
   6   9   2   85.99    5.70
  -7  -9  -2  363.26   13.60
   7   9   2  355.96   14.20
  -8  -9  -2   43.90    3.60
  -8  -9  -2   40.00    2.80
   8   9   2   37.50    3.20
  -9  -9  -2  198.48    8.00
  -9  -9  -2  166.68    6.80
   1 -10  -2   50.19    2.70
  -1  10   2   39.50    4.00
   0 -10  -2   32.50    2.30
   0  10   2   28.70    2.60
   0  10   2   29.60    3.80
  -1 -10  -2  123.89    5.70
   1  10   2  111.99    8.00
   1  10   2  117.59    6.50
  -2 -10  -2  441.86   18.80
  -2 -10  -2  458.05   16.10
   2  10   2  470.15   19.80
  -3 -10  -2   36.90    3.30
   3  10   2   34.50    3.50
   3  10   2   38.90    4.30
  -4 -10  -2    7.30    1.70
   4  10   2    5.00    1.50
   4  10   2    5.10    1.70
  -5 -10  -2   14.30    1.90
   5  10   2   10.90    2.20
  -6 -10  -2    1.40    0.90
   6  10   2    1.30    1.00
  -7 -10  -2    9.00    1.30
  -7 -10  -2    9.30    1.60
  -8 -10  -2    1.10    0.60
  -8 -10  -2    2.10    0.80
   8  10   2    0.30    0.90
   2  11   2   57.09    3.60
   2  11   2   53.69    4.20
   3  11   2    1.80    0.90
   3  11   2    2.30    1.40
  -4 -11  -2  348.97   12.60
   4  11   2  340.17   13.10
   4  11   2  316.87   12.60
  -5 -11  -2    0.90    0.70
   5  11   2    2.20    0.90
  -6 -11  -2   73.39    3.80
   6  11   2   69.19    4.10
   6  10  -3   31.80    2.50
   5  10  -3  108.59    5.40
  -5 -10   3  111.89    4.80
   4  10  -3   18.20    2.00
  -4 -10   3   21.80    1.90
   3  10  -3  354.66   12.60
  -3 -10   3  363.16   13.00
  -2 -10   3   26.10    2.10
  -1 -10   3   28.70    2.20
   0 -10   3    4.50    1.00
   8   9  -3    2.00    0.80
  -8  -9   3    2.10    0.70
   7   9  -3   32.10    2.60
  -7  -9   3   33.30    2.50
   6   9  -3  228.58   10.40
  -6  -9   3  267.47    9.40
  -6  -9   3  277.07   10.20
   5   9  -3   44.30    3.50
  -5  -9   3   53.59    3.20
  -4  -9   3    7.90    1.30
   3   9  -3  131.49    6.70
  -3  -9   3  143.89    6.40
   2   9  -3  471.35   16.90
  -2  -9   3  482.95   17.00
   1   9  -3    1.50    2.20
   1   9  -3   -0.60    1.00
   0   9  -3  126.09    8.10
   0  -9   3  123.69    5.90
  -1   9  -3  156.88    9.20
   1  -9   3  171.58    7.10
  -2   9  -3   12.10    2.50
   2  -9   3   16.60    1.60
   8   8  -3  696.73   24.00
  -8  -8   3  699.63   23.50
   7   8  -3  360.56   14.30
  -7  -8   3  370.26   13.90
   6   8  -3  191.38    9.00
  -6  -8   3  178.98    7.40
  -6  -8   3  187.28    8.40
   5   8  -3  427.76   16.80
  -5  -8   3  437.16   16.20
  -5  -8   3  452.15   15.70
   4   8  -3  380.36   15.00
  -4  -8   3  385.46   17.20
  -4  -8   3  370.06   15.50
  -4  -8   3  417.36   14.40
   3   8  -3  854.21   28.20
  -3  -8   3  856.61   27.80
  -3  -8   3  783.72   30.40
  -3  -8   3  811.92   29.30
   2   8  -3    3.50    1.10
  -2  -8   3    2.00    1.70
  -2  -8   3    4.00    1.00
  -2  -8   3    5.20    1.80
   1   8  -3    1.80    2.30
   1   8  -3    0.20    1.80
  -1  -8   3    4.80    1.40
  -1  -8   3    0.70    0.80
   0   8  -3   14.20    2.80
   0   8  -3   14.90    3.70
   0  -8   3   20.10    2.10
  -1   8  -3    2.70    2.20
   1  -8   3    3.00    1.00
  -2   8  -3   44.20    5.20
   2  -8   3   56.09    3.40
  -3   8  -3   50.49    5.00
   3  -8   3   54.19    3.20
   9   7  -3   41.00    3.00
  -9  -7   3   42.30    3.30
  -9  -7   3   49.70    3.00
   8   7  -3    6.40    1.70
  -8  -7   3    8.40    1.60
   7   7  -3   31.80    3.30
  -7  -7   3   37.90    3.20
   6   7  -3  231.48   10.40
  -6  -7   3  200.38   11.30
  -6  -7   3  214.68    8.60
  -6  -7   3  222.08    9.50
   5   7  -3  220.38   11.50
   5   7  -3  257.17   11.10
  -5  -7   3  249.48   10.50
  -5  -7   3  238.18   12.20
  -5  -7   3  248.18    9.70
   4   7  -3  628.74   22.40
   4   7  -3  613.34   21.10
  -4  -7   3  622.64   23.90
  -4  -7   3  598.64   21.10
   3   7  -3 1129.29   34.70
   3   7  -3  982.60   33.60
  -3  -7   3 1023.10   33.70
  -3  -7   3  993.80   36.30
   2   7  -3  355.26   13.40
   2   7  -3  370.56   15.60
   2   7  -3  386.26   13.80
  -2  -7   3  368.56   15.00
  -2  -7   3  338.87   15.20
  -2  -7   3  378.36   13.50
   1   7  -3 1820.82   59.09
   1   7  -3 1883.71   61.89
   1   7  -3 1873.61   64.69
  -1  -7   3 1895.41   60.89
  -1  -7   3 1839.12   61.29
  -1  -7   3 1886.61   58.89
   0   7  -3   59.99    5.60
   0   7  -3   54.09    4.00
   0   7  -3   58.29    3.60
   0   7  -3   61.09    6.70
   0  -7   3   59.29    3.60
   0  -7   3   55.29    4.60
  -1   7  -3  294.67   14.60
  -1   7  -3  289.37   16.30
  -1   7  -3  286.97   11.90
   1  -7   3  294.27   11.10
   1  -7   3  278.77   13.10
  -2   7  -3  148.19    7.50
  -2   7  -3  144.89   10.90
   2  -7   3  142.79    6.60
  -3   7  -3   57.09    6.40
   3  -7   3   58.59    3.60
  -4   7  -3   29.00    4.00
   4  -7   3   32.10    2.40
   9   6  -3  446.86   16.80
  -9  -6   3  485.35   16.50
   8   6  -3   46.50    3.80
  -8  -6   3   46.80    3.40
   7   6  -3  107.89    6.40
  -7  -6   3  114.49    6.00
   6   6  -3  424.96   16.50
  -6  -6   3  428.46   15.90
  -6  -6   3  414.96   18.10
  -6  -6   3  415.56   14.90
   5   6  -3 2014.10   65.19
   5   6  -3 2105.39   64.69
   5   6  -3 2256.47   66.69
  -5  -6   3 1980.20   68.19
  -5  -6   3 2051.59   65.89
  -5  -6   3 2049.89   65.09
   4   6  -3  836.12   28.70
   4   6  -3  902.41   28.10
   4   6  -3  868.61   29.60
  -4  -6   3  867.61   29.50
  -4  -6   3  876.61   28.80
  -4  -6   3  892.71   31.80
   3   6  -3 1687.93   50.99
   3   6  -3 1524.45   50.19
   3   6  -3 1459.85   49.20
  -3  -6   3 1599.34   52.99
  -3  -6   3 1634.04   50.19
   2   6  -3 2339.97   75.59
   2   6  -3 2572.04   75.09
   2   6  -3 2308.97   74.59
  -2  -6   3 2378.36   76.99
  -2  -6   3 2324.87   74.19
   1   6  -3  240.08   10.00
   1   6  -3  258.67   11.70
   1   6  -3  267.97    9.90
   1   6  -3  264.67   14.10
  -1  -6   3  257.27    9.80
  -1  -6   3  254.47   11.60
   0   6  -3 4532.85  137.29
   0   6  -3 4289.37  137.89
   0   6  -3 4642.04  144.69
   0   6  -3 4562.74  140.89
   0  -6   3 4463.55  139.19
   0  -6   3 4383.36  137.19
   0  -6   3 4478.55  139.29
  -1   6  -3 1857.91   62.59
  -1   6  -3 1928.21   66.39
  -1   6  -3 1785.72   59.29
   1  -6   3 1876.11   60.49
   1  -6   3 1855.41   58.19
  -2   6  -3 1128.99   38.70
  -2   6  -3 1208.48   45.70
  -2   6  -3 1187.68   42.30
   2  -6   3 1147.49   39.80
   2  -6   3 1130.49   37.20
  -3   6  -3 2917.31   95.59
  -3   6  -3 2941.51   98.39
  -3   6  -3 2859.21   91.09
   3  -6   3 2785.62   89.39
  -4   6  -3    0.80    1.50
   4  -6   3   -0.70    0.80
  -5   6  -3  451.55   20.30
   5  -6   3  448.86   15.80
   9   5  -3    5.80    1.70
  -9  -5   3    9.60    1.40
   8   5  -3  164.18    8.00
  -8  -5   3  164.48    7.70
   7   5  -3  244.08   10.60
  -7  -5   3  232.98   10.20
  -7  -5   3  215.48   11.90
   6   5  -3  677.33   24.20
   6   5  -3  676.93   22.30
  -6  -5   3  661.33   25.90
  -6  -5   3  663.23   22.60
  -6  -5   3  693.33   23.90
   5   5  -3  340.77   13.50
   5   5  -3  341.87   11.70
  -5  -5   3  332.07   13.20
  -5  -5   3  337.47   15.00
  -5  -5   3  335.17   12.40
   4   5  -3   47.50    2.50
   4   5  -3   45.00    3.40
  -4  -5   3   46.60    4.30
   3   5  -3   35.40    2.00
   3   5  -3   36.60    2.70
  -3  -5   3   36.50    2.50
  -3  -5   3   33.90    3.40
   2   5  -3  508.55   18.30
   2   5  -3  542.95   18.20
  -2  -5   3  525.05   17.90
  -2  -5   3  529.05   20.10
   1   5  -3    6.00    1.60
  -1  -5   3    6.00    1.60
   0   5  -3  334.17   12.70
   0   5  -3  347.47   14.40
   0  -5   3  351.06   13.90
   0  -5   3  348.17   12.20
  -1   5  -3  998.90   38.20
  -1   5  -3  970.80   34.90
  -1   5  -3  932.71   32.20
   1  -5   3 1017.00   33.00
   1  -5   3 1002.10   32.80
   1  -5   3  949.31   31.20
  -2   5  -3  428.46   18.60
  -2   5  -3  406.06   15.80
  -2   5  -3  435.56   21.50
   2  -5   3  423.46   16.20
   2  -5   3  404.96   14.30
  -3   5  -3  184.98    8.90
  -3   5  -3  190.68   13.20
  -3   5  -3  181.08   11.00
   3  -5   3  171.68    9.20
   3  -5   3  165.28    7.20
  -4   5  -3  136.59   11.60
  -4   5  -3  134.79    9.80
  -4   5  -3  137.29    7.80
   4  -5   3  145.19    6.70
  -5   5  -3  323.17   18.00
   5  -5   3  319.97   12.50
  -6   5  -3  110.09    8.20
   6  -5   3  105.89    5.20
 -10  -4   3    6.10    1.00
   9   4  -3  235.08   10.00
  -9  -4   3  225.38    8.50
  -9  -4   3  234.58    9.40
   8   4  -3  143.79    5.90
   8   4  -3  135.29    7.30
  -8  -4   3  136.19    6.40
  -8  -4   3  147.09    7.20
   7   4  -3  198.68    9.40
   7   4  -3  201.58    7.90
   7   4  -3  185.98    8.00
  -7  -4   3  179.78   10.50
  -7  -4   3  207.88    9.30
   6   4  -3   30.90    2.40
   6   4  -3   35.30    3.30
   6   4  -3   28.70    2.30
  -6  -4   3   39.60    4.10
  -6  -4   3   31.90    3.10
  -6  -4   3   29.90    2.70
   5   4  -3  330.07   11.60
   5   4  -3  333.17   13.40
   5   4  -3  345.77   11.60
  -5  -4   3  330.87   12.30
  -5  -4   3  341.27   14.80
  -5  -4   3  328.47   13.30
   4   4  -3  395.06   13.00
   4   4  -3  387.86   14.70
  -4  -4   3  396.66   14.10
  -4  -4   3  390.56   16.10
   3   4  -3   29.10    1.50
  -3  -4   3   22.80    2.70
  -3  -4   3   20.40    1.90
   2   4  -3 1991.40   63.49
   2   4  -3 2109.19   62.89
   2   4  -3 2145.99   64.29
  -2  -4   3 1955.90   63.59
  -2  -4   3 2076.09   65.79
   1   4  -3  526.25   17.60
   1   4  -3  487.55   17.30
  -1  -4   3  473.65   18.00
   0   4  -3  656.73   22.60
   0   4  -3  638.74   22.60
   0  -4   3  633.14   22.40
  -1   4  -3 2632.54   84.99
  -1   4  -3 2690.33   84.59
   1  -4   3 2685.73   83.69
  -2   4  -3   16.50    3.30
  -2   4  -3   15.80    2.80
  -2   4  -3    8.40    2.10
  -2   4  -3   11.50    1.80
   2  -4   3   12.30    1.60
   2  -4   3   14.30    1.80
  -3   4  -3  250.47   11.10
  -3   4  -3  249.48   13.00
  -3   4  -3  265.37   11.10
  -3   4  -3  236.28   15.20
   3  -4   3  256.37   11.10
  -4   4  -3   12.40    3.60
  -4   4  -3    8.90    2.20
  -4   4  -3    8.80    2.30
  -4   4  -3    7.80    2.80
   4  -4   3    6.10    2.40
  -5   4  -3  169.88   11.30
  -5   4  -3  178.98   13.30
   5  -4   3  186.18    8.40
  -6   4  -3   26.70    4.60
   6  -4   3   30.10    3.10
  -7   4  -3   -1.20    1.10
   7  -4   3    0.30    1.10
   9   3  -3   47.00    2.80
  -9  -3   3   50.79    3.40
  -9  -3   3   46.90    3.10
   8   3  -3   77.39    4.10
   8   3  -3   73.79    5.10
  -8  -3   3   79.29    5.00
  -8  -3   3   80.99    4.90
   7   3  -3  939.81   30.80
   7   3  -3  910.71   30.80
   7   3  -3  942.71   32.50
  -7  -3   3  954.80   32.60
   6   3  -3  616.44   22.80
   6   3  -3  626.84   21.20
   6   3  -3  649.14   21.20
  -6  -3   3  627.34   22.90
  -6  -3   3  614.94   23.40
   5   3  -3  186.98    8.90
   5   3  -3  190.28    7.60
   5   3  -3  199.78    7.50
  -5  -3   3  206.78   10.10
  -5  -3   3  190.88    9.10
   4   3  -3 1761.42   54.19
   4   3  -3 1631.74   54.39
  -4  -3   3 1832.72   57.59
  -4  -3   3 1798.92   55.29
   3   3  -3 1413.66   42.30
   3   3  -3 1363.86   42.40
  -3  -3   3 1399.16   45.00
  -3  -3   3 1349.66   43.20
  -3  -3   3 1347.17   43.20
   2   3  -3   36.80    1.60
   2   3  -3   39.00    1.70
   2   3  -3   38.30    2.30
  -2  -3   3   38.00    3.00
  -2  -3   3   37.80    2.10
   1   3  -3  121.39    5.30
   1   3  -3  118.29    5.00
  -1  -3   3  121.59    5.80
  -1  -3   3  114.19    4.30
   0   3  -3 7962.00  239.78
   0   3  -3 7763.62  239.58
  -1   3  -3 1240.88   40.50
  -1   3  -3 1244.38   40.80
   1  -3   3 1249.28   40.00
  -2   3  -3 3049.50   91.09
  -2   3  -3 3025.90   91.69
   2  -3   3 2514.55   87.49
   2  -3   3 2861.91   89.29
   2  -3   3 2999.60   89.69
  -3   3  -3 2672.83   87.29
  -3   3  -3 2668.93   83.69
  -3   3  -3 2438.86   81.29
  -3   3  -3 2489.85   82.39
  -3   3  -3 2612.34   81.39
   3  -3   3 2611.74   80.99
  -4   3  -3   45.90    3.40
  -4   3  -3   48.80    4.10
  -4   3  -3   47.60    5.00
  -4   3  -3   49.90    6.50
  -4   3  -3   54.59    4.10
   4  -3   3   45.80    3.90
  -5   3  -3  842.82   33.60
  -5   3  -3  845.22   29.70
  -5   3  -3  901.91   37.50
  -5   3  -3  883.71   31.50
  -6   3  -3  502.05   25.40
   6  -3   3  543.45   19.30
  -7   3  -3    6.70    2.80
  -8   3  -3  131.59    7.30
   9   2  -3   14.50    1.60
  -9  -2   3   13.20    1.80
  -9  -2   3   14.30    1.80
   8   2  -3  230.88   10.30
   8   2  -3  217.28    9.00
  -8  -2   3  224.88   10.30
  -8  -2   3  217.48   10.10
   7   2  -3    4.20    1.70
   7   2  -3    1.80    1.30
  -7  -2   3    3.70    1.20
   6   2  -3   13.00    1.70
   6   2  -3   17.70    2.50
   6   2  -3   13.60    1.80
  -6  -2   3    7.70    1.90
  -6  -2   3   10.80    2.20
   5   2  -3    2.60    1.30
   5   2  -3   -0.40    0.60
   5   2  -3    0.10    0.60
  -5  -2   3    1.60    1.10
  -5  -2   3    1.20    0.90
   4   2  -3  281.87   10.30
   4   2  -3  274.77    9.90
  -4  -2   3  271.67   10.80
  -4  -2   3  295.37   12.00
  -4  -2   3  282.87   10.50
   3   2  -3  787.02   24.40
   3   2  -3  746.13   24.60
  -3  -2   3  810.62   26.50
  -3  -2   3  774.72   25.10
  -3  -2   3  770.22   25.50
   2   2  -3 1137.59   34.70
   2   2  -3 1133.59   35.80
  -2  -2   3 1146.59   36.80
  -2  -2   3 1131.39   35.80
   1   2  -3  497.05   16.50
   1   2  -3  496.45   15.90
  -1  -2   3  490.95   15.90
  -1  -2   3  489.05   17.10
   0   2  -3 2174.98   66.69
   0   2  -3 2173.48   66.99
   0  -2   3 2143.59   65.69
   0  -2   3 2119.19   67.09
  -1   2  -3  563.54   19.20
  -1   2  -3  594.04   19.40
   1  -2   3  557.74   19.00
   1  -2   3  542.25   17.70
  -2   2  -3   68.69    4.30
  -2   2  -3   64.39    4.00
   2  -2   3   63.19    3.40
  -3   2  -3  303.37   12.50
  -3   2  -3  281.87   11.60
   3  -2   3  283.57   10.70
   3  -2   3  277.37   10.10
  -4   2  -3  646.94   24.10
  -4   2  -3  615.94   21.70
  -4   2  -3  671.13   27.20
  -4   2  -3  646.54   23.00
  -4   2  -3  609.24   23.10
  -4   2  -3  598.74   22.20
   4  -2   3  620.24   21.90
  -5   2  -3  150.48    8.50
  -5   2  -3  143.69    7.00
  -5   2  -3  165.18   11.40
  -5   2  -3  151.88    9.40
  -5   2  -3  135.59    7.40
  -6   2  -3  183.28   12.40
  -6   2  -3  174.28    8.40
  -6   2  -3  171.48    8.00
  -6   2  -3  163.38   10.30
   6  -2   3  156.48    8.40
   6  -2   3  159.68    7.70
  -7   2  -3   85.99    8.30
   7  -2   3   91.99    5.10
  -8   2  -3   73.59    6.20
   8  -2   3   77.69    4.20
   9   1  -3    3.90    1.00
  -9  -1   3    2.80    0.90
  -9  -1   3    2.50    1.10
   8   1  -3   88.59    5.00
  -8  -1   3   86.69    5.40
  -8  -1   3   91.69    5.80
   7   1  -3    3.50    2.00
   7   1  -3    5.70    1.80
   7   1  -3    4.70    1.40
  -7  -1   3    3.40    1.30
   6   1  -3  370.36   13.90
   6   1  -3  370.06   14.00
   6   1  -3  348.97   15.10
  -6  -1   3  367.06   15.30
   5   1  -3  161.28    7.20
   5   1  -3  166.88    7.10
  -5  -1   3  162.98    7.40
  -5  -1   3  161.78    8.40
   4   1  -3   65.29    3.60
   4   1  -3   62.49    3.30
  -4  -1   3   62.89    3.50
  -4  -1   3   69.19    4.30
  -4  -1   3   64.99    4.20
  -3  -1   3  236.68    9.40
  -3  -1   3  238.18    9.60
   2   1  -3 2094.89   63.39
   2   1  -3 2096.89   64.59
  -2  -1   3 2004.30   64.99
  -2  -1   3 2128.59   64.69
   1   1  -3    7.10    1.00
  -1  -1   3    8.70    1.00
   0   1  -3 2532.65   78.99
   0   1  -3 2539.45   78.39
   0  -1   3 2594.94   78.09
  -1   1  -3 1761.12   56.29
  -1   1  -3 1812.02   56.49
   1  -1   3 1842.92   55.49
  -2   1  -3   25.80    2.20
  -2   1  -3   26.90    2.30
  -3   1  -3  509.95   18.50
  -3   1  -3  510.05   17.90
   3  -1   3  501.75   16.80
  -4   1  -3  445.56   17.20
  -4   1  -3  432.76   16.30
   4  -1   3  440.66   14.80
   4  -1   3  417.86   14.30
  -5   1  -3 1257.07   40.40
  -5   1  -3 1082.89   41.50
  -5   1  -3 1314.07   45.80
  -5   1  -3 1244.68   41.10
  -5   1  -3 1229.28   42.50
   5  -1   3 1262.67   40.40
  -6   1  -3  359.26   14.50
  -6   1  -3  378.06   18.90
  -6   1  -3  354.36   16.30
  -6   1  -3  367.56   14.20
   6  -1   3  358.16   14.40
   6  -1   3  339.37   13.40
  -7   1  -3  840.42   29.70
  -7   1  -3  899.21   35.20
  -7   1  -3  887.01   29.80
   7  -1   3  840.52   29.30
  -8   1  -3    1.10    1.70
   8  -1   3    4.10    1.30
   9  -1   3   26.60    2.00
   9   0  -3   82.39    4.10
  -9   0   3   90.99    4.30
  -9   0   3   76.99    3.70
   8   0  -3   32.10    2.80
  -8   0   3   26.00    2.90
  -8   0   3   30.50    2.80
   7   0  -3  115.99    6.80
   7   0  -3  125.39    6.60
  -7   0   3  116.89    6.80
  -7   0   3  124.19    7.50
   6   0  -3  225.78    9.80
   6   0  -3  217.08   10.90
   6   0  -3  208.38    9.60
  -6   0   3  230.18   11.20
   5   0  -3 1270.17   41.60
   5   0  -3 1130.09   43.00
   5   0  -3 1246.88   40.00
  -5   0   3 1228.28   41.60
   4   0  -3  287.17   11.50
   4   0  -3  321.97   12.90
  -4   0   3  319.67   12.80
  -4   0   3  324.27   11.80
  -4   0   3  291.87   10.40
   3   0  -3    4.90    1.20
   3   0  -3    3.40    1.10
  -3   0   3    4.90    1.20
  -3   0   3    6.50    0.80
   2   0  -3 3584.74  113.59
  -2   0   3 3766.32  113.19
   1   0  -3  418.16   14.80
  -1   0   3  424.86   14.30
   0   0   3  229.08    8.10
  -1   0  -3  972.70   29.60
  -1   0  -3  943.31   29.90
   1   0   3  896.41   28.20
   1   0   3  880.31   29.00
  -2   0  -3  151.48    6.50
  -2   0  -3  151.98    6.50
   2   0   3  155.58    5.50
  -3   0  -3 2515.45   79.59
  -3   0  -3 2609.94   80.29
   3   0   3 2541.15   78.79
   3   0   3 2590.74   78.19
  -4   0  -3  483.75   18.00
  -4   0  -3  479.75   17.20
   4   0   3  493.45   16.70
  -5   0  -3  949.71   31.90
  -5   0  -3  892.51   31.30
  -5   0  -3  949.21   34.80
  -5   0  -3  840.92   30.40
  -5   0  -3  931.11   32.10
  -5   0  -3  919.81   31.20
   5   0   3  930.41   30.40
  -6   0  -3   17.50    2.40
  -6   0  -3   15.60    2.70
  -6   0  -3   16.00    2.50
  -6   0  -3   16.80    3.50
   6   0   3   21.30    2.30
   6   0   3   19.00    2.40
  -7   0  -3    6.40    1.80
  -7   0  -3    2.90    2.00
  -7   0  -3    8.00    1.90
  -7   0  -3    6.90    2.70
   7   0   3    5.80    1.40
   7   0   3    7.40    1.60
  -8   0  -3  285.07   14.20
  -8   0  -3  252.97   10.70
   8   0   3  263.17   10.60
   9   0   3   70.49    3.70
   8  -1  -3   98.19    5.30
  -8   1   3   97.69    5.00
  -8   1   3   91.99    5.30
   7  -1  -3  565.24   20.50
  -7   1   3  530.55   21.40
  -7   1   3  548.95   20.00
   6  -1  -3   20.70    2.60
  -6   1   3   19.90    3.10
   5  -1  -3 1059.29   36.50
   5  -1  -3 1013.50   34.50
   5  -1  -3 1003.40   36.40
  -5   1   3  980.40   36.60
  -5   1   3 1083.59   36.60
   4  -1  -3   60.39    4.70
   4  -1  -3   62.79    4.00
  -4   1   3   57.89    3.50
  -4   1   3   62.99    4.70
  -4   1   3   62.29    4.50
   3  -1  -3  406.86   14.80
   3  -1  -3  438.36   16.30
  -3   1   3  411.16   14.60
  -3   1   3  410.96   15.60
  -3   1   3  419.96   14.40
   2  -1  -3 1557.94   48.70
  -2   1   3 1458.95   48.00
   1  -1  -3 2923.81   86.59
  -1   1   3 2639.24   85.69
   0  -1  -3 1953.20   58.59
   0   1   3 1747.33   57.79
   0   1   3 1917.91   57.09
  -3  -1  -3 2824.32   89.39
  -3  -1  -3 2948.00   89.89
   3   1   3 2909.31   88.59
  -4  -1  -3 1175.28   38.90
  -4  -1  -3 1241.78   40.00
   4   1   3 1235.48   38.60
  -5  -1  -3  376.46   17.10
  -5  -1  -3  364.16   13.90
  -5  -1  -3  393.66   14.20
  -5  -1  -3  379.66   14.90
  -5  -1  -3  378.86   15.00
   5   1   3  353.16   13.20
   5   1   3  398.86   13.80
  -6  -1  -3  210.88   10.00
  -6  -1  -3  211.18    8.00
  -6  -1  -3  213.28   10.30
  -6  -1  -3  204.88    9.10
  -6  -1  -3  216.58   12.00
   6   1   3  195.18    8.30
   6   1   3  212.38    9.00
  -7  -1  -3  165.98    8.20
  -7  -1  -3  171.88   10.60
  -7  -1  -3  178.08    8.80
   7   1   3  166.18    7.50
   7   1   3  168.98    8.10
  -8  -1  -3   30.90    3.00
   8   1   3   25.80    2.50
  -9  -1  -3    5.20    1.50
   8  -2  -3    9.60    1.80
  -8   2   3   11.20    1.40
  -8   2   3    7.40    1.10
   7  -2  -3   41.70    3.60
  -7   2   3   42.40    3.10
  -7   2   3   31.40    3.50
   6  -2  -3   37.20    3.60
   6  -2  -3   27.40    5.50
  -6   2   3   30.20    3.00
  -6   2   3   38.30    4.10
   5  -2  -3   56.39    5.50
   5  -2  -3   58.49    4.50
  -5   2   3   58.89    5.30
  -5   2   3   58.39    5.10
   4  -2  -3   55.19    4.00
   4  -2  -3   60.49    5.20
  -4   2   3   61.29    4.40
  -4   2   3   61.69    4.30
  -4   2   3   65.09    5.10
   3  -2  -3  487.75   17.60
   3  -2  -3  505.85   19.30
  -3   2   3  452.45   17.50
  -3   2   3  523.95   18.30
  -3   2   3  497.45   16.20
   2  -2  -3    1.10    0.70
   2  -2  -3    0.30    0.60
  -2   2   3    0.90    0.60
   1  -2  -3  618.14   21.80
  -1   2   3  644.34   21.20
   0  -2  -3 5038.70  153.38
   0   2   3 4977.50  152.68
  -1  -2  -3 4596.54  141.99
   1   2   3 4710.93  141.69
   1   2   3 4633.04  140.89
  -2  -2  -3   52.59    2.60
   2   2   3   52.99    2.30
  -3  -2  -3  479.15   16.70
   3   2   3  488.05   15.70
  -4  -2  -3  714.73   24.20
   4   2   3  753.42   23.80
  -5  -2  -3 1053.19   36.30
  -5  -2  -3 1096.99   34.90
   5   2   3 1127.39   34.80
   5   2   3 1028.50   34.30
  -6  -2  -3   52.69    3.20
  -6  -2  -3   49.30    4.10
  -6  -2  -3   51.09    3.60
  -6  -2  -3   58.29    5.30
   6   2   3   52.59    3.40
   6   2   3   52.89    3.30
  -7  -2  -3  315.27   11.60
  -7  -2  -3  326.57   14.00
  -7  -2  -3  343.57   13.10
   7   2   3  333.77   12.90
   7   2   3  337.37   12.60
  -8  -2  -3  387.36   15.60
   8   2   3  394.16   14.30
  -9  -2  -3    3.00    1.10
   9   2   3    3.20    1.00
  10   2   3    9.10    1.20
  -8   3   3    4.70    1.00
   7  -3  -3    4.90    1.50
  -7   3   3    4.40    1.20
  -7   3   3    5.20    1.20
   6  -3  -3   69.89    5.20
  -6   3   3   75.39    4.50
  -6   3   3   64.79    5.50
   5  -3  -3    6.00    1.60
   5  -3  -3    1.60    2.10
  -5   3   3    4.00    1.40
  -5   3   3    1.90    2.70
  -5   3   3    2.70    1.80
  -5   3   3    7.50    3.30
   4  -3  -3   31.10    3.10
   4  -3  -3   24.40    3.70
  -4   3   3   23.50    2.70
  -4   3   3   24.90    4.60
  -4   3   3   33.40    4.10
  -4   3   3   18.80    3.30
   3  -3  -3  471.15   17.40
   3  -3  -3  462.15   19.30
  -3   3   3  457.25   19.20
  -3   3   3  485.15   17.40
  -3   3   3  450.65   17.60
   2  -3  -3   19.60    2.20
   2  -3  -3   22.50    2.80
  -2   3   3   19.50    2.10
   1  -3  -3  352.36   13.00
   1  -3  -3  367.86   14.40
  -1   3   3  362.96   13.00
   0  -3  -3   13.80    1.80
   0   3   3   15.20    1.30
   0   3   3   16.10    1.60
  -1  -3  -3 1766.62   54.89
   1   3   3 1708.23   53.89
   1   3   3 1737.03   53.49
  -2  -3  -3 3272.27   99.79
   2   3   3 3220.58   98.89
  -3  -3  -3   55.19    2.40
  -3  -3  -3   61.59    3.70
   3   3   3   61.29    2.80
  -4  -3  -3 4364.46  135.29
   4   3   3 4591.04  134.59
   4   3   3 4272.47  134.49
  -5  -3  -3  188.38    9.10
  -5  -3  -3  197.48    7.70
  -5  -3  -3  193.88    8.80
   5   3   3  193.68    7.60
   5   3   3  178.58    7.30
  -6  -3  -3 1400.86   47.00
  -6  -3  -3 1318.97   44.70
  -6  -3  -3 1453.65   45.20
   6   3   3 1485.75   45.10
   6   3   3 1371.36   44.60
  -7  -3  -3   88.79    6.00
  -7  -3  -3   89.69    4.90
  -7  -3  -3   87.39    4.70
   7   3   3   95.59    4.80
   7   3   3   96.59    5.00
  -8  -3  -3    4.30    1.40
  -8  -3  -3    2.50    0.90
   8   3   3    1.30    1.20
   8   3   3    2.10    0.80
  -9  -3  -3   -0.10    1.00
   9   3   3    1.90    0.90
 -10  -3  -3  102.39    4.50
  10   3   3  100.89    4.40
   7  -4  -3    0.00    0.80
  -7   4   3   -0.30    0.70
   6  -4  -3   81.89    5.20
  -6   4   3   73.29    4.10
  -6   4   3   70.89    5.00
   5  -4  -3   19.60    2.80
  -5   4   3   17.60    4.20
  -5   4   3   24.40    3.40
  -5   4   3   21.90    2.40
   4  -4  -3    0.40    0.70
   4  -4  -3    0.40    1.40
  -4   4   3    1.30    1.50
  -4   4   3    1.00    2.00
  -4   4   3    0.70    1.40
  -4   4   3   -0.30    2.10
   3  -4  -3   12.60    2.10
   3  -4  -3   12.40    2.80
  -3   4   3   10.50    1.90
  -3   4   3    8.20    2.60
  -2   4   3    6.80    1.50
  -2   4   3    5.80    2.10
   1  -4  -3 3458.55  108.29
   1  -4  -3 3283.77  106.09
  -1   4   3 3511.95  105.69
   0  -4  -3 1155.88   38.20
   0  -4  -3 1115.59   36.70
   0   4   3 1089.39   35.60
   0   4   3 1169.18   36.30
  -1  -4  -3  996.60   32.80
  -1  -4  -3  961.30   31.60
   1   4   3  999.90   31.20
   1   4   3  922.61   30.80
   1   4   3 1000.40   30.90
  -2  -4  -3  799.92   25.80
   2   4   3  767.72   24.40
   2   4   3  720.63   24.30
   2   4   3  770.52   24.80
  -3  -4  -3   55.29    3.10
   3   4   3   62.29    2.90
   3   4   3   54.09    2.80
  -4  -4  -3 2254.37   72.09
   4   4   3 2377.86   71.09
   4   4   3 2273.97   70.99
  -5  -4  -3    7.30    1.60
  -5  -4  -3    8.90    1.50
   5   4   3    9.80    1.30
   5   4   3    6.40    1.10
  -6  -4  -3  607.64   23.90
  -6  -4  -3  655.53   22.20
   6   4   3  638.54   21.50
   6   4   3  658.53   21.80
  -7  -4  -3  810.52   27.20
  -7  -4  -3  797.42   29.30
   7   4   3  812.32   26.90
   7   4   3  798.82   27.10
  -8  -4  -3  450.75   16.90
  -8  -4  -3  481.95   19.20
   8   4   3  497.65   19.60
   8   4   3  511.95   17.20
  -9  -4  -3    0.20    0.50
  -9  -4  -3   -0.80    0.80
 -10  -4  -3  443.86   15.70
  10   4   3  449.16   15.00
   6  -5  -3   -0.10    0.70
  -6   5   3    1.10    0.80
  -6   5   3    3.30    1.20
   5  -5  -3  178.18    8.70
  -5   5   3  167.28   10.80
  -5   5   3  164.38    6.90
  -5   5   3  171.88    8.80
   4  -5  -3  137.49    7.90
   4  -5  -3  132.19   10.00
  -4   5   3  140.69    6.40
  -4   5   3  144.19    9.00
  -4   5   3  148.59   10.40
  -4   5   3  146.29    9.30
   3  -5  -3    8.80    2.80
   3  -5  -3    6.30    1.80
  -3   5   3   11.00    2.70
  -3   5   3   10.30    2.20
  -3   5   3    8.00    2.10
  -3   5   3    7.60    2.90
   2  -5  -3  998.80   38.00
   2  -5  -3 1003.60   37.10
   2  -5  -3 1014.20   35.30
  -2   5   3 1060.89   37.40
  -2   5   3 1040.30   34.00
  -2   5   3 1065.79   35.60
   1  -5  -3  114.19    6.20
   1  -5  -3  109.59    7.60
  -1   5   3  123.99    5.80
  -1   5   3  119.59    7.40
   0  -5  -3  169.38    9.10
   0  -5  -3  162.28    7.70
   0   5   3  182.28    8.80
   0   5   3  171.98    7.00
   0   5   3  157.28    6.30
  -1  -5  -3  259.27   10.40
  -1  -5  -3  264.77   11.70
   1   5   3  278.37    9.80
   1   5   3  259.57    9.30
   1   5   3  248.68    9.60
  -2  -5  -3  256.07   10.80
  -2  -5  -3  241.78    9.80
   2   5   3  243.38    9.10
   2   5   3  250.87    9.30
   2   5   3  260.37    9.30
  -3  -5  -3   63.79    4.10
   3   5   3   66.29    3.40
   3   5   3   66.59    3.30
   3   5   3   67.09    3.60
  -4  -5  -3   13.90    2.00
  -4  -5  -3   17.80    1.90
   4   5   3   16.10    1.60
   4   5   3   18.70    1.60
  -5  -5  -3 1860.61   60.09
   5   5   3 1901.21   59.39
   5   5   3 1944.21   59.49
   6   5   3    6.20    1.30
  -7  -5  -3  555.94   22.10
  -7  -5  -3  553.64   19.60
   7   5   3  540.85   19.30
   7   5   3  561.04   19.10
  -8  -5  -3    1.40    0.90
  -8  -5  -3    1.10    1.20
   8   5   3    2.30    0.80
  -9  -5  -3   53.29    4.20
  -9  -5  -3   44.50    2.70
   9   5   3   53.19    3.20
 -10  -5  -3  115.89    5.70
  10   5   3  110.39    4.70
   5  -6  -3    3.80    1.20
  -5   6   3    4.50    1.10
  -5   6   3    6.20    2.10
   4  -6  -3   38.80    3.50
  -4   6   3   31.10    4.60
  -4   6   3   35.90    3.60
   3  -6  -3  114.79    8.80
   3  -6  -3  114.69    6.70
  -3   6   3  100.09    7.20
  -3   6   3  103.09    8.50
  -3   6   3  118.99    7.80
   2  -6  -3  552.44   23.90
   2  -6  -3  562.94   20.90
  -2   6   3  552.14   23.80
  -2   6   3  537.95   21.50
   1  -6  -3  240.18   12.70
   1  -6  -3  213.88   11.30
   1  -6  -3  234.28   10.40
  -1   6   3  226.38   10.80
  -1   6   3  237.28   11.80
   0  -6  -3  613.74   22.10
   0  -6  -3  631.34   24.40
   0  -6  -3  591.04   22.90
   0   6   3  643.24   23.50
   0   6   3  606.24   21.00
  -1  -6  -3  326.37   12.90
  -1  -6  -3  316.07   13.30
  -1  -6  -3  334.07   14.60
   1   6   3  330.97   12.10
   1   6   3  319.87   11.40
   1   6   3  343.37   13.90
  -2  -6  -3   20.20    2.70
  -2  -6  -3   15.30    2.00
  -2  -6  -3   14.60    2.10
   2   6   3   16.90    1.70
   2   6   3   16.20    2.50
   2   6   3   19.40    1.90
   2   6   3   19.70    1.90
  -3  -6  -3 2854.41   89.49
  -3  -6  -3 2613.64   88.99
  -3  -6  -3 2761.82   90.59
   3   6   3 2852.71   88.79
   3   6   3 2931.01   88.89
   3   6   3 3079.29   90.79
   3   6   3 2970.60   88.59
  -4  -6  -3    6.50    1.80
  -4  -6  -3    6.70    1.90
  -4  -6  -3    6.70    1.40
   4   6   3    6.30    1.20
   4   6   3    7.00    1.40
   4   6   3    6.30    1.20
   4   6   3    5.80    1.70
  -5  -6  -3  245.78   10.10
   5   6   3  245.58    9.60
   5   6   3  251.57   11.10
   5   6   3  238.78    9.30
  -6  -6  -3  605.94   21.40
   6   6   3  618.84   21.00
   6   6   3  603.24   20.70
  -7  -6  -3   32.40    3.90
  -7  -6  -3   31.60    2.80
   7   6   3   34.00    2.90
   7   6   3   31.30    2.60
  -8  -6  -3  176.88    9.80
  -8  -6  -3  167.68    7.50
   8   6   3  174.38    7.40
  -9  -6  -3   44.00    3.90
  -9  -6  -3   37.50    2.60
   9   6   3   45.50    2.80
 -10  -6  -3   12.80    1.90
  10   6   3   12.10    1.20
   4  -7  -3   83.49    4.60
  -4   7   3   80.99    6.30
  -4   7   3   76.79    4.30
   3  -7  -3  425.26   16.10
  -3   7   3  412.56   16.80
  -3   7   3  408.66   19.20
   2  -7  -3  485.95   18.20
  -2   7   3  461.85   19.50
  -2   7   3  462.25   21.40
   1  -7  -3  190.88   10.40
   1  -7  -3  201.08   11.90
   1  -7  -3  213.48    9.70
  -1   7   3  204.38   10.60
  -1   7   3  205.78   10.80
   0  -7  -3   71.59    6.30
   0  -7  -3   70.99    5.20
   0  -7  -3   72.09    4.90
   0   7   3   77.19    5.80
  -1  -7  -3  199.58   11.00
  -1  -7  -3  217.48    9.50
  -1  -7  -3  199.58    9.80
   1   7   3  215.18   10.40
  -2  -7  -3    2.70    1.00
  -2  -7  -3    2.60    1.30
  -2  -7  -3    3.30    1.30
   2   7   3    0.90    1.20
   2   7   3    3.20    1.20
  -3  -7  -3  437.96   16.50
  -3  -7  -3  437.26   17.00
  -3  -7  -3  459.85   18.50
   3   7   3  456.85   16.30
   3   7   3  465.55   16.20
   3   7   3  467.05   15.70
   3   7   3  470.15   17.90
  -4  -7  -3  202.38    9.10
   4   7   3  213.78    8.40
   4   7   3  207.98   10.00
   4   7   3  209.88    8.70
   4   7   3  204.58    8.70
  -5  -7  -3  135.59    6.70
   5   7   3  137.09    6.60
   5   7   3  134.69    6.10
   5   7   3  137.59    7.50
   5   7   3  134.99    6.70
  -6  -7  -3    9.10    1.60
   6   7   3   17.00    2.60
   6   7   3   12.70    1.80
   6   7   3   11.10    1.90
  -7  -7  -3  196.18   10.80
  -7  -7  -3  194.08    8.60
   7   7   3  198.98   10.30
   7   7   3  197.18    8.10
  -8  -7  -3  760.92   26.00
  -8  -7  -3  765.92   28.90
   8   7   3  797.62   25.60
  -9  -7  -3  390.16   14.00
  -9  -7  -3  384.36   16.00
   9   7   3  426.36   13.90
   3  -8  -3    3.30    1.00
  -3   8   3    3.30    1.10
  -3   8   3    2.80    1.50
   2  -8  -3   93.59    5.20
  -2   8   3   83.99    7.30
  -2   8   3   87.49    5.80
   1  -8  -3  134.09    6.90
  -1   8   3  130.29    9.30
  -1   8   3  133.99    7.90
   0  -8  -3  765.22   26.50
   0  -8  -3  736.43   27.70
   0   8   3  764.52   28.10
  -1  -8  -3   94.19    7.20
  -1  -8  -3   81.79    5.80
  -1  -8  -3   91.39    5.40
   1   8   3   96.39    6.40
  -2  -8  -3   32.50    4.10
  -2  -8  -3   28.10    2.80
  -2  -8  -3   28.70    3.10
   2   8   3   30.40    3.50
  -3  -8  -3  881.61   33.00
  -3  -8  -3  875.71   30.00
  -3  -8  -3  933.01   31.40
   3   8   3  903.61   32.00
   3   8   3  911.61   30.40
  -4  -8  -3   41.10    3.50
   4   8   3   40.00    3.90
   4   8   3   41.50    3.30
  -5  -8  -3  363.66   14.10
   5   8   3  356.16   14.90
   5   8   3  333.87   13.60
   5   8   3  369.36   12.70
  -6  -8  -3   45.10    3.50
   6   8   3   44.50    2.90
   6   8   3   43.80    3.90
  -7  -8  -3   20.90    2.30
  -7  -8  -3   24.70    3.10
   7   8   3   21.10    3.10
   7   8   3   17.20    2.00
  -8  -8  -3    8.90    1.50
  -8  -8  -3    9.10    2.20
   8   8   3   12.90    1.60
  -9  -8  -3  127.89    6.60
  -9  -8  -3  111.99    5.10
   9   8   3  121.49    4.80
   2  -9  -3    0.70    0.90
  -2   9   3    0.40    1.00
  -2   9   3    1.30    0.80
   1  -9  -3    2.30    0.90
  -1   9   3    1.90    1.30
   0  -9  -3    1.30    0.90
   0   9   3    1.10    1.30
   0   9   3    1.80    1.20
  -1  -9  -3   99.89    5.30
  -1  -9  -3   96.89    6.30
   1   9   3   87.39    6.30
  -2  -9  -3    3.50    1.20
  -2  -9  -3    8.20    1.90
   2   9   3    4.50    1.60
  -3  -9  -3  299.37   12.50
   3   9   3  269.77   12.80
  -4  -9  -3   20.30    2.60
   4   9   3   22.40    3.00
  -5  -9  -3  106.99    6.00
   5   9   3  104.39    6.50
  -6  -9  -3   56.19    3.80
  -6  -9  -3   53.39    4.10
   6   9   3   46.40    4.00
  -7  -9  -3   13.10    2.20
  -7  -9  -3   16.00    1.90
   7   9   3   11.20    2.40
  -8  -9  -3   43.20    2.90
  -8  -9  -3   48.70    3.60
   0  10   3   54.09    4.80
   0  10   3   52.09    3.70
  -1 -10  -3   56.09    3.50
   1  10   3   61.69    5.40
   1  10   3   63.09    4.50
  -2 -10  -3  230.68   10.30
   2  10   3  218.88   11.90
   2  10   3  237.08   10.70
  -3 -10  -3   55.79    4.20
   3  10   3   60.39    4.70
  -4 -10  -3  233.78   10.40
   4  10   3  246.98   11.00
  -5 -10  -3    0.30    0.70
  -5 -10  -3    2.00    1.20
   5  10   3    0.30    1.00
  -6 -10  -3   38.70    2.90
  -6 -10  -3   43.00    3.20
   6  10   3   38.50    3.50
  -7 -10  -3   54.59    3.30
  -7 -10  -3   52.19    3.20
   7  10   3   49.70    3.50
  -3 -11  -3   18.40    2.30
   3  11   3   21.70    2.40
   3  11   3   22.20    2.60
  -4 -11  -3    3.40    1.10
   4  11   3    4.90    1.30
   4  11   3    2.80    1.60
  -5 -11  -3    5.90    1.20
   5  11   3    4.40    1.40
   6  10  -4   34.30    2.20
   5  10  -4   26.50    2.00
  -5 -10   4   23.10    1.80
   4  10  -4   -0.40    0.60
  -4 -10   4    1.10    0.60
  -3 -10   4  147.99    6.10
  -2 -10   4  148.79    6.20
  -1 -10   4  178.58    7.00
   7   9  -4   30.00    2.50
  -7  -9   4   33.70    2.20
   6   9  -4   52.29    3.40
  -6  -9   4   54.19    2.90
   5   9  -4    1.30    0.70
  -5  -9   4    0.50    0.60
   4   9  -4  126.09    6.30
  -4  -9   4  149.19    6.30
   3   9  -4    7.10    1.40
  -3  -9   4    6.10    1.20
   2   9  -4   25.80    1.90
  -1  -9   4  112.09    5.30
  -1   9  -4    2.60    1.50
   1  -9   4    0.10    0.60
   8   8  -4  154.88    6.90
  -8  -8   4  158.28    6.50
   7   8  -4   79.99    4.90
  -7  -8   4   85.69    4.60
   6   8  -4   69.89    4.60
  -6  -8   4   67.49    3.60
  -6  -8   4   72.29    4.30
   5   8  -4  255.27   10.80
  -5  -8   4  259.87   10.00
   4   8  -4   70.69    4.50
  -4  -8   4   78.19    4.30
   3   8  -4  245.28   10.00
   3   8  -4  236.38    9.30
  -3  -8   4  248.78    9.80
   2   8  -4    6.30    1.40
   2   8  -4    5.40    1.30
  -2  -8   4    6.20    1.20
   1   8  -4   59.29    3.10
   0   8  -4    1.70    1.40
   0   8  -4    0.10    2.10
   0  -8   4    1.20    0.70
  -1   8  -4   79.09    6.50
  -1   8  -4   80.49    4.70
   1  -8   4   76.19    4.20
  -2   8  -4    1.10    1.40
   2  -8   4   -1.10    0.60
  -3   8  -4    3.20    1.80
   3  -8   4   10.30    1.50
   9   7  -4  642.94   22.60
  -9  -7   4  731.13   22.60
  -8  -7   4  475.25   16.80
   7   7  -4  478.95   16.40
  -7  -7   4  480.95   17.40
   6   7  -4 2337.07   72.39
  -6  -7   4 2332.67   73.49
  -6  -7   4 2296.87   72.29
   5   7  -4   41.40    3.60
   5   7  -4   38.80    3.10
  -5  -7   4   35.30    4.10
  -5  -7   4   34.10    3.40
  -5  -7   4   38.10    2.90
   4   7  -4 2193.78   68.39
   4   7  -4 2027.40   67.09
  -4  -7   4 2251.77   67.39
  -4  -7   4 2074.89   70.59
   3   7  -4  345.07   13.20
   3   7  -4  365.56   13.70
  -3  -7   4  335.57   15.60
  -3  -7   4  360.36   13.20
   2   7  -4  102.19    5.10
   2   7  -4   99.79    5.30
  -2  -7   4  107.19    5.20
  -2  -7   4   95.59    6.70
   1   7  -4   95.79    5.20
   1   7  -4   83.49    8.10
   1   7  -4   97.29    4.60
  -1  -7   4   89.79    5.90
  -1  -7   4   90.09    6.10
  -1  -7   4   94.19    4.80
   0   7  -4   30.40    5.70
   0   7  -4   28.00    2.80
   0   7  -4   23.80    4.80
   0  -7   4   28.80    2.30
   0  -7   4   30.40    3.40
  -1   7  -4    3.30    2.30
  -1   7  -4    2.70    1.00
   1  -7   4    1.70    0.80
  -2   7  -4   44.50    5.80
  -2   7  -4   46.20    3.90
   2  -7   4   45.90    3.00
  -3   7  -4    3.00    1.70
   3  -7   4    6.80    1.50
  -4   7  -4  100.49    7.00
   4  -7   4   97.49    4.50
   9   6  -4   71.69    4.10
  -9  -6   4   76.59    3.90
   8   6  -4    0.00    0.80
   8   6  -4    0.10    1.00
  -8  -6   4    1.20    0.80
   7   6  -4 1081.99   36.00
  -7  -6   4 1133.69   36.70
   6   6  -4   53.49    4.30
   6   6  -4   62.89    3.90
  -6  -6   4   60.89    3.60
  -6  -6   4   58.79    5.40
  -6  -6   4   60.19    4.00
   5   6  -4   30.40    3.10
   5   6  -4   30.40    2.60
  -5  -6   4   26.40    2.70
  -5  -6   4   25.50    3.60
  -5  -6   4   28.70    2.40
   4   6  -4 2319.97   71.39
  -4  -6   4 2248.28   71.29
  -4  -6   4 2250.07   74.69
   3   6  -4   71.39    4.40
   3   6  -4   70.59    4.30
  -3  -6   4   68.89    5.80
   2   6  -4 3037.00   87.59
   2   6  -4 2682.03   87.39
  -2  -6   4 2745.43   87.09
  -2  -6   4 2727.33   90.09
   1   6  -4    3.20    1.10
   1   6  -4    3.30    1.00
   1   6  -4    6.60    2.30
   1   6  -4   -3.60    4.00
  -1  -6   4    2.00    1.30
   0   6  -4  303.97   14.40
   0   6  -4  301.17   16.50
   0   6  -4  315.17   10.90
   0   6  -4  302.87   12.00
   0  -6   4  305.37   13.40
   0  -6   4  309.47   11.40
   0  -6   4  305.77   13.10
  -1   6  -4  240.98   14.90
  -1   6  -4  238.38   12.80
  -1   6  -4  243.08   10.40
   1  -6   4  251.87    9.40
   1  -6   4  250.27   11.30
  -2   6  -4  330.77   13.80
  -2   6  -4  345.97   16.70
  -2   6  -4  370.76   19.60
   2  -6   4  341.27   12.30
   2  -6   4  326.17   14.40
  -3   6  -4   58.29    7.00
  -3   6  -4   61.99    4.70
   3  -6   4   61.39    3.60
  -4   6  -4   49.40    6.00
   4  -6   4   52.49    3.20
  -5   6  -4    1.40    1.30
   9   5  -4   17.00    2.00
  -9  -5   4   18.80    1.80
   8   5  -4  298.37   12.10
  -8  -5   4  293.57   11.70
   7   5  -4    7.40    1.70
  -7  -5   4    7.40    1.60
  -7  -5   4    8.80    1.70
   6   5  -4    1.70    1.10
  -6  -5   4    1.10    0.80
  -6  -5   4    0.50    0.90
  -6  -5   4    2.80    1.60
   5   5  -4   16.70    2.20
  -5  -5   4   23.20    3.10
  -5  -5   4   19.60    2.00
  -5  -5   4   17.20    2.20
   4   5  -4  352.46   13.30
  -4  -5   4  331.67   15.10
  -4  -5   4  329.27   13.10
  -4  -5   4  334.47   12.70
   3   5  -4  349.87   13.10
   3   5  -4  362.76   13.30
  -3  -5   4  341.07   15.30
  -3  -5   4  352.06   13.00
   2   5  -4   17.90    2.50
   2   5  -4   21.30    2.10
   2   5  -4   23.80    2.10
  -2  -5   4   19.90    2.80
  -2  -5   4   17.60    1.90
   1   5  -4 2257.37   74.49
   1   5  -4 2237.88   73.39
   1   5  -4 2422.16   72.99
   1   5  -4 2482.45   75.19
  -1  -5   4 2305.87   72.89
  -1  -5   4 2353.76   75.79
   0   5  -4  403.16   16.40
   0   5  -4  421.26   13.50
   0   5  -4  378.46   18.70
   0   5  -4  381.96   14.40
   0   5  -4  395.56   16.40
   0  -5   4  383.66   13.80
   0  -5   4  407.56   16.20
  -1   5  -4  325.77   12.80
  -1   5  -4  328.37   15.30
  -1   5  -4  334.87   17.60
   1  -5   4  338.87   13.50
   1  -5   4  319.47   11.90
   1  -5   4  344.17   13.90
  -2   5  -4  701.73   30.90
  -2   5  -4  690.63   24.40
  -2   5  -4  700.73   27.90
   2  -5   4  680.23   24.70
  -3   5  -4  825.72   35.30
  -3   5  -4  788.42   31.70
  -3   5  -4  803.02   28.20
   3  -5   4  788.22   28.70
  -4   5  -4  920.81   38.10
  -4   5  -4  881.41   31.60
  -5   5  -4  153.58   11.30
  -6   5  -4    0.30    1.30
   9   4  -4  320.37   12.30
  -9  -4   4  326.97   12.00
  -9  -4   4  311.77   11.00
   8   4  -4  537.65   19.70
  -8  -4   4  552.64   19.50
  -8  -4   4  515.55   18.60
   7   4  -4 1565.44   51.99
  -7  -4   4 1603.44   51.89
   6   4  -4 1408.46   45.10
  -6  -4   4 1308.67   46.60
  -6  -4   4 1304.57   43.00
  -6  -4   4 1365.56   44.90
   5   4  -4   72.49    4.90
   5   4  -4   65.39    3.20
  -5  -4   4   73.59    5.90
  -5  -4   4   69.69    4.80
  -5  -4   4   72.49    4.30
   4   4  -4 2545.65   80.19
  -4  -4   4 2714.33   81.99
  -4  -4   4 2624.84   84.89
   3   4  -4 3799.62  114.99
   3   4  -4 3742.33  115.79
   3   4  -4 3820.62  113.69
  -3  -4   4 3705.83  117.79
  -3  -4   4 3658.13  115.09
   2   4  -4  268.27   10.30
   2   4  -4  262.17    9.20
  -2  -4   4  255.87    9.70
  -2  -4   4  274.07   11.70
   1   4  -4  748.23   25.30
   1   4  -4  759.12   25.00
  -1  -4   4  740.73   26.20
  -1  -4   4  714.33   23.90
   0   4  -4 3100.59   99.49
   0   4  -4 3275.57   99.59
   0   4  -4 3375.26   99.89
   0  -4   4 2878.11   98.09
   0  -4   4 3244.08   99.69
  -1   4  -4  247.78   14.00
  -1   4  -4  257.37   11.80
  -1   4  -4  246.48   11.30
  -1   4  -4  244.38    9.90
  -1   4  -4  252.57   11.30
   1  -4   4  250.67   10.70
  -2   4  -4  575.04   20.80
  -2   4  -4  577.04   21.80
  -2   4  -4  590.74   22.70
  -2   4  -4  601.74   23.60
  -2   4  -4  609.54   26.60
   2  -4   4  581.84   20.80
   2  -4   4  596.24   21.10
  -3   4  -4 2136.89   77.19
  -3   4  -4 2097.89   73.19
  -3   4  -4 2217.48   70.49
  -3   4  -4 2249.68   70.09
   3  -4   4 2224.78   69.99
  -4   4  -4    1.40    1.90
  -4   4  -4    2.10    1.20
  -4   4  -4   -0.60    1.90
  -4   4  -4   -1.50    2.40
  -5   4  -4  246.68   11.40
  -5   4  -4  238.48   11.20
  -5   4  -4  216.18   15.30
  -6   4  -4  261.17   15.30
  -7   4  -4   10.30    2.30
   9   3  -4   56.09    3.90
  -9  -3   4   60.09    3.30
  -9  -3   4   60.59    3.70
   8   3  -4    0.20    1.10
   8   3  -4    0.30    1.00
  -8  -3   4    1.60    1.30
  -8  -3   4    1.40    0.80
   7   3  -4  125.89    7.10
   7   3  -4  134.99    5.80
  -7  -3   4  130.89    7.30
   6   3  -4    9.20    1.50
   6   3  -4    8.90    1.60
   6   3  -4    7.60    1.80
  -6  -3   4   11.10    2.30
  -6  -3   4   12.00    2.20
  -6  -3   4    9.80    2.80
   5   3  -4  969.40   31.00
   5   3  -4  953.70   31.10
   5   3  -4  994.10   33.60
  -5  -3   4  959.40   33.70
  -5  -3   4  994.70   35.20
  -5  -3   4  999.40   32.40
   4   3  -4   43.00    3.40
   4   3  -4   40.10    2.10
  -4  -3   4   46.00    3.00
  -4  -3   4   46.70    4.00
   3   3  -4  263.97    9.50
   3   3  -4  259.87    8.50
  -3  -3   4  256.87    9.90
  -3  -3   4  272.97   11.50
  -3  -3   4  266.97    9.80
   2   3  -4 2787.52   85.69
  -2  -3   4 2741.83   85.19
  -2  -3   4 2877.11   87.39
  -2  -3   4 2670.13   85.09
   1   3  -4 1149.48   36.30
   1   3  -4 1142.59   36.80
  -1  -3   4 1156.58   37.80
  -1  -3   4 1108.59   35.50
   0   3  -4 1638.04   51.59
   0   3  -4 1649.63   51.49
   0  -3   4 1633.04   51.99
   0  -3   4 1533.85   49.40
  -1   3  -4  604.64   21.60
  -1   3  -4  622.14   22.00
   1  -3   4  603.14   21.40
  -2   3  -4    5.40    1.40
  -2   3  -4    6.10    1.60
  -2   3  -4    6.90    2.60
  -2   3  -4    4.70    1.50
  -2   3  -4    3.60    1.10
   2  -3   4    4.90    1.20
  -3   3  -4  175.68    9.80
  -3   3  -4  174.88    8.60
  -3   3  -4  175.68    9.20
  -3   3  -4  173.58    8.20
  -3   3  -4  175.88   11.90
   3  -3   4  174.88    7.80
  -4   3  -4  107.39    6.50
  -4   3  -4   98.69    6.20
  -4   3  -4  113.49    8.30
  -4   3  -4  112.49   10.00
   4  -3   4  100.39    6.30
  -5   3  -4  141.09    8.10
  -5   3  -4  129.19    9.50
  -5   3  -4  135.99    7.30
  -5   3  -4  125.99   11.10
  -6   3  -4    6.10    2.50
  -6   3  -4    9.60    3.00
  -7   3  -4   67.99    6.40
  -9  -2   4   59.69    3.60
  -9  -2   4   53.99    3.30
   8   2  -4  316.87   11.60
   8   2  -4  331.37   13.60
  -8  -2   4  337.17   13.60
  -8  -2   4  314.37   13.20
   7   2  -4    4.20    1.60
   7   2  -4    6.90    1.50
  -7  -2   4    5.70    1.60
   6   2  -4  283.77   10.90
   6   2  -4  273.77   10.60
   6   2  -4  292.57   12.70
  -6  -2   4  285.17   12.80
   5   2  -4   45.20    3.90
   5   2  -4   43.70    2.70
   5   2  -4   47.20    2.90
  -5  -2   4   46.40    4.30
  -5  -2   4   50.09    4.20
  -5  -2   4   42.50    3.10
   4   2  -4 1800.42   58.39
   4   2  -4 1813.12   58.79
   4   2  -4 1943.11   58.59
   4   2  -4 1866.71   61.09
  -4  -2   4 1939.21   60.59
  -4  -2   4 1935.71   59.69
  -4  -2   4 1992.40   61.89
   3   2  -4  673.53   21.20
   3   2  -4  686.73   22.50
  -3  -2   4  693.73   24.10
  -3  -2   4  688.23   22.50
  -3  -2   4  673.23   23.00
   2   2  -4 2155.18   66.79
  -2  -2   4 2176.58   67.89
  -2  -2   4 2134.09   66.49
  -2  -2   4 2093.99   66.09
   1   2  -4 3037.40   93.69
   1   2  -4 3034.70   94.79
  -1  -2   4 3119.09   95.59
  -1  -2   4 3062.69   93.89
   0   2  -4  191.98    7.90
   0   2  -4  190.78    7.60
   0  -2   4  184.88    8.10
   0  -2   4  181.68    6.70
  -1   2  -4 7171.38  215.88
  -1   2  -4 7144.59  215.88
   1  -2   4 6855.21  213.98
  -2   2  -4 2265.27   70.69
  -2   2  -4 2318.87   70.49
   2  -2   4 2150.08   69.59
   2  -2   4 2136.59   68.09
  -3   2  -4 2789.82   88.99
  -3   2  -4 2565.54   84.19
  -3   2  -4 2737.03   85.69
  -3   2  -4 2669.63   83.89
  -3   2  -4 2702.83   84.69
   3  -2   4 2612.84   82.29
   3  -2   4 2755.42   83.09
   3  -2   4 2548.74   83.09
  -4   2  -4 1677.63   57.69
  -4   2  -4 1539.15   51.99
  -4   2  -4 1645.94   52.59
  -4   2  -4 1653.73   54.39
  -4   2  -4 1558.34   52.89
   4  -2   4 1499.85   50.99
  -5   2  -4    7.60    2.50
  -5   2  -4    5.60    2.80
  -5   2  -4   13.80    2.80
  -5   2  -4    6.70    2.10
   5  -2   4   13.20    2.20
  -6   2  -4  452.85   17.10
  -6   2  -4  454.65   22.70
  -6   2  -4  425.76   20.00
   6  -2   4  412.16   16.90
  -7   2  -4   24.40    2.90
  -7   2  -4   20.50    3.90
   7  -2   4   16.20    2.90
  -8   2  -4    2.10    1.60
  -9  -1   4    8.80    1.30
  -9  -1   4   11.90    1.40
   8   1  -4   14.50    1.80
   8   1  -4   13.10    2.80
  -8  -1   4   15.20    2.30
  -8  -1   4   19.50    2.50
   7   1  -4  235.68   11.10
   7   1  -4  216.38   11.10
   7   1  -4  240.08    9.80
  -7  -1   4  240.78   11.40
   6   1  -4  420.56   15.50
   6   1  -4  423.76   15.70
   6   1  -4  426.26   17.40
  -6  -1   4  435.16   17.70
   5   1  -4  209.58   10.40
   5   1  -4  224.58    9.20
   5   1  -4  229.58    9.00
  -5  -1   4  228.08   10.90
  -5  -1   4  236.78   10.80
  -5  -1   4  233.88   10.40
  -5  -1   4  222.98    8.80
   4   1  -4 1337.27   43.60
   4   1  -4 1341.07   43.30
   4   1  -4 1381.56   42.90
  -4  -1   4 1388.56   45.20
  -4  -1   4 1300.57   43.40
  -4  -1   4 1434.16   45.00
   3   1  -4  395.96   14.40
   3   1  -4  393.26   13.10
  -3  -1   4  415.86   14.00
  -3  -1   4  379.96   15.00
  -3  -1   4  404.16   14.80
   2   1  -4  414.96   13.00
   2   1  -4  431.96   15.10
  -2  -1   4  433.86   14.90
  -2  -1   4  407.66   14.20
  -2  -1   4  408.96   15.40
   1   1  -4  688.93   23.60
  -1  -1   4  714.63   23.00
   0   1  -4 2090.49   65.39
   0   1  -4 2073.09   66.29
   0  -1   4 2168.98   65.09
  -1   1  -4 2515.45   77.59
  -1   1  -4 2562.04   77.99
   1  -1   4 2488.25   75.49
   1  -1   4 2348.07   75.39
   1  -1   4 2542.55   76.49
  -2   1  -4 3124.19   96.19
   2  -1   4 2903.41   93.99
   2  -1   4 3223.88   94.69
  -3   1  -4 4856.31  151.28
  -3   1  -4 4997.80  152.08
   3  -1   4 4964.50  149.79
   3  -1   4 4797.92  149.59
  -4   1  -4   21.10    2.70
  -4   1  -4   29.90    2.90
  -4   1  -4   22.20    2.50
  -4   1  -4   24.00    3.00
  -4   1  -4   20.50    4.00
   4  -1   4   26.30    2.10
   4  -1   4   25.00    2.10
  -5   1  -4 1425.46   51.99
  -5   1  -4 1593.24   51.79
  -5   1  -4 1659.93   56.79
  -5   1  -4 1532.05   52.09
  -5   1  -4 1592.24   53.39
   5  -1   4 1617.54   50.59
  -6   1  -4 1193.58   43.00
  -6   1  -4 1230.78   40.60
   6  -1   4 1169.28   39.80
  -7   1  -4   14.70    3.70
  -7   1  -4   14.60    2.50
   7  -1   4   11.90    2.40
  -8   1  -4  803.22   30.30
   8  -1   4  726.53   25.10
  -9   0   4    0.20    0.70
  -9   0   4    0.00    0.50
   8   0  -4  145.59    6.40
  -8   0   4  147.69    6.90
  -8   0   4  130.99    7.30
   7   0  -4  360.16   15.60
   7   0  -4  381.16   14.50
  -7   0   4  388.06   16.40
   6   0  -4  939.61   32.20
   6   0  -4  951.50   34.20
   6   0  -4  958.40   32.30
  -6   0   4  986.90   34.80
   5   0  -4   39.90    3.10
   5   0  -4   42.80    4.00
  -5   0   4   37.80    4.00
  -5   0   4   39.60    4.00
   4   0  -4   23.10    2.90
   4   0  -4   27.00    2.30
  -4   0   4   24.40    2.10
  -4   0   4   24.20    2.90
  -4   0   4   22.00    3.20
  -4   0   4   29.70    2.70
   3   0  -4 1014.90   33.60
   3   0  -4 1112.49   35.90
  -3   0   4 1117.79   35.30
  -3   0   4  938.51   32.20
  -3   0   4 1095.79   34.90
  -3   0   4 1009.30   33.60
   2   0  -4    2.20    1.00
  -2   0   4    1.30    0.80
  -2   0   4    2.80    0.70
   1   0  -4 1667.83   49.40
   1   0  -4 1610.04   51.99
  -1   0   4 1596.44   51.09
   0   0  -4 1081.69   35.20
   0   0   4 1066.29   34.10
  -1   0  -4    2.20    0.70
   1   0   4    2.80    0.30
  -2   0  -4  985.90   31.30
  -2   0  -4  938.71   31.30
   2   0   4  904.81   29.20
  -3   0  -4    3.80    1.20
  -3   0  -4    2.90    0.90
   3   0   4    3.50    0.70
  -4   0  -4  174.18   10.30
  -4   0  -4  169.98    7.90
  -4   0  -4  172.18    8.50
  -4   0  -4  171.98    8.60
   4   0   4  170.18    6.90
  -5   0  -4   58.29    4.60
  -5   0  -4   61.59    5.90
  -5   0  -4   59.49    4.60
  -5   0  -4   66.69    5.10
  -5   0  -4   57.99    4.30
   5   0   4   54.79    3.50
  -6   0  -4   21.40    3.20
  -6   0  -4   20.50    3.90
  -6   0  -4   25.20    3.00
   6   0   4   26.90    2.60
  -7   0  -4   37.80    3.60
  -7   0  -4   35.60    4.90
   7   0   4   34.90    3.00
   7   0   4   34.70    3.50
  -8   0  -4   15.70    3.10
  -8   0  -4   10.20    2.10
   8   0   4   10.70    1.80
   9   0   4   38.50    2.40
   8  -1  -4   69.29    3.80
  -8   1   4   70.29    4.40
  -8   1   4   64.99    3.80
   7  -1  -4    8.20    1.70
  -7   1   4    6.50    1.80
  -7   1   4    7.20    1.80
   6  -1  -4  396.16   15.40
   6  -1  -4  365.86   16.70
  -6   1   4  410.56   17.60
   5  -1  -4  960.10   35.10
   5  -1  -4  952.00   32.70
   5  -1  -4  932.61   34.60
  -5   1   4 1027.80   35.30
  -5   1   4  958.40   34.40
   4  -1  -4  576.14   22.20
   4  -1  -4  568.64   20.00
   4  -1  -4  562.74   21.90
  -4   1   4  530.05   19.00
  -4   1   4  561.44   21.60
  -4   1   4  584.84   22.30
  -4   1   4  588.74   19.60
   3  -1  -4 2555.94   79.69
   3  -1  -4 2383.16   77.29
  -3   1   4 2533.75   76.99
  -3   1   4 2511.35   76.79
  -3   1   4 2475.15   78.09
  -3   1   4 2435.06   78.89
   2  -1  -4  781.12   27.10
   2  -1  -4  841.82   26.20
  -2   1   4  732.43   25.20
  -2   1   4  737.43   26.30
   1  -1  -4 1488.25   46.20
  -1   1   4 1354.66   45.30
   0  -1  -4 2493.55   74.29
   0   1   4 2244.88   73.29
  -1  -1  -4  672.43   22.50
   1   1   4  653.23   20.00
   1   1   4  608.44   21.10
  -2  -1  -4  822.52   27.60
   2   1   4  820.62   25.50
  -3  -1  -4 2169.28   69.39
  -3  -1  -4 2299.37   69.79
   3   1   4 2141.29   67.59
  -4  -1  -4 1436.36   46.90
  -4  -1  -4 1397.56   45.90
   4   1   4 1441.66   44.70
  -5  -1  -4  367.66   17.20
  -5  -1  -4  366.76   14.40
  -5  -1  -4  368.36   14.20
  -5  -1  -4  369.96   14.80
  -5  -1  -4  348.87   15.00
   5   1   4  367.46   13.20
  -6  -1  -4  713.03   26.40
  -6  -1  -4  757.92   26.50
  -6  -1  -4  754.62   29.70
   6   1   4  724.83   24.90
   6   1   4  704.43   24.20
  -7  -1  -4 1283.77   42.70
  -7  -1  -4 1309.57   46.10
   7   1   4 1198.38   41.10
   7   1   4 1224.48   40.40
  -8  -1  -4   64.89    4.50
   8   1   4   68.29    3.90
  -9  -1  -4   91.69    4.80
   9   1   4   96.79    4.40
   8  -2  -4   75.79    3.70
  -8   2   4   79.49    3.70
  -8   2   4   74.29    3.70
   7  -2  -4   36.50    3.20
  -7   2   4   40.30    3.10
  -7   2   4   38.00    3.80
   6  -2  -4  139.79    7.40
  -6   2   4  124.89    8.40
   5  -2  -4 1730.23   59.79
   5  -2  -4 1761.02   56.69
   5  -2  -4 1662.83   58.59
  -5   2   4 1790.72   59.59
   4  -2  -4  361.46   14.40
   4  -2  -4  364.26   16.10
   4  -2  -4  364.36   16.60
  -4   2   4  384.06   15.50
  -4   2   4  352.66   14.30
  -4   2   4  378.46   16.60
   3  -2  -4  889.81   29.90
   3  -2  -4  908.61   32.30
  -3   2   4  921.81   32.30
  -3   2   4  838.12   29.40
  -3   2   4  911.91   28.70
  -3   2   4  821.92   29.60
  -3   2   4  950.50   31.20
   2  -2  -4 1765.62   57.79
   2  -2  -4 1807.02   59.79
  -2   2   4 1853.41   57.29
  -2   2   4 1907.91   58.99
   1  -2  -4  171.68    8.30
  -1   2   4  180.48    7.70
  -1   2   4  169.78    6.90
   0  -2  -4 1632.84   53.09
   0   2   4 1687.43   52.19
  -1  -2  -4 1218.48   40.30
   1   2   4 1294.67   39.90
   1   2   4 1256.37   38.80
  -2  -2  -4  103.59    5.60
  -2  -2  -4  101.29    4.60
   2   2   4  110.59    4.90
   2   2   4  104.39    3.90
  -3  -2  -4 1853.91   59.09
   3   2   4 1860.61   57.19
  -4  -2  -4  247.18   10.20
   4   2   4  255.57    9.10
  -5  -2  -4  326.57   12.70
  -5  -2  -4  341.77   15.70
  -5  -2  -4  314.87   13.40
   5   2   4  314.37   11.50
   5   2   4  334.07   11.90
  -6  -2  -4   27.90    4.10
  -6  -2  -4   24.70    1.80
  -6  -2  -4   20.80    2.80
  -6  -2  -4   19.20    3.00
   6   2   4   23.00    2.20
   6   2   4   24.50    2.20
  -7  -2  -4   59.69    4.70
   7   2   4   60.09    3.60
   7   2   4   62.89    4.10
  -8  -2  -4  174.58    8.90
   8   2   4  177.88    7.40
  -9  -2  -4  109.59    5.70
   9   2   4  111.59    5.00
   7  -3  -4   14.50    1.80
  -7   3   4   15.50    2.00
  -7   3   4   15.70    1.60
   6  -3  -4  110.69    6.40
  -6   3   4   97.89    7.10
  -6   3   4  116.19    5.80
   5  -3  -4  420.56   16.60
   5  -3  -4  419.46   19.90
   5  -3  -4  399.66   17.80
  -5   3   4  401.66   18.60
   4  -3  -4   67.79    6.00
   4  -3  -4   77.39    5.20
   4  -3  -4   70.79    6.60
  -4   3   4   69.19    5.70
  -4   3   4   81.09    5.40
  -4   3   4   77.69    6.60
  -4   3   4   71.19    7.20
   3  -3  -4    7.00    1.70
   3  -3  -4   10.50    2.50
   3  -3  -4    4.30    2.20
  -3   3   4    5.00    1.60
  -3   3   4    8.10    2.40
  -3   3   4    7.00    1.70
   2  -3  -4   76.79    5.70
   2  -3  -4   56.29    3.90
  -2   3   4   61.39    3.30
  -2   3   4   62.49    4.20
   1  -3  -4 1645.14   53.49
   1  -3  -4 1690.93   55.59
  -1   3   4 1684.73   52.79
  -1   3   4 1736.23   53.89
   0  -3  -4  105.19    5.90
   0   3   4   98.29    4.50
   0   3   4  109.89    5.10
  -1  -3  -4 3221.68  100.29
   1   3   4 3379.16   98.49
   1   3   4 3260.37   99.19
   1   3   4 3022.10   98.59
  -2  -3  -4 7366.46  223.28
   2   3   4 7557.34  223.08
   2   3   4 6941.51  221.98
   2   3   4 7417.46  221.88
  -3  -3  -4 4603.34  141.19
   3   3   4 4617.24  138.79
   3   3   4 4464.15  138.89
  -4  -3  -4 2828.62   88.09
   4   3   4 2735.23   86.29
   4   3   4 2874.81   86.49
  -5  -3  -4   16.20    2.10
  -5  -3  -4   19.30    1.90
  -5  -3  -4   18.20    2.60
   5   3   4   18.30    1.60
   5   3   4   16.50    1.60
  -6  -3  -4  435.86   17.40
  -6  -3  -4  428.36   15.10
   6   3   4  421.06   15.10
   6   3   4  439.76   15.40
  -7  -3  -4  537.45   20.60
  -7  -3  -4  508.95   17.50
   7   3   4  535.35   18.30
   7   3   4  523.85   18.70
  -8  -3  -4    5.10    1.40
   8   3   4    5.70    1.30
  -9  -3  -4  215.88    9.60
   9   3   4  215.08    8.30
 -10  -3  -4   -0.70    0.90
  10   3   4   -0.10    0.60
   7  -4  -4    3.10    0.90
  -7   4   4    2.40    0.80
   6  -4  -4  217.08    9.60
  -6   4   4  227.48    8.70
  -6   4   4  221.88   10.30
   5  -4  -4    4.70    1.50
  -5   4   4    7.00    1.60
  -5   4   4   11.00    2.60
  -5   4   4    3.10    3.10
   4  -4  -4  531.35   22.20
   4  -4  -4  517.85   24.20
   4  -4  -4  536.15   21.00
  -4   4   4  583.44   24.30
  -4   4   4  525.95   23.00
  -4   4   4  575.54   22.30
   3  -4  -4  451.85   17.80
   3  -4  -4  453.25   20.80
   3  -4  -4  426.56   19.30
  -3   4   4  432.66   19.80
  -3   4   4  478.95   18.30
  -3   4   4  439.66   17.30
  -3   4   4  481.45   20.50
   2  -4  -4  713.73   25.00
   2  -4  -4  627.44   26.50
   2  -4  -4  721.03   27.90
  -2   4   4  741.23   24.80
   1  -4  -4  408.96   15.20
   1  -4  -4  426.66   17.50
  -1   4   4  406.66   13.80
  -1   4   4  384.36   16.90
  -1   4   4  383.26   14.90
   0  -4  -4   10.50    2.10
   0  -4  -4    6.50    1.50
   0   4   4    6.90    1.10
   0   4   4    4.10    1.00
   1   4   4    6.00    1.00
   1   4   4    6.80    1.20
  -2  -4  -4    7.30    1.40
   2   4   4    4.90    0.90
   2   4   4    4.40    0.90
   2   4   4    6.10    1.10
  -3  -4  -4  133.19    5.90
   3   4   4  137.09    5.50
   3   4   4  138.09    5.40
   3   4   4  133.79    6.10
  -4  -4  -4 4714.43  149.09
  -4  -4  -4 4749.22  146.99
  -4  -4  -4 4737.13  148.29
   4   4   4 4957.90  146.29
   4   4   4 4800.72  146.29
  -5  -4  -4  543.25   19.40
  -5  -4  -4  553.84   18.80
  -5  -4  -4  537.35   20.80
   5   4   4  546.95   18.30
   5   4   4  524.85   18.10
  -6  -4  -4 1037.80   35.90
  -6  -4  -4 1002.00   33.20
   6   4   4 1003.10   32.80
   6   4   4 1020.20   33.10
  -7  -4  -4  148.69    6.80
  -7  -4  -4  163.18    9.00
   7   4   4  165.18    7.20
   7   4   4  162.68    7.00
  -8  -4  -4  162.28    8.60
  -8  -4  -4  150.38    6.10
   8   4   4  155.28    6.80
  -9  -4  -4  279.67   12.00
   9   4   4  285.37   10.50
 -10  -4  -4    5.90    1.20
  10   4   4    8.00    1.10
   6  -5  -4   82.79    4.00
  -6   5   4   67.59    3.10
  -6   5   4   73.29    3.70
   5  -5  -4   16.40    2.20
  -5   5   4   14.30    2.40
  -5   5   4   10.30    3.30
  -5   5   4   16.60    1.70
   4  -5  -4   10.20    2.20
  -4   5   4    6.20    1.80
  -4   5   4    7.20    2.80
  -4   5   4    8.70    1.70
   3  -5  -4   88.89    6.00
   3  -5  -4   86.29    7.80
   3  -5  -4   90.99    6.90
  -3   5   4   97.29    5.20
  -3   5   4   98.49    7.70
  -3   5   4   91.39    7.70
  -3   5   4   97.69    6.60
  -3   5   4   96.59    5.90
   2  -5  -4  357.36   15.10
   2  -5  -4  366.56   18.00
   2  -5  -4  380.16   17.00
  -2   5   4  372.56   14.60
  -2   5   4  380.26   15.40
   1  -5  -4   22.00    3.50
   1  -5  -4   20.40    2.50
   1  -5  -4   20.40    3.10
  -1   5   4   20.90    2.30
  -1   5   4   23.90    3.60
   0  -5  -4  785.72   28.60
   0  -5  -4  772.22   27.20
   0  -5  -4  788.52   29.80
   0   5   4  794.52   25.70
   0   5   4  812.42   29.30
   0   5   4  810.22   26.80
  -1  -5  -4 1480.55   49.30
  -1  -5  -4 1565.94   50.79
  -1  -5  -4 1466.05   48.20
   1   5   4 1449.65   47.00
   1   5   4 1550.14   47.40
   1   5   4 1445.16   49.99
   1   5   4 1552.74   47.90
  -2  -5  -4  517.15   20.30
  -2  -5  -4  551.74   20.40
  -2  -5  -4  559.24   19.60
   2   5   4  515.45   18.50
   2   5   4  551.44   18.10
   2   5   4  537.65   18.10
  -3  -5  -4 1123.99   37.50
  -3  -5  -4 1139.49   37.30
   3   5   4 1127.19   36.20
   3   5   4 1136.19   36.80
   3   5   4 1155.68   36.30
  -4  -5  -4   14.30    1.80
  -4  -5  -4   16.00    2.50
   4   5   4   17.30    1.70
   4   5   4   17.80    2.00
   4   5   4   17.30    1.70
  -5  -5  -4  181.08    8.60
  -5  -5  -4  184.78    8.10
  -5  -5  -4  188.88    9.90
   5   5   4  188.28    7.60
   5   5   4  190.68    7.60
  -6  -5  -4   19.10    2.20
  -6  -5  -4   20.70    3.00
   6   5   4   18.80    1.90
  -7  -5  -4   77.99    4.50
  -7  -5  -4   84.19    6.30
   7   5   4   77.49    4.30
   7   5   4   79.89    4.60
  -8  -5  -4    8.10    1.40
  -8  -5  -4    6.80    1.80
   8   5   4    7.70    1.40
  -9  -5  -4   26.70    2.90
   9   5   4   26.50    2.10
 -10  -5  -4  174.78    7.40
  10   5   4  161.08    6.30
   5  -6  -4   60.09    3.30
  -5   6   4   43.40    4.00
  -5   6   4   55.09    3.40
   4  -6  -4   42.30    3.40
  -4   6   4   42.10    4.70
  -4   6   4   38.90    3.90
   3  -6  -4    4.90    1.50
  -3   6   4    4.20    1.70
  -3   6   4    1.90    2.00
   2  -6  -4  182.68    9.00
   2  -6  -4  162.98    9.70
   2  -6  -4  170.68   11.40
  -2   6   4  180.78    9.60
  -2   6   4  187.48   10.80
   1  -6  -4  590.34   25.00
   1  -6  -4  587.14   21.80
   1  -6  -4  584.74   23.30
  -1   6   4  567.24   20.90
  -1   6   4  616.84   24.10
   0  -6  -4  189.68   11.20
   0  -6  -4  182.28    9.80
   0  -6  -4  191.68    9.00
   0   6   4  189.28    8.50
   0   6   4  196.08   10.50
  -1  -6  -4 2313.27   75.49
  -1  -6  -4 2281.87   73.39
  -1  -6  -4 2178.18   72.19
   1   6   4 2364.96   74.29
   1   6   4 2308.37   71.79
   1   6   4 2242.58   70.69
  -2  -6  -4    6.80    2.00
  -2  -6  -4    3.10    1.30
   2   6   4    2.50    0.80
   2   6   4    1.10    0.80
   2   6   4    2.80    1.30
  -3  -6  -4  259.77   12.40
  -3  -6  -4  294.87   11.90
   3   6   4  289.87   10.90
   3   6   4  331.97   13.20
   3   6   4  288.27   11.30
   3   6   4  289.87   11.00
  -4  -6  -4 1745.53   62.19
  -4  -6  -4 1883.81   60.29
   4   6   4 1892.91   59.59
   4   6   4 1961.50   61.89
   4   6   4 1946.01   59.39
   4   6   4 1900.21   60.09
  -5  -6  -4   10.50    1.60
   5   6   4    9.30    1.60
   5   6   4    8.00    1.40
  -6  -6  -4  797.82   29.90
  -6  -6  -4  789.52   27.00
   6   6   4  779.12   26.60
   6   6   4  803.22   26.40
  -7  -6  -4  287.77   11.60
  -7  -6  -4  299.47   14.10
   7   6   4  276.47   11.30
   7   6   4  301.17   11.20
  -8  -6  -4    6.60    2.10
  -8  -6  -4    4.10    1.10
   8   6   4    5.10    1.10
  -9  -6  -4  368.06   14.50
  -9  -6  -4  302.67   11.60
   9   6   4  367.16   12.30
   4  -7  -4   44.20    2.80
  -4   7   4   37.60    3.50
  -4   7   4   40.70    2.90
   3  -7  -4   62.09    4.10
  -3   7   4   66.99    4.90
  -3   7   4   62.79    5.70
   2  -7  -4    8.20    2.20
   2  -7  -4   10.20    1.90
  -2   7   4    6.80    2.30
  -2   7   4    5.50    2.00
   1  -7  -4  152.48    7.70
   1  -7  -4  150.98    8.70
   1  -7  -4  140.39    9.70
  -1   7   4  162.18    9.20
  -1   7   4  142.29    8.50
   0  -7  -4   80.79    6.90
   0  -7  -4   86.89    5.30
   0  -7  -4   80.09    6.00
   0   7   4   89.49    6.60
  -1  -7  -4   22.00    3.80
  -1  -7  -4   16.70    2.60
  -1  -7  -4   18.90    2.50
   1   7   4   19.90    3.10
  -2  -7  -4  673.73   24.20
  -2  -7  -4  703.83   27.40
  -2  -7  -4  688.43   25.40
   2   7   4  720.63   26.40
   2   7   4  710.83   23.10
   2   7   4  727.33   24.50
  -3  -7  -4  392.86   17.60
  -3  -7  -4  415.06   16.40
   3   7   4  433.86   17.30
   3   7   4  417.46   15.30
   3   7   4  425.06   15.60
   3   7   4  436.56   14.90
  -4  -7  -4    7.90    1.80
  -4  -7  -4   11.00    3.00
   4   7   4    6.80    1.50
   4   7   4    5.00    1.30
   4   7   4    6.40    1.30
   4   7   4    9.50    2.10
  -5  -7  -4 1519.35   48.00
   5   7   4 1475.45   49.30
   5   7   4 1459.55   47.80
   5   7   4 1429.96   46.80
   5   7   4 1452.45   47.40
  -6  -7  -4  430.66   18.00
  -6  -7  -4  418.66   15.70
   6   7   4  415.76   17.10
   6   7   4  399.86   15.40
   6   7   4  399.76   16.10
   6   7   4  416.16   15.00
  -7  -7  -4 1307.67   42.70
  -7  -7  -4 1268.27   45.30
   7   7   4 1358.36   42.20
  -8  -7  -4   86.79    4.70
  -8  -7  -4   91.49    6.30
   8   7   4   85.19    4.40
  -9  -7  -4    5.00    1.50
   9   7   4    4.80    0.90
   3  -8  -4   18.10    1.80
  -3   8   4   13.50    1.80
  -3   8   4   14.80    2.60
   2  -8  -4   14.20    2.00
  -2   8   4   18.00    3.20
  -2   8   4   15.90    2.30
   1  -8  -4    0.60    0.90
   1  -8  -4    2.80    2.00
  -1   8   4    0.90    1.10
  -1   8   4    3.20    1.30
   0  -8  -4   64.29    5.20
   0  -8  -4   68.79    4.40
   0   8   4   71.79    5.60
  -1  -8  -4    5.00    2.90
  -1  -8  -4    6.80    1.70
   1   8   4    9.90    2.30
  -2  -8  -4    3.50    1.40
  -2  -8  -4    0.20    2.50
  -2  -8  -4    6.80    1.60
   2   8   4    3.20    1.40
  -3  -8  -4  202.88    9.80
   3   8   4  206.88   10.50
  -4  -8  -4  372.66   14.90
  -4  -8  -4  347.77   14.60
   4   8   4  364.06   14.00
   4   8   4  367.46   15.60
   4   8   4  379.56   13.00
  -5  -8  -4  353.86   14.80
  -5  -8  -4  359.26   14.20
   5   8   4  338.77   14.90
   5   8   4  351.56   12.60
  -6  -8  -4   90.79    6.20
  -6  -8  -4   88.99    5.30
   6   8   4   87.39    6.00
   6   8   4   84.99    4.50
  -7  -8  -4  225.88   10.80
  -7  -8  -4  217.48    9.30
   7   8   4  215.88    8.60
  -8  -8  -4   96.49    5.00
  -8  -8  -4  102.59    6.20
   8   8   4  101.09    4.60
  -9  -8  -4  218.18    8.30
  -9  -8  -4  236.78    9.70
   9   8   4  236.58    8.10
  -2   9   4    0.30    1.10
  -2   9   4   -0.10    0.70
   1  -9  -4   84.89    4.20
  -1   9   4   86.69    5.40
  -1   9   4   89.29    6.60
   0  -9  -4   12.00    2.10
   0  -9  -4   10.40    2.20
   0   9   4   11.00    2.80
  -1  -9  -4    0.50    1.20
  -1  -9  -4    0.80    1.50
   1   9   4    1.00    1.00
  -2  -9  -4  274.07   12.20
   2   9   4  277.47   12.90
  -3  -9  -4   19.10    2.70
   3   9   4   13.60    2.50
  -4  -9  -4   20.50    2.70
   4   9   4   23.10    3.10
  -5  -9  -4    1.70    1.00
  -5  -9  -4    1.80    1.00
   5   9   4    2.30    1.20
  -6  -9  -4    1.50    0.80
  -6  -9  -4    1.60    0.90
   6   9   4    1.80    1.30
  -7  -9  -4    0.20    0.70
  -7  -9  -4    0.50    0.80
   7   9   4    1.60    1.60
  -8  -9  -4   76.49    4.30
  -8  -9  -4   71.69    3.80
   0  10   4   29.70    3.50
   0  10   4   32.30    2.80
  -1 -10  -4    9.30    2.00
   1  10   4    8.90    2.20
  -2 -10  -4    1.80    1.30
   2  10   4    2.10    1.40
   2  10   4    2.30    1.10
  -3 -10  -4  131.29    6.70
   3  10   4  121.59    7.20
  -4 -10  -4  359.96   13.70
   4  10   4  322.97   14.10
   5  10   4    3.70    1.30
  -6 -10  -4    4.10    1.10
  -6 -10  -4    3.10    1.10
   6  10   4    3.70    1.40
  -7 -10  -4  132.79    5.30
  -7 -10  -4  134.49    5.80
   7  10   4  115.79    5.90
  -3 -10   5    1.20    0.60
   6   9  -5  108.69    4.90
   5   9  -5  132.19    5.80
  -5  -9   5  142.99    5.70
   4   9  -5   49.30    2.90
  -4  -9   5   53.39    3.10
  -3  -9   5  360.96   13.00
  -2  -9   5  167.58    6.90
  -1  -9   5    1.60    0.70
   0  -9   5   75.59    3.80
   7   8  -5    1.60    0.80
  -7  -8   5    1.20    1.00
   6   8  -5  239.68    9.90
  -6  -8   5  236.98    8.80
   5   8  -5   66.49    4.30
   5   8  -5   79.19    3.80
  -5  -8   5   74.59    4.00
   4   8  -5   48.80    3.00
   4   8  -5   41.70    3.10
  -4  -8   5   46.10    3.10
   3   8  -5  237.38    9.10
   3   8  -5  221.28    9.00
  -3  -8   5  225.58    9.20
   2   8  -5    2.10    0.80
   2   8  -5    1.50    1.20
  -2  -8   5    2.50    0.80
   1   8  -5 1100.89   35.50
  -1  -8   5 1065.99   35.00
   0   8  -5   58.39    3.80
   0  -8   5   62.59    3.50
  -1   8  -5   93.69    6.50
  -1   8  -5  105.49    5.30
   1  -8   5  112.29    4.90
  -2   8  -5  308.97   13.80
   2  -8   5  349.27   11.70
   8   7  -5  222.88    9.20
  -8  -7   5  224.18    8.70
   7   7  -5   17.50    2.40
   7   7  -5   21.30    2.00
  -7  -7   5   21.20    2.20
   6   7  -5  124.89    7.00
   6   7  -5  147.79    6.40
  -6  -7   5  135.49    6.00
  -6  -7   5  145.79    6.90
   5   7  -5   85.89    5.40
   5   7  -5   89.89    4.90
  -5  -7   5   87.89    4.60
   4   7  -5   89.09    5.40
   4   7  -5   96.49    5.20
  -4  -7   5   95.19    8.40
  -4  -7   5   95.89    5.00
   3   7  -5  105.69    5.50
   3   7  -5  100.19    5.40
  -3  -7   5  104.99    5.30
  -3  -7   5  104.39    7.30
   2   7  -5   34.90    2.60
   2   7  -5   34.40    3.00
  -2  -7   5   30.50    4.00
  -2  -7   5   36.60    2.70
   1   7  -5  129.99    6.30
  -1  -7   5  123.29    7.20
  -1  -7   5  105.39    7.30
  -1  -7   5  122.09    5.70
   0   7  -5  474.55   17.30
   0   7  -5  446.46   20.90
   0  -7   5  490.15   16.60
  -1   7  -5   47.70    3.60
  -1   7  -5   38.30    5.30
   1  -7   5   45.40    2.90
  -2   7  -5   58.29    5.90
  -2   7  -5   61.79    4.30
   2  -7   5   64.09    3.50
  -3   7  -5   56.19    5.60
   3  -7   5   61.99    3.40
  -4   7  -5   44.30    4.00
   8   6  -5   72.39    4.50
   8   6  -5   77.39    3.70
  -8  -6   5   78.19    4.20
   7   6  -5  216.88    8.70
   7   6  -5  209.18    9.50
  -7  -6   5  212.78    9.10
   6   6  -5 1155.28   36.90
   6   6  -5 1074.99   37.70
  -6  -6   5 1125.79   36.40
  -6  -6   5 1148.09   37.30
   5   6  -5  591.24   21.50
   5   6  -5  603.04   20.80
  -5  -6   5  600.94   20.60
  -5  -6   5  566.54   23.70
  -5  -6   5  593.74   21.10
   4   6  -5 1868.41   58.39
  -4  -6   5 1795.92   62.09
   3   6  -5  135.09    6.50
   3   6  -5  131.59    6.60
  -3  -6   5  126.19    8.40
   2   6  -5   13.90    2.20
   2   6  -5    8.60    1.60
  -2  -6   5   10.40    1.60
  -2  -6   5   11.10    2.50
   1   6  -5  615.54   21.50
   1   6  -5  624.44   20.20
  -1  -6   5  603.14   21.00
  -1  -6   5  595.54   23.80
   0   6  -5   94.99    8.80
   0   6  -5  104.29    5.60
   0   6  -5   95.59    7.80
   0  -6   5  101.79    6.30
   0  -6   5   94.59    6.70
  -1   6  -5  104.79    5.80
  -1   6  -5  100.29    8.20
  -1   6  -5   88.99    8.60
   1  -6   5   96.99    4.70
   1  -6   5   94.29    6.10
  -2   6  -5    0.40    1.90
  -2   6  -5    0.40    0.90
   2  -6   5    1.70    1.00
  -3   6  -5  149.09    7.60
  -3   6  -5  139.39   10.40
   3  -6   5  129.29    6.90
  -4   6  -5   48.50    5.50
  -5   6  -5    1.70    1.30
   9   5  -5   63.29    3.70
   9   5  -5   66.09    3.10
  -9  -5   5   73.29    3.60
   8   5  -5   76.09    4.70
  -8  -5   5   77.59    4.40
   7   5  -5  279.17   12.10
  -7  -5   5  300.77   11.90
   6   5  -5  311.77   13.10
  -6  -5   5  320.67   12.80
  -6  -5   5  322.67   11.90
  -6  -5   5  296.47   14.80
   5   5  -5    1.00    1.00
  -5  -5   5   -1.30    1.10
  -5  -5   5    0.80    1.40
   4   5  -5  193.58    8.40
   4   5  -5  176.68    8.30
  -4  -5   5  179.18   10.30
  -4  -5   5  182.98    8.10
   3   5  -5  115.99    5.80
   3   5  -5  113.09    5.80
  -3  -5   5  114.09    7.80
  -3  -5   5  112.19    5.70
   2   5  -5   60.49    3.60
   2   5  -5   58.39    4.30
   2   5  -5   53.69    3.80
  -2  -5   5   56.69    3.60
  -2  -5   5   57.69    5.10
   1   5  -5  133.39    6.60
   1   5  -5  136.69    7.50
   1   5  -5  127.19    7.10
   1   5  -5  140.69    5.90
  -1  -5   5  131.89    7.90
  -1  -5   5  130.49    5.90
   0   5  -5  385.26   16.40
   0   5  -5  359.16   18.60
   0   5  -5  402.06   16.40
   0   5  -5  395.86   14.60
   0  -5   5  383.06   13.70
   0  -5   5  395.26   16.50
  -1   5  -5  580.24   23.90
  -1   5  -5  604.64   27.00
  -1   5  -5  609.04   21.30
   1  -5   5  582.64   20.10
   1  -5   5  614.64   22.10
   1  -5   5  611.94   22.90
  -2   5  -5  195.78   13.50
  -2   5  -5  203.08   12.00
  -2   5  -5  207.28    9.30
   2  -5   5  195.28    9.40
  -3   5  -5    2.10    2.10
  -3   5  -5    1.90    1.20
  -3   5  -5    1.20    2.40
  -4   5  -5   59.89    6.90
  -4   5  -5   54.79    4.40
  -5   5  -5    1.10    1.60
  -6   5  -5    0.40    0.90
   9   4  -5   99.19    4.90
  -9  -4   5   95.99    3.90
  -9  -4   5  108.59    4.80
   8   4  -5   30.50    2.80
  -8  -4   5   32.70    2.50
  -8  -4   5   31.30    2.70
   7   4  -5  177.88    8.70
  -7  -4   5  180.08    8.60
   6   4  -5    0.50    1.10
  -6  -4   5    5.10    2.40
  -6  -4   5    2.00    0.90
   5   4  -5  264.77   11.60
  -5  -4   5  273.37   11.70
  -5  -4   5  257.77   13.30
  -5  -4   5  268.47   10.80
   4   4  -5   60.09    4.20
  -4  -4   5   54.49    3.70
  -4  -4   5   55.09    4.20
  -4  -4   5   55.09    5.10
   3   4  -5  851.71   28.30
   3   4  -5  861.51   28.90
  -3  -4   5  858.51   28.30
  -3  -4   5  859.71   31.10
   2   4  -5 2735.03   86.09
   2   4  -5 2828.02   86.59
   2   4  -5 2830.62   85.89
  -2  -4   5 2729.03   88.49
  -2  -4   5 2696.33   85.49
   1   4  -5    3.60    1.10
   1   4  -5    1.50    0.90
   1   4  -5    2.90    1.20
   1   4  -5    2.60    1.30
  -1  -4   5    2.70    1.10
  -1  -4   5    2.10    0.80
   0   4  -5    0.90    0.90
   0   4  -5    3.70    2.60
   0   4  -5    3.20    1.50
   0   4  -5    0.90    0.70
   0  -4   5    1.80    1.00
   0  -4   5    1.70    0.70
  -1   4  -5   14.50    1.90
  -1   4  -5   16.40    2.30
  -1   4  -5   11.80    2.80
  -1   4  -5   11.70    3.60
  -1   4  -5   11.30    3.20
   1  -4   5   15.50    2.10
  -2   4  -5  129.99    8.20
  -2   4  -5  122.89    7.90
  -2   4  -5  128.19   10.20
  -2   4  -5  133.29    8.70
  -2   4  -5  127.29    6.60
   2  -4   5  128.29    6.60
   2  -4   5  132.19    7.20
  -3   4  -5  416.16   16.00
  -3   4  -5  388.36   18.70
  -3   4  -5  401.26   21.40
  -3   4  -5  419.46   17.00
   3  -4   5  393.46   15.70
  -4   4  -5    5.90    2.80
  -4   4  -5    2.60    1.40
  -4   4  -5    5.30    3.40
  -4   4  -5   -1.60    1.80
  -5   4  -5 1164.98   39.90
  -5   4  -5 1206.58   39.50
  -5   4  -5 1138.29   45.70
  -6   4  -5   31.90    4.60
   9   3  -5    8.70    1.70
  -9  -3   5    7.50    1.20
  -9  -3   5    5.20    1.10
   8   3  -5  552.84   20.30
  -8  -3   5  561.04   20.00
  -8  -3   5  577.54   20.30
   7   3  -5  496.55   19.10
  -7  -3   5  504.75   19.20
   6   3  -5  498.85   18.50
  -6  -3   5  429.76   19.50
  -6  -3   5  447.66   16.30
  -6  -3   5  489.95   18.60
   5   3  -5  825.02   30.00
  -5  -3   5  849.22   30.50
  -5  -3   5  879.21   29.00
  -5  -3   5  880.91   32.40
   4   3  -5  343.07   13.80
  -4  -3   5  341.07   14.00
  -4  -3   5  340.27   12.70
  -4  -3   5  318.77   12.90
  -4  -3   5  337.37   14.90
   3   3  -5 1143.19   37.10
   3   3  -5 1168.88   38.20
  -3  -3   5 1123.69   37.40
  -3  -3   5 1177.68   37.20
  -3  -3   5 1159.28   39.60
   2   3  -5  184.98    8.60
   2   3  -5  183.88    7.90
  -2  -3   5  185.98    9.10
  -2  -3   5  183.78    7.40
  -2  -3   5  170.38    7.10
   1   3  -5   64.09    3.90
   1   3  -5   59.89    3.30
  -1  -3   5   58.39    4.40
  -1  -3   5   51.19    2.90
  -1  -3   5   52.99    2.90
   0   3  -5 1299.47   41.80
   0   3  -5 1252.37   43.10
   0   3  -5 1385.06   42.30
   0   3  -5 1243.18   42.40
   0  -3   5 1280.07   43.10
   0  -3   5 1299.37   40.30
  -1   3  -5 1237.78   41.90
  -1   3  -5 1249.28   40.90
  -1   3  -5 1242.78   42.30
  -1   3  -5 1304.77   42.20
   1  -3   5 1281.07   42.10
  -2   3  -5  601.64   25.50
  -2   3  -5  579.64   22.00
  -2   3  -5  599.64   22.80
  -2   3  -5  579.94   21.60
  -2   3  -5  569.94   20.60
   2  -3   5  585.24   21.30
  -3   3  -5  692.43   25.30
  -3   3  -5  696.03   27.30
  -3   3  -5  682.83   24.60
  -3   3  -5  701.53   30.20
  -3   3  -5  713.43   26.30
   3  -3   5  686.43   24.10
  -4   3  -5  741.83   30.00
  -4   3  -5  758.52   27.40
  -4   3  -5  742.23   28.90
  -4   3  -5  775.52   27.50
  -4   3  -5  777.82   33.50
  -5   3  -5  566.84   25.90
  -5   3  -5  563.24   28.20
  -5   3  -5  606.24   22.20
  -5   3  -5  632.94   23.20
  -6   3  -5  132.99    7.90
  -6   3  -5  125.19   10.20
  -7   3  -5    4.90    1.80
  -9  -2   5   71.69    3.90
  -9  -2   5   67.49    3.50
   8   2  -5  256.17   11.00
  -8  -2   5  248.28   10.80
  -8  -2   5  270.67   11.20
   7   2  -5  189.18    9.60
  -7  -2   5  206.98    9.90
   6   2  -5 2183.38   68.79
   6   2  -5 1992.40   65.39
  -6  -2   5 2166.28   69.09
   5   2  -5    0.00    1.10
  -5  -2   5   -1.70    1.40
  -5  -2   5    1.30    0.90
   4   2  -5 1221.68   42.10
  -4  -2   5 1245.98   41.70
  -4  -2   5 1292.57   43.20
  -4  -2   5 1234.98   42.70
  -4  -2   5 1307.47   40.80
   3   2  -5 5452.95  169.48
   3   2  -5 5419.76  170.38
  -3  -2   5 5511.95  171.38
  -3  -2   5 5549.34  169.88
  -3  -2   5 5698.23  169.08
   2   2  -5  341.67   13.20
  -2  -2   5  353.56   14.20
  -2  -2   5  348.57   12.30
  -2  -2   5  355.06   12.90
   1   2  -5 6835.92  204.68
  -1  -2   5 6522.05  202.88
  -1  -2   5 6669.33  203.48
   0   2  -5  454.45   16.00
   0   2  -5  446.76   16.60
   0  -2   5  457.85   17.20
   0  -2   5  442.46   15.20
  -1   2  -5  819.72   27.80
  -1   2  -5  806.52   27.50
   1  -2   5  771.62   25.70
   1  -2   5  813.72   27.90
  -2   2  -5  550.04   19.30
  -2   2  -5  559.94   20.60
  -2   2  -5  541.85   20.00
  -2   2  -5  586.64   20.60
   2  -2   5  515.85   17.30
   2  -2   5  553.94   20.00
   2  -2   5  530.25   18.00
  -3   2  -5   34.30    3.60
  -3   2  -5   27.30    4.10
  -3   2  -5   21.70    3.00
  -3   2  -5   27.20    3.00
  -3   2  -5   26.90    2.80
   3  -2   5   26.30    2.00
   3  -2   5   24.20    2.00
   3  -2   5   28.80    2.70
   3  -2   5   26.20    2.20
  -4   2  -5   81.39    6.40
  -4   2  -5   77.69    7.50
  -4   2  -5   78.09    5.40
  -4   2  -5   73.99    5.80
  -4   2  -5   74.89    5.30
   4  -2   5   69.69    4.30
  -5   2  -5   23.30    4.70
  -5   2  -5   18.10    3.10
  -5   2  -5   14.60    3.50
  -5   2  -5   22.10    2.90
  -6   2  -5  233.18   10.80
  -6   2  -5  240.78   15.10
  -7   2  -5  108.19    6.00
  -7   2  -5  108.29    8.80
   8   1  -5   10.10    2.20
  -8  -1   5   17.20    2.10
  -8  -1   5   13.00    2.10
   7   1  -5   45.10    4.20
   7   1  -5   46.30    3.00
  -7  -1   5   44.10    4.10
   6   1  -5   73.99    5.60
   6   1  -5   82.69    4.30
  -6  -1   5   83.99    6.00
   5   1  -5  158.68    8.70
   5   1  -5  161.78    6.90
   5   1  -5  155.48    6.90
  -5  -1   5  174.28    9.00
  -5  -1   5  165.18    7.30
  -5  -1   5  170.18    9.20
  -5  -1   5  165.18    9.20
   4   1  -5   53.69    3.80
   4   1  -5   52.69    2.70
   4   1  -5   49.50    3.00
   4   1  -5   50.69    4.20
  -4  -1   5   54.59    3.50
  -4  -1   5   56.49    4.40
  -4  -1   5   56.59    4.60
  -4  -1   5   56.59    4.70
   3   1  -5   28.70    3.10
   3   1  -5   39.70    3.00
   3   1  -5   28.80    1.50
  -3  -1   5   35.00    3.10
  -3  -1   5   33.30    3.20
  -3  -1   5   33.80    2.50
   2   1  -5 1301.47   41.30
  -2  -1   5 1217.98   41.60
  -2  -1   5 1238.78   39.90
  -2  -1   5 1264.67   40.80
   1   1  -5  800.22   26.90
  -1  -1   5  794.42   25.90
  -1  -1   5  748.13   25.10
   0   1  -5 2950.40   93.39
   0  -1   5 3013.30   91.99
  -1   1  -5    7.30    1.60
  -1   1  -5    6.90    1.40
  -2   1  -5   19.40    2.40
  -2   1  -5   19.70    2.40
   2  -1   5   17.50    1.60
   2  -1   5   16.80    1.00
  -3   1  -5  529.65   22.30
  -3   1  -5  497.35   18.60
  -3   1  -5  525.15   19.40
  -3   1  -5  504.55   19.10
  -3   1  -5  538.75   20.00
   3  -1   5  498.15   16.90
   3  -1   5  521.75   17.80
  -4   1  -5  138.89    9.80
  -4   1  -5  136.79    7.30
  -4   1  -5  138.29    8.10
  -4   1  -5  129.59    7.40
  -4   1  -5  121.69    7.00
   4  -1   5  129.49    6.20
   4  -1   5  134.29    5.90
  -5   1  -5  157.08    8.30
  -5   1  -5  169.58   11.50
  -5   1  -5  152.08    9.30
  -5   1  -5  152.78    8.60
  -5   1  -5  142.59    8.30
   5  -1   5  146.59    7.00
  -6   1  -5    4.40    2.20
  -6   1  -5    4.40    2.10
  -6   1  -5    4.00    1.70
  -6   1  -5    4.70    1.60
  -7   1  -5    5.10    1.60
  -7   1  -5    2.10    1.80
  -8   1  -5   29.90    2.70
   8   0  -5    4.80    2.00
  -8   0   5    4.20    1.30
  -8   0   5    6.70    1.40
   7   0  -5   61.89    3.70
   7   0  -5   66.69    5.10
  -7   0   5   55.89    4.90
   6   0  -5  681.63   25.80
   6   0  -5  656.53   23.20
  -6   0   5  699.13   26.40
   5   0  -5  283.47   11.00
   5   0  -5  287.57   11.00
   5   0  -5  272.97   13.00
  -5   0   5  276.97   13.30
  -5   0   5  293.07   13.60
   4   0  -5   74.59    5.40
   4   0  -5   77.29    4.10
   4   0  -5   72.09    3.80
  -4   0   5   69.29    5.10
  -4   0   5   72.49    5.40
  -4   0   5   75.49    4.20
  -4   0   5   75.99    5.70
   3   0  -5  828.92   28.00
   3   0  -5  848.22   30.40
  -3   0   5  851.51   28.80
  -3   0   5  893.61   30.50
  -3   0   5  941.71   30.80
   2   0  -5 5204.38  164.68
  -2   0   5 5375.86  162.98
  -2   0   5 5405.96  164.38
   1   0  -5 1188.18   39.30
  -1   0   5 1139.49   37.30
  -1   0   5 1204.08   38.30
   0   0  -5  225.78    9.90
   0   0   5  224.38    8.90
  -1   0  -5 2104.19   66.49
   1   0   5 2057.89   64.89
  -2   0  -5 1006.50   33.20
  -2   0  -5  976.40   32.70
   2   0   5  915.41   30.00
   2   0   5 1002.80   31.80
  -3   0  -5  246.78   10.70
  -3   0  -5  251.27   10.90
   3   0   5  240.38    8.60
   3   0   5  262.77   10.00
  -4   0  -5 1788.42   57.59
  -4   0  -5 1644.24   56.89
  -4   0  -5 1759.42   58.29
  -4   0  -5 1816.82   61.29
  -4   0  -5 1828.32   57.89
   4   0   5 1805.22   55.39
  -5   0  -5  279.27   12.60
  -5   0  -5  293.87   15.60
  -5   0  -5  280.87   12.50
  -5   0  -5  296.17   12.90
  -5   0  -5  283.17   13.40
   5   0   5  294.57   11.10
  -6   0  -5  247.68   11.50
  -6   0  -5  257.07   14.70
  -6   0  -5  240.48   11.90
   6   0   5  242.58   10.20
  -7   0  -5  399.66   19.40
  -7   0  -5  407.56   16.00
   7   0   5  380.96   14.10
  -8   0  -5   19.90    2.40
   8   0   5   28.40    2.20
  -8   1   5   49.80    3.00
  -8   1   5   45.40    3.30
   7  -1  -5    1.10    1.00
   7  -1  -5    6.60    2.10
  -7   1   5    0.10    1.00
  -7   1   5    1.10    1.00
   6  -1  -5    2.80    1.10
   6  -1  -5    2.20    1.40
  -6   1   5    4.80    1.80
   5  -1  -5   22.10    3.60
   5  -1  -5   26.30    2.70
  -5   1   5   32.80    4.00
  -5   1   5   28.00    3.50
   4  -1  -5    2.30    1.80
   4  -1  -5    1.20    1.30
   4  -1  -5    1.30    1.00
  -4   1   5    2.40    1.60
  -4   1   5    2.30    1.60
  -4   1   5    4.20    1.10
  -4   1   5    0.20    1.00
   3  -1  -5  151.48    6.70
   3  -1  -5  161.78    8.90
   3  -1  -5  157.18    8.50
  -3   1   5  156.38    8.00
  -3   1   5  147.19    8.20
  -3   1   5  151.88    6.30
  -3   1   5  161.28    8.90
  -3   1   5  166.38    7.00
   2  -1  -5   63.29    4.80
  -2   1   5   65.49    4.50
  -2   1   5   63.29    3.70
   1  -1  -5  536.35   19.00
  -1   1   5  472.05   16.90
  -1   1   5  488.05   18.00
   0  -1  -5  804.62   26.20
   0  -1  -5  783.92   26.70
   0   1   5  702.33   24.30
   0   1   5  725.13   25.20
  -1  -1  -5    1.90    1.00
   1   1   5    3.70    0.50
   1   1   5    4.60    1.10
  -2  -1  -5  258.67   10.90
   2   1   5  256.77    8.30
   2   1   5  234.48    9.70
  -3  -1  -5  905.01   30.60
   3   1   5  897.41   27.90
   3   1   5  864.11   29.60
  -4  -1  -5    7.50    1.50
  -4  -1  -5    4.40    1.30
  -4  -1  -5   11.60    2.90
   4   1   5    7.50    1.10
  -5  -1  -5  102.99    6.10
  -5  -1  -5  105.89    6.00
  -5  -1  -5  106.69    6.50
  -5  -1  -5  113.39    8.20
   5   1   5  104.99    5.00
  -6  -1  -5  193.68    9.80
  -6  -1  -5  190.68    9.80
  -6  -1  -5  198.08   12.00
   6   1   5  191.48    8.20
   6   1   5  177.88    7.60
  -7  -1  -5  292.37   13.20
  -7  -1  -5  312.97   16.00
   7   1   5  305.17   11.30
  -8  -1  -5  211.58    9.50
   8   1   5  209.88    8.20
  -9  -1  -5  246.58    9.40
   7  -2  -5  376.16   13.70
  -7   2   5  374.06   15.60
  -7   2   5  403.46   14.10
   6  -2  -5  232.58   14.60
   6  -2  -5  234.98   10.10
  -6   2   5  238.78   12.30
   5  -2  -5  461.85   17.20
   5  -2  -5  435.06   20.30
   5  -2  -5  426.06   19.20
  -5   2   5  475.05   20.10
  -5   2   5  448.86   18.70
   4  -2  -5   31.20    4.00
   4  -2  -5   27.90    2.90
   4  -2  -5   26.30    4.30
  -4   2   5   34.10    3.90
  -4   2   5   33.60    4.30
   3  -2  -5   13.00    2.00
   3  -2  -5   13.00    2.70
   3  -2  -5   16.40    2.90
  -3   2   5   12.60    2.40
  -3   2   5   11.40    2.70
  -3   2   5   14.00    1.70
  -3   2   5   11.50    2.10
   2  -2  -5 1491.15   50.69
   2  -2  -5 1505.85   50.29
   2  -2  -5 1426.06   47.60
  -2   2   5 1514.25   47.80
  -2   2   5 1583.24   49.80
   1  -2  -5  789.02   28.80
  -1   2   5  808.72   26.80
  -1   2   5  845.92   28.10
   0  -2  -5   95.79    5.60
   0   2   5   93.79    5.00
   0   2   5   97.49    4.40
  -1  -2  -5    0.10    0.50
   1   2   5    0.20    0.40
   1   2   5    0.80    0.40
  -2  -2  -5  200.28    9.40
   2   2   5  186.78    7.20
   2   2   5  207.78    7.00
   2   2   5  206.98    8.40
  -3  -2  -5  269.67   11.60
   3   2   5  269.07    9.30
   3   2   5  300.87   11.10
   3   2   5  262.47    9.50
  -4  -2  -5    6.50    1.60
  -4  -2  -5    7.20    1.90
   4   2   5    5.60    1.00
   4   2   5    6.70    1.00
  -5  -2  -5   45.20    3.60
  -5  -2  -5   43.90    3.90
  -5  -2  -5   42.20    4.80
   5   2   5   37.60    2.50
   5   2   5   41.60    2.60
  -6  -2  -5   87.39    5.90
  -6  -2  -5   84.09    5.70
   6   2   5   78.59    4.10
   6   2   5   80.79    4.40
  -7  -2  -5   -0.40    1.10
   7   2   5    1.50    0.90
   7   2   5    0.90    1.20
  -8  -2  -5   77.09    5.30
   8   2   5   87.59    4.30
  -9  -2  -5    2.50    1.10
   9   2   5    2.70    0.90
  -7   3   5    7.80    1.40
  -7   3   5    8.10    1.10
   6  -3  -5  140.69    6.80
   6  -3  -5  134.99   10.80
  -6   3   5  151.08    6.80
  -6   3   5  139.89    8.50
   5  -3  -5  965.80   32.30
   5  -3  -5  914.01   34.20
  -5   3   5  924.21   35.20
   4  -3  -5  102.59    6.00
   4  -3  -5   89.29    7.10
   4  -3  -5   97.99    8.10
  -4   3   5   95.89    6.40
  -4   3   5  105.29    7.80
   3  -3  -5 3236.18  106.89
   3  -3  -5 3416.86  108.19
   3  -3  -5 3249.18  103.79
  -3   3   5 3246.68  104.49
  -3   3   5 3344.37  105.09
  -3   3   5 3425.56  107.69
   2  -3  -5  483.55   20.40
   2  -3  -5  455.15   19.50
   2  -3  -5  475.45   17.50
  -2   3   5  510.65   20.50
  -2   3   5  498.05   18.70
  -2   3   5  473.65   16.60
   1  -3  -5 1498.45   50.09
   1  -3  -5 1419.36   47.00
   1  -3  -5 1464.65   49.70
  -1   3   5 1483.15   46.80
  -1   3   5 1524.45   48.30
   0  -3  -5 4616.04  144.99
   0   3   5 4556.34  142.29
   0   3   5 4780.12  143.49
  -1  -3  -5   15.00    2.10
   1   3   5   14.00    1.30
   1   3   5   12.00    1.70
   1   3   5   14.00    1.40
  -2  -3  -5    7.00    1.60
   2   3   5    4.20    0.90
   2   3   5    8.30    1.40
   2   3   5    5.40    0.90
  -3  -3  -5 2439.86   79.39
   3   3   5 2576.84   78.29
   3   3   5 2419.56   76.69
   3   3   5 2538.25   76.59
  -4  -3  -5  895.01   29.20
  -4  -3  -5  876.11   30.80
  -4  -3  -5  870.41   30.60
   4   3   5  906.71   28.30
   4   3   5  881.21   28.40
  -5  -3  -5  150.58    7.70
  -5  -3  -5  154.68    8.30
  -5  -3  -5  160.28    6.70
   5   3   5  152.68    6.30
   5   3   5  154.18    6.40
  -6  -3  -5  208.58    8.10
  -6  -3  -5  217.98   10.60
   6   3   5  208.98    8.60
   6   3   5  217.68    8.40
   7   3   5  644.14   21.50
   7   3   5  634.84   22.00
  -8  -3  -5    1.60    1.00
   8   3   5    0.10    0.60
  -9  -3  -5  213.68    9.40
   9   3   5  222.28    8.30
   6  -4  -5  103.59    4.90
  -6   4   5  106.49    6.00
  -6   4   5  103.69    4.60
   5  -4  -5   13.90    3.00
   5  -4  -5   17.20    2.40
  -5   4   5   18.20    2.10
  -5   4   5   19.60    3.10
   4  -4  -5    5.00    2.10
   4  -4  -5    6.90    2.80
   4  -4  -5    4.80    1.50
  -4   4   5    5.80    2.20
  -4   4   5    4.00    2.60
  -4   4   5    3.00    1.80
   3  -4  -5   86.19    5.60
   3  -4  -5   84.69    7.70
   3  -4  -5   85.99    6.90
  -3   4   5   82.49    7.30
  -3   4   5   85.79    5.80
  -3   4   5   94.09    7.30
  -3   4   5   92.79    5.90
   2  -4  -5   34.40    3.10
   2  -4  -5   31.70    4.50
  -2   4   5   28.90    3.20
  -2   4   5   32.70    4.50
   1  -4  -5  194.88   10.80
   1  -4  -5  170.38    8.10
   1  -4  -5  165.98    9.80
  -1   4   5  178.28   10.20
  -1   4   5  184.08    7.40
  -1   4   5  195.48    8.80
   0  -4  -5   47.30    4.50
   0  -4  -5   41.50    3.80
   0  -4  -5   44.00    3.30
   0   4   5   47.80    3.40
   0   4   5   44.20    2.80
   0   4   5   39.20    4.40
  -1  -4  -5  247.88   11.20
  -1  -4  -5  211.98   10.50
   1   4   5  236.18    9.00
   1   4   5  240.38    9.70
   1   4   5  252.27    9.00
  -2  -4  -5  106.89    6.30
  -2  -4  -5  124.69    6.60
   2   4   5  126.99    6.00
   2   4   5  121.79    5.20
   2   4   5  131.89    5.50
  -3  -4  -5 1650.73   54.69
  -3  -4  -5 1777.32   56.89
  -3  -4  -5 1665.43   53.89
   3   4   5 1709.63   53.29
   3   4   5 1664.33   53.29
   3   4   5 1792.12   54.59
  -4  -4  -5   26.30    3.10
  -4  -4  -5   30.60    3.20
  -4  -4  -5   35.40    2.80
   4   4   5   26.60    2.60
   4   4   5   27.40    2.10
   4   4   5   26.50    2.00
  -5  -4  -5  348.27   13.20
  -5  -4  -5  344.97   14.90
  -5  -4  -5  345.57   14.20
   5   4   5  349.77   12.40
   5   4   5  346.57   12.40
  -6  -4  -5   72.59    5.50
  -6  -4  -5   65.89    4.00
   6   4   5   67.29    3.80
   6   4   5   65.89    3.90
  -7  -4  -5    0.10    0.70
  -7  -4  -5   -0.10    1.00
   7   4   5    0.10    1.00
   7   4   5    0.90    0.70
  -8  -4  -5    1.90    1.10
  -9  -4  -5  135.79    7.00
   9   4   5  126.89    5.50
  -6   5   5   41.50    2.50
   5  -5  -5  403.36   14.90
  -5   5   5  435.06   16.90
   4  -5  -5    9.60    2.00
   4  -5  -5   13.60    3.20
  -4   5   5    5.90    2.80
  -4   5   5    8.40    2.30
  -4   5   5    8.50    1.70
   3  -5  -5  537.65   20.40
   3  -5  -5  562.04   22.50
   3  -5  -5  511.15   24.40
  -3   5   5  539.15   21.70
  -3   5   5  564.94   23.70
  -3   5   5  523.85   20.50
  -3   5   5  568.74   23.20
   2  -5  -5  379.56   19.50
   2  -5  -5  395.96   16.00
   2  -5  -5  415.36   18.20
  -2   5   5  418.16   19.10
  -2   5   5  419.56   16.10
  -2   5   5  394.76   16.40
   1  -5  -5    2.40    1.90
   1  -5  -5    6.60    2.00
   1  -5  -5    4.30    1.50
  -1   5   5    1.60    1.50
  -1   5   5    1.10    1.00
   0  -5  -5 1083.09   39.60
   0  -5  -5 1072.89   35.80
   0  -5  -5 1095.09   38.20
   0   5   5 1104.39   36.20
   0   5   5 1096.89   34.80
   0   5   5 1039.80   38.80
  -1  -5  -5    3.10    1.50
   1   5   5    3.70    1.90
   1   5   5    1.50    0.70
   1   5   5    2.00    0.90
  -2  -5  -5  100.19    6.30
  -2  -5  -5   99.29    6.00
   2   5   5   99.49    5.20
   2   5   5   99.59    4.60
   2   5   5   80.09    6.30
   2   5   5   92.79    4.60
  -3  -5  -5   58.29    4.80
  -3  -5  -5   59.69    5.20
  -3  -5  -5   62.99    4.40
  -3  -5  -5   75.19    4.60
   3   5   5   61.89    4.00
   3   5   5   62.19    3.50
   3   5   5   60.19    3.50
  -4  -5  -5  399.56   15.20
  -4  -5  -5  395.36   16.50
  -4  -5  -5  384.96   16.70
   4   5   5  395.86   14.10
   4   5   5  398.26   14.10
   4   5   5  412.06   15.30
  -5  -5  -5   44.20    4.80
  -5  -5  -5   47.10    4.40
  -5  -5  -5   44.40    3.50
   5   5   5   45.20    3.00
   5   5   5   48.80    3.00
   5   5   5   45.30    3.70
  -6  -5  -5   16.80    2.10
  -6  -5  -5   18.80    3.20
   6   5   5   18.60    2.70
   6   5   5   17.30    2.10
   6   5   5   16.20    1.90
  -7  -5  -5  295.07   12.10
  -7  -5  -5  332.27   14.60
   7   5   5  321.57   13.10
   7   5   5  326.77   11.90
  -8  -5  -5   18.10    1.60
  -8  -5  -5   18.10    2.80
   8   5   5   17.40    1.80
  -9  -5  -5  200.28    9.40
   9   5   5  204.78    7.80
  -5   6   5   47.40    3.00
   4  -6  -5  579.74   20.00
  -4   6   5  582.34   22.10
  -4   6   5  587.74   22.50
   3  -6  -5  634.34   24.50
   3  -6  -5  635.64   22.70
  -3   6   5  663.03   25.60
  -3   6   5  642.54   25.90
   2  -6  -5  334.67   15.00
   2  -6  -5  305.97   16.70
   2  -6  -5  320.57   13.30
  -2   6   5  308.47   17.30
  -2   6   5  340.47   16.10
   1  -6  -5 1442.96   48.30
   1  -6  -5 1338.47   45.50
   1  -6  -5 1372.96   50.39
  -1   6   5 1348.17   45.60
  -1   6   5 1392.96   48.50
   0  -6  -5    4.70    2.10
   0  -6  -5    6.50    1.70
   0  -6  -5    7.20    1.80
   0   6   5    4.70    2.00
  -1  -6  -5  282.07   12.80
  -1  -6  -5  258.07   12.50
  -1  -6  -5  272.07   14.20
   1   6   5  286.87   10.40
   1   6   5  278.67   13.60
   1   6   5  280.77   11.60
  -2  -6  -5  590.54   23.80
  -2  -6  -5  621.54   22.50
   2   6   5  588.74   23.40
   2   6   5  587.44   21.10
   2   6   5  597.54   20.20
   2   6   5  585.64   20.40
  -3  -6  -5  182.88    9.70
  -3  -6  -5  195.88    9.20
  -3  -6  -5  180.38    9.20
   3   6   5  191.08   10.40
   3   6   5  191.48    7.90
   3   6   5  193.68    8.60
   3   6   5  189.68    7.80
  -4  -6  -5    9.90    2.90
  -4  -6  -5   11.70    2.70
   4   6   5   11.50    2.00
   4   6   5    9.80    2.90
   4   6   5   10.80    1.80
   4   6   5   14.50    1.70
  -5  -6  -5  227.08    9.80
  -5  -6  -5  210.28   11.00
   5   6   5  225.78    9.00
   5   6   5  213.08    9.70
   5   6   5  210.08    9.00
  -6  -6  -5  393.26   14.90
  -6  -6  -5  396.86   16.90
   6   6   5  366.96   15.30
   6   6   5  369.76   14.20
   6   6   5  388.16   14.00
  -7  -6  -5  188.08   10.20
  -7  -6  -5  186.68    8.40
   7   6   5  194.58    8.00
  -8  -6  -5   25.20    2.20
  -8  -6  -5   28.50    3.40
   8   6   5   32.40    2.40
  -9  -6  -5  632.14   22.90
   9   6   5  636.24   20.80
  -4   7   5    1.10    0.70
   3  -7  -5    8.10    1.80
  -3   7   5   13.00    2.70
  -3   7   5   13.80    2.30
   2  -7  -5   74.09    4.30
   2  -7  -5   67.09    5.30
  -2   7   5   67.29    5.70
  -2   7   5   68.99    6.10
   1  -7  -5   48.50    4.60
   1  -7  -5   47.80    3.80
  -1   7   5   54.89    5.10
   0  -7  -5  543.45   21.40
   0  -7  -5  517.55   23.40
   0  -7  -5  512.25   19.10
   0   7   5  544.55   22.00
  -1  -7  -5  692.23   28.90
  -1  -7  -5  722.63   26.90
   1   7   5  755.02   28.10
  -2  -7  -5  433.36   20.10
  -2  -7  -5  473.55   18.70
   2   7   5  463.95   19.30
   2   7   5  469.25   16.00
   2   7   5  468.35   17.60
  -3  -7  -5 1929.61   62.19
   3   7   5 1928.71   61.29
   3   7   5 1921.21   59.89
   3   7   5 1828.22   60.39
   3   7   5 1929.81   63.39
  -4  -7  -5   63.59    4.60
  -4  -7  -5   64.59    6.70
  -4  -7  -5   59.69    4.50
   4   7   5   55.19    3.70
   4   7   5   56.09    3.70
   4   7   5   60.69    5.40
   4   7   5   62.89    4.40
  -5  -7  -5 1597.34   50.39
  -5  -7  -5 1518.85   51.29
   5   7   5 1558.84   49.00
   5   7   5 1489.45   49.30
   5   7   5 1515.45   50.09
   5   7   5 1516.25   51.89
  -6  -7  -5    5.50    1.40
  -6  -7  -5    6.30    2.00
   6   7   5    9.50    1.70
  -7  -7  -5  199.18   10.30
  -7  -7  -5  201.18    8.90
   7   7   5  208.08    8.40
  -8  -7  -5  135.19    6.20
  -8  -7  -5  137.39    7.60
   8   7   5  142.09    6.00
  -9  -7  -5   25.90    2.60
   9   7   5   25.00    1.90
  -3   8   5    6.50    1.80
  -2   8   5    3.80    1.30
  -2   8   5    5.10    1.90
   1  -8  -5   42.90    3.80
  -1   8   5   39.70    4.00
  -1   8   5   44.20    4.80
   0  -8  -5   23.10    3.00
   0   8   5   25.20    3.50
  -1  -8  -5  236.48   11.50
   1   8   5  251.57   12.40
  -2  -8  -5   39.80    3.90
   2   8   5   48.50    4.60
  -3  -8  -5  103.49    6.40
   3   8   5  101.29    6.90
  -4  -8  -5  187.88    9.20
   4   8   5  186.68    9.90
   4   8   5  192.68    7.60
  -5  -8  -5  395.76   15.80
  -5  -8  -5  436.26   16.40
   5   8   5  426.86   14.70
   5   8   5  398.76   17.00
  -6  -8  -5  307.67   13.10
  -6  -8  -5  313.17   12.70
   6   8   5  315.77   11.60
   6   8   5  314.77   13.90
  -7  -8  -5  618.64   22.30
  -7  -8  -5  613.54   21.40
   7   8   5  604.84   20.50
  -8  -8  -5    0.10    0.60
  -8  -8  -5    1.80    1.10
   8   8   5    0.30    0.80
  -1   9   5  145.99    7.10
  -1   9   5  143.89    8.20
   0  -9  -5    9.20    2.20
   0   9   5    7.80    1.80
   0   9   5    9.00    2.60
  -1  -9  -5   18.80    2.60
   1   9   5   19.60    2.70
  -2  -9  -5  119.09    6.90
   2   9   5  124.19    7.50
  -3  -9  -5    6.50    1.60
   3   9   5    6.70    1.90
  -4  -9  -5   55.29    4.20
   4   9   5   47.60    4.50
  -5  -9  -5   45.40    3.60
   5   9   5   41.50    4.10
  -6  -9  -5  116.09    5.60
  -6  -9  -5  122.89    6.20
   6   9   5  117.69    6.80
  -7  -9  -5   85.49    4.60
  -7  -9  -5   85.59    4.50
  -8  -9  -5   61.69    3.20
  -8  -9  -5   63.49    3.40
  -1 -10  -5   39.30    3.00
   1  10   5   35.40    3.20
   1  10   5   39.90    3.90
  -2 -10  -5  399.36   14.60
   2  10   5  357.46   14.70
  -3 -10  -5   13.30    2.00
   3  10   5   14.00    2.10
  -4 -10  -5   30.10    2.80
   4  10   5   25.10    2.70
  -5 -10  -5  305.27   11.90
   5  10   5  304.57   12.40
  -6 -10  -5   -0.10    0.50
   6  10   5    1.80    1.20
  -5  -9   6    7.80    1.10
  -4  -9   6  373.66   12.90
  -3  -9   6  263.87    9.60
  -2  -9   6   21.70    1.70
  -1  -9   6  286.27   10.20
   7   8  -6   54.39    3.00
   6   8  -6    1.80    0.70
  -6  -8   6   -1.10    0.70
   5   8  -6   37.40    2.60
   5   8  -6   41.60    2.60
  -5  -8   6   40.90    2.60
   4   8  -6   16.30    1.90
   4   8  -6   20.40    1.90
  -4  -8   6   22.20    1.90
   3   8  -6  148.09    5.60
   3   8  -6  163.08   10.60
  -3  -8   6  157.78    6.70
   2   8  -6    1.40    1.00
  -2  -8   6    0.00    0.60
   1   8  -6   30.70    2.50
  -1  -8   6   24.80    2.10
   0   8  -6  239.28    9.30
   0  -8   6  232.78    8.90
  -1   8  -6   93.49    4.60
   1  -8   6   93.89    4.20
   7   7  -6  381.66   12.70
   7   7  -6  351.96   13.50
  -7  -7   6  367.16   13.20
   6   7  -6  187.58    7.60
   6   7  -6  175.78    8.30
  -6  -7   6  181.68    7.10
   5   7  -6  347.07   14.70
   5   7  -6  415.46   14.50
  -5  -7   6  405.46   14.00
   4   7  -6   25.90    2.60
   4   7  -6   23.10    2.40
  -4  -7   6   25.70    2.30
   3   7  -6  705.63   23.80
   3   7  -6  669.43   23.10
  -3  -7   6  695.23   23.50
   2   7  -6  582.24   20.20
   2   7  -6  552.14   18.50
  -2  -7   6  574.54   19.80
   1   7  -6  170.18    7.80
  -1  -7   6  173.08    7.30
   0   7  -6  118.09    6.10
   0  -7   6  114.29    5.30
  -1   7  -6  351.26   13.80
   1  -7   6  364.66   12.80
  -2   7  -6    1.20    0.90
  -2   7  -6   -1.50    1.30
   2  -7   6   -0.30    0.90
  -3   7  -6  154.18    7.90
   8   6  -6  139.69    5.50
   8   6  -6  145.99    6.40
  -8  -6   6  144.09    5.90
   7   6  -6   27.80    2.20
   7   6  -6   21.80    2.40
  -7  -6   6   28.10    2.40
   6   6  -6   10.00    1.70
   6   6  -6    8.30    1.70
  -6  -6   6    8.10    1.70
  -6  -6   6    7.80    1.40
   5   6  -6   73.09    4.40
   5   6  -6   65.49    4.40
  -5  -6   6   70.59    4.10
   4   6  -6  603.34   20.70
   4   6  -6  569.54   20.50
  -4  -6   6  556.04   23.80
   3   6  -6   15.90    2.20
   3   6  -6   17.60    2.40
  -3  -6   6   18.10    2.00
   2   6  -6   53.09    3.20
   2   6  -6   52.29    3.90
  -2  -6   6   50.79    3.50
  -2  -6   6   50.59    5.10
   1   6  -6 1765.92   53.39
  -1  -6   6 1559.74   56.09
  -1  -6   6 1629.94   52.59
   0   6  -6  267.37   11.10
   0  -6   6  253.37   12.90
   0  -6   6  277.07   12.30
  -1   6  -6  657.03   23.00
  -1   6  -6  605.94   26.80
   1  -6   6  663.73   21.60
  -2   6  -6  461.55   17.20
  -2   6  -6  435.46   21.00
   2  -6   6  455.65   15.40
  -3   6  -6   64.79    4.40
  -3   6  -6   55.99    5.90
  -4   6  -6  317.57   14.50
   8   5  -6    2.50    1.00
   8   5  -6    1.50    0.60
  -8  -5   6    2.90    0.80
   7   5  -6  337.37   13.40
   7   5  -6  333.57   12.80
  -7  -5   6  357.96   13.10
   6   5  -6   83.49    5.20
   6   5  -6   77.99    4.80
  -6  -5   6   84.09    4.90
  -6  -5   6   87.09    4.50
   5   5  -6  213.48    9.20
   5   5  -6  208.18    9.50
  -5  -5   6  210.18    9.20
  -5  -5   6  188.48   11.40
   4   5  -6 1790.72   57.09
   4   5  -6 1860.01   57.39
  -4  -5   6 1701.13   60.69
  -4  -5   6 1771.82   56.99
   3   5  -6   79.39    4.80
   3   5  -6   80.59    4.60
  -3  -5   6   77.89    6.70
  -3  -5   6   72.79    4.50
   2   5  -6 2321.77   73.59
   2   5  -6 2278.87   72.39
  -2  -5   6 2275.57   71.79
  -2  -5   6 2254.27   75.49
   1   5  -6  503.85   16.40
   1   5  -6  490.05   18.10
   1   5  -6  498.15   29.30
  -1  -5   6  473.15   20.20
  -1  -5   6  476.25   17.10
   0   5  -6  118.99    6.20
   0   5  -6  116.79    7.60
   0   5  -6  101.59    9.60
   0  -5   6  119.69    7.60
   0  -5   6  118.79    5.50
  -1   5  -6  368.96   17.00
  -1   5  -6  398.56   14.60
  -1   5  -6  349.57   18.50
  -1   5  -6  365.26   16.70
   1  -5   6  379.66   16.40
   1  -5   6  368.96   13.30
   1  -5   6  363.26   15.10
  -2   5  -6  184.38   12.60
  -2   5  -6  187.18    8.70
  -2   5  -6  190.38   11.50
   2  -5   6  175.18    9.00
  -3   5  -6   69.49    7.30
  -3   5  -6   71.29    4.90
  -4   5  -6    2.20    1.10
  -4   5  -6    3.20    2.10
  -5   5  -6   16.50    3.20
   8   4  -6   23.70    2.20
  -8  -4   6   19.70    2.00
  -8  -4   6   20.90    1.90
   7   4  -6  160.18    8.00
  -7  -4   6  168.98    7.80
   6   4  -6   11.60    2.10
  -6  -4   6   14.60    1.90
  -6  -4   6   10.30    2.10
   5   4  -6    7.90    1.90
  -5  -4   6    9.20    2.60
  -5  -4   6    7.20    1.50
  -5  -4   6    7.10    1.70
   4   4  -6 1548.55   49.20
  -4  -4   6 1457.65   51.89
  -4  -4   6 1497.55   48.50
   3   4  -6  445.56   16.40
   3   4  -6  452.35   16.40
  -3  -4   6  431.06   15.90
  -3  -4   6  437.26   18.80
   2   4  -6  206.68    9.00
   2   4  -6  222.08    9.80
   2   4  -6  215.38    8.80
  -2  -4   6  211.78   11.10
  -2  -4   6  210.58    8.60
   1   4  -6    4.00    1.20
   1   4  -6    3.50    1.00
   1   4  -6    4.90    1.60
  -1  -4   6    7.20    1.30
  -1  -4   6    4.40    1.60
   0   4  -6 1688.43   55.19
   0   4  -6 1658.13   53.99
   0   4  -6 1701.73   55.49
   0  -4   6 1630.94   52.59
   0  -4   6 1722.03   56.29
  -1   4  -6  164.08    9.30
  -1   4  -6  173.28   11.20
  -1   4  -6  162.68    9.00
  -1   4  -6  168.88   10.20
  -1   4  -6  159.78    7.70
   1  -4   6  158.78    8.90
  -2   4  -6  173.98   10.50
  -2   4  -6  175.68   10.10
  -2   4  -6  175.98   10.60
  -2   4  -6  181.68    8.40
  -2   4  -6  168.08   12.10
   2  -4   6  175.38    8.40
   2  -4   6  175.58    9.70
  -3   4  -6 1885.21   68.69
  -3   4  -6 2142.99   65.39
  -3   4  -6 1926.61   67.89
  -3   4  -6 2119.89   66.59
  -4   4  -6  148.49    9.80
  -4   4  -6  135.09   11.10
  -4   4  -6  156.08    8.10
  -5   4  -6  148.89   10.80
  -5   4  -6  163.88    8.20
  -6   4  -6   53.39    5.20
   8   3  -6   42.10    3.30
  -8  -3   6   42.80    2.90
  -8  -3   6   41.10    3.10
   7   3  -6  109.89    6.20
  -7  -3   6  110.19    6.20
  -6  -3   6    7.30    1.60
  -6  -3   6   11.80    2.40
   5   3  -6   24.60    3.00
  -5  -3   6   20.80    4.00
  -5  -3   6   28.90    3.30
  -5  -3   6   28.90    2.70
   4   3  -6  116.09    6.60
  -4  -3   6  121.59    7.10
  -4  -3   6  106.29    7.60
  -4  -3   6  110.49    6.20
  -4  -3   6  119.19    5.90
   3   3  -6   82.79    4.70
   3   3  -6   76.09    4.90
  -3  -3   6   81.99    4.50
  -3  -3   6   85.19    6.20
  -3  -3   6   76.99    4.60
   2   3  -6  692.73   25.00
   2   3  -6  726.33   24.60
   2   3  -6  744.53   24.70
  -2  -3   6  710.63   24.00
  -2  -3   6  736.73   24.50
  -2  -3   6  715.73   26.90
   1   3  -6   14.80    2.20
   1   3  -6   14.80    1.70
   1   3  -6   15.60    1.90
  -1  -3   6   14.30    2.50
  -1  -3   6   15.40    1.60
  -1  -3   6   15.70    1.80
   0   3  -6    8.00    1.90
   0   3  -6    5.70    1.50
   0   3  -6    4.10    2.50
   0  -3   6    5.80    1.00
   0  -3   6    9.60    1.40
  -1   3  -6  559.74   21.30
  -1   3  -6  563.54   23.90
  -1   3  -6  550.04   21.10
  -1   3  -6  559.04   19.90
  -1   3  -6  570.94   21.40
   1  -3   6  556.64   21.40
  -2   3  -6   10.00    2.10
  -2   3  -6    2.80    1.70
  -2   3  -6    6.60    1.60
  -2   3  -6    1.90    2.00
  -2   3  -6    5.90    1.90
   2  -3   6    6.60    2.00
  -3   3  -6   36.10    5.50
  -3   3  -6   46.40    4.70
  -3   3  -6   42.70    4.10
  -3   3  -6   41.70    4.90
   3  -3   6   39.60    3.30
  -4   3  -6   32.50    3.40
  -4   3  -6   30.20    4.20
  -4   3  -6   28.10    5.40
  -4   3  -6   33.10    3.80
  -4   3  -6   33.50    4.70
  -5   3  -6 1358.06   44.90
  -5   3  -6 1353.56   44.50
  -5   3  -6 1241.18   49.90
  -6   3  -6  205.38   10.00
  -6   3  -6  190.68   12.30
  -7   3  -6  201.98   10.70
   8   2  -6  163.98    7.60
  -8  -2   6  152.38    7.20
  -8  -2   6  175.38    7.60
   7   2  -6   21.90    2.70
  -7  -2   6   19.90    2.70
   6   2  -6    9.60    2.10
  -6  -2   6   11.20    2.20
   5   2  -6 1397.06   45.90
  -5  -2   6 1397.36   46.30
  -5  -2   6 1343.57   48.00
  -5  -2   6 1287.87   44.10
   4   2  -6   90.29    6.00
  -4  -2   6   93.09    6.80
  -4  -2   6   98.99    5.30
  -4  -2   6   91.49    5.80
  -4  -2   6   96.79    6.40
   3   2  -6  195.88    9.20
   3   2  -6  206.98    9.00
  -3  -2   6  197.08   10.20
  -3  -2   6  192.78    8.20
  -3  -2   6  183.88    8.80
   2   2  -6   82.99    5.20
   2   2  -6  106.59    5.50
  -2  -2   6   88.39    4.50
  -2  -2   6   91.79    6.10
  -2  -2   6   86.49    5.00
   1   2  -6 1016.80   33.60
   1   2  -6  954.40   32.20
   1   2  -6  992.10   32.40
  -1  -2   6  950.40   32.20
  -1  -2   6 1004.20   34.50
  -1  -2   6  979.30   31.60
   0   2  -6  311.67   12.00
   0   2  -6  330.37   13.40
   0   2  -6  321.37   13.30
   0  -2   6  336.37   14.10
   0  -2   6  314.37   11.70
   0  -2   6  306.67   11.10
  -1   2  -6  194.28    9.10
  -1   2  -6  198.48    8.50
  -1   2  -6  192.18    9.10
  -1   2  -6  190.38    9.40
   1  -2   6  195.08    7.80
   1  -2   6  198.88    9.80
  -2   2  -6 1840.12   60.29
  -2   2  -6 1855.91   60.29
  -2   2  -6 1874.21   63.19
  -2   2  -6 1805.62   59.49
  -2   2  -6 1862.31   58.69
   2  -2   6 1821.52   60.09
   2  -2   6 1783.52   57.39
  -3   2  -6  171.68    9.80
  -3   2  -6  169.38    8.30
  -3   2  -6  166.28    9.20
  -3   2  -6  175.38    8.90
  -3   2  -6  175.68   11.60
   3  -2   6  161.48    8.60
   3  -2   6  169.48    7.60
  -4   2  -6  691.53   25.10
  -4   2  -6  647.04   26.60
  -4   2  -6  679.03   24.70
  -4   2  -6  683.03   29.60
  -4   2  -6  639.54   25.50
  -5   2  -6  379.06   15.90
  -5   2  -6  366.86   15.30
  -5   2  -6  341.37   16.40
  -5   2  -6  357.16   19.70
  -6   2  -6   65.09    4.70
  -6   2  -6   65.79    7.10
  -7   2  -6  156.18    7.50
  -7   2  -6  125.59    9.30
   8   1  -6    2.30    1.00
  -8  -1   6    2.70    1.00
  -8  -1   6    3.40    1.10
   7   1  -6  204.78    9.90
  -7  -1   6  212.68   10.20
   6   1  -6  118.39    7.20
  -6  -1   6  119.69    7.50
   5   1  -6   89.19    6.20
  -5  -1   6   92.29    6.50
  -5  -1   6   96.09    6.50
  -5  -1   6   92.09    7.60
  -5  -1   6  100.29    5.30
   4   1  -6  294.17   13.30
   4   1  -6  299.47   13.10
  -4  -1   6  301.87   13.40
  -4  -1   6  306.77   12.10
  -4  -1   6  319.87   14.40
  -4  -1   6  297.07   13.80
   3   1  -6    1.40    1.10
  -3  -1   6    1.90    0.90
  -3  -1   6    3.30    1.00
  -3  -1   6    2.20    2.10
   2   1  -6 1082.39   36.40
   2   1  -6 1086.29   36.70
  -2  -1   6 1114.49   36.20
  -2  -1   6 1048.60   34.90
  -2  -1   6 1066.69   37.20
   1   1  -6   29.00    3.10
  -1  -1   6   30.60    2.20
  -1  -1   6   29.70    2.60
   0   1  -6  886.91   30.70
   0  -1   6  859.01   28.20
   0  -1   6  895.81   29.20
  -1   1  -6 1195.18   50.79
  -1   1  -6 1533.75   47.30
   1  -1   6 1493.45   45.10
  -2   1  -6 1366.76   46.30
  -2   1  -6 1429.16   47.20
  -2   1  -6 1448.76   49.50
  -2   1  -6 1399.96   46.80
  -2   1  -6 1402.66   45.60
   2  -1   6 1412.76   44.90
  -3   1  -6   10.50    2.90
  -3   1  -6    6.20    1.50
  -3   1  -6    6.80    1.70
  -3   1  -6    6.20    1.60
   3  -1   6    8.20    1.50
  -4   1  -6   24.00    3.00
  -4   1  -6   24.80    3.10
  -4   1  -6   23.20    3.00
  -4   1  -6   15.30    3.70
  -4   1  -6   22.40    3.50
   4  -1   6   24.40    3.10
   4  -1   6   23.80    2.50
  -5   1  -6 1477.05   52.09
  -5   1  -6 1250.27   46.30
  -5   1  -6 1385.06   48.60
  -5   1  -6 1320.87   47.00
  -5   1  -6 1446.96   46.70
  -6   1  -6   12.40    2.70
  -6   1  -6    9.00    2.90
  -6   1  -6   12.60    2.50
  -7   1  -6  101.99    8.30
  -7   1  -6  102.99    5.90
  -8   1  -6  100.09    5.10
  -8   0   6   16.30    1.70
  -8   0   6   17.60    2.00
   7   0  -6   75.19    5.20
  -7   0   6   75.99    5.40
   6   0  -6  551.74   21.80
  -6   0   6  554.74   22.10
   5   0  -6    1.20    1.30
  -5   0   6    0.70    1.30
  -5   0   6    1.10    1.10
   4   0  -6  579.24   21.80
   4   0  -6  598.24   22.40
  -4   0   6  559.94   20.10
  -4   0   6  548.75   22.30
  -4   0   6  576.74   22.70
  -4   0   6  553.74   22.40
   3   0  -6   76.39    5.40
   3   0  -6   74.89    5.40
  -3   0   6   68.39    5.70
  -3   0   6   81.29    5.60
  -3   0   6   93.99    6.10
  -3   0   6   72.89    4.50
   2   0  -6 1550.24   51.69
   2   0  -6 1497.95   50.79
  -2   0   6 1581.44   49.60
  -2   0   6 1581.14   51.19
   1   0  -6 2148.09   68.89
  -1   0   6 2135.99   67.69
  -1   0   6 2093.19   66.39
   0   0  -6  944.01   32.30
   0   0   6  870.71   29.50
   0   0   6  945.11   30.80
  -1   0  -6   33.10    3.30
   1   0   6   30.30    2.10
  -2   0  -6  181.78    8.70
  -2   0  -6  213.48    9.80
   2   0   6  184.88    8.10
  -3   0  -6  536.85   20.00
  -3   0  -6  539.05   22.30
  -3   0  -6  457.55   18.30
  -3   0  -6  499.45   19.20
   3   0   6  551.74   18.70
  -4   0  -6  175.88    9.10
  -4   0  -6  182.28   11.30
  -4   0  -6  182.98    9.00
  -4   0  -6  172.78    8.50
   4   0   6  185.58    8.40
   4   0   6  174.28    7.10
  -5   0  -6   40.40    3.80
  -5   0  -6   31.30    3.70
  -5   0  -6   39.00    5.00
  -5   0  -6   30.00    3.50
   5   0   6   39.90    3.50
  -6   0  -6  707.43   28.80
  -6   0  -6  629.84   25.30
  -6   0  -6  677.73   24.60
  -6   0  -6  667.83   24.60
   6   0   6  610.84   23.70
  -7   0  -6  120.99    9.10
  -7   0  -6  117.19    6.80
  -8   0  -6  177.18    7.80
   7  -1  -6   12.00    2.30
  -7   1   6   13.60    2.20
  -7   1   6   15.00    1.90
   6  -1  -6   29.40    3.60
  -6   1   6   29.10    3.60
   5  -1  -6  171.18    9.70
   5  -1  -6  160.78    7.20
  -5   1   6  162.78    9.50
  -5   1   6  173.58   10.10
   4  -1  -6    3.70    1.60
   4  -1  -6    3.40    1.40
   4  -1  -6    5.80    2.20
  -4   1   6    1.80    1.10
  -4   1   6    0.90    1.50
  -4   1   6    2.10    1.10
   3  -1  -6  521.05   20.20
  -3   1   6  507.55   18.00
  -3   1   6  526.15   20.90
  -3   1   6  491.75   20.00
  -3   1   6  474.95   20.10
   2  -1  -6   26.60    3.40
   2  -1  -6   25.60    3.00
  -2   1   6   23.80    2.90
  -2   1   6   21.80    2.20
   1  -1  -6   57.19    4.60
   1  -1  -6   51.49    4.00
  -1   1   6   48.30    3.30
  -1   1   6   51.49    4.00
   0  -1  -6  741.63   25.80
   0   1   6  690.23   24.10
   0   1   6  636.54   22.70
  -1  -1  -6    7.20    1.60
   1   1   6    7.00    1.20
   1   1   6    4.50    1.10
  -2  -1  -6  124.29    7.10
   2   1   6  125.09    6.20
   2   1   6  116.39    5.00
   2   1   6  119.19    4.30
  -3  -1  -6  131.99    7.10
  -3  -1  -6  134.79    7.50
  -3  -1  -6  140.59    8.90
   3   1   6  128.59    5.30
   3   1   6  137.29    5.00
   3   1   6  140.19    6.80
  -4  -1  -6  577.34   22.70
  -4  -1  -6  605.84   22.80
  -4  -1  -6  655.43   26.00
  -4  -1  -6  610.24   21.70
   4   1   6  619.94   22.20
   4   1   6  624.24   20.10
  -5  -1  -6   71.79    5.20
  -5  -1  -6   78.09    5.00
  -5  -1  -6   79.09    5.60
  -5  -1  -6   71.89    6.90
   5   1   6   72.89    3.80
   5   1   6   76.39    5.20
  -6  -1  -6   77.89    7.20
  -6  -1  -6   74.89    6.00
  -6  -1  -6   79.09    5.60
   6   1   6   76.19    3.90
   6   1   6   73.29    5.40
  -7  -1  -6  138.59    7.60
   7   1   6  130.79    5.80
  -8  -1  -6  119.19    6.00
   8   1   6   94.49    4.60
  -9  -1  -6   14.70    1.60
   7  -2  -6   48.40    3.60
  -7   2   6   55.19    3.10
  -7   2   6   50.39    3.70
   6  -2  -6  224.18   11.20
  -6   2   6  241.18   12.10
   5  -2  -6  323.57   12.40
   5  -2  -6  333.87   15.40
   4  -2  -6  977.10   37.70
   4  -2  -6  995.70   36.70
   4  -2  -6  959.40   32.90
  -4   2   6 1058.69   37.60
  -4   2   6 1023.80   36.30
   3  -2  -6    3.40    1.90
   3  -2  -6    9.40    1.70
   3  -2  -6    6.40    2.00
  -3   2   6    7.30    2.10
  -3   2   6    5.10    1.20
  -3   2   6    2.70    1.90
   2  -2  -6  692.43   26.30
   2  -2  -6  700.33   27.00
  -2   2   6  692.23   26.90
  -2   2   6  728.13   24.00
  -2   2   6  697.83   26.00
   1  -2  -6    7.50    1.70
   1  -2  -6    8.40    1.90
  -1   2   6    7.20    1.40
  -1   2   6    5.50    1.40
   0  -2  -6  369.16   14.80
   0  -2  -6  376.96   15.40
   0   2   6  364.96   13.40
   0   2   6  378.76   14.70
  -1  -2  -6  361.86   15.70
   1   2   6  382.16   14.30
   1   2   6  369.66   13.20
  -2  -2  -6 1127.39   38.60
   2   2   6 1168.08   37.20
   2   2   6 1113.39   35.60
   2   2   6 1076.99   34.90
  -3  -2  -6 1107.59   38.30
  -3  -2  -6 1102.49   36.00
  -3  -2  -6 1082.49   37.40
   3   2   6 1142.79   37.10
   3   2   6 1148.09   34.90
   3   2   6 1096.19   35.20
  -4  -2  -6  714.33   26.10
  -4  -2  -6  701.63   23.80
  -4  -2  -6  723.33   26.30
   4   2   6  705.33   23.50
   4   2   6  773.92   23.50
   4   2   6  737.53   25.80
  -5  -2  -6   49.20    4.30
  -5  -2  -6   40.10    3.90
   5   2   6   46.20    3.90
   5   2   6   45.10    2.80
   5   2   6   46.00    2.70
  -6  -2  -6  426.36   17.40
  -6  -2  -6  422.16   17.40
   6   2   6  422.06   14.60
   6   2   6  421.66   15.00
   6   2   6  403.76   17.10
  -7  -2  -6   42.30    4.00
   7   2   6   46.10    2.90
  -8  -2  -6    1.70    1.20
   8   2   6    3.30    0.90
  -9  -2  -6    7.90    1.50
   6  -3  -6   -0.90    1.20
  -6   3   6   -0.90    0.80
  -6   3   6    0.50    0.80
   5  -3  -6   -0.90    1.40
   5  -3  -6   -1.40    1.20
  -5   3   6    0.10    1.00
   4  -3  -6    1.40    1.30
   4  -3  -6    1.80    2.20
   4  -3  -6    2.50    1.50
  -4   3   6   -1.40    1.40
  -4   3   6   -0.20    1.40
   3  -3  -6  107.49    5.80
   3  -3  -6  112.59    7.90
   3  -3  -6  106.69    8.50
  -3   3   6  109.49    8.20
  -3   3   6  113.89    7.30
   2  -3  -6   15.70    2.80
   2  -3  -6   16.50    3.20
   2  -3  -6   17.70    3.40
  -2   3   6   12.20    3.20
  -2   3   6   20.70    3.00
  -2   3   6   15.90    1.90
   1  -3  -6  169.48    9.90
   1  -3  -6  169.38    9.50
  -1   3   6  178.68    7.60
  -1   3   6  167.48   10.00
  -1   3   6  186.08    8.90
   0  -3  -6  325.37   14.70
   0  -3  -6  347.37   14.70
   0   3   6  341.87   12.60
   0   3   6  351.26   13.90
  -1  -3  -6   72.79    5.00
  -1  -3  -6   72.09    4.90
   1   3   6   74.19    3.90
   1   3   6   74.99    4.60
  -2  -3  -6   53.59    3.80
  -2  -3  -6   49.60    4.50
   2   3   6   51.99    3.10
   2   3   6   56.09    2.90
   2   3   6   53.39    3.80
  -3  -3  -6  131.19    6.40
  -3  -3  -6  122.99    7.40
  -3  -3  -6  116.09    6.80
   3   3   6  134.39    6.70
   3   3   6  124.49    5.40
   3   3   6  127.99    5.30
  -4  -3  -6  911.81   32.80
  -4  -3  -6  935.91   30.80
  -4  -3  -6  911.71   32.50
   4   3   6  895.21   29.90
   4   3   6  971.90   32.10
   4   3   6  959.80   29.90
  -5  -3  -6  265.67   12.20
  -5  -3  -6  261.17   12.10
  -5  -3  -6  268.57   10.20
   5   3   6  263.67    9.90
   5   3   6  274.17   10.00
   5   3   6  272.17   12.00
  -6  -3  -6  336.27   14.90
   6   3   6  353.46   12.50
   6   3   6  342.77   12.60
   6   3   6  340.67   14.70
  -7  -3  -6  272.07   12.70
   7   3   6  279.47   10.40
  -8  -3  -6  277.07   12.20
   8   3   6  285.27   10.40
  -9  -3  -6  318.57   12.30
   9   3   6  325.47   11.20
  -6   4   6   11.00    1.20
  -6   4   6   11.00    1.80
   5  -4  -6  198.88    9.50
  -5   4   6  180.98   10.00
  -5   4   6  185.48    7.70
   4  -4  -6   21.40    2.70
  -4   4   6   27.30    3.90
   3  -4  -6  116.79    9.10
   3  -4  -6  112.49    8.10
   3  -4  -6  108.09    5.90
  -3   4   6  108.29    7.00
  -3   4   6  116.49    8.00
  -3   4   6   98.39    8.20
   2  -4  -6  299.57   15.40
   2  -4  -6  260.97   13.80
   2  -4  -6  272.47   11.10
  -2   4   6  279.97   14.90
  -2   4   6  280.97   12.70
  -2   4   6  276.87   10.20
   1  -4  -6  113.69    8.10
   1  -4  -6  130.39    8.90
  -1   4   6  132.69    7.40
  -1   4   6  120.19    8.80
   0  -4  -6  227.38   11.70
   0  -4  -6  204.88   10.90
   0   4   6  211.98   11.60
   0   4   6  215.08    9.90
   0   4   6  223.98    8.80
  -1  -4  -6   56.69    4.70
  -1  -4  -6   55.19    4.80
   1   4   6   72.69    6.60
   1   4   6   58.19    3.50
   1   4   6   61.59    4.20
  -2  -4  -6   49.30    4.00
  -2  -4  -6   48.50    4.80
  -2  -4  -6   52.69    4.20
   2   4   6   48.00    2.80
   2   4   6   47.50    3.60
   2   4   6   48.00    3.00
  -3  -4  -6  394.36   15.30
  -3  -4  -6  378.16   15.60
  -3  -4  -6  384.46   16.90
   3   4   6  388.16   13.50
   3   4   6  393.36   14.90
   3   4   6  387.66   13.80
  -4  -4  -6  298.87   12.10
  -4  -4  -6  297.87   13.70
  -4  -4  -6  286.17   12.90
   4   4   6  287.87   10.80
   4   4   6  285.47   10.70
   4   4   6  306.27   12.40
  -5  -4  -6 1487.45   50.69
  -5  -4  -6 1530.25   48.80
  -5  -4  -6 1504.65   50.69
   5   4   6 1531.65   49.90
   5   4   6 1486.15   47.70
   5   4   6 1511.35   47.70
  -6  -4  -6   82.39    4.30
  -6  -4  -6   83.79    6.10
   6   4   6   82.59    4.30
   6   4   6   84.79    5.80
   6   4   6   78.99    4.40
  -7  -4  -6   96.09    6.40
   7   4   6   92.49    4.70
  -8  -4  -6  152.28    8.30
   8   4   6  156.78    6.50
  -9  -4  -6   26.60    2.50
   9   4   6   26.40    1.90
  -5   5   6    1.80    0.90
   4  -5  -6    0.30    1.30
  -4   5   6    0.30    1.10
  -4   5   6    3.40    1.50
   3  -5  -6  263.77   10.60
   3  -5  -6  265.37   13.20
  -3   5   6  263.17   13.80
  -3   5   6  261.67   13.20
   2  -5  -6  102.79    8.70
   2  -5  -6  110.69    7.90
   2  -5  -6   99.09    5.60
  -2   5   6  101.49    8.10
  -2   5   6  109.49    6.50
  -2   5   6  104.69    6.60
   1  -5  -6    9.70    2.90
   1  -5  -6    5.30    2.00
  -1   5   6    7.50    1.80
  -1   5   6    6.50    2.50
  -1   5   6    4.90    1.20
   0  -5  -6 1789.42   60.19
   0  -5  -6 1763.12   58.59
   0   5   6 1752.42   56.19
   0   5   6 1729.43   54.29
   0   5   6 1578.34   58.69
  -1  -5  -6  212.48   10.70
  -1  -5  -6  205.38   11.40
   1   5   6  217.58    9.70
   1   5   6  191.38   11.10
   1   5   6  206.98    8.40
  -2  -5  -6  587.54   22.90
  -2  -5  -6  605.44   22.70
   2   5   6  598.14   20.30
   2   5   6  567.44   23.80
   2   5   6  602.04   21.30
   2   5   6  603.44   20.20
  -3  -5  -6  435.76   18.10
  -3  -5  -6  497.85   21.00
  -3  -5  -6  485.65   18.70
   3   5   6  482.85   16.60
   3   5   6  483.95   17.80
   3   5   6  490.65   16.90
  -4  -5  -6  326.37   15.40
  -4  -5  -6  348.27   14.00
  -4  -5  -6  327.47   14.40
   4   5   6  340.07   12.40
   4   5   6  338.57   12.50
   4   5   6  338.97   13.60
  -5  -5  -6  576.84   21.10
  -5  -5  -6  589.74   22.50
  -5  -5  -6  560.14   22.80
   5   5   6  558.44   19.80
   5   5   6  592.84   19.90
   5   5   6  581.04   21.40
  -6  -5  -6   -0.10    0.80
  -6  -5  -6    3.30    1.50
   6   5   6   -0.90    1.20
   6   5   6   -0.60    0.60
   6   5   6    0.70    0.90
  -7  -5  -6  179.48    7.60
  -7  -5  -6  185.58    9.90
   7   5   6  201.38    7.90
  -8  -5  -6   87.79    5.90
   8   5   6   87.99    4.40
  -9  -5  -6  204.68    9.00
   9   5   6  196.68    7.50
   4  -6  -6  192.98    8.50
  -4   6   6  205.08    9.40
   3  -6  -6   52.19    4.20
  -3   6   6   37.70    4.40
  -3   6   6   43.00    4.50
   2  -6  -6  194.08   10.40
  -2   6   6  185.98   10.60
  -2   6   6  198.28   11.30
   1  -6  -6  237.78   14.30
   1  -6  -6  245.48   12.50
  -1   6   6  241.58   13.10
  -1   6   6  242.48   12.90
   0  -6  -6  103.99    8.60
   0  -6  -6  104.19    7.50
   0   6   6  100.49    7.60
   0   6   6  105.99    6.50
  -1  -6  -6  275.47   14.70
  -1  -6  -6  293.27   13.60
   1   6   6  287.47   12.30
   1   6   6  284.07   14.40
   1   6   6  283.67   10.80
  -2  -6  -6   19.40    2.90
  -2  -6  -6   16.90    3.90
   2   6   6   17.90    1.90
   2   6   6   16.80    2.70
   2   6   6   19.20    3.80
  -3  -6  -6  140.59   10.10
  -3  -6  -6  166.28    8.70
   3   6   6  160.18    7.80
   3   6   6  158.28    6.90
   3   6   6  156.18    9.60
   3   6   6  146.09    6.80
  -4  -6  -6   78.29    5.40
  -4  -6  -6   73.69    5.40
  -4  -6  -6   61.79    6.20
   4   6   6   77.29    4.40
   4   6   6   76.89    4.30
   4   6   6   79.69    5.20
  -5  -6  -6   37.50    3.40
  -5  -6  -6   36.20    3.70
   5   6   6   28.80    2.90
   5   6   6   32.90    2.70
   5   6   6   36.00    3.50
  -6  -6  -6   13.90    2.20
  -6  -6  -6   18.20    2.90
   6   6   6   17.70    2.00
  -7  -6  -6   19.50    3.10
  -7  -6  -6   14.10    1.90
   7   6   6   17.60    1.90
  -8  -6  -6   80.49    5.40
   8   6   6   75.59    3.90
  -9  -6  -6    3.40    1.10
   9   6   6    3.20    0.80
   3  -7  -6   60.59    3.90
  -3   7   6   61.09    4.40
  -3   7   6   61.89    4.30
   2  -7  -6  548.25   21.20
  -2   7   6  560.94   22.30
  -2   7   6  601.24   22.50
   1  -7  -6   63.19    5.10
  -1   7   6   65.19    5.70
   0  -7  -6  968.70   34.90
  -1  -7  -6  301.97   13.90
   1   7   6  284.77   14.30
  -2  -7  -6  150.08    8.50
   2   7   6  153.08    6.40
   2   7   6  142.09    8.10
   2   7   6  138.19    9.10
  -3  -7  -6   48.90    4.30
  -3  -7  -6   45.70    5.80
   3   7   6   41.60    4.60
   3   7   6   50.19    3.20
   3   7   6   46.10    4.80
  -4  -7  -6   72.59    4.60
  -4  -7  -6   78.89    5.40
   4   7   6   70.59    5.20
   4   7   6   77.09    4.20
   4   7   6   65.09    6.10
   4   7   6   69.09    4.50
  -5  -7  -6    0.90    0.70
  -5  -7  -6    0.70    1.30
   5   7   6    2.20    0.90
  -6  -7  -6    7.70    1.60
  -6  -7  -6    9.10    2.10
   6   7   6    4.50    1.10
  -7  -7  -6   28.30    2.60
  -7  -7  -6   29.00    3.20
   7   7   6   29.60    2.40
  -8  -7  -6   50.99    2.80
  -8  -7  -6   66.19    4.40
   8   7   6   64.19    3.30
   2  -8  -6   20.40    2.30
  -2   8   6   18.40    2.50
  -2   8   6   20.40    2.40
   1  -8  -6   97.99    5.70
  -1   8   6  101.59    6.80
  -1   8   6   93.09    6.20
   0  -8  -6   71.49    5.10
   0   8   6   61.09    5.30
  -1  -8  -6    4.70    1.60
   1   8   6    2.50    1.30
  -2  -8  -6  278.57   12.70
   2   8   6  279.07   13.40
  -3  -8  -6   98.89    6.30
   3   8   6   97.19    7.00
  -4  -8  -6  142.89    7.90
   4   8   6  149.69    6.30
   4   8   6  159.88    9.10
  -5  -8  -6   12.30    2.00
  -5  -8  -6    6.70    1.50
   5   8   6    9.30    1.50
   5   8   6    6.90    2.30
  -6  -8  -6    1.30    1.10
  -6  -8  -6    3.20    1.00
   6   8   6    3.60    0.90
  -7  -8  -6   22.00    2.20
  -7  -8  -6   24.60    2.30
   7   8   6   25.40    2.00
  -8  -8  -6    2.20    0.90
  -8  -8  -6    1.90    0.80
   8   8   6    2.20    0.80
   0  -9  -6   11.60    1.80
   0   9   6   18.40    2.60
   0   9   6   15.90    2.20
  -1  -9  -6    0.30    0.80
   1   9   6    0.60    0.90
  -2  -9  -6    1.50    1.20
   2   9   6   -0.50    0.80
  -3  -9  -6   13.20    2.10
   3   9   6   11.00    2.40
  -4  -9  -6    8.50    1.80
   4   9   6    6.90    1.80
  -5  -9  -6  100.29    5.60
   5   9   6   94.39    6.20
  -6  -9  -6    1.70    0.70
  -7  -9  -6    9.10    1.50
  -7  -9  -6    6.00    1.10
  -2 -10  -6   67.69    3.90
   2  10   6   63.59    4.30
   2  10   6   63.09    4.60
  -3 -10  -6   69.59    4.10
  -4 -10  -6    0.50    0.60
   4  10   6    0.10    1.00
  -5 -10  -6    3.40    0.90
   5  10   6    2.50    1.50
   5   8  -7  193.68    6.70
   5   8  -7  174.88    6.30
  -5  -8   7  189.48    7.00
   4   8  -7   87.79    4.00
  -4  -8   7   84.29    4.00
   3   8  -7    6.00    1.40
  -3  -8   7    9.50    1.30
   2   8  -7  774.22   25.30
  -2  -8   7  773.62   25.20
   1   8  -7   57.69    3.40
  -1  -8   7   63.79    3.20
   0   8  -7   67.59    3.60
   0  -8   7   67.59    3.30
   6   7  -7   46.70    2.70
   6   7  -7   37.50    2.70
  -6  -7   7   43.80    2.40
   5   7  -7   44.40    3.00
   5   7  -7   51.89    3.10
  -5  -7   7   47.60    2.90
   4   7  -7  360.26   13.10
   4   7  -7  383.16   13.80
  -4  -7   7  380.46   13.50
   3   7  -7  108.89    4.50
   3   7  -7  127.09    6.00
  -3  -7   7  128.69    5.80
   2   7  -7   -0.80    0.70
  -2  -7   7    0.80    0.70
   1   7  -7  597.74   20.50
  -1  -7   7  565.84   19.60
   0   7  -7  170.28    7.70
   0  -7   7  171.68    6.90
  -1   7  -7   18.90    2.10
   1  -7   7   18.10    1.70
  -2   7  -7  166.18    7.20
   7   6  -7    4.20    1.00
   7   6  -7    3.40    0.80
  -7  -6   7    6.00    1.30
   6   6  -7   26.90    2.20
   6   6  -7   22.40    2.20
  -6  -6   7   22.50    1.90
   5   6  -7   92.49    5.00
   5   6  -7   92.09    5.00
  -5  -6   7   89.79    4.60
   4   6  -7   23.00    2.30
   4   6  -7   26.90    2.70
   3   6  -7   62.99    4.30
   3   6  -7   59.79    3.70
  -3  -6   7   60.69    3.90
   2   6  -7    6.80    1.20
   1   6  -7   40.00    3.30
  -1  -6   7   41.80    3.00
   0   6  -7    1.90    1.00
  -1   6  -7   73.79    4.70
   1  -6   7   83.29    4.10
  -2   6  -7   89.09    5.10
  -2   6  -7   78.89    6.40
  -3   6  -7    8.40    1.60
   7   5  -7    6.40    1.30
   7   5  -7    5.10    1.10
  -7  -5   7    5.70    1.30
   6   5  -7  937.51   30.40
   6   5  -7  891.61   30.70
  -6  -5   7  907.51   30.30
  -6  -5   7  919.31   29.60
   5   5  -7  474.55   17.70
   5   5  -7  484.65   17.50
   4   5  -7  386.56   14.50
   4   5  -7  373.36   14.50
  -4  -5   7  375.06   14.40
   3   5  -7  567.84   19.50
   3   5  -7  567.74   20.20
  -3  -5   7  518.35   23.40
  -3  -5   7  563.74   19.90
   2   5  -7  529.05   17.50
   2   5  -7  506.55   18.90
  -2  -5   7  475.75   21.50
  -2  -5   7  513.05   18.30
   1   5  -7  276.97   13.40
   1   5  -7  290.17   11.90
  -1  -5   7  296.07   11.30
  -1  -5   7  281.77   14.30
   0   5  -7  322.67   15.00
   0   5  -7  330.97   13.10
   0  -5   7  331.97   12.30
   0  -5   7  325.67   15.80
  -1   5  -7  151.18    7.30
  -1   5  -7  133.39    9.70
   1  -5   7  147.39    6.40
  -2   5  -7  110.89    6.10
  -2   5  -7  101.39    8.20
  -3   5  -7  357.96   13.90
  -3   5  -7  330.77   16.90
  -4   5  -7  249.68   10.30
  -4   5  -7  233.98   12.40
   8   4  -7   25.20    2.10
   8   4  -7   23.60    1.80
  -8  -4   7   24.90    1.80
   7   4  -7   12.60    1.60
   7   4  -7   10.30    1.70
  -7  -4   7   12.80    1.80
   6   4  -7    9.90    1.70
  -6  -4   7    7.40    1.60
   5   4  -7   15.80    2.10
   5   4  -7   15.10    2.10
  -5  -4   7    9.60    2.10
  -5  -4   7   13.20    1.90
   4   4  -7 1757.82   56.19
   4   4  -7 1810.42   56.49
  -4  -4   7 1630.74   59.69
  -4  -4   7 1769.22   55.99
   3   4  -7   24.20    2.60
   3   4  -7   25.80    2.60
  -3  -4   7   28.80    2.60
  -3  -4   7   27.30    3.70
   2   4  -7 2573.24   80.49
   2   4  -7 2474.65   79.09
  -2  -4   7 2523.45   82.69
  -2  -4   7 2467.65   78.49
   1   4  -7  264.47   11.40
   1   4  -7  268.87   12.40
   1   4  -7  285.07    9.90
  -1  -4   7  270.87   13.60
  -1  -4   7  278.77   10.70
   0   4  -7    0.20    0.90
   0   4  -7   -1.80    1.50
   0  -4   7   -0.40    1.30
  -1   4  -7 1804.82   64.99
  -1   4  -7 1900.21   60.39
  -1   4  -7 1884.91   62.89
   1  -4   7 1902.11   58.89
   1  -4   7 1921.51   63.19
  -2   4  -7   12.30    3.30
  -2   4  -7    5.80    3.10
  -2   4  -7    9.40    3.40
  -2   4  -7   17.20    4.90
   2  -4   7   10.30    2.70
  -3   4  -7   -1.50    3.70
  -3   4  -7    1.50    0.90
  -3   4  -7    0.90    2.00
  -4   4  -7  126.99    9.60
  -4   4  -7  126.89    6.90
  -5   4  -7   60.09    4.10
  -5   4  -7   52.19    5.60
   8   3  -7   38.10    2.60
  -8  -3   7   36.40    2.50
  -8  -3   7   36.10    2.30
   7   3  -7  305.77   12.10
  -7  -3   7  292.47   11.70
   6   3  -7   -0.30    0.90
  -6  -3   7    1.90    1.20
  -6  -3   7    0.50    1.10
  -5  -3   7 1394.66   43.60
  -5  -3   7 1382.36   44.80
  -5  -3   7 1197.28   56.39
   4   3  -7  416.86   16.30
  -4  -3   7  386.16   18.10
  -4  -3   7  415.86   15.40
   3   3  -7  607.94   21.70
   3   3  -7  603.24   21.30
  -3  -3   7  613.54   21.00
  -3  -3   7  568.64   21.40
  -3  -3   7  589.24   24.00
   2   3  -7 1330.37   42.60
   2   3  -7 1313.07   43.90
   2   3  -7 1328.27   42.70
  -2  -3   7 1279.17   45.70
  -2  -3   7 1271.07   42.70
  -2  -3   7 1326.87   42.20
   1   3  -7   12.40    2.50
   1   3  -7   16.80    1.80
   1   3  -7   19.00    2.20
  -1  -3   7   16.70    2.80
  -1  -3   7   17.70    1.80
   0   3  -7  272.97   12.40
   0   3  -7  267.57   12.90
   0   3  -7  256.07   11.00
   0  -3   7  272.87   13.20
   0  -3   7  268.07   10.10
  -1   3  -7   85.89    6.10
  -1   3  -7   82.79    5.00
  -1   3  -7   83.19    7.40
  -1   3  -7   84.09    7.50
   1  -3   7   83.49    6.30
   1  -3   7   80.49    4.10
  -2   3  -7  620.84   22.00
  -2   3  -7  617.84   24.10
  -2   3  -7  591.84   24.20
  -2   3  -7  614.44   23.50
  -2   3  -7  619.74   26.60
   2  -3   7  607.94   24.00
  -3   3  -7   42.50    5.70
  -3   3  -7   37.30    4.90
  -3   3  -7   38.10    3.50
  -3   3  -7   42.50    4.90
  -3   3  -7   39.00    4.50
  -4   3  -7 1450.75   47.30
  -4   3  -7 1353.66   52.59
  -4   3  -7 1440.16   47.90
  -5   3  -7   18.40    3.80
  -5   3  -7   17.20    3.80
  -6   3  -7   47.10    5.20
   8   2  -7   22.50    2.10
  -8  -2   7   23.80    2.00
  -8  -2   7   26.20    2.00
   7   2  -7  189.18    8.80
  -7  -2   7  193.78    8.80
   6   2  -7   37.90    3.60
  -6  -2   7   35.00    3.50
   5   2  -7  103.39    6.40
  -5  -2   7  111.19    6.70
  -5  -2   7   81.69    8.10
  -5  -2   7   99.99    5.60
   4   2  -7  199.18    9.90
  -4  -2   7  218.98    9.30
  -4  -2   7  214.48   10.50
  -4  -2   7  195.98    9.90
  -4  -2   7  202.88   11.40
   3   2  -7 1077.09   35.90
   3   2  -7 1042.10   35.80
  -3  -2   7 1049.70   37.80
  -3  -2   7 1068.99   34.70
  -3  -2   7 1001.30   35.60
   2   2  -7  137.69    7.50
   2   2  -7  137.39    7.00
   2   2  -7  133.29    6.60
  -2  -2   7  135.29    6.30
  -2  -2   7  121.79    6.80
  -2  -2   7  138.89    8.40
   1   2  -7   47.60    4.30
   1   2  -7   47.40    3.40
   1   2  -7   49.80    3.40
  -1  -2   7   48.80    4.60
  -1  -2   7   49.99    3.60
  -1  -2   7   47.20    3.10
   0   2  -7 2487.55   78.79
   0   2  -7 2423.56   78.19
   0   2  -7 2519.65   75.49
   0   2  -7 2420.96   76.89
   0  -2   7 2473.45   79.79
   0  -2   7 2346.87   75.59
   0  -2   7 2399.96   76.59
  -1   2  -7  298.97   13.10
  -1   2  -7  287.37   11.70
  -1   2  -7  267.87   14.00
  -1   2  -7  284.27   12.50
   1  -2   7  282.57   11.10
   1  -2   7  299.17   13.70
   1  -2   7  273.37   10.30
  -2   2  -7  140.39    8.30
  -2   2  -7  150.08    7.30
  -2   2  -7  141.19    7.90
  -2   2  -7  136.69    9.70
   2  -2   7  148.59    8.60
  -3   2  -7  153.38   11.20
  -3   2  -7  155.88    9.20
  -3   2  -7  162.38    8.10
  -3   2  -7  158.38    8.70
   3  -2   7  157.48    9.10
  -4   2  -7   95.09    7.20
  -4   2  -7  102.09    6.60
  -4   2  -7  105.09    6.50
  -4   2  -7  104.49    9.30
  -5   2  -7   12.30    3.50
  -5   2  -7   15.10    2.60
  -5   2  -7   11.00    2.50
  -6   2  -7   50.99    6.10
  -6   2  -7   58.89    4.50
  -7   2  -7  437.96   15.70
   7   1  -7   13.00    2.20
  -7  -1   7   14.70    2.20
   6   1  -7  348.77   14.80
  -6  -1   7  356.66   15.00
   5   1  -7   85.99    6.00
  -5  -1   7   87.19    4.90
  -5  -1   7   87.89    6.10
  -5  -1   7   86.79    6.40
   4   1  -7  199.98    9.90
  -4  -1   7  188.98   10.10
  -4  -1   7  190.58    8.70
  -4  -1   7  189.68   11.00
  -4  -1   7  198.38   10.40
   3   1  -7  246.68   11.60
   3   1  -7  236.28   11.40
  -3  -1   7  266.47   10.60
  -3  -1   7  258.17   11.80
  -3  -1   7  257.67   12.70
  -3  -1   7  249.48   12.70
   2   1  -7  675.33   25.40
   2   1  -7  665.73   24.60
  -2  -1   7  687.83   26.30
  -2  -1   7  703.73   25.00
  -2  -1   7  704.63   23.60
   1   1  -7  346.57   13.20
   1   1  -7  350.26   15.00
   1   1  -7  348.27   13.70
  -1  -1   7  347.57   13.90
  -1  -1   7  348.87   12.80
  -1  -1   7  337.47   15.30
   0   1  -7  361.96   15.20
   0   1  -7  337.77   13.20
   0   1  -7  362.76   13.10
   0   1  -7  343.37   14.50
   0  -1   7  344.17   13.50
   0  -1   7  333.37   12.40
  -1   1  -7  260.37   11.60
  -1   1  -7  278.37   12.50
  -1   1  -7  267.27   11.00
   1  -1   7  260.27   10.70
   1  -1   7  253.77    9.60
  -2   1  -7   73.89    5.60
  -2   1  -7   71.49    6.40
  -2   1  -7   69.29    5.00
  -2   1  -7   75.39    4.70
   2  -1   7   64.59    4.20
  -3   1  -7 1594.44   54.39
  -3   1  -7 1661.53   52.99
  -3   1  -7 1640.44   53.59
  -3   1  -7 1625.14   57.19
   3  -1   7 1576.44   51.89
  -4   1  -7   33.60    3.70
  -4   1  -7   33.40    3.90
  -4   1  -7   31.40    5.00
  -4   1  -7   36.70    3.70
   4  -1   7   21.00    5.60
  -5   1  -7   22.30    3.10
  -5   1  -7   24.30    3.10
  -5   1  -7   17.70    3.90
  -6   1  -7  124.09    9.50
  -6   1  -7  121.09    6.90
  -7   1  -7   37.40    3.10
   7   0  -7    0.60    1.00
  -7   0   7    1.30    1.00
   6   0  -7   71.99    5.30
  -6   0   7   67.49    5.30
   5   0  -7  128.09    7.80
  -5   0   7  129.79    8.10
   4   0  -7  826.72   28.90
  -4   0   7  702.73   29.20
  -4   0   7  778.52   26.60
  -4   0   7  802.22   29.30
  -4   0   7  763.32   29.30
   3   0  -7  526.25   20.90
   3   0  -7  529.05   20.50
  -3   0   7  519.65   20.90
  -3   0   7  492.05   18.80
  -3   0   7  526.75   21.20
  -3   0   7  535.15   21.70
   2   0  -7  462.35   19.00
   2   0  -7  455.35   18.20
  -2   0   7  479.95   19.60
  -2   0   7  480.05   17.10
  -2   0   7  458.15   18.60
   1   0  -7 1009.00   35.40
   1   0  -7  953.50   33.70
   1   0  -7  973.40   32.90
  -1   0   7 1005.40   32.70
  -1   0   7 1021.60   34.40
   0   0  -7  611.04   21.60
   0   0  -7  605.64   21.20
   0   0  -7  626.54   23.70
   0   0  -7  544.15   22.60
   0   0   7  624.34   20.80
   0   0   7  649.34   22.40
  -1   0  -7 3570.44  111.89
  -1   0  -7 3698.13  113.49
  -1   0  -7 3346.47  110.89
  -1   0  -7 3576.24  110.39
   1   0   7 3515.05  109.79
   1   0   7 3718.63  111.49
  -2   0  -7  233.18   10.40
  -2   0  -7  264.67   12.40
  -2   0  -7  253.57   11.30
   2   0   7  269.37   10.80
   2   0   7  254.77    9.50
  -3   0  -7  970.00   34.80
  -3   0  -7  972.90   33.90
  -3   0  -7  929.71   32.90
  -3   0  -7 1001.60   37.10
   3   0   7 1026.00   33.20
  -4   0  -7 2521.65   82.49
  -4   0  -7 2669.83   87.59
  -4   0  -7 2595.04   83.29
  -4   0  -7 2533.65   83.89
   4   0   7 2674.63   82.39
  -5   0  -7    5.70    2.50
  -5   0  -7   10.20    2.60
  -5   0  -7   11.80    2.40
  -5   0  -7   11.70    2.50
  -6   0  -7  522.45   20.20
  -7   0  -7  322.07   13.20
  -8   0  -7    2.70    1.00
   7  -1  -7  129.39    6.20
  -7   1   7  130.09    6.70
  -7   1   7  136.29    5.90
   6  -1  -7   64.59    5.00
  -6   1   7   66.59    5.30
   5  -1  -7  401.06   17.30
  -5   1   7  404.46   17.80
   4  -1  -7  104.19    7.20
  -4   1   7  103.69    5.10
  -4   1   7  101.49    7.20
  -4   1   7   87.49    7.00
   3  -1  -7    0.60    1.10
   3  -1  -7   -0.10    1.60
  -3   1   7    1.80    0.90
  -3   1   7   -1.00    1.30
  -3   1   7   -1.50    1.50
  -3   1   7    1.50    1.10
   2  -1  -7   23.80    3.10
   2  -1  -7   28.90    3.80
  -2   1   7   28.80    2.70
  -2   1   7   25.90    3.20
  -2   1   7   25.70    4.10
   1  -1  -7   41.30    3.70
   1  -1  -7   39.10    4.30
  -1   1   7   36.00    3.50
  -1   1   7   35.70    2.90
   0  -1  -7 1004.70   35.30
   0  -1  -7 1009.50   33.50
   0  -1  -7  939.01   32.30
   0   1   7  983.70   33.90
   0   1   7  970.00   32.30
  -1  -1  -7  308.77   13.90
  -1  -1  -7  295.57   12.50
  -1  -1  -7  311.57   12.00
  -1  -1  -7  277.27   11.60
   1   1   7  282.57   11.10
   1   1   7  307.07   12.50
  -2  -1  -7 3011.30   94.39
  -2  -1  -7 3043.80   92.99
  -2  -1  -7 2990.30   93.19
  -2  -1  -7 3205.08   96.29
   2   1   7 3057.69   94.29
   2   1   7 2648.33   92.29
  -3  -1  -7  263.37   10.50
  -3  -1  -7  250.87   12.10
  -3  -1  -7  258.87   11.50
   3   1   7  264.27   11.20
   3   1   7  242.78    9.50
  -4  -1  -7   11.90    2.20
  -4  -1  -7   11.50    2.50
  -4  -1  -7   12.70    2.60
   4   1   7   12.60    2.30
   4   1   7   11.00    1.60
  -5  -1  -7 1602.04   54.39
  -5  -1  -7 1645.54   52.89
  -5  -1  -7 1693.73   54.29
   5   1   7 1537.65   50.89
   5   1   7 1640.04   53.59
  -6  -1  -7  439.36   17.40
   6   1   7  416.16   14.80
  -7  -1  -7  735.43   25.40
   7   1   7  674.23   23.20
  -8  -1  -7  333.47   12.80
   6  -2  -7   28.00    2.90
  -6   2   7   25.60    3.10
   5  -2  -7  364.86   16.50
  -5   2   7  393.06   17.20
   4  -2  -7  696.63   27.00
  -4   2   7  704.33   27.50
  -4   2   7  659.93   26.60
   3  -2  -7  561.34   23.00
   3  -2  -7  577.14   24.10
  -3   2   7  559.64   22.90
  -3   2   7  579.14   19.90
  -3   2   7  577.64   23.70
   2  -2  -7   20.90    3.00
   2  -2  -7   17.20    3.20
  -2   2   7   21.00    2.40
  -2   2   7   19.90    3.20
  -2   2   7   18.00    3.70
   1  -2  -7  997.40   35.40
   1  -2  -7  921.31   33.40
  -1   2   7  947.61   33.60
  -1   2   7  905.51   34.40
  -1   2   7  940.41   31.50
   0  -2  -7 2494.85   77.99
   0  -2  -7 2500.25   80.19
   0   2   7 2380.86   77.99
   0   2   7 2352.26   76.19
  -1  -2  -7 1728.73   57.99
  -1  -2  -7 1776.32   55.99
   1   2   7 1662.03   55.89
   1   2   7 1707.63   54.39
  -2  -2  -7  170.58    7.90
  -2  -2  -7  159.28    8.30
  -2  -2  -7  169.28    9.30
   2   2   7  164.18    8.20
   2   2   7  167.48    7.10
  -3  -2  -7   51.69    3.40
  -3  -2  -7   47.30    4.50
  -3  -2  -7   49.30    4.10
   3   2   7   45.10    2.90
   3   2   7   44.50    3.80
  -4  -2  -7   19.70    3.00
  -4  -2  -7   18.60    2.90
   4   2   7   20.80    1.90
   4   2   7   21.20    2.80
  -5  -2  -7   22.30    3.10
  -5  -2  -7   31.30    3.70
   5   2   7   22.60    2.00
   5   2   7   22.80    3.30
  -6  -2  -7  119.09    7.30
   6   2   7  124.79    5.60
  -7  -2  -7  445.66   17.70
   7   2   7  456.45   15.60
  -8  -2  -7   59.69    4.00
   8   2   7   46.70    2.70
   6  -3  -7   16.00    2.10
  -6   3   7   17.90    2.30
  -6   3   7   18.00    1.60
   5  -3  -7    3.00    1.50
  -5   3   7    2.00    1.20
   4  -3  -7   72.79    6.10
  -4   3   7   77.39    6.80
   3  -3  -7  211.98   11.90
   3  -3  -7  222.78   13.10
  -3   3   7  222.38   11.30
  -3   3   7  227.08   12.70
   2  -3  -7  220.48   11.90
   2  -3  -7  216.98   12.60
  -2   3   7  216.98   11.20
  -2   3   7  226.58   12.40
  -2   3   7  213.28    9.00
   1  -3  -7  107.79    7.80
   1  -3  -7  105.79    7.20
  -1   3   7  103.09    5.50
  -1   3   7  103.39    7.90
  -1   3   7  108.19    6.80
   0  -3  -7    3.10    1.70
   0  -3  -7    7.00    1.90
   0  -3  -7    4.60    1.50
   0   3   7    7.50    1.40
   0   3   7    7.30    1.80
  -1  -3  -7   89.59    7.00
  -1  -3  -7   97.59    6.20
   1   3   7   94.79    4.90
   1   3   7   94.49    5.90
  -2  -3  -7    0.70    1.10
  -2  -3  -7    2.90    1.50
  -2  -3  -7    1.20    1.10
   2   3   7    2.00    0.90
   2   3   7    1.80    0.80
  -3  -3  -7  462.85   19.70
  -3  -3  -7  471.05   18.60
  -3  -3  -7  480.75   17.70
   3   3   7  470.75   16.60
   3   3   7  489.55   18.30
  -4  -3  -7  294.77   13.20
  -4  -3  -7  280.77   11.30
  -4  -3  -7  289.07   13.70
   4   3   7  291.67   12.60
   4   3   7  295.37   10.90
  -5  -3  -7    2.60    1.60
  -5  -3  -7    2.30    1.90
   5   3   7    1.50    1.00
  -6  -3  -7 1126.49   39.00
   6   3   7 1101.19   35.80
  -7  -3  -7    1.00    1.10
   7   3   7    1.70    0.80
  -8  -3  -7  159.98    7.80
   8   3   7  154.38    6.30
   5  -4  -7   87.69    5.10
  -5   4   7   79.89    3.90
  -5   4   7   83.99    5.60
   4  -4  -7  256.47   12.30
   3  -4  -7    9.50    2.40
  -3   4   7   14.60    3.50
   2  -4  -7   48.80    5.90
   2  -4  -7   49.80    5.20
  -2   4   7   54.29    4.80
  -2   4   7   49.40    3.20
  -2   4   7   53.19    5.70
   1  -4  -7  774.62   30.50
   1  -4  -7  713.43   29.00
  -1   4   7  756.42   25.30
  -1   4   7  746.93   27.70
  -1   4   7  777.12   30.40
   0  -4  -7  619.14   24.60
   0  -4  -7  590.24   24.90
   0   4   7  642.94   25.80
   0   4   7  613.94   23.00
   0   4   7  613.64   21.30
  -1  -4  -7  214.58   11.30
  -1  -4  -7  215.98   12.50
  -1  -4  -7  218.28   11.10
   1   4   7  222.08    9.00
   1   4   7  223.08   10.40
  -2  -4  -7  147.89    8.10
  -2  -4  -7  134.19    9.20
   2   4   7  135.99    7.30
   2   4   7  135.39    6.40
  -3  -4  -7  639.14   22.80
  -3  -4  -7  576.34   22.60
  -3  -4  -7  603.94   24.70
   3   4   7  635.24   22.70
   3   4   7  624.34   20.70
   3   4   7  603.84   21.00
  -4  -4  -7    5.90    2.30
  -4  -4  -7    8.50    1.80
  -4  -4  -7    9.50    2.40
   4   4   7    9.60    2.00
   4   4   7    9.70    1.60
   4   4   7   12.60    2.40
  -5  -4  -7    3.10    2.40
  -5  -4  -7    5.40    1.70
  -5  -4  -7    3.50    1.10
   5   4   7    1.70    0.80
   5   4   7    2.20    1.20
  -6  -4  -7   82.49    6.10
   6   4   7   75.79    4.20
  -7  -4  -7  102.29    6.70
   7   4   7  105.59    5.00
  -8  -4  -7  125.09    6.90
   8   4   7  127.99    5.50
   4  -5  -7  103.49    5.90
  -4   5   7  105.99    6.60
   3  -5  -7   68.99    5.50
  -3   5   7   61.49    5.80
   2  -5  -7  110.09    7.80
  -2   5   7  111.89    8.30
   1  -5  -7   41.30    4.60
   1  -5  -7   40.50    5.50
  -1   5   7   39.60    4.30
  -1   5   7   41.60    2.80
  -1   5   7   36.00    5.20
   0  -5  -7    1.70    1.20
   0  -5  -7   -0.70    1.80
   0   5   7    1.80    1.20
   0   5   7    1.80    0.80
   0   5   7    2.50    2.00
  -1  -5  -7   15.30    2.90
  -1  -5  -7   12.20    3.00
   1   5   7   17.70    2.00
   1   5   7   21.60    3.00
  -2  -5  -7   36.80    4.00
  -2  -5  -7   32.80    4.90
   2   5   7   36.80    2.80
   2   5   7   39.10    3.60
  -3  -5  -7   28.50    3.40
  -3  -5  -7   29.60    4.50
   3   5   7   27.40    3.10
   3   5   7   27.50    2.50
   3   5   7   25.90    2.80
  -4  -5  -7  748.73   27.40
  -4  -5  -7  761.72   27.40
  -4  -5  -7  747.23   29.70
   4   5   7  765.52   27.20
   4   5   7  753.82   25.40
   4   5   7  790.02   25.80
  -5  -5  -7  905.71   32.40
  -5  -5  -7  924.61   31.30
  -5  -5  -7  850.41   37.60
   5   5   7  934.11   30.20
   5   5   7  921.51   31.90
  -6  -5  -7  427.96   15.50
  -6  -5  -7  430.56   17.80
   6   5   7  436.36   15.50
  -7  -5  -7   99.79    6.40
   7   5   7   97.99    4.90
  -8  -5  -7  126.79    6.90
   8   5   7  125.69    5.50
   4  -6  -7    5.60    1.50
  -4   6   7    1.40    0.90
   3  -6  -7   64.79    4.60
  -3   6   7   65.19    5.10
   2  -6  -7   47.80    4.40
  -2   6   7   44.40    4.70
  -2   6   7   45.80    4.30
   1  -6  -7  197.58   10.70
  -1   6   7  195.58   11.40
   0  -6  -7    4.30    1.50
   0   6   7    4.60    2.20
   0   6   7    3.50    1.20
  -1  -6  -7    3.10    2.50
  -1  -6  -7    7.20    2.00
   1   6   7    7.10    1.70
   1   6   7    9.00    1.50
  -2  -6  -7  497.05   23.60
  -2  -6  -7  553.24   21.10
   2   6   7  515.85   18.00
   2   6   7  529.45   19.80
   2   6   7  456.55   21.50
  -3  -6  -7   32.90    5.10
  -3  -6  -7   46.10    4.40
   3   6   7   43.00    4.00
   3   6   7   46.80    3.20
  -4  -6  -7  137.59    7.70
  -4  -6  -7  134.89    6.90
  -4  -6  -7  119.79    9.60
   4   6   7  117.99    8.40
   4   6   7  130.39    7.30
   4   6   7  136.29    6.30
  -5  -6  -7  387.16   15.60
  -5  -6  -7  372.86   15.50
   5   6   7  397.76   14.30
  -6  -6  -7    0.10    0.80
  -6  -6  -7    2.20    1.20
   6   6   7    0.40    0.80
  -7  -6  -7  138.49    7.60
   7   6   7  134.99    6.10
  -8  -6  -7    2.10    1.00
   8   6   7   -0.40    0.50
   2  -7  -7    8.80    1.70
  -2   7   7    7.30    1.90
   1  -7  -7    9.70    2.10
  -1   7   7    5.90    1.90
   0  -7  -7  102.29    6.80
   0   7   7   97.29    7.30
  -1  -7  -7  112.59    7.30
  -2  -7  -7  278.97   13.00
   2   7   7  267.87   13.50
   2   7   7  267.97   10.10
  -3  -7  -7   20.20    2.90
   3   7   7   16.90    1.80
   3   7   7   12.00    3.20
  -4  -7  -7  105.39    6.50
   4   7   7  100.69    5.10
  -5  -7  -7   75.09    4.80
  -5  -7  -7   82.49    5.30
   5   7   7   77.99    4.30
  -6  -7  -7   79.39    4.90
  -6  -7  -7   78.29    4.90
   6   7   7   82.89    4.30
  -7  -7  -7   -0.50    0.60
  -7  -7  -7    2.40    1.10
   7   7   7    0.80    0.70
  -8  -7  -7    2.20    0.90
   8   7   7    0.70    0.70
   1  -8  -7   -0.10    0.80
  -1   8   7   -1.20    0.70
  -1   8   7    1.50    1.20
   0  -8  -7   20.70    2.50
   0   8   7   21.80    2.90
  -1  -8  -7   12.00    2.20
   1   8   7    8.90    2.40
  -2  -8  -7    1.50    1.10
   3   8   7    7.90    2.50
  -4  -8  -7   18.20    2.40
   4   8   7   14.70    1.90
   4   8   7   14.60    3.30
  -5  -8  -7    5.40    1.50
   5   8   7    7.30    1.30
  -6  -8  -7   23.50    2.40
  -6  -8  -7   28.10    3.10
   6   8   7   23.40    2.00
  -7  -8  -7    1.30    1.00
  -7  -8  -7    2.40    0.80
   7   8   7    2.60    0.80
  -1  -9  -7   37.00    3.00
   1   9   7   30.50    3.00
  -2  -9  -7    6.90    1.50
   2   9   7    6.60    1.70
  -3  -9  -7    5.80    1.50
   3   9   7    2.80    1.40
  -4  -9  -7   76.69    4.70
  -5  -9  -7  195.28    8.40
  -6  -9  -7    2.40    0.80
   2   8  -8   24.20    1.80
   5   7  -8    2.20    0.70
   5   7  -8    2.40    0.60
  -5  -7   8    1.60    0.60
   4   7  -8   10.10    1.40
  -4  -7   8   11.30    1.30
   3   7  -8    7.80    1.40
  -3  -7   8    8.20    1.10
   2   7  -8  248.68    9.50
  -2  -7   8  230.28    9.00
   1   7  -8  273.27   10.40
  -1  -7   8  265.17    9.80
   0   7  -8  340.07   12.60
   0  -7   8  341.67   11.70
  -1   7  -8  561.24   19.10
   6   6  -8  173.68    7.30
   6   6  -8  202.98    7.50
   5   6  -8  481.25   16.60
   5   6  -8  449.66   16.20
  -5  -6   8  472.55   15.90
   4   6  -8   54.79    3.60
   4   6  -8   47.50    2.90
  -4  -6   8   53.29    3.30
   2   6  -8  642.04   22.30
  -2  -6   8  641.84   22.10
   1   6  -8   52.49    3.60
   0   6  -8  391.36   14.70
   0  -6   8  389.86   13.70
  -1   6  -8  106.09    5.50
   1  -6   8  100.29    4.40
  -2   6  -8   86.09    4.70
   7   5  -8    1.40    0.70
   7   5  -8    1.80    0.60
   6   5  -8  130.09    5.90
   6   5  -8  134.29    6.00
  -6  -5   8  134.99    5.40
   5   5  -8   18.30    2.00
   5   5  -8   20.30    2.10
  -5  -5   8   19.00    1.90
   4   5  -8   25.80    2.30
   4   5  -8   21.70    2.30
  -4  -5   8   26.30    2.40
   3   5  -8   29.90    2.30
   3   5  -8   31.00    3.00
  -3  -5   8   31.20    2.70
   2   5  -8  111.69    6.20
  -2  -5   8  120.69    6.00
  -1  -5   8  497.35   17.80
   0   5  -8  497.95   18.10
   0  -5   8  487.75   17.30
  -1   5  -8  118.79    6.30
   1  -5   8  122.09    5.50
  -2   5  -8  130.79    6.60
  -3   5  -8  278.37   10.90
  -3   5  -8  250.27   11.90
  -4   5  -8    4.50    1.10
   7   4  -8  146.49    6.30
   7   4  -8  150.28    6.10
  -7  -4   8  140.89    5.80
   6   4  -8  118.69    5.70
   6   4  -8  118.49    5.80
  -6  -4   8  115.39    5.60
   5   4  -8  337.07   13.20
   5   4  -8  334.77   13.00
  -5  -4   8  349.67   13.00
   4   4  -8  478.15   18.00
   4   4  -8  507.25   18.10
  -4  -4   8  505.85   18.10
   3   4  -8  455.75   16.40
   3   4  -8  447.76   16.90
  -3  -4   8  459.25   16.70
   2   4  -8   59.59    3.40
   2   4  -8   58.69    4.30
  -2  -4   8   59.29    5.60
  -2  -4   8   57.69    3.80
   1   4  -8   44.90    3.70
   1   4  -8   46.40    4.80
  -1  -4   8   46.50    3.30
  -1  -4   8   41.20    4.70
   0   4  -8  298.87   14.40
   0   4  -8  316.67   12.60
   0  -4   8  316.57   11.70
   0  -4   8  305.47   15.10
  -1   4  -8  110.09    6.10
   1  -4   8  121.59    5.50
  -2   4  -8   12.80    2.00
  -2   4  -8   12.20    3.40
  -3   4  -8  138.79    9.60
  -3   4  -8  161.98    7.70
  -4   4  -8   25.70    2.50
   7   3  -8   61.19    3.50
   7   3  -8   60.59    3.60
  -7  -3   8   60.19    3.40
   6   3  -8   17.90    2.00
   6   3  -8   18.70    2.20
  -6  -3   8   12.00    2.00
   5   3  -8  443.36   16.90
   5   3  -8  448.86   17.20
  -5  -3   8  469.65   17.30
  -5  -3   8  468.65   16.70
   4   3  -8   18.60    2.40
   4   3  -8   19.40    2.40
  -4  -3   8   19.80    2.30
   3   3  -8  789.82   27.30
   3   3  -8  801.12   27.30
  -3  -3   8  769.02   30.60
  -3  -3   8  810.92   27.10
   2   3  -8 2909.31   88.09
   2   3  -8 2816.52   90.29
   2   3  -8 2771.02   88.59
  -2  -3   8 2809.62   88.09
  -2  -3   8 2801.22   92.49
   1   3  -8  200.78    9.40
   1   3  -8  209.58   10.70
   1   3  -8  216.98    8.10
  -1  -3   8  210.88    8.80
  -1  -3   8  217.48   12.00
   0   3  -8 4011.70  126.69
   0   3  -8 4094.19  129.09
   0  -3   8 4015.70  125.49
   0  -3   8 4193.08  130.69
  -1   3  -8  162.58   10.40
  -1   3  -8  168.18    8.00
  -1   3  -8  164.48    9.70
   1  -3   8  164.78    6.90
   1  -3   8  160.68    9.90
  -2   3  -8  494.65   17.90
  -2   3  -8  461.75   21.40
  -2   3  -8  464.35   20.00
  -2   3  -8  466.05   19.60
  -3   3  -8  285.57   11.60
  -3   3  -8  240.08   14.40
  -3   3  -8  266.47   13.30
  -4   3  -8  172.58   11.50
  -4   3  -8  192.48   10.70
  -4   3  -8  200.18    9.10
  -5   3  -8    3.40    2.90
  -5   3  -8    4.80    1.50
   7   2  -8    0.70    0.50
   7   2  -8    0.90    0.70
  -7  -2   8    1.30    0.70
   6   2  -8  418.66   15.90
  -6  -2   8  415.76   15.80
   5   2  -8   75.49    5.00
  -5  -2   8   76.29    5.40
  -5  -2   8   74.59    4.50
   4   2  -8  458.65   17.80
  -4  -2   8  455.65   17.00
   3   2  -8    1.60    0.90
   3   2  -8    0.90    0.90
  -3  -2   8   -1.20    1.50
  -3  -2   8   -0.60    1.10
  -3  -2   8    1.70    0.80
   2   2  -8  113.49    6.00
   2   2  -8  112.99    6.10
   2   2  -8  110.89    7.00
  -2  -2   8  113.69    5.80
  -2  -2   8  108.99    6.40
  -2  -2   8  107.39    7.70
   1   2  -8  329.27   13.10
   1   2  -8  338.17   12.60
   1   2  -8  333.77   14.70
  -1  -2   8  328.67   12.50
  -1  -2   8  322.87   13.60
  -1  -2   8  332.27   15.80
   0   2  -8  367.06   12.20
   0   2  -8  354.86   14.30
   0   2  -8  376.86   16.10
   0  -2   8  359.26   14.30
   0  -2   8  358.46   13.30
   0  -2   8  371.66   16.90
  -1   2  -8    9.20    2.00
  -1   2  -8    5.30    2.20
  -1   2  -8    2.40    3.10
   1  -2   8    4.20    1.00
   1  -2   8    2.20    1.40
  -2   2  -8 1030.50   33.80
  -2   2  -8  971.20   34.80
  -2   2  -8  974.80   35.90
   2  -2   8  979.90   36.40
  -3   2  -8   28.90    4.00
  -3   2  -8   28.40    4.90
  -3   2  -8   34.90    3.30
  -3   2  -8   26.90    3.60
  -4   2  -8  179.78    9.50
  -4   2  -8  183.88   12.20
  -4   2  -8  192.38    9.30
  -5   2  -8  452.95   17.70
  -5   2  -8  445.76   17.50
  -6   2  -8  422.96   16.10
   7   1  -8  137.09    6.40
  -7  -1   8  136.09    6.30
   6   1  -8  107.89    6.20
  -6  -1   8  106.99    6.10
   5   1  -8  905.41   32.10
  -5  -1   8  899.11   30.20
  -5  -1   8  954.10   32.70
   4   1  -8  299.17   13.10
  -4  -1   8  301.17   13.40
  -4  -1   8  284.27   11.90
   3   1  -8  952.80   33.50
   3   1  -8  965.90   37.80
  -3  -1   8  946.71   34.30
  -3  -1   8  969.30   36.20
  -3  -1   8  986.50   32.60
   2   1  -8 1848.42   57.59
   2   1  -8 1755.22   57.99
   2   1  -8 1787.12   59.69
  -2  -1   8 1712.83   58.69
  -2  -1   8 1840.02   57.19
  -2  -1   8 1767.42   60.79
   1   1  -8   22.20    3.30
   1   1  -8   16.90    2.40
   1   1  -8   21.80    2.40
  -1  -1   8   20.60    3.10
  -1  -1   8   15.40    2.50
  -1  -1   8   18.30    2.10
   0   1  -8 1754.72   56.39
   0   1  -8 1789.12   58.89
   0   1  -8 1766.72   55.29
   0   1  -8 1714.23   57.59
   0  -1   8 1722.33   56.79
   0  -1   8 1732.43   55.29
   0  -1   8 1741.63   59.59
  -1   1  -8 1253.77   40.90
  -1   1  -8 1237.38   43.20
  -1   1  -8 1229.18   42.00
   1  -1   8 1234.08   44.10
   1  -1   8 1233.98   41.00
   1  -1   8 1195.68   39.40
  -2   1  -8  545.95   19.80
  -2   1  -8  534.05   20.60
  -2   1  -8  531.15   21.70
   2  -1   8  526.55   18.10
   2  -1   8  528.45   19.70
   2  -1   8  549.35   22.70
  -3   1  -8  143.99    8.10
  -3   1  -8  136.49    7.40
  -3   1  -8  139.99    8.70
   3  -1   8  136.69    8.90
  -4   1  -8  120.79    7.20
  -4   1  -8  108.49    6.60
  -5   1  -8   70.89    5.10
  -5   1  -8   70.19    5.20
  -6   1  -8   43.90    3.70
  -7   1  -8  155.18    7.30
   7   0  -8  132.19    6.20
  -7   0   8  144.89    6.10
  -7   0   8  154.58    6.60
   6   0  -8  265.57   11.70
  -6   0   8  283.47   11.90
   5   0  -8    1.30    1.00
  -5   0   8    2.10    1.20
   4   0  -8  308.47   13.60
  -4   0   8  294.57   11.90
  -4   0   8  305.07   14.00
   3   0  -8 1841.72   61.99
   3   0  -8 1895.91   61.19
  -3   0   8 1847.12   63.39
  -3   0   8 1851.81   62.09
  -3   0   8 1887.71   61.99
  -3   0   8 1793.82   59.49
   2   0  -8  206.08   10.30
   2   0  -8  216.28    9.60
   2   0  -8  203.38   11.00
  -2   0   8  222.98   12.00
  -2   0   8  208.38   10.90
  -2   0   8  227.68    9.70
   1   0  -8 2115.99   67.59
   1   0  -8 2076.99   66.69
   1   0  -8 2082.69   69.69
  -1   0   8 2151.48   66.79
  -1   0   8 2043.50   70.19
  -1   0   8 2134.09   68.69
   0   0  -8  443.46   16.60
   0   0  -8  442.96   16.60
   0   0  -8  463.05   19.10
   0   0  -8  409.36   17.40
   0   0   8  437.36   17.50
   0   0   8  460.25   16.20
  -1   0  -8   63.89    4.50
  -1   0  -8   69.99    4.00
  -1   0  -8   73.59    5.90
  -1   0  -8   75.49    5.40
   1   0   8   74.89    4.20
   1   0   8   72.19    5.00
  -2   0  -8 1408.16   47.00
  -2   0  -8 1435.46   48.70
  -2   0  -8 1342.17   45.80
   2   0   8 1437.06   46.60
   2   0   8 1399.36   44.60
  -3   0  -8   17.40    2.90
  -3   0  -8   15.00    2.70
  -3   0  -8   19.70    2.50
   3   0   8   18.60    2.00
   3   0   8   20.80    2.80
  -4   0  -8   69.29    5.20
  -4   0  -8   65.69    4.70
  -4   0  -8   56.29    5.20
   4   0   8   68.49    5.00
  -5   0  -8  119.09    6.80
  -5   0  -8  120.59    7.10
  -6   0  -8   43.70    3.80
  -7   0  -8   71.79    4.40
   6  -1  -8   10.00    1.90
  -6   1   8   13.50    2.20
   5  -1  -8   16.70    2.50
  -5   1   8   12.40    2.50
   4  -1  -8   58.99    5.10
  -4   1   8   52.39    5.00
  -4   1   8   52.49    3.40
   3  -1  -8    0.10    2.20
   3  -1  -8    3.20    1.20
  -3   1   8    3.90    1.20
  -3   1   8    2.00    2.60
  -3   1   8    4.20    2.00
   2  -1  -8  318.27   14.90
   2  -1  -8  319.47   13.80
  -2   1   8  285.87   12.20
  -2   1   8  299.37   14.40
  -2   1   8  322.77   15.40
  -2   1   8  259.37   18.10
   1  -1  -8    5.10    1.60
   1  -1  -8    8.10    1.70
   1  -1  -8    7.50    2.30
  -1   1   8    6.60    1.50
   0  -1  -8 1096.39   39.20
   0  -1  -8 1136.69   37.00
   0  -1  -8 1023.20   35.70
   0   1   8 1069.99   37.90
   0   1   8 1096.69   36.00
  -1  -1  -8   56.69    4.00
  -1  -1  -8   60.79    4.20
  -1  -1  -8   60.19    5.50
  -1  -1  -8   61.79    5.00
   1   1   8   64.29    4.00
   1   1   8   62.49    4.90
  -2  -1  -8   15.90    2.30
  -2  -1  -8   16.10    3.00
  -2  -1  -8   11.10    1.90
  -2  -1  -8   16.60    2.80
   2   1   8   16.50    1.90
   2   1   8   14.60    2.70
  -3  -1  -8 2562.04   80.09
  -3  -1  -8 2518.15   83.19
  -3  -1  -8 2624.54   81.99
   3   1   8 2558.24   81.69
   3   1   8 2500.95   79.49
  -4  -1  -8   10.10    2.40
  -4  -1  -8    8.20    1.70
  -4  -1  -8   12.40    2.90
   4   1   8    8.10    2.00
  -5  -1  -8 1590.14   54.79
   5   1   8 1729.23   52.49
  -6  -1  -8    8.60    2.10
   6   1   8    8.00    2.30
  -7  -1  -8   38.60    3.40
   6  -2  -8    8.00    1.70
   6  -2  -8   13.60    1.20
  -6   2   8   11.50    1.80
  -6   2   8   11.80    1.50
   5  -2  -8  136.39    7.70
  -5   2   8  137.39    8.00
   4  -2  -8   71.49    5.80
  -4   2   8   76.59    6.10
   3  -2  -8  448.16   19.20
  -3   2   8  452.85   19.70
  -3   2   8  459.95   16.30
   2  -2  -8  770.32   27.80
   2  -2  -8  718.03   29.10
  -2   2   8  724.53   28.10
  -2   2   8  775.52   25.30
  -2   2   8  633.94   28.20
  -2   2   8  739.13   28.50
   1  -2  -8  464.35   20.20
   1  -2  -8  437.66   18.30
   1  -2  -8  447.36   16.00
  -1   2   8  439.76   16.70
  -1   2   8  428.06   18.60
   0  -2  -8   10.10    2.40
   0  -2  -8    9.00    2.10
   0   2   8    8.10    2.00
   0   2   8    9.80    1.70
  -1  -2  -8  720.73   28.00
  -1  -2  -8  736.93   25.60
   1   2   8  697.13   26.40
   1   2   8  689.43   24.40
  -2  -2  -8   19.20    3.40
  -2  -2  -8   14.10    2.70
  -2  -2  -8   14.60    2.20
   2   2   8   19.00    2.80
   2   2   8   16.50    1.90
  -3  -2  -8   88.09    6.80
  -3  -2  -8   85.29    4.40
  -3  -2  -8   89.69    6.00
   3   2   8   96.19    5.00
   3   2   8   88.59    6.10
  -4  -2  -8  740.53   26.30
  -4  -2  -8  708.63   27.20
   4   2   8  695.73   24.00
   4   2   8  701.73   26.30
  -5  -2  -8  398.66   16.50
   5   2   8  402.26   14.50
  -6  -2  -8  463.45   18.10
   6   2   8  446.26   15.90
  -7  -2  -8  492.95   18.20
   7   2   8  466.85   16.30
  -8  -2  -8   75.99    4.40
   5  -3  -8  132.99    6.90
  -5   3   8  118.29    7.00
   4  -3  -8   41.60    4.30
  -4   3   8   40.00    4.40
   3  -3  -8  109.79    7.60
  -3   3   8  105.29    7.90
   2  -3  -8    3.50    2.90
   2  -3  -8    2.80    1.40
  -2   3   8    3.00    2.20
  -2   3   8    1.30    0.90
   1  -3  -8  600.84   26.00
   1  -3  -8  632.84   24.30
  -1   3   8  595.04   23.70
  -1   3   8  593.14   21.30
  -1   3   8  605.64   24.90
   0  -3  -8  218.08   12.80
   0  -3  -8  223.58   11.30
   0   3   8  232.68    9.70
   0   3   8  222.98   11.20
  -1  -3  -8   96.79    6.40
  -1  -3  -8   92.39    7.40
   1   3   8   90.39    5.10
   1   3   8   94.99    6.40
  -2  -3  -8 1647.84   53.19
  -2  -3  -8 1585.04   55.79
   2   3   8 1584.04   51.59
   2   3   8 1645.04   53.89
  -3  -3  -8    0.60    1.60
  -3  -3  -8    5.30    1.30
  -3  -3  -8    0.20    1.40
   3   3   8    1.90    1.00
  -4  -3  -8  722.03   26.40
  -4  -3  -8  710.83   27.60
  -4  -3  -8  683.93   23.40
   4   3   8  713.43   26.50
   4   3   8  744.13   24.40
  -5  -3  -8    0.30    1.20
   5   3   8    0.50    0.90
  -6  -3  -8   70.99    5.30
   6   3   8   67.19    3.90
  -7  -3  -8    8.90    1.90
   7   3   8    5.50    1.10
  -8  -3  -8   77.49    4.50
   4  -4  -8  170.08    8.50
  -4   4   8  153.98    8.70
   3  -4  -8  971.50   34.30
  -3   4   8  905.71   34.70
   2  -4  -8  913.61   34.80
  -2   4   8  965.90   35.70
   1  -4  -8  255.37   14.90
   1  -4  -8  254.67   13.00
  -1   4   8  247.68    9.90
  -1   4   8  234.28   12.00
  -1   4   8  255.97   13.70
   0  -4  -8  117.79    7.80
   0  -4  -8  107.89    8.70
   0   4   8  102.19    6.90
   0   4   8  106.59    5.60
   0   4   8   99.99    8.30
  -1  -4  -8  629.24   27.10
  -1  -4  -8  640.14   24.70
   1   4   8  627.74   24.00
   1   4   8  635.04   22.00
  -2  -4  -8  268.37   12.50
  -2  -4  -8  266.17   14.30
   2   4   8  269.87   10.70
   2   4   8  256.27   12.00
  -3  -4  -8    6.00    2.10
  -3  -4  -8   13.80    2.40
  -3  -4  -8   13.10    3.00
   3   4   8    9.30    1.70
   3   4   8   12.30    2.30
  -4  -4  -8   13.00    2.60
  -4  -4  -8   10.20    1.90
  -4  -4  -8   15.30    3.80
   4   4   8   16.40    2.70
   4   4   8   12.60    1.80
  -5  -4  -8  797.92   29.20
   5   4   8  823.52   27.20
  -6  -4  -8    8.00    2.00
   6   4   8    4.60    1.10
  -7  -4  -8   35.90    3.50
   7   4   8   37.30    2.60
  -8  -4  -8  279.57   11.10
   8   4   8  268.67    9.80
   4  -5  -8   28.40    2.50
  -4   5   8   30.00    2.80
   3  -5  -8   73.99    5.20
  -3   5   8   72.09    5.60
   2  -5  -8   44.00    4.60
  -2   5   8   45.50    4.80
   1  -5  -8   78.79    6.30
  -1   5   8   73.09    6.70
   0  -5  -8    0.20    1.20
   0   5   8   -1.30    1.70
  -1  -5  -8  313.27   17.00
  -1  -5  -8  305.37   14.60
   1   5   8  309.87   11.80
   1   5   8  293.77   13.40
   1   5   8  315.67   15.70
  -2  -5  -8    2.70    1.40
  -2  -5  -8    2.40    2.40
   2   5   8   -0.30    1.20
   2   5   8    5.60    1.30
  -3  -5  -8  994.30   38.80
  -3  -5  -8 1104.89   36.70
   3   5   8 1034.70   33.80
   3   5   8  983.40   35.60
  -4  -5  -8    3.90    1.50
  -4  -5  -8    2.20    1.00
   4   5   8    4.30    1.20
  -5  -5  -8  157.48    8.30
  -5  -5  -8  164.48    7.60
   5   5   8  171.78    7.40
  -6  -5  -8   48.50    4.10
   6   5   8   54.09    3.40
  -7  -5  -8   91.29    5.50
   7   5   8   87.99    4.40
  -8  -5  -8   75.69    4.50
   8   5   8   79.89    3.70
   3  -6  -8  269.07   10.70
  -3   6   8  272.87   11.20
   2  -6  -8   26.70    2.90
  -2   6   8   26.80    3.40
   1  -6  -8    3.00    1.40
  -1   6   8    6.70    1.80
   0  -6  -8   49.99    4.60
   0   6   8   32.80    4.60
  -1  -6  -8    0.60    1.00
   1   6   8    4.40    2.40
   1   6   8    2.10    0.90
  -2  -6  -8   14.00    2.50
   2   6   8    7.70    3.40
   2   6   8   16.80    1.80
  -3  -6  -8  195.08   10.10
   3   6   8  186.78    8.00
  -4  -6  -8   45.30    4.10
   4   6   8   46.70    3.10
  -5  -6  -8   97.99    5.80
  -5  -6  -8  107.59    5.80
   5   6   8  105.09    5.20
  -6  -6  -8  241.18   10.00
  -6  -6  -8  217.88    8.40
   6   6   8  235.28    9.10
  -7  -6  -8  380.26   14.30
   7   6   8  381.66   13.40
   1  -7  -8   57.19    4.10
  -1   7   8   49.20    3.80
  -1   7   8   56.19    4.30
   0  -7  -8   53.79    4.30
   0   7   8   50.49    4.70
  -1  -7  -8    5.20    1.60
   1   7   8    2.30    1.60
  -2  -7  -8   85.79    6.00
   2   7   8   75.29    6.50
   2   7   8   80.49    4.00
  -3  -7  -8   87.49    5.90
   3   7   8   83.89    4.30
  -4  -7  -8   10.90    1.90
   4   7   8    7.70    1.40
  -5  -7  -8    1.30    0.80
   5   7   8    0.30    0.70
  -6  -7  -8   85.89    4.20
  -6  -7  -8   82.09    4.30
   6   7   8   95.29    4.30
  -7  -7  -8  103.09    4.60
   7   7   8  109.59    4.60
   0  -8  -8    0.60    0.60
   0   8   8    0.00    0.90
   0   8   8    3.20    1.10
  -1  -8  -8  113.79    6.10
   1   8   8  100.99    6.10
  -2  -8  -8   80.79    5.10
   2   8   8   79.59    5.60
  -3  -8  -8    1.20    0.90
   3   8   8    1.20    2.10
  -4  -8  -8  191.38    8.80
   4   8   8  185.98    7.00
  -5  -8  -8   31.00    2.70
   5   8   8   34.30    2.10
  -6  -8  -8    0.40    0.70
   6   8   8    0.80    0.80
   2   7  -9  622.64   20.50
  -2  -7   9  624.34   20.20
   4   6  -9  237.48    8.90
  -4  -6   9  225.58    8.50
   3   6  -9  329.57   12.00
  -3  -6   9  323.37   11.70
   2   6  -9   16.50    1.80
  -2  -6   9   16.00    1.70
   1   6  -9  218.48    8.80
  -1  -6   9  216.38    8.30
   0   6  -9  468.25   16.40
   0  -6   9  462.85   15.50
  -1   6  -9   -0.20    0.50
   5   5  -9   47.30    2.60
   5   5  -9   45.50    3.00
  -5  -5   9   48.00    2.70
   4   5  -9    7.00    1.50
   4   5  -9    5.90    1.10
   3   5  -9  172.78    7.70
  -3  -5   9  167.58    7.40
   2   5  -9   59.89    3.90
  -2  -5   9   56.59    3.60
  -1  -5   9    6.00    1.30
   0   5  -9   92.69    5.10
   0  -5   9   98.69    4.70
  -1   5  -9  574.54   20.00
  -2   5  -9    9.30    1.60
  -3   5  -9  232.68    9.10
   6   4  -9  295.27   10.80
   6   4  -9  309.87   11.00
   5   4  -9   22.60    2.00
   5   4  -9   22.50    2.20
  -5  -4   9   23.00    2.00
   4   4  -9    0.80    0.70
   4   4  -9    0.60    0.70
  -4  -4   9    1.10    0.70
   3   4  -9  240.68   10.40
   3   4  -9  246.48    9.20
  -3  -4   9  255.47   10.20
   2   4  -9  430.16   16.60
  -2  -4   9  461.35   16.20
   1   4  -9   27.50    2.70
  -1  -4   9   29.20    2.50
   0   4  -9  386.26   14.70
   0  -4   9  387.96   14.00
  -1   4  -9  490.35   18.20
   1  -4   9  522.15   17.50
  -2   4  -9   15.70    2.10
  -3   4  -9    7.90    1.50
  -4   4  -9  130.19    6.00
   6   3  -9   50.89    3.10
   6   3  -9   51.39    3.10
   5   3  -9   39.10    2.80
   5   3  -9   36.70    2.80
   4   3  -9  248.98   10.40
   4   3  -9  267.97   10.80
  -4  -3   9  278.57   10.80
   3   3  -9   52.99    3.80
   3   3  -9   53.89    3.50
  -3  -3   9   53.79    3.70
   2   3  -9    3.50    0.90
   2   3  -9    3.80    1.00
  -2  -3   9    7.40    1.40
   1   3  -9   34.20    3.20
  -1  -3   9   36.10    2.80
   0   3  -9  597.14   21.60
   0  -3   9  615.64   20.80
  -1   3  -9    2.30    1.10
   1  -3   9    4.00    1.00
  -2   3  -9  264.57   11.20
  -3   3  -9  227.68    9.90
  -4   3  -9    2.10    0.90
   6   2  -9  117.19    5.40
   6   2  -9  117.49    5.50
  -6  -2   9  112.89    5.20
   5   2  -9    2.60    0.80
   5   2  -9   -0.30    0.70
  -5  -2   9    0.80    0.90
   4   2  -9    3.80    1.20
   4   2  -9    6.50    1.40
  -4  -2   9    2.60    1.00
   3   2  -9    5.90    1.30
   3   2  -9    5.90    1.40
  -3  -2   9    3.70    1.20
   2   2  -9  219.78    9.60
   2   2  -9  212.28    9.00
  -2  -2   9  215.98    9.20
   1   2  -9   89.99    8.90
   1   2  -9   83.29    5.30
   1   2  -9   84.39    4.20
  -1  -2   9   82.59    4.70
  -1  -2   9   88.99    7.00
   0   2  -9  783.42   29.90
   0   2  -9  817.82   27.90
   0  -2   9  803.52   26.80
   0  -2   9  796.42   31.30
  -1   2  -9  179.88    8.40
   1  -2   9  178.48    7.60
  -2   2  -9   65.89    4.40
  -2   2  -9   56.29    7.10
   2  -2   9   53.99    3.40
  -3   2  -9  347.47   15.40
  -3   2  -9  356.06   14.10
  -4   2  -9   61.59    6.40
  -4   2  -9   70.89    4.60
  -5   2  -9    0.80    3.10
  -5   2  -9    1.20    0.90
   6   1  -9   23.90    2.30
   6   1  -9   25.90    2.00
  -6  -1   9   23.00    2.20
   5   1  -9    3.50    1.20
   5   1  -9    2.50    0.90
  -5  -1   9    5.80    1.70
   4   1  -9   90.09    5.20
   4   1  -9   85.09    5.40
  -4  -1   9   85.19    4.90
   3   1  -9  273.07   11.70
   3   1  -9  267.77   11.30
  -3  -1   9  273.97   11.30
   2   1  -9  155.98    7.60
   2   1  -9  154.78    7.50
  -2  -1   9  161.48    7.50
  -2  -1   9  135.69   10.50
   1   1  -9   22.30    4.00
   1   1  -9   25.50    2.50
   1   1  -9   29.20    3.00
  -1  -1   9   27.20    2.60
  -1  -1   9   27.90    3.90
  -1  -1   9   23.90    3.60
   0   1  -9 1049.79   34.40
   0   1  -9  992.90   36.50
   0   1  -9 1001.20   32.00
   0  -1   9  961.00   34.90
   0  -1   9  977.80   37.50
   0  -1   9 1047.40   33.30
  -1   1  -9  270.37   13.60
  -1   1  -9  288.37   11.80
  -1   1  -9  282.97   13.60
   1  -1   9  275.77   10.80
   1  -1   9  274.77   14.50
  -2   1  -9   89.89    5.40
  -2   1  -9   83.39    7.10
  -2   1  -9   83.19    6.90
   2  -1   9   90.99    4.50
  -3   1  -9  287.07   12.20
  -3   1  -9  297.07   13.20
   3  -1   9  294.57   10.80
  -4   1  -9  390.16   15.50
  -4   1  -9  405.46   16.20
  -5   1  -9   10.00    2.00
  -5   1  -9   13.50    2.80
  -6   1  -9  675.43   23.40
   6   0  -9  413.56   14.20
  -6   0   9  424.06   15.10
   5   0  -9  125.89    6.00
   5   0  -9  133.79    7.00
  -5   0   9  127.59    6.90
   4   0  -9 1222.48   42.00
   4   0  -9 1339.87   43.40
  -4   0   9 1327.77   43.80
  -4   0   9 1272.67   41.60
   3   0  -9  176.08    8.80
   3   0  -9  172.48    8.00
  -3   0   9  160.48    7.80
   2   0  -9  641.84   23.40
   2   0  -9  639.84   22.50
  -2   0   9  635.94   30.00
  -2   0   9  655.13   22.80
  -2   0   9  601.94   27.80
   1   0  -9  272.87   13.90
   1   0  -9  290.57   12.00
   1   0  -9  276.57   11.60
  -1   0   9  276.87   14.60
  -1   0   9  282.07   13.30
  -1   0   9  295.07   11.70
   0   0  -9   59.09    5.60
   0   0  -9   58.09    4.20
   0   0  -9   56.89    3.80
   0   0   9   54.59    4.70
   0   0   9   57.89    5.70
   0   0   9   61.49    4.00
  -1   0  -9 1025.00   37.70
  -1   0  -9 1021.00   34.60
  -1   0  -9 1025.20   36.00
   1   0   9 1029.00   36.20
   1   0   9 1065.29   34.10
  -2   0  -9  554.64   20.80
  -2   0  -9  520.45   19.30
  -2   0  -9  526.85   22.00
   2   0   9  538.65   18.60
   2   0   9  527.85   20.70
  -3   0  -9    8.70    2.10
  -3   0  -9   10.90    2.00
   3   0   9    8.70    1.70
  -4   0  -9    5.90    1.60
  -4   0  -9    6.50    1.70
   4   0   9    3.20    1.20
  -5   0  -9   73.09    4.60
  -5   0  -9   77.29    5.20
  -6   0  -9   -0.80    0.70
   5  -1  -9  154.38    7.60
   5  -1  -9  146.09    6.10
  -5   1   9  149.99    7.60
   4  -1  -9  624.44   23.20
   4  -1  -9  593.64   21.10
  -4   1   9  638.54   23.60
   3  -1  -9   44.70    4.30
   3  -1  -9   45.40    3.30
  -3   1   9   49.90    3.50
  -3   1   9   44.50    4.80
   2  -1  -9 2343.17   70.09
  -2   1   9 2088.89   70.29
   1  -1  -9  441.36   19.80
   1  -1  -9  461.45   16.50
   1  -1  -9  452.65   17.60
  -1   1   9  452.15   20.50
  -1   1   9  430.26   19.00
  -1   1   9  433.96   16.80
   0  -1  -9 1475.45   47.10
   0  -1  -9 1457.55   50.89
   0  -1  -9 1448.66   47.70
   0   1   9 1445.46   47.40
   0   1   9 1435.26   49.90
  -1  -1  -9 2992.20   97.89
  -1  -1  -9 3021.40   93.59
  -1  -1  -9 3045.70   93.59
  -1  -1  -9 2899.61   94.79
   1   1   9 2963.80   96.49
   1   1   9 3108.99   94.09
  -2  -1  -9  554.24   21.10
  -2  -1  -9  562.74   19.50
  -2  -1  -9  529.05   22.60
   2   1   9  558.64   21.80
   2   1   9  570.04   19.70
  -3  -1  -9 1466.25   47.50
  -3  -1  -9 1324.17   48.70
   3   1   9 1429.06   45.10
  -4  -1  -9  158.68    8.50
   4   1   9  160.48    6.90
  -5  -1  -9    6.80    1.70
  -6  -1  -9   18.10    2.40
  -7  -1  -9  138.79    6.40
   5  -2  -9  151.08    7.30
  -5   2   9  148.49    7.40
   4  -2  -9   -0.60    0.60
   4  -2  -9    2.40    1.20
  -4   2   9   -0.40    1.10
   3  -2  -9    4.90    1.70
  -3   2   9    3.50    2.10
  -3   2   9    5.50    1.10
   2  -2  -9  195.98   10.20
  -2   2   9  201.28    8.70
  -2   2   9  194.28   10.90
   1  -2  -9  182.68    9.50
   1  -2  -9  191.48   14.50
  -1   2   9  169.68   10.60
  -1   2   9  170.18    8.20
   0  -2  -9  377.46   15.00
   0  -2  -9  362.36   17.20
   0   2   9  325.37   15.80
  -1  -2  -9  285.37   11.80
  -1  -2  -9  292.47   14.70
   1   2   9  257.67   13.10
   1   2   9  275.17   11.50
  -2  -2  -9  583.74   24.00
  -2  -2  -9  597.64   21.50
  -2  -2  -9  597.74   20.20
   2   2   9  547.45   22.70
   2   2   9  571.74   20.60
  -3  -2  -9 1252.77   39.80
  -3  -2  -9 1154.68   41.60
   3   2   9 1071.59   41.90
   3   2   9 1142.79   37.70
  -4  -2  -9   47.40    4.20
   4   2   9   37.70    3.10
  -5  -2  -9  513.55   19.30
   5   2   9  480.65   17.20
  -6  -2  -9  268.27   11.50
   6   2   9  260.17    9.80
  -7  -2  -9  178.48    8.00
   4  -3  -9  115.59    6.40
  -4   3   9  108.69    6.50
   3  -3  -9  195.88   10.10
  -3   3   9  194.18   10.40
   2  -3  -9  282.77   13.60
  -2   3   9  290.37   10.90
  -2   3   9  300.37   14.20
   1  -3  -9  314.77   14.30
  -1   3   9  304.37   12.10
   0  -3  -9   23.10    3.10
   0   3   9   24.90    2.60
  -1  -3  -9 1083.99   37.10
  -1  -3  -9 1046.80   40.10
   1   3   9 1116.69   35.90
   1   3   9 1041.80   38.10
  -2  -3  -9    3.90    2.20
  -2  -3  -9    0.80    0.90
   2   3   9    2.70    1.40
   2   3   9    2.70    1.00
  -3  -3  -9  268.67   10.50
  -3  -3  -9  278.37   11.80
   3   3   9  283.27   11.10
  -4  -3  -9   94.49    5.80
   4   3   9   94.99    5.10
   5   3   9   48.30    3.30
  -6  -3  -9    2.80    1.30
   6   3   9    1.70    0.80
  -7  -3  -9    7.90    1.70
   7   3   9    8.40    1.30
   4  -4  -9   39.50    3.00
  -4   4   9   37.00    3.10
   3  -4  -9    2.40    1.10
  -3   4   9    1.90    1.40
   2  -4  -9  422.76   18.00
  -2   4   9  443.06   18.60
   1  -4  -9   26.00    3.50
  -1   4   9   20.30    4.20
  -1   4   9   24.40    2.10
   0  -4  -9  461.45   19.40
   0   4   9  476.55   16.90
  -1  -4  -9  590.04   22.80
   1   4   9  580.84   20.60
  -2  -4  -9   75.19    5.40
   2   4   9   81.89    4.70
  -3  -4  -9 1797.72   58.99
   3   4   9 1874.71   58.39
  -4  -4  -9   14.60    1.80
  -4  -4  -9   20.40    2.60
  -5  -4  -9   11.80    2.30
   5   4   9   15.80    1.90
  -6  -4  -9  164.38    7.90
   6   4   9  160.08    6.90
  -7  -4  -9    3.90    1.10
   3  -5  -9   15.50    2.00
  -3   5   9   12.90    1.90
   2  -5  -9   99.49    6.10
  -2   5   9   83.59    6.00
   1  -5  -9  295.57   13.50
  -1   5   9  287.67   13.90
   0  -5  -9   52.99    4.80
   0   5   9   54.09    3.10
   0   5   9   43.30    5.40
  -1  -5  -9   79.89    5.90
   1   5   9   69.49    4.10
  -2  -5  -9   55.09    4.60
   2   5   9   54.89    3.60
  -3  -5  -9   86.19    5.70
   3   5   9   89.19    4.80
  -4  -5  -9  159.48    7.40
   4   5   9  170.48    7.30
  -5  -5  -9  317.17   12.20
   5   5   9  311.97   11.70
  -6  -5  -9   33.80    2.70
   6   5   9   32.80    2.40
  -7  -5  -9   50.19    3.20
   7   5   9   54.89    2.90
   2  -6  -9   51.39    3.40
  -2   6   9   47.10    3.60
   1  -6  -9   75.49    4.90
  -1   6   9   64.19    4.70
   0  -6  -9   33.40    3.40
   0   6   9   33.10    4.00
  -1  -6  -9   13.70    2.40
   1   6   9   10.30    1.60
   1   6   9   16.90    3.80
  -2  -6  -9  597.14   22.30
   2   6   9  575.54   19.80
  -3  -6  -9   39.20    3.60
   3   6   9   38.60    2.70
  -4  -6  -9   74.39    4.70
   4   6   9   83.19    4.30
  -5  -6  -9  267.47   10.00
   5   6   9  318.27   10.90
  -6  -6  -9   50.49    3.10
   6   6   9   54.59    3.00
   0  -7  -9    1.20    0.90
   0   7   9   -0.90    1.10
   0   7   9    1.50    1.40
  -1  -7  -9    9.00    1.70
   1   7   9    4.50    2.00
  -2  -7  -9   18.70    2.40
  -3  -7  -9   33.50    3.10
   3   7   9   33.50    2.30
  -4  -7  -9  120.29    6.00
   4   7   9  117.49    5.10
  -5  -7  -9   35.30    2.20
   5   7   9   37.70    2.40
   6   7   9   10.40    1.20
  -3  -8  -9   59.59    3.60
  -4  -8  -9   38.70    2.60
   3   5 -10   48.40    2.90
   2   5 -10  355.06   12.70
  -2  -5  10  351.96   12.60
   1   5 -10  187.48    7.70
  -1  -5  10  194.28    7.50
   0   5 -10    2.10    0.70
  -1   5 -10   17.30    1.70
   4   4 -10  522.55   18.00
   3   4 -10  228.18    9.10
  -3  -4  10  219.88    8.80
   2   4 -10   11.50    1.70
  -2  -4  10   14.00    1.60
   1   4 -10  499.75   17.90
  -1  -4  10  519.05   17.70
   0   4 -10  295.27   11.50
   0  -4  10  309.17   11.20
  -1   4 -10    1.20    0.70
   1  -4  10    0.80    0.80
  -2   4 -10  463.65   16.30
   5   3 -10   62.29    3.00
   5   3 -10   66.99    3.60
   4   3 -10   64.99    3.20
   4   3 -10   69.69    4.00
  -4  -3  10   73.29    3.80
   3   3 -10   65.79    4.10
   3   3 -10   69.59    3.10
  -3  -3  10   67.99    4.00
   2   3 -10   80.39    4.80
  -2  -3  10   89.59    4.60
   1   3 -10  202.58    8.80
  -1  -3  10  206.48    8.40
   0   3 -10   85.29    4.70
   0  -3  10   76.49    4.20
  -1   3 -10  271.57   11.00
   1  -3  10  279.87   10.30
  -2   3 -10    9.50    1.60
  -3   3 -10  442.56   15.80
   5   2 -10  387.66   13.70
   5   2 -10  388.06   13.40
   4   2 -10   18.10    1.80
   4   2 -10   18.10    2.00
  -4  -2  10   22.40    2.10
   3   2 -10  294.37   11.20
   3   2 -10  321.57   12.30
  -3  -2  10  319.67   12.00
   2   2 -10  669.93   22.20
   2   2 -10  694.73   24.10
  -2  -2  10  701.53   23.60
   1   2 -10  164.28    7.70
  -1  -2  10  156.48    7.10
   0   2 -10  129.39    6.50
   0  -2  10  127.29    6.00
  -1   2 -10  233.98    9.90
   1  -2  10  232.58    9.10
  -2   2 -10   11.70    1.80
   2  -2  10   13.50    1.70
  -3   2 -10   21.50    2.40
  -4   2 -10   46.10    3.20
   5   1 -10   18.10    1.70
   5   1 -10   19.00    1.80
   4   1 -10   26.10    2.30
   4   1 -10   26.20    2.30
  -4  -1  10   21.90    2.20
   3   1 -10  165.08    7.40
   3   1 -10  168.08    7.60
  -3  -1  10  167.08    7.50
   2   1 -10    2.60    0.90
   2   1 -10    1.60    0.90
  -2  -1  10    3.00    1.00
   1   1 -10    7.50    1.20
   1   1 -10    8.30    1.70
  -1  -1  10    8.60    1.60
   0   1 -10  930.31   31.60
   0  -1  10  947.91   31.10
  -1   1 -10    3.80    1.10
   1  -1  10    2.70    0.90
  -2   1 -10  913.91   31.70
   2  -1  10  975.90   30.90
  -3   1 -10  133.39    8.30
  -3   1 -10  119.69    6.30
   3  -1  10  129.19    5.50
  -4   1 -10  116.29    7.50
  -4   1 -10  108.09    5.50
  -5   1 -10  193.18    8.90
   5   0 -10   23.30    1.60
   5   0 -10   24.70    2.10
   4   0 -10   41.80    2.70
   4   0 -10   40.10    3.00
  -4   0  10   35.40    3.10
   3   0 -10   17.30    1.80
   3   0 -10   13.70    2.00
  -3   0  10   10.90    1.70
   2   0 -10   -0.40    0.60
   2   0 -10    0.80    0.80
   1   0 -10   59.89    4.00
   1   0 -10   59.29    3.70
  -1   0  10   59.19    4.00
   0   0 -10  543.05   18.40
   0   0 -10  557.74   20.00
   0   0  10  592.14   20.10
  -1   0 -10  318.57   12.40
   1   0  10  321.87   12.40
  -2   0 -10  277.67   11.00
  -2   0 -10  277.67   12.90
   2   0  10  285.67   10.90
  -3   0 -10   21.60    4.80
  -3   0 -10   20.40    2.40
   3   0  10   26.40    2.20
  -4   0 -10   -0.30    2.00
  -4   0 -10    1.30    1.30
   4   0  10    0.70    0.90
  -5   0 -10  140.29    7.50
   4  -1 -10  407.86   13.90
   4  -1 -10  440.36   15.80
  -4   1  10  410.46   15.40
   3  -1 -10  250.87    9.50
   3  -1 -10  258.07   11.00
  -3   1  10  256.77    9.70
   2  -1 -10   97.79    5.70
   2  -1 -10   94.79    4.80
  -2   1  10   96.09    5.20
   1  -1 -10   86.59    5.00
   1  -1 -10   65.39    4.00
  -1   1  10   74.49    4.70
   0  -1 -10   21.50    2.10
   0   1  10   21.80    2.40
  -2  -1 -10   -1.10    2.50
   2   1  10    0.40    0.70
  -3  -1 -10  579.74   21.80
   3   1  10  591.24   20.20
  -4  -1 -10   60.19    4.60
   4   1  10   65.89    3.60
  -5  -1 -10   25.10    2.80
   5   1  10   26.00    2.10
  -6  -1 -10  340.77   13.00
   4  -2 -10    0.40    0.80
  -4   2  10   -1.90    1.20
   3  -2 -10    4.80    1.30
  -3   2  10   -1.10    2.10
   2  -2 -10    3.80    1.30
  -2   2  10    6.00    1.30
   1  -2 -10   28.50    3.00
  -1   2  10   25.80    2.50
   0  -2 -10   35.00    3.10
   0   2  10   30.30    2.80
  -1  -2 -10    7.30    1.50
   1   2  10   10.20    1.80
   2   2  10    7.40    1.70
  -3  -2 -10    9.30    2.20
   3   2  10    8.20    1.60
  -4  -2 -10   40.30    3.50
   4   2  10   37.60    2.80
  -5  -2 -10    3.20    1.30
   5   2  10    2.30    1.00
  -6  -2 -10   66.39    4.00
   3  -3 -10   43.30    3.40
  -3   3  10   39.70    3.60
   2  -3 -10  160.48    8.20
  -2   3  10  159.78    6.30
   1  -3 -10    7.30    1.80
  -1   3  10    9.30    1.60
   0  -3 -10    2.50    1.10
   0   3  10    2.80    1.00
  -1  -3 -10  604.14   21.80
   1   3  10  619.44   21.60
  -2  -3 -10  190.48    7.70
   2   3  10  193.18    8.50
   3   3  10  420.36   15.40
  -4  -3 -10   25.80    2.80
   4   3  10   30.30    2.50
  -5  -3 -10  117.19    5.90
   5   3  10  109.39    5.20
  -6  -3 -10    2.20    1.10
   6   3  10    2.00    0.80
   2  -4 -10   73.89    4.70
  -2   4  10   55.99    4.60
   1  -4 -10    0.20    1.00
  -1   4  10   -0.60    0.80
   0  -4 -10    0.40    0.90
   0   4  10    0.30    0.70
  -1  -4 -10   13.50    2.20
   1   4  10   16.50    1.80
  -2  -4 -10  232.18    9.80
   2   4  10  234.08    9.50
   3   4  10  271.57   10.70
   4   4  10  159.58    7.00
  -5  -4 -10   49.30    3.40
   5   4  10   52.99    3.20
  -6  -4 -10  246.48    9.30
   6   4  10  250.27    9.20
  -1   5  10    4.40    1.90
   0  -5 -10    7.60    1.50
   0   5  10    5.20    1.00
  -1  -5 -10   25.00    2.80
   1   5  10   27.20    2.10
  -2  -5 -10  165.98    8.00
   2   5  10  171.28    7.10
  -3  -5 -10   31.70    2.40
   3   5  10   30.30    2.40
   4   5  10   30.10    2.40
   5   5  10    9.30    1.30
   6   5  10    0.10    0.60
   0  -6 -10  765.32   26.00
  -1  -6 -10  122.89    6.30
  -2  -6 -10    0.30    0.80
   2   6  10    1.40    0.80
  -3  -6 -10  358.36   13.40
   3   6  10  386.06   13.00
   4   6  10  138.89    5.70
   5   6  10    9.80    1.20
   3   3 -11   27.70    2.10
  -3  -3  11   28.30    2.00
   2   3 -11   92.89    4.50
  -2  -3  11   89.09    4.30
   1   3 -11  572.74   19.30
  -1  -3  11  568.44   19.20
   0   3 -11    8.20    1.40
   0  -3  11    7.10    1.20
  -1   3 -11  131.69    5.90
   1  -3  11  137.79    5.40
   3   2 -11   75.59    3.90
  -3  -2  11   74.49    3.80
   2   2 -11   34.50    2.50
  -2  -2  11   30.80    2.40
   1   2 -11  509.45   17.80
  -1  -2  11  521.45   17.70
   0   2 -11  276.77   10.40
   0  -2  11  270.67   10.20
  -1   2 -11  295.47   11.10
   1  -2  11  297.17   10.60
  -2   2 -11  319.27   11.70
   2  -2  11  321.37   11.90
   3   1 -11    7.90    0.90
   3   1 -11    5.90    1.20
  -3  -1  11    8.30    1.30
   2   1 -11   41.20    2.80
  -2  -1  11   43.10    2.90
   1   1 -11  271.07   10.60
  -1  -1  11  294.57   10.90
   0   1 -11   54.19    3.30
   0  -1  11   60.59    3.50
  -1   1 -11    0.20    0.80
   1  -1  11    0.40    0.50
  -2   1 -11   36.80    2.70
   2  -1  11   35.30    2.30
  -3   1 -11  341.17   11.90
   3   0 -11  118.99    4.70
   3   0 -11  125.89    5.00
  -3   0  11  115.69    5.10
   2   0 -11  144.69    5.80
   2   0 -11  143.59    5.50
  -2   0  11  136.99    6.30
   1   0 -11   20.90    2.00
  -1   0  11   22.50    2.20
  -1   0 -11    2.20    1.10
   1   0  11    7.50    1.30
   2   0  11   78.29    4.00
   3   0  11   59.09    3.20
   3  -1 -11   57.89    3.20
   2  -1 -11   45.30    2.80
  -2   1  11   42.20    2.80
   1  -1 -11   71.69    3.40
  -1   1  11   61.09    3.80
   0   1  11    2.00    0.80
   1   1  11   39.30    2.90
   2   1  11  266.57   10.30
   3   1  11    1.80    0.80
   4   1  11   77.29    3.70
   2  -2 -11  236.68    9.10
  -2   2  11  228.28    8.30
   1  -2 -11  206.08    8.20
  -1   2  11  209.28    8.30
   0  -2 -11    3.00    0.80
   0   2  11    1.20    0.70
   1   2  11  165.08    7.30
   2   2  11  392.36   14.40
   3   2  11   24.60    2.20
   4   2  11   85.39    4.10
   2  -3 -11   83.29    4.20
   1  -3 -11   43.10    2.90
  -1   3  11   41.50    2.50
   0  -3 -11  183.48    7.60
   0   3  11  200.58    7.80
   1   3  11  104.29    5.10
   2   3  11   14.00    1.60
   3   3  11  553.44   19.00
   4   3  11   15.30    1.60
   1  -4 -11    4.90    1.10
   0  -4 -11   33.90    2.50
   0   4  11   33.10    2.10
  -1  -4 -11   29.70    2.10
   1   4  11   32.80    2.30
   2   4  11    2.80    0.80
   3   4  11   16.30    1.70
   4   4  11   19.90    1.70
  -1  -5 -11  225.78    8.10
   2   5  11   62.39    3.10
   3   5  11  451.35   15.20
   0   0  12   51.99    2.90
   1   0  12  405.26   13.80
   0   1  12    6.50    1.10
   1   1  12    0.50    0.50
   0   0   0    0.00    0.00

_computing_structure_solution     'SHELXT 2014/5 (Sheldrick, 2014)'
;
_shelx_hkl_checksum              41636
loop_
_space_group_symop_operation_xyz
'x, y, z'
'-x, -y, -z'
loop_
_atom_site_label
_atom_site_type_symbol
_atom_site_fract_x
_atom_site_fract_y
_atom_site_fract_z
_atom_site_U_iso_or_equiv
_atom_site_adp_type
_atom_site_occupancy
_atom_site_site_symmetry_order
_atom_site_calc_flag
_atom_site_refinement_flags_posn
_atom_site_refinement_flags_adp
Cl1 Cl 0.15863(5) 0.88485(5) 0.26516(4) 0.04440(15) Uani 1 1 d . .
C1 C 0.26777(18) 0.48148(17) 0.76130(14) 0.0287(3) Uani 1 1 d . .
N1 N 0.15734(15) 0.52516(14) 0.87988(11) 0.0299(3) Uani 1 1 d . .
H1 H 0.052011 0.583089 0.877654 0.036 Uiso 1 1 calc R U
O1 O 0.40169(13) 0.41189(12) 0.96727(10) 0.0330(3) Uani 1 1 d . .
O2 O 0.17872(14) 0.45826(13) 1.10625(10) 0.0375(3) Uani 1 1 d . .
C2 C 0.26330(17) 0.34371(16) 0.69116(14) 0.0290(3) Uani 1 1 d . .
C4 C 0.22795(17) 0.53569(17) 0.52916(14) 0.0288(3) Uani 1 1 d . .
C3 C 0.24582(18) 0.37514(17) 0.55912(14) 0.0302(3) Uani 1 1 d . .
C6 C 0.2191(2) 0.75194(18) 0.65113(16) 0.0371(4) Uani 1 1 d . .
H6 H 0.224170 0.795329 0.732855 0.044 Uiso 1 1 calc R U
C5 C 0.23615(18) 0.60135(17) 0.64845(14) 0.0291(3) Uani 1 1 d . .
C9 C 0.20381(18) 0.62084(17) 0.40892(14) 0.0315(3) Uani 1 1 d . .
H9 H 0.198120 0.577808 0.327172 0.038 Uiso 1 1 calc R U
C8 C 0.18830(19) 0.77234(18) 0.41364(15) 0.0336(3) Uani 1 1 d . .
C7 C 0.1943(2) 0.83917(19) 0.53101(16) 0.0388(4) Uani 1 1 d . .
H7 H 0.181630 0.943631 0.529663 0.047 Uiso 1 1 calc R U
C10 C 0.43340(19) 0.44685(19) 0.82782(14) 0.0332(3) Uani 1 1 d . .
H10A H 0.521841 0.358789 0.787091 0.040 Uiso 1 1 calc R U
H10B H 0.466355 0.536632 0.818151 0.040 Uiso 1 1 calc R U
C11 C 0.23707(18) 0.46554(17) 0.99320(14) 0.0300(3) Uani 1 1 d . .
C12 C 0.2423(2) 0.2713(2) 0.45337(16) 0.0424(4) Uani 1 1 d . .
H12A H 0.138041 0.316158 0.407824 0.064 Uiso 1 1 calc R U
H12B H 0.252111 0.171617 0.495162 0.064 Uiso 1 1 calc R U
H12C H 0.334365 0.258338 0.388027 0.064 Uiso 1 1 calc R U
C13 C 0.28684(19) 0.19839(17) 0.76899(14) 0.0305(3) Uani 1 1 d . .
C14 C 0.16727(19) 0.19037(19) 0.86478(15) 0.0352(3) Uani 1 1 d . .
H14 H 0.067166 0.275891 0.875570 0.042 Uiso 1 1 calc R U
C15 C 0.1934(2) 0.0584(2) 0.94444(16) 0.0405(4) Uani 1 1 d . .
H15 H 0.110955 0.053775 1.009265 0.049 Uiso 1 1 calc R U
C16 C 0.3391(2) -0.06680(19) 0.93012(16) 0.0407(4) Uani 1 1 d . .
H16 H 0.357345 -0.156377 0.986097 0.049 Uiso 1 1 calc R U
C17 C 0.4577(2) -0.06121(19) 0.83441(17) 0.0414(4) Uani 1 1 d . .
H17 H 0.557087 -0.147569 0.823715 0.050 Uiso 1 1 calc R U
C18 C 0.4324(2) 0.07023(18) 0.75370(16) 0.0371(4) Uani 1 1 d . .
H18 H 0.514318 0.073224 0.687676 0.044 Uiso 1 1 calc R U
loop_
_atom_site_aniso_label
_atom_site_aniso_U_11
_atom_site_aniso_U_22
_atom_site_aniso_U_33
_atom_site_aniso_U_23
_atom_site_aniso_U_13
_atom_site_aniso_U_12
Cl1 0.0509(3) 0.0486(3) 0.0321(2) 0.01629(17) -0.00599(17) -0.01888(19)
C1 0.0356(7) 0.0344(7) 0.0197(7) -0.0004(6) 0.0000(5) -0.0175(6)
N1 0.0334(6) 0.0372(7) 0.0187(6) -0.0005(5) -0.0015(5) -0.0126(5)
O1 0.0365(6) 0.0445(6) 0.0218(5) 0.0041(4) -0.0044(4) -0.0198(5)
O2 0.0440(6) 0.0526(7) 0.0184(5) 0.0007(4) -0.0012(4) -0.0212(5)
C2 0.0335(7) 0.0327(7) 0.0240(7) -0.0005(6) 0.0005(6) -0.0164(6)
C4 0.0315(7) 0.0354(8) 0.0216(7) -0.0008(6) 0.0015(5) -0.0152(6)
C3 0.0364(8) 0.0339(8) 0.0233(7) -0.0026(6) 0.0018(6) -0.0167(6)
C6 0.0514(9) 0.0385(8) 0.0274(8) -0.0023(6) -0.0039(7) -0.0232(7)
C5 0.0351(7) 0.0345(8) 0.0214(7) 0.0012(6) -0.0012(6) -0.0178(6)
C9 0.0356(8) 0.0400(8) 0.0208(7) 0.0004(6) 0.0005(6) -0.0167(6)
C8 0.0347(8) 0.0402(8) 0.0264(7) 0.0085(6) -0.0016(6) -0.0161(6)
C7 0.0500(9) 0.0346(8) 0.0361(9) 0.0042(7) -0.0043(7) -0.0211(7)
C10 0.0390(8) 0.0447(9) 0.0212(7) 0.0021(6) -0.0016(6) -0.0223(7)
C11 0.0376(8) 0.0341(8) 0.0222(7) -0.0010(6) -0.0033(6) -0.0174(6)
C12 0.0637(11) 0.0407(9) 0.0271(8) -0.0059(7) -0.0005(7) -0.0238(8)
C13 0.0395(8) 0.0343(8) 0.0226(7) 0.0006(6) -0.0052(6) -0.0192(6)
C14 0.0372(8) 0.0388(8) 0.0322(8) 0.0052(6) -0.0035(6) -0.0177(7)
C15 0.0481(9) 0.0463(9) 0.0333(8) 0.0098(7) -0.0049(7) -0.0261(8)
C16 0.0600(10) 0.0365(8) 0.0302(8) 0.0063(6) -0.0129(7) -0.0229(8)
C17 0.0527(10) 0.0328(8) 0.0360(9) -0.0027(6) -0.0094(7) -0.0115(7)
C18 0.0437(9) 0.0385(8) 0.0303(8) -0.0045(6) 0.0004(6) -0.0166(7)
loop_
_atom_type_symbol
_atom_type_description
_atom_type_scat_dispersion_real
_atom_type_scat_dispersion_imag
_atom_type_scat_source
C C 0.0181 0.0091 'International Tables Vol C Tables 4.2.6.8 and 6.1.1.4'
H H 0.0000 0.0000 'International Tables Vol C Tables 4.2.6.8 and 6.1.1.4'
N N 0.0311 0.0180 'International Tables Vol C Tables 4.2.6.8 and 6.1.1.4'
O O 0.0492 0.0322 'International Tables Vol C Tables 4.2.6.8 and 6.1.1.4'
Cl Cl 0.3639 0.7018 'International Tables Vol C Tables 4.2.6.8 and 6.1.1.4'
loop_
_geom_angle_atom_site_label_1
_geom_angle_atom_site_label_2
_geom_angle_atom_site_label_3
_geom_angle
N1 C1 C5 115.56(12)
N1 C1 C2 115.09(11)
C5 C1 C2 102.25(11)
N1 C1 C10 98.71(11)
C5 C1 C10 113.25(12)
C2 C1 C10 112.57(12)
C11 N1 C1 111.44(12)
C11 N1 H1 124.3
C1 N1 H1 124.3
C11 O1 C10 108.66(11)
C3 C2 C13 129.15(13)
C3 C2 C1 110.79(12)
C13 C2 C1 119.96(12)
C9 C4 C5 120.68(13)
C9 C4 C3 130.37(13)
C5 C4 C3 108.94(12)
C2 C3 C4 108.92(12)
C2 C3 C12 128.23(14)
C4 C3 C12 122.85(13)
C5 C6 C7 118.32(14)
C5 C6 H6 120.8
C7 C6 H6 120.8
C6 C5 C4 121.66(14)
C6 C5 C1 129.41(13)
C4 C5 C1 108.91(12)
C4 C9 C8 116.74(13)
C4 C9 H9 121.6
C8 C9 H9 121.6
C7 C8 C9 123.19(14)
C7 C8 Cl1 118.04(12)
C9 C8 Cl1 118.77(12)
C8 C7 C6 119.40(15)
C8 C7 H7 120.3
C6 C7 H7 120.3
O1 C10 C1 104.63(11)
O1 C10 H10A 110.8
C1 C10 H10A 110.8
O1 C10 H10B 110.8
C1 C10 H10B 110.8
H10A C10 H10B 108.9
O2 C11 N1 128.42(14)
O2 C11 O1 121.36(13)
N1 C11 O1 110.22(12)
C3 C12 H12A 109.5
C3 C12 H12B 109.5
H12A C12 H12B 109.5
C3 C12 H12C 109.5
H12A C12 H12C 109.5
H12B C12 H12C 109.5
C14 C13 C18 118.76(14)
C14 C13 C2 120.04(14)
C18 C13 C2 121.09(13)
C15 C14 C13 120.39(15)
C15 C14 H14 119.8
C13 C14 H14 119.8
C16 C15 C14 120.36(15)
C16 C15 H15 119.8
C14 C15 H15 119.8
C17 C16 C15 119.88(15)
C17 C16 H16 120.1
C15 C16 H16 120.1
C16 C17 C18 120.18(16)
C16 C17 H17 119.9
C18 C17 H17 119.9
C17 C18 C13 120.40(15)
C17 C18 H18 119.8
C13 C18 H18 119.8
loop_
_geom_bond_atom_site_label_1
_geom_bond_atom_site_label_2
_geom_bond_distance
Cl1 C8 1.7429(15)
C1 N1 1.4596(18)
C1 C5 1.506(2)
C1 C2 1.5338(19)
C1 C10 1.548(2)
N1 C11 1.3475(19)
N1 H1 0.8800
O1 C11 1.3508(18)
O1 C10 1.4457(17)
O2 C11 1.2190(18)
C2 C3 1.341(2)
C2 C13 1.483(2)
C4 C9 1.384(2)
C4 C5 1.400(2)
C4 C3 1.477(2)
C3 C12 1.500(2)
C6 C5 1.376(2)
C6 C7 1.393(2)
C6 H6 0.9500
C9 C8 1.390(2)
C9 H9 0.9500
C8 C7 1.384(2)
C7 H7 0.9500
C10 H10A 0.9900
C10 H10B 0.9900
C12 H12A 0.9800
C12 H12B 0.9800
C12 H12C 0.9800
C13 C14 1.392(2)
C13 C18 1.400(2)
C14 C15 1.385(2)
C14 H14 0.9500
C15 C16 1.385(3)
C15 H15 0.9500
C16 C17 1.379(3)
C16 H16 0.9500
C17 C18 1.388(2)
C17 H17 0.9500
C18 H18 0.9500
loop_
_geom_torsion_atom_site_label_1
_geom_torsion_atom_site_label_2
_geom_torsion_atom_site_label_3
_geom_torsion_atom_site_label_4
_geom_torsion
C5 C1 N1 C11 -144.16(13)
C2 C1 N1 C11 96.93(14)
C10 C1 N1 C11 -23.10(15)
N1 C1 C2 C3 130.45(14)
C5 C1 C2 C3 4.36(16)
C10 C1 C2 C3 -117.49(14)
N1 C1 C2 C13 -52.91(18)
C5 C1 C2 C13 -179.00(12)
C10 C1 C2 C13 59.15(17)
C13 C2 C3 C4 -179.29(14)
C1 C2 C3 C4 -3.04(17)
C13 C2 C3 C12 1.2(3)
C1 C2 C3 C12 177.46(15)
C9 C4 C3 C2 -178.61(15)
C5 C4 C3 C2 0.34(17)
C9 C4 C3 C12 0.9(2)
C5 C4 C3 C12 179.87(14)
C7 C6 C5 C4 -0.4(2)
C7 C6 C5 C1 178.39(15)
C9 C4 C5 C6 0.6(2)
C3 C4 C5 C6 -178.43(14)
C9 C4 C5 C1 -178.41(13)
C3 C4 C5 C1 2.53(16)
N1 C1 C5 C6 51.2(2)
C2 C1 C5 C6 177.02(15)
C10 C1 C5 C6 -61.6(2)
N1 C1 C5 C4 -129.82(13)
C2 C1 C5 C4 -4.03(15)
C10 C1 C5 C4 117.35(14)
C5 C4 C9 C8 -0.1(2)
C3 C4 C9 C8 178.76(14)
C4 C9 C8 C7 -0.7(2)
C4 C9 C8 Cl1 179.71(11)
C9 C8 C7 C6 0.9(3)
Cl1 C8 C7 C6 -179.51(13)
C5 C6 C7 C8 -0.3(2)
C11 O1 C10 C1 -17.99(15)
N1 C1 C10 O1 23.70(14)
C5 C1 C10 O1 146.44(12)
C2 C1 C10 O1 -98.18(13)
C1 N1 C11 O2 -167.08(15)
C1 N1 C11 O1 13.73(16)
C10 O1 C11 O2 -175.61(13)
C10 O1 C11 N1 3.64(16)
C3 C2 C13 C14 -115.71(18)
C1 C2 C13 C14 68.35(19)
C3 C2 C13 C18 68.1(2)
C1 C2 C13 C18 -107.87(16)
C18 C13 C14 C15 0.9(2)
C2 C13 C14 C15 -175.45(14)
C13 C14 C15 C16 0.3(2)
C14 C15 C16 C17 -1.2(2)
C15 C16 C17 C18 0.9(2)
C16 C17 C18 C13 0.3(2)
C14 C13 C18 C17 -1.1(2)
C2 C13 C18 C17 175.12(14)
