#------------------------------------------------------------------------------
#$Date: 2019-11-04 15:04:53 +0200 (Mon, 04 Nov 2019) $
#$Revision: 223092 $
#$URL: file:///home/coder/svn-repositories/cod/cif/4/03/46/4034614.cif $
#------------------------------------------------------------------------------
#
# This file is available in the Crystallography Open Database (COD),
# http://www.crystallography.net/
#
# All data on this site have been placed in the public domain by the
# contributors.
#
data_4034614
loop_
_publ_author_name
'Maiti, Saikat'
'Kim, Jaeshin'
'Park, Jae-Heon'
'Nam, Dongsik'
'Lee, Jae Bin'
'Kim, Ye-Jin'
'Kee, Jung-Min'
'Seo, Jeong Kon'
'Myung, Kyungjae'
'Rohde, Jan-Uwe'
'Choe, Wonyoung'
'Kwon, Oh-Hoon'
'Hong, Sung You'
_publ_section_title
;
 Chemoselective Trifluoroethylation Reactions of Quinazolinones and
 Identification of Photostability.
;
_journal_issue                   11
_journal_name_full               'The Journal of organic chemistry'
_journal_page_first              6737
_journal_page_last               6751
_journal_paper_doi               10.1021/acs.joc.9b00470
_journal_volume                  84
_journal_year                    2019
_chemical_formula_sum            'C17 H13 F3 N2 O'
_chemical_formula_weight         318.29
_space_group_crystal_system      triclinic
_space_group_IT_number           2
_space_group_name_Hall           '-P 1'
_space_group_name_H-M_alt        'P -1'
_atom_sites_solution_hydrogens   geom
_audit_creation_method           SHELXL-2014/7
_cell_angle_alpha                72.59(3)
_cell_angle_beta                 76.23(3)
_cell_angle_gamma                66.65(3)
_cell_formula_units_Z            2
_cell_length_a                   8.9628(18)
_cell_length_b                   9.4248(19)
_cell_length_c                   9.828(2)
_cell_measurement_reflns_used    5699
_cell_measurement_temperature    173(2)
_cell_measurement_theta_max      27.460
_cell_measurement_theta_min      3.092
_cell_volume                     720.5(3)
_computing_cell_refinement       'Rigaku Rapid Auto'
_computing_data_collection       'Rigaku Rapid Auto'
_computing_data_reduction        'Rigaku Rapid Auto'
_computing_molecular_graphics    ORTEP
_computing_publication_material  CIFTAB
_computing_structure_refinement  SHELXL
_computing_structure_solution    SHELXS
_diffrn_ambient_temperature      173(2)
_diffrn_measured_fraction_theta_full 0.994
_diffrn_measured_fraction_theta_max 0.993
_diffrn_measurement_device_type  'imaging plate'
_diffrn_measurement_method       'omega scans'
_diffrn_radiation_type           MoK\a
_diffrn_radiation_wavelength     0.71075
_diffrn_reflns_av_R_equivalents  0.0244
_diffrn_reflns_av_unetI/netI     0.0366
_diffrn_reflns_Laue_measured_fraction_full 0.994
_diffrn_reflns_Laue_measured_fraction_max 0.993
_diffrn_reflns_limit_h_max       11
_diffrn_reflns_limit_h_min       -11
_diffrn_reflns_limit_k_max       12
_diffrn_reflns_limit_k_min       -12
_diffrn_reflns_limit_l_max       12
_diffrn_reflns_limit_l_min       -12
_diffrn_reflns_number            7031
_diffrn_reflns_point_group_measured_fraction_full 0.994
_diffrn_reflns_point_group_measured_fraction_max 0.993
_diffrn_reflns_theta_full        25.242
_diffrn_reflns_theta_max         27.460
_diffrn_reflns_theta_min         3.092
_diffrn_source                   'fine-focus sealed tube'
_exptl_absorpt_coefficient_mu    0.1192
_exptl_absorpt_correction_T_max  0.982
_exptl_absorpt_correction_T_min  0.971
_exptl_absorpt_correction_type   multi-scan
_exptl_absorpt_process_details   'Rigaku Rapid Auto'
_exptl_crystal_colour            Colorless
_exptl_crystal_density_diffrn    1.467
_exptl_crystal_description       Block
_exptl_crystal_F_000             328
_exptl_crystal_size_max          0.250
_exptl_crystal_size_mid          0.230
_exptl_crystal_size_min          0.150
_refine_diff_density_max         0.429
_refine_diff_density_min         -0.394
_refine_diff_density_rms         0.051
_refine_ls_extinction_method     none
_refine_ls_goodness_of_fit_ref   1.027
_refine_ls_hydrogen_treatment    constr
_refine_ls_matrix_type           full
_refine_ls_number_parameters     209
_refine_ls_number_reflns         3268
_refine_ls_number_restraints     0
_refine_ls_restrained_S_all      1.027
_refine_ls_R_factor_all          0.0945
_refine_ls_R_factor_gt           0.0601
_refine_ls_shift/su_max          0.000
_refine_ls_shift/su_mean         0.000
_refine_ls_structure_factor_coef Fsqd
_refine_ls_weighting_details
'w=1/[\s^2^(Fo^2^)+(0.0549P)^2^+0.5983P] where P=(Fo^2^+2Fc^2^)/3'
_refine_ls_weighting_scheme      calc
_refine_ls_wR_factor_gt          0.1320
_refine_ls_wR_factor_ref         0.1501
_reflns_Friedel_coverage         0.000
_reflns_number_gt                2262
_reflns_number_total             3268
_reflns_threshold_expression     'I > 2\s(I)'
_cod_data_source_file            jo9b00470_si_001.cif
_cod_data_source_block           P-1
_cod_depositor_comments
;
The following automatic conversions were performed:

data item '_exptl_absorpt_correction_type' value 'Multi-scan' was
changed to 'multi-scan' in accordance with the
/home/data/users/saulius/crontab/automatic-downloads/current/ACS/lib/dictionaries/cif_core.dic
dictionary named 'cif_core.dic' version 2.4.2 last updated on
2011-04-26.

Automatic conversion script
Id: cif_fix_values 6909 2019-04-08 15:41:33Z antanas 
;
_cod_database_code               4034614
_shelx_shelxl_version_number     2014/7
_shelx_space_group_comment
;
The symmetry employed for this shelxl refinement is uniquely defined
by the following loop, which should always be used as a source of
symmetry information in preference to the above space-group names.
They are only intended as comments.
;
_shelx_res_file
;

    P-1.res created by SHELXL-2014/7


TITL P-1 in P-1
CELL 0.71075   8.9628   9.4248   9.8284  72.589  76.233  66.650
ZERR    2.00   0.0018   0.0019   0.0020   0.030   0.030   0.030
LATT 1
SFAC C  H  N  O  F
UNIT 34 26 4 2 6
L.S. 24
ACTA
BOND
FMAP 2
PLAN 5
LIST 6
SIZE 0.25 0.23 0.15
TEMP -100
WGHT    0.054900    0.598300
FVAR       0.24904
MOLE 1
C1    1    0.158451    1.086946    0.535011    11.00000    0.03721    0.03235 =
         0.03100   -0.00528   -0.00393   -0.01743
C2    1    0.274626    1.147144    0.556840    11.00000    0.03531    0.03056 =
         0.02866   -0.00750   -0.00020   -0.01616
C3    1    0.288567    1.290819    0.470050    11.00000    0.04720    0.03525 =
         0.03058   -0.00373   -0.00580   -0.02192
AFIX  43
H3    2    0.217089    1.353095    0.399729    11.00000   -1.20000
AFIX   0
C4    1    0.405576    1.340891    0.487111    11.00000    0.05553    0.03744 =
         0.03669   -0.00508   -0.00172   -0.02861
AFIX  43
H4    2    0.415772    1.437874    0.428359    11.00000   -1.20000
AFIX   0
C5    1    0.509770    1.249329    0.590854    11.00000    0.04257    0.04201 =
         0.04764   -0.01106   -0.00347   -0.02766
AFIX  43
H5    2    0.591684    1.284034    0.601249    11.00000   -1.20000
AFIX   0
C6    1    0.495831    1.109414    0.678473    11.00000    0.03469    0.03622 =
         0.04070   -0.00972   -0.00659   -0.01618
AFIX  43
H6    2    0.566716    1.049335    0.749617    11.00000   -1.20000
AFIX   0
C7    1    0.377148    1.055460    0.662850    11.00000    0.03308    0.03050 =
         0.03118   -0.00741   -0.00109   -0.01511
C8    1    0.261189    0.862339    0.731549    11.00000    0.02857    0.02896 =
         0.02994   -0.00596   -0.00239   -0.01119
C9    1    0.248585    0.706164    0.817572    11.00000    0.02511    0.02869 =
         0.03334   -0.00542   -0.00309   -0.01110
C10   1    0.274695    0.644540    0.963228    11.00000    0.02757    0.03746 =
         0.03197   -0.00649   -0.00292   -0.01503
C11   1    0.267663    0.494626    1.031386    11.00000    0.03529    0.03873 =
         0.02996   -0.00184   -0.00437   -0.01377
AFIX  43
H11   2    0.288037    0.452355    1.128598    11.00000   -1.20000
AFIX   0
C12   1    0.232247    0.403902    0.963928    11.00000    0.02854    0.02892 =
         0.04171   -0.00171   -0.00394   -0.01067
C13   1    0.204456    0.467051    0.821666    11.00000    0.03441    0.02985 =
         0.04039   -0.00698   -0.00704   -0.01241
AFIX  43
H13   2    0.178235    0.408585    0.772930    11.00000   -1.20000
AFIX   0
C14   1    0.214488    0.614388    0.749812    11.00000    0.03498    0.03154 =
         0.03169   -0.00612   -0.00535   -0.01319
AFIX  43
H14   2    0.197641    0.653882    0.651622    11.00000   -1.20000
AFIX   0
C15   1    0.225261    0.241875    1.043086    11.00000    0.05498    0.03569 =
         0.04978    0.00270   -0.00989   -0.02104
AFIX 137
H15A  2    0.322710    0.159789    1.008079    11.00000   -1.50000
H15B  2    0.126561    0.232406    1.026073    11.00000   -1.50000
H15C  2    0.221980    0.228336    1.146451    11.00000   -1.50000
AFIX   0
C16   1    0.302036    0.736626    1.051587    11.00000    0.04296    0.05371 =
         0.03552   -0.01107   -0.00251   -0.02791
AFIX  23
H16A  2    0.401494    0.669684    1.098406    11.00000   -1.20000
H16B  2    0.322615    0.831725    0.986227    11.00000   -1.20000
AFIX   0
C17   1    0.163436    0.787534    1.163141    11.00000    0.03968    0.04314 =
         0.05265   -0.01650   -0.00654   -0.01676
F1    5    0.181020    0.888263    1.224550    11.00000    0.05690    0.06206 =
         0.05593   -0.02837   -0.00448   -0.02698
F2    5    0.143353    0.669944    1.271077    11.00000    0.17358    0.08254 =
         0.07013   -0.03398    0.05956   -0.08104
F3    5    0.021584    0.860134    1.114895    11.00000    0.04960    0.14349 =
         0.17569   -0.12023   -0.04476    0.01873
N1    3    0.158180    0.944674    0.628151    11.00000    0.03390    0.03020 =
         0.03257   -0.00274   -0.00804   -0.01727
AFIX  43
H1    2    0.087959    0.904150    0.621029    11.00000   -1.20000
AFIX   0
N2    3    0.368663    0.911331    0.751446    11.00000    0.03081    0.02928 =
         0.03492   -0.00513   -0.00543   -0.01311
O1    4    0.066143    1.154230    0.441893    11.00000    0.05230    0.04265 =
         0.04057    0.00508   -0.02071   -0.02717
HKLF 4

REM  P-1 in P-1
REM R1 =  0.0601 for    2262 Fo > 4sig(Fo)  and  0.0945 for all    3268 data
REM    209 parameters refined using      0 restraints

END

WGHT      0.0549      0.5990

REM Highest difference peak  0.429,  deepest hole -0.394,  1-sigma level  0.051
Q1    1   0.0672  0.7574  1.2032  11.00000  0.05    0.43
Q2    1   0.0842  0.9150  1.0526  11.00000  0.05    0.30
Q3    1   0.2492  0.6435  1.2636  11.00000  0.05    0.28
Q4    1   0.2578  0.7758  0.7756  11.00000  0.05    0.25
Q5    1  -0.0263  0.8758  1.1223  11.00000  0.05    0.24
;
_shelx_res_checksum              20269
_shelx_hkl_file
;
   0   0  -2    5.14    0.14
   0   0  -2    4.96    0.06
   0   0   3    0.23    0.02
   0   0  -3    0.20    0.10
   0   0  -3    0.18    0.03
   0   0  -4   92.20    1.03
   0   0  -4   94.79    0.87
   0   0  -5    7.75    0.27
   0   0  -5    7.69    0.09
   0   0  -6    1.24    0.14
   0   0  -7    0.00    0.22
   0   0  -8    0.42    0.17
   0   0  -9    1.21    0.22
   0   0 -10    8.80    0.35
   0   0 -11    0.05    0.25
   0   0 -12   -0.08    0.29
   0   1 -11    1.15    0.42
   0   1 -10    3.36    0.28
   0   1  -9   14.07    0.50
   0   1  -8    0.16    0.17
   0   1  -7    0.50    0.22
   0   1  -7    0.10    0.04
   0   1  -6    2.21    0.15
   0   1  -6    2.23    0.10
   0   1  -5    1.25    0.13
   0   1  -5    1.24    0.06
   0   1  -5    1.22    0.05
   0   1  -4   20.38    0.31
   0   1  -4   19.53    0.23
   0   1  -3    0.03    0.09
   0   1  -3    0.05    0.04
   0   1  -2   50.75    0.55
   0   1  -2   51.05    0.51
   0   1   2   17.28    0.21
   0  -1  -2   17.28    0.23
   0  -1  -2   17.19    0.22
   0   1   3    0.90    0.04
   0  -1  -3    0.97    0.10
   0  -1  -3    0.89    0.08
   0   1   4    5.13    0.06
   0  -1  -4    5.32    0.15
   0  -1  -4    5.05    0.09
   0   1   5   12.46    0.12
   0  -1  -5   12.36    0.23
   0  -1  -6    5.37    0.19
   0  -1  -7    1.85    0.26
   0  -1  -8    0.48    0.18
   0  -1  -9    0.88    0.21
   0  -1 -10    0.05    0.22
   0  -1 -11   -0.10    0.24
   0  -1 -12    0.51    0.28
   0   2 -11   -0.11    0.24
   0   2 -10    0.91    0.23
   0   2  -8   15.95    0.37
   0   2  -8   14.78    0.22
   0   2  -8   15.45    0.20
   0   2  -7   15.26    0.33
   0   2  -7   15.12    0.24
   0   2  -7   15.29    0.20
   0   2  -6    1.46    0.15
   0   2  -6    1.89    0.10
   0   2  -6    1.63    0.06
   0   2  -5    2.53    0.14
   0   2  -5    2.74    0.11
   0   2  -5    2.69    0.07
   0   2  -4    1.17    0.16
   0   2  -4    1.18    0.06
   0   2  -3    2.64    0.10
   0   2  -3    2.72    0.08
   0   2  -2   58.04    0.64
   0   2  -2   59.55    0.69
   0   2  -1   11.30    0.15
   0   2   1   11.53    0.25
   0  -2  -1   12.01    0.14
   0   2   2    6.88    0.18
   0  -2  -2    6.81    0.12
   0   2   3   68.63    0.75
   0  -2  -3   69.50    0.75
   0   2   4   15.62    0.21
   0  -2  -4   15.68    0.25
   0   2   5    0.65    0.06
   0  -2  -5    0.59    0.10
   0   2   6    0.76    0.03
   0  -2  -6    0.86    0.12
   0   2   7    2.50    0.03
   0  -2  -7    2.70    0.16
   0  -2  -8    4.18    0.21
   0  -2  -9    2.48    0.34
   0  -2 -10    1.23    0.23
   0  -2 -11   -0.17    0.25
   0  -2 -12    0.85    0.29
   0   3 -10    0.50    0.34
   0   3  -9    0.78    0.20
   0   3  -9    0.60    0.08
   0   3  -8   10.80    0.31
   0   3  -8   10.69    0.23
   0   3  -8   10.92    0.18
   0   3  -7   39.51    0.62
   0   3  -7   38.56    0.61
   0   3  -7   38.22    0.47
   0   3  -6    2.54    0.16
   0   3  -6    2.50    0.21
   0   3  -6    2.65    0.09
   0   3  -5    1.78    0.12
   0   3  -5    2.16    0.19
   0   3  -5    2.04    0.09
   0   3  -4    0.84    0.09
   0   3  -4    1.02    0.11
   0   3  -4    0.88    0.08
   0   3  -3    3.46    0.14
   0   3  -3    3.44    0.17
   0   3  -2   14.36    0.20
   0   3  -2   14.06    0.24
   0   3  -1    7.58    0.11
   0   3   0    6.35    0.07
   0   3   0    6.43    0.22
   0   3   1    5.72    0.21
   0   3   2    7.87    0.22
   0  -3  -2    7.57    0.11
   0   3   3   20.72    0.33
   0  -3  -3   21.03    0.27
   0   3   4    5.52    0.20
   0  -3  -4    5.30    0.13
   0   3   5    6.25    0.17
   0  -3  -5    6.19    0.15
   0   3   6    0.03    0.05
   0  -3  -6    0.10    0.09
   0   3   7    5.28    0.12
   0   3   7    5.62    0.10
   0  -3  -7    5.52    0.18
   0   3   8    1.77    0.04
   0  -3  -8    2.07    0.25
   0  -3  -9    6.34    0.26
   0  -3 -10    1.83    0.22
   0  -3 -11    0.44    0.35
   0  -3 -12    0.16    0.24
   0   4 -10    0.01    0.20
   0   4  -9    0.83    0.31
   0   4  -8   -0.12    0.16
   0   4  -8    0.23    0.13
   0   4  -8    0.27    0.12
   0   4  -7    0.08    0.13
   0   4  -7   -0.02    0.13
   0   4  -7    0.03    0.08
   0   4  -6   15.10    0.30
   0   4  -6   15.54    0.33
   0   4  -6   15.50    0.26
   0   4  -5    0.47    0.10
   0   4  -5    0.30    0.13
   0   4  -5    0.44    0.09
   0   4  -4   42.29    0.53
   0   4  -4   41.68    0.68
   0   4  -4   42.29    0.60
   0   4  -3    2.81    0.13
   0   4  -3    2.66    0.18
   0   4  -3    2.63    0.13
   0   4  -2   37.80    0.45
   0   4  -2   37.17    0.56
   0   4  -2   38.36    0.51
   0   4  -1   22.33    0.24
   0   4  -1   20.65    0.39
   0   4   0   60.73    0.81
   0   4   1   10.77    0.29
   0   4   2    0.61    0.17
   0  -4  -2    0.71    0.05
   0   4   3    2.25    0.17
   0  -4  -3    2.43    0.07
   0   4   4    3.83    0.24
   0  -4  -4    4.02    0.11
   0   4   5   34.97    0.49
   0  -4  -5   35.18    0.46
   0   4   6    2.15    0.11
   0  -4  -6    1.95    0.12
   0   4   7    2.65    0.10
   0  -4  -7    2.41    0.14
   0   4   8    6.70    0.13
   0   4   8    6.77    0.13
   0  -4  -8    7.01    0.23
   0   4   9    7.46    0.14
   0   4   9    7.21    0.13
   0  -4  -9    7.44    0.26
   0  -4 -10    4.86    0.35
   0  -4 -11    0.43    0.20
   0  -4 -12    0.10    0.21
   0   5  -9    0.16    0.17
   0   5  -8   -0.14    0.14
   0   5  -8    0.01    0.15
   0   5  -8    0.02    0.14
   0   5  -7    0.19    0.20
   0   5  -7    0.48    0.16
   0   5  -7    0.12    0.10
   0   5  -6    0.06    0.11
   0   5  -6    0.10    0.15
   0   5  -6    0.09    0.10
   0   5  -5    0.29    0.09
   0   5  -5    0.01    0.16
   0   5  -5    0.18    0.18
   0   5  -4    1.20    0.20
   0   5  -4    1.45    0.21
   0   5  -3    0.11    0.10
   0   5  -3    0.15    0.18
   0   5  -3    0.32    0.19
   0   5  -2    4.09    0.09
   0   5  -2    3.93    0.23
   0   5  -2    4.41    0.24
   0   5  -1    3.48    0.07
   0   5  -1    3.48    0.23
   0   5  -1    3.69    0.17
   0   5   0   52.97    0.77
   0   5   1    7.00    0.27
   0   5   2    1.37    0.30
   0   5   3    6.02    0.23
   0  -5  -3    6.12    0.10
   0   5   4   14.14    0.32
   0  -5  -4   13.87    0.20
   0   5   5    3.41    0.18
   0  -5  -5    3.07    0.11
   0   5   6    0.88    0.13
   0  -5  -6    0.70    0.10
   0   5   7   13.68    0.27
   0  -5  -7   14.08    0.33
   0   5   8    0.98    0.10
   0   5   8    1.21    0.12
   0  -5  -8    1.19    0.14
   0   5   9    0.75    0.08
   0   5   9    0.54    0.07
   0  -5  -9    0.60    0.15
   0   5  10    0.03    0.05
   0   5  10    0.05    0.06
   0  -5 -10    0.18    0.16
   0  -5 -11    0.65    0.20
   0  -5 -12    0.09    0.20
   0   6  -8    0.27    0.23
   0   6  -8    0.43    0.18
   0   6  -8    0.28    0.12
   0   6  -7    0.40    0.13
   0   6  -7    0.72    0.29
   0   6  -7    0.41    0.13
   0   6  -6    2.31    0.14
   0   6  -6    2.38    0.22
   0   6  -6    2.67    0.24
   0   6  -5   -0.05    0.10
   0   6  -5   -0.08    0.19
   0   6  -5   -0.16    0.21
   0   6  -4    1.20    0.09
   0   6  -4    1.44    0.23
   0   6  -4    1.20    0.24
   0   6  -3    1.62    0.08
   0   6  -3    1.73    0.24
   0   6  -3    1.57    0.17
   0   6  -2    0.88    0.05
   0   6  -2    1.10    0.22
   0   6  -2    0.84    0.15
   0   6  -1    0.13    0.20
   0   6  -1    0.12    0.14
   0   6   0    2.09    0.24
   0   6   0    2.01    0.18
   0   6   1    4.24    0.39
   0   6   2    1.03    0.21
   0   6   3    5.33    0.26
   0   6   4    0.29    0.18
   0  -6  -4    0.02    0.06
   0   6   5    6.28    0.26
   0  -6  -5    5.90    0.13
   0   6   6    0.94    0.17
   0  -6  -6    0.78    0.09
   0   6   7   12.92    0.39
   0   6   7   12.81    0.26
   0  -6  -7   12.35    0.25
   0   6   8    0.76    0.13
   0   6   8    0.75    0.15
   0  -6  -8    0.75    0.19
   0   6   9    0.21    0.10
   0   6   9    0.19    0.13
   0  -6  -9    0.42    0.20
   0   6  10    0.23    0.09
   0  -6 -10    0.62    0.15
   0  -6 -11    0.66    0.18
   0   7  -7    2.83    0.17
   0   7  -7    3.16    0.27
   0   7  -7    3.07    0.20
   0   7  -6    0.32    0.11
   0   7  -6    0.21    0.22
   0   7  -6    0.39    0.16
   0   7  -5    0.24    0.10
   0   7  -5    0.11    0.23
   0   7  -5    0.09    0.16
   0   7  -4    0.20    0.12
   0   7  -4    0.23    0.25
   0   7  -4    0.28    0.17
   0   7  -3    0.54    0.06
   0   7  -3    0.54    0.26
   0   7  -3    0.59    0.18
   0   7  -2    0.46    0.03
   0   7  -2    0.51    0.25
   0   7  -2    0.48    0.18
   0   7  -1    0.71    0.27
   0   7  -1    1.05    0.18
   0   7   0    1.03    0.26
   0   7   0    0.83    0.18
   0   7   1    0.02    0.25
   0   7   1    0.12    0.17
   0   7   2    2.21    0.27
   0   7   2    2.25    0.19
   0   7   3   25.35    0.54
   0   7   4    0.41    0.21
   0   7   5    0.91    0.22
   0  -7  -5    0.73    0.06
   0   7   6    6.29    0.28
   0   7   6    6.62    0.21
   0  -7  -6    6.23    0.15
   0   7   7   -0.23    0.17
   0   7   7    0.14    0.11
   0  -7  -7    0.04    0.08
   0   7   8   -0.09    0.16
   0   7   8   -0.01    0.10
   0  -7  -8    0.06    0.10
   0   7   9    1.10    0.15
   0  -7  -9    1.53    0.21
   0   7  10    0.29    0.17
   0   7  10    0.01    0.08
   0  -7 -10    0.11    0.21
   0  -7 -11    0.13    0.14
   0   8  -6    5.79    0.36
   0   8  -6    5.76    0.28
   0   8  -5    0.45    0.28
   0   8  -5    0.26    0.19
   0   8  -4    0.32    0.10
   0   8  -4    0.38    0.27
   0   8  -4    0.14    0.19
   0   8  -3    0.01    0.03
   0   8  -3    0.01    0.40
   0   8  -3   -0.07    0.18
   0   8  -2   -0.06    0.27
   0   8  -2    0.04    0.19
   0   8  -1    9.17    0.41
   0   8  -1    9.19    0.33
   0   8   0    1.62    0.31
   0   8   0    1.97    0.22
   0   8   1    0.05    0.27
   0   8   1   -0.10    0.31
   0   8   2    1.23    0.29
   0   8   2    1.07    0.20
   0   8   3    5.83    0.35
   0   8   3    5.96    0.25
   0   8   4   16.18    0.64
   0   8   4   16.36    0.38
   0   8   5    1.56    0.27
   0   8   5    1.66    0.17
   0   8   6    0.45    0.23
   0   8   6    0.69    0.16
   0  -8  -6    0.71    0.07
   0   8   7    0.13    0.20
   0   8   7    0.56    0.21
   0   8   8    0.35    0.18
   0   8   8    0.08    0.13
   0  -8  -8    0.07    0.08
   0   8   9    0.69    0.18
   0   8   9   -0.01    0.11
   0  -8  -9    0.15    0.10
   0   8  10    0.14    0.16
   0  -8 -10    0.14    0.18
   0   9  -4    2.94    0.37
   0   9  -4    2.87    0.40
   0   9  -3    0.72    0.31
   0   9  -3   -0.26    0.21
   0   9  -2    0.73    0.32
   0   9  -2    0.55    0.23
   0   9  -1    0.21    0.33
   0   9  -1    0.16    0.22
   0   9   0    0.55    0.34
   0   9   0    0.91    0.25
   0   9   1    0.84    0.34
   0   9   1    0.77    0.23
   0   9   2    1.81    0.34
   0   9   2    1.56    0.25
   0   9   3    1.71    0.33
   0   9   3    1.36    0.35
   0   9   4    0.76    0.31
   0   9   4    1.21    0.31
   0   9   5    3.09    0.34
   0   9   5    2.87    0.31
   0   9   6    0.07    0.26
   0   9   6    0.25    0.16
   0   9   7    0.22    0.24
   0   9   7    0.40    0.16
   0   9   8    0.35    0.23
   0   9   8    0.66    0.24
   0   9   9   -0.03    0.12
   0  -9  -9    0.03    0.09
   0  10  -2    0.12    0.58
   0  10  -2    1.00    0.26
   0  10  -1    0.95    0.38
   0  10  -1    0.60    0.26
   0  10   0   -0.22    0.38
   0  10   0    0.68    0.25
   0  10   1    3.40    0.40
   0  10   1    2.92    0.45
   0  10   2    0.83    0.56
   0  10   2    0.90    0.26
   0  10   3    1.16    0.37
   0  10   3    1.61    0.26
   0  10   4    1.70    0.36
   0  10   4    1.18    0.23
   0  10   5    0.36    0.30
   0  10   5    0.04    0.19
   0  10   6    0.69    0.30
   0  10   6    0.52    0.19
   0  10   7    0.63    0.29
   0  10   7    0.77    0.30
   0  10   8    0.06    0.25
   0  10   8   -0.06    0.14
   0  11   1   -0.24    0.41
   0  11   1   -0.02    0.27
   0  11   2    0.70    0.39
   0  11   2    0.09    0.26
   0  11   3    0.39    0.40
   0  11   3    0.52    0.27
   0  11   4    1.03    0.58
   0  11   4    0.46    0.25
   0  11   5    0.13    0.34
   0  11   5    0.19    0.22
  -1  10   6   -0.04    0.31
  -1  10   6    0.13    0.19
  -1  10   5   -0.26    0.33
  -1  10   5    0.33    0.30
  -1  10   4    0.53    0.36
  -1  10   4    0.37    0.34
  -1  10   3    0.91    0.38
  -1  10   3    0.78    0.38
  -1  10   2    0.00    0.36
  -1  10   2   -0.19    0.39
  -1  10   1    0.15    0.39
  -1  10   1    0.26    0.27
  -1  10   0    0.26    0.60
  -1  10   0   -0.01    0.26
  -1  10  -1   -0.31    0.57
  -1  10  -1    0.06    0.26
  -1   9   8    1.12    0.25
  -1   9   8   -0.04    0.14
  -1   9   7    0.12    0.26
  -1   9   7    0.23    0.17
  -1   9   6    0.45    0.29
  -1   9   6    0.59    0.18
  -1   9   5    0.13    0.47
  -1   9   5   -0.14    0.17
  -1   9   4    0.17    0.32
  -1   9   4    0.42    0.19
  -1   9   3    4.25    0.57
  -1   9   3    4.49    0.27
  -1   9   2    0.76    0.35
  -1   9   2    0.61    0.23
  -1   9   1    2.88    0.39
  -1   9   1    3.07    0.28
  -1   9   0    0.27    0.33
  -1   9   0   -0.05    0.37
  -1   9  -1   -0.10    0.33
  -1   9  -1    0.16    0.24
  -1   9  -2    0.46    0.36
  -1   9  -2    0.95    0.25
  -1   9  -3    0.35    0.33
  -1   9  -3   -0.01    0.22
  -1   9  -4    1.45    0.58
  -1   9  -4    1.29    0.39
   1  -8  -9    0.08    0.15
  -1   8   9    0.75    0.19
  -1   8   9    0.07    0.11
   1  -8  -8    0.00    0.08
  -1   8   8    0.27    0.19
  -1   8   8   -0.11    0.12
  -1   8   7    0.61    0.22
  -1   8   7    0.21    0.14
  -1   8   6    1.01    0.26
  -1   8   6    1.54    0.16
  -1   8   5    4.39    0.35
  -1   8   5    4.61    0.22
  -1   8   4    4.92    0.51
  -1   8   4    4.68    0.23
  -1   8   3    1.37    0.30
  -1   8   3    1.20    0.19
  -1   8   2    0.97    0.30
  -1   8   2    0.59    0.20
  -1   8   1    0.31    0.30
  -1   8   1    0.12    0.20
  -1   8   0    0.20    0.30
  -1   8   0    0.13    0.21
  -1   8  -1    0.63    0.31
  -1   8  -1    0.53    0.35
  -1   8  -2    0.95    0.31
  -1   8  -2    0.27    0.21
  -1   8  -3    0.21    0.49
  -1   8  -3    0.41    0.33
  -1   8  -4    0.39    0.30
  -1   8  -4    0.10    0.20
  -1   8  -5    0.95    0.33
  -1   8  -5    1.15    0.22
  -1   8  -6    3.22    0.24
   1  -7 -10    0.14    0.12
   1  -7  -9    2.04    0.16
  -1   7   9    2.48    0.26
   1  -7  -8    0.09    0.10
  -1   7   8    0.00    0.16
  -1   7   8   -0.03    0.10
   1  -7  -7    0.74    0.10
  -1   7   7    0.79    0.20
  -1   7   7    0.84    0.13
   1  -7  -6    0.80    0.08
  -1   7   6    0.89    0.34
  -1   7   6    0.91    0.14
  -1   7   5    0.11    0.21
  -1   7   5    0.36    0.21
  -1   7   4    3.53    0.29
  -1   7   4    3.62    0.19
  -1   7   3    0.72    0.39
  -1   7   3    0.29    0.16
  -1   7   2    9.74    0.39
  -1   7   2   10.52    0.29
  -1   7   1    0.70    0.26
  -1   7   1   -0.04    0.28
  -1   7   0    3.08    0.31
  -1   7   0    3.28    0.21
  -1   7  -1    0.42    0.43
  -1   7  -1    0.38    0.18
  -1   7  -2    0.20    0.27
  -1   7  -2    0.12    0.18
  -1   7  -3    2.85    0.09
  -1   7  -3    2.98    0.31
  -1   7  -3    2.59    0.22
  -1   7  -4    0.46    0.12
  -1   7  -4    0.14    0.27
  -1   7  -4    0.71    0.18
  -1   7  -5    0.02    0.09
  -1   7  -5    0.46    0.40
  -1   7  -5    0.19    0.17
  -1   7  -6    0.20    0.11
  -1   7  -6    0.27    0.26
  -1   7  -6    0.27    0.17
  -1   7  -7    0.15    0.13
  -1   7  -7    0.51    0.36
  -1   7  -7    0.08    0.26
   1  -6 -11    0.28    0.18
   1  -6 -10    0.01    0.15
   1  -6  -9    1.08    0.15
  -1   6   9    1.24    0.13
   1  -6  -8   -0.06    0.17
  -1   6   8   -0.04    0.19
  -1   6   8   -0.01    0.09
   1  -6  -7    1.15    0.11
  -1   6   7    0.79    0.17
  -1   6   7    1.27    0.11
   1  -6  -6    8.50    0.23
  -1   6   6    8.30    0.38
  -1   6   6    8.45    0.21
   1  -6  -5    0.02    0.06
  -1   6   5    0.42    0.28
  -1   6   5   -0.06    0.11
  -1   6   4    0.05    0.19
  -1   6   4    0.32    0.12
  -1   6   3    1.61    0.24
  -1   6   3    1.84    0.16
  -1   6   2   27.39    0.66
  -1   6   2   27.51    0.46
  -1   6   1    0.17    0.21
  -1   6   1    0.19    0.15
  -1   6   0    1.04    0.23
  -1   6   0    0.57    0.26
  -1   6  -1    0.77    0.23
  -1   6  -1    0.50    0.16
  -1   6  -2    1.21    0.08
  -1   6  -2    1.55    0.24
  -1   6  -2    1.55    0.27
  -1   6  -3    2.14    0.12
  -1   6  -3    2.39    0.25
  -1   6  -3    2.06    0.19
  -1   6  -4    0.13    0.08
  -1   6  -4   -0.16    0.23
  -1   6  -4    0.00    0.15
  -1   6  -5    0.36    0.10
  -1   6  -5    0.07    0.23
  -1   6  -5    0.26    0.16
  -1   6  -6    0.23    0.18
  -1   6  -6    0.74    0.22
  -1   6  -6   -0.10    0.15
  -1   6  -7    0.00    0.12
  -1   6  -7    0.17    0.20
  -1   6  -7   -0.22    0.14
  -1   6  -8    0.23    0.23
  -1   6  -8    0.48    0.21
  -1   6  -8    0.34    0.14
   1  -5 -11    1.27    0.21
   1  -5 -10    2.67    0.30
  -1   5   9    3.94    0.12
  -1   5   9    3.44    0.10
   1  -5  -8    0.08    0.19
  -1   5   8    0.06    0.09
  -1   5   8    0.04    0.10
   1  -5  -7    3.95    0.16
  -1   5   7    4.01    0.17
  -1   5   7    4.09    0.17
   1  -5  -6    0.94    0.10
  -1   5   6    0.89    0.14
  -1   5   6    0.99    0.10
   1  -5  -5   13.54    0.23
  -1   5   5   13.23    0.31
  -1   5   5   13.60    0.25
   1  -5  -4    2.52    0.09
  -1   5   4    2.56    0.20
  -1   5   4    2.54    0.13
  -1   5   3    1.53    0.28
  -1   5   3    1.44    0.13
  -1   5   2    9.64    0.14
  -1   5   2    9.43    0.29
  -1   5   2    9.42    0.22
  -1   5   1    1.56    0.04
  -1   5   1    1.59    0.14
  -1   5   0   12.11    0.13
  -1   5   0   12.06    0.26
  -1   5  -1   12.89    0.27
  -1   5  -2    7.68    0.13
  -1   5  -2    7.70    0.22
  -1   5  -3    6.20    0.13
  -1   5  -3    6.11    0.21
  -1   5  -4   28.45    0.44
  -1   5  -4   28.85    0.47
  -1   5  -5    0.28    0.10
  -1   5  -5    0.22    0.19
  -1   5  -5    0.23    0.14
  -1   5  -6    5.86    0.25
  -1   5  -6    5.80    0.35
  -1   5  -6    6.23    0.20
  -1   5  -7    0.19    0.12
  -1   5  -7   -0.09    0.17
  -1   5  -7   -0.01    0.12
  -1   5  -8    0.12    0.22
  -1   5  -8    0.07    0.18
  -1   5  -8    0.27    0.12
  -1   5  -9    0.73    0.17
  -1   5  -9    0.49    0.19
  -1   5  -9    0.37    0.12
   1  -4 -11    0.10    0.19
   1  -4 -10    0.04    0.17
   1  -4  -9   10.09    0.30
  -1   4   9   10.67    0.17
  -1   4   9   10.25    0.14
   1  -4  -8    4.66    0.20
  -1   4   8    4.55    0.12
  -1   4   8    4.86    0.11
   1  -4  -7    0.59    0.12
  -1   4   7    0.24    0.13
  -1   4   7    0.28    0.06
   1  -4  -6    9.01    0.21
  -1   4   6    9.34    0.21
  -1   4   6    8.61    0.17
   1  -4  -5   32.52    0.48
  -1   4   5   31.88    0.53
  -1   4   5   32.16    0.43
   1  -4  -4    6.57    0.17
  -1   4   4    6.31    0.14
  -1   4   4    6.01    0.20
  -1   4   4    6.44    0.15
   1  -4  -3    1.81    0.10
  -1   4   3    1.70    0.08
  -1   4   3    1.68    0.17
  -1   4   3    1.84    0.11
  -1   4   2    0.23    0.07
  -1   4   2    0.27    0.10
  -1   4   1    3.70    0.06
  -1   4   1    3.87    0.15
  -1   4   0   66.11    0.80
  -1   4  -1   11.84    0.24
  -1   4  -2    0.22    0.18
  -1   4  -3    6.09    0.18
  -1   4  -4    1.55    0.09
  -1   4  -4    1.40    0.12
  -1   4  -5  110.67    1.32
  -1   4  -5  109.80    1.33
  -1   4  -6    9.06    0.22
  -1   4  -6    8.44    0.26
  -1   4  -6    8.60    0.21
  -1   4  -7    2.93    0.16
  -1   4  -7    3.06    0.27
  -1   4  -7    3.18    0.19
  -1   4  -8    0.09    0.15
  -1   4  -8    0.49    0.25
  -1   4  -8    0.13    0.10
  -1   4  -9    4.59    0.35
  -1   4  -9    4.11    0.22
  -1   4  -9    4.74    0.20
  -1   4 -10    0.04    0.19
   1  -3 -12   -0.02    0.23
   1  -3 -11    0.51    0.22
   1  -3 -10    1.77    0.21
   1  -3  -9    1.49    0.19
   1  -3  -8    6.09    0.23
  -1   3   8    5.76    0.08
  -1   3   8    5.95    0.08
   1  -3  -7    0.92    0.14
  -1   3   7    1.07    0.06
  -1   3   7    1.04    0.05
   1  -3  -6    1.82    0.13
  -1   3   6    1.74    0.11
  -1   3   6    1.83    0.06
   1  -3  -5   30.73    0.48
  -1   3   5   29.33    0.40
  -1   3   5   29.60    0.36
   1  -3  -4   22.32    0.32
  -1   3   4   21.85    0.31
  -1   3   4   21.58    0.34
  -1   3   4   22.77    0.30
   1  -3  -3    3.98    0.14
  -1   3   3    3.77    0.11
  -1   3   3    3.72    0.11
   1  -3  -2    1.22    0.06
  -1   3   2    1.03    0.10
  -1   3   2    1.18    0.10
  -1   3   1    1.31    0.05
  -1   3   1    1.35    0.11
  -1   3   0   28.03    0.45
  -1   3  -1    4.31    0.15
  -1   3  -2    0.09    0.10
  -1   3  -3    9.30    0.20
  -1   3  -4    0.12    0.09
  -1   3  -5   10.45    0.21
  -1   3  -5   10.52    0.20
  -1   3  -6   25.88    0.42
  -1   3  -6   26.08    0.38
  -1   3  -7    4.98    0.22
  -1   3  -7    5.22    0.20
  -1   3  -7    5.33    0.19
  -1   3  -8    3.29    0.22
  -1   3  -8    3.38    0.18
  -1   3  -8    3.10    0.11
  -1   3  -9   -0.28    0.18
  -1   3  -9   -0.06    0.12
  -1   3 -10    2.97    0.38
   1  -2 -12    0.16    0.26
   1  -2 -11    0.12    0.23
   1  -2 -10    1.07    0.22
   1  -2  -9    0.46    0.19
   1  -2  -8    2.52    0.19
   1  -2  -7    3.36    0.18
   1  -2  -6    0.15    0.11
  -1   2   6    0.14    0.04
  -1   2   6    0.09    0.03
   1  -2  -5    0.77    0.11
  -1   2   5    0.63    0.11
  -1   2   5    0.70    0.05
  -1   2   5    0.59    0.04
   1  -2  -4    7.77    0.17
  -1   2   4    7.32    0.17
  -1   2   4    7.68    0.18
  -1   2   4    7.36    0.14
   1  -2  -3    8.71    0.16
  -1   2   3    8.67    0.17
  -1   2   3    8.40    0.14
   1  -2  -2  306.80    3.13
  -1   2   2  305.24    3.12
  -1   2   2  313.56    3.24
  -1   2   1  133.81    1.30
  -1   2   1  136.65    1.40
   1  -2   0    1.77    0.12
  -1   2   0    2.00    0.12
   1  -2   1    2.95    0.13
  -1   2  -1    2.90    0.13
   1  -2   2    1.21    0.11
  -1   2  -2    1.25    0.10
   1  -2   3   25.19    0.34
  -1   2  -3   25.75    0.34
  -1   2  -4    0.44    0.08
  -1   2  -5    0.43    0.10
  -1   2  -5    0.43    0.07
  -1   2  -6    2.17    0.22
  -1   2  -6    1.90    0.12
  -1   2  -7   12.98    0.30
  -1   2  -7   12.40    0.20
  -1   2  -8    4.01    0.22
  -1   2  -8    3.97    0.15
  -1   2  -8    4.05    0.11
  -1   2  -9    0.49    0.32
  -1   2  -9    0.90    0.10
  -1   2  -9    0.78    0.10
  -1   2 -10    0.74    0.22
  -1   2 -11    0.23    0.24
   1  -1 -12    2.17    0.32
   1  -1 -11   -0.44    0.40
   1  -1 -10    0.18    0.21
   1  -1  -9    2.73    0.24
   1  -1  -8    0.66    0.18
   1  -1  -7    0.27    0.14
   1  -1  -6   11.75    0.26
   1  -1  -5    0.68    0.11
   1  -1  -4   29.58    0.46
  -1   1   4   28.73    0.46
  -1   1   4   28.41    0.29
  -1   1   4   29.18    0.28
   1  -1  -3  213.88    2.23
  -1   1   3  211.12    2.21
  -1   1   3  211.32    2.02
   1  -1  -2 1451.07   16.21
   1  -1  -2 1419.89   15.57
  -1   1   2 1447.07   16.10
  -1   1   2 1489.41   16.27
   1  -1  -1   72.99    0.72
   1  -1  -1   69.76    0.75
  -1   1   1   71.15    0.72
  -1   1   1   71.08    0.72
   1  -1   0   13.37    0.27
  -1   1   0   13.64    0.21
   1  -1   1  105.86    1.08
  -1   1  -1  107.99    1.09
   1  -1   2   31.27    0.42
  -1   1  -2   31.53    0.37
   1  -1   3    2.20    0.08
  -1   1  -3    2.32    0.09
   1  -1   4    0.39    0.06
  -1   1  -4    0.31    0.06
   1  -1   5    0.49    0.06
  -1   1  -5    0.54    0.08
  -1   1  -6    0.20    0.12
  -1   1  -6    0.26    0.05
  -1   1  -7    0.13    0.14
  -1   1  -7    0.03    0.05
  -1   1  -8    1.38    0.28
  -1   1  -8    1.01    0.06
  -1   1  -9    2.60    0.23
  -1   1  -9    2.51    0.09
  -1   1  -9    2.58    0.07
  -1   1 -10    0.25    0.22
  -1   1 -11    0.06    0.23
   1   0 -11    3.75    0.47
   1   0 -10   -0.39    0.24
   1   0  -9    0.47    0.21
   1   0  -8   -0.12    0.29
   1   0  -7    1.54    0.18
   1   0  -6    4.79    0.19
   1   0  -5   10.40    0.23
   1   0  -4    0.04    0.11
  -1   0   4    0.02    0.11
   1   0  -3    6.80    0.24
  -1   0   3    6.68    0.24
   1   0  -2   15.41    0.24
   1   0  -2   15.68    0.16
  -1   0   2   15.25    0.30
  -1   0   2   14.88    0.15
   1   0  -1    1.00    0.14
   1   0  -1    0.88    0.05
  -1   0   1    0.93    0.09
  -1   0   1    0.95    0.06
   1   0   1  114.11    1.09
  -1   0  -1  111.74    1.07
   1   0   2   44.78    0.47
  -1   0  -2   45.55    0.47
   1   0   3   74.27    0.74
   1   0   4    6.26    0.10
  -1   0  -4    6.33    0.13
   1   0   5    0.40    0.06
  -1   0  -5    0.41    0.05
   1   0   6    0.55    0.04
  -1   0  -6    0.53    0.13
  -1   0  -6    0.63    0.07
  -1   0  -7    0.56    0.14
  -1   0  -7    0.20    0.07
  -1   0  -8   -0.10    0.16
  -1   0  -8    0.02    0.04
  -1   0  -9    0.23    0.20
  -1   0 -10    1.78    0.37
  -1   0 -11    0.23    0.25
  -1   0 -12    0.43    0.28
   1   1 -11   -0.09    0.25
   1   1 -10    2.69    0.28
   1   1  -9   17.77    0.43
   1   1  -8    4.19    0.35
   1   1  -7    0.22    0.16
   1   1  -6    1.33    0.15
   1   1  -5    2.34    0.14
   1   1  -5    2.29    0.04
   1   1  -5    2.27    0.03
   1   1  -4    4.57    0.16
   1   1  -4    4.78    0.08
   1   1  -4    4.84    0.06
  -1  -1   4    4.75    0.16
   1   1  -3    0.10    0.09
   1   1  -3   -0.01    0.04
  -1  -1   3   -0.11    0.10
   1   1  -2   34.29    0.41
   1   1  -2   33.76    0.35
  -1  -1   2   34.04    0.41
  -1  -1   2   33.94    0.36
   1   1  -1   22.58    0.32
   1   1  -1   21.97    0.25
  -1  -1   1   22.04    0.27
  -1  -1   1   21.89    0.26
   1   1   2   86.21    0.85
  -1  -1  -2   85.03    0.85
   1   1   3   28.46    0.33
  -1  -1  -3   29.30    0.33
   1   1   4    5.05    0.08
  -1  -1  -4    4.67    0.12
   1   1   5   14.87    0.19
  -1  -1  -5   14.01    0.20
   1   1   6   47.82    0.49
  -1  -1  -6   48.43    0.64
  -1  -1  -6   49.31    0.54
   1   1   7    2.81    0.07
  -1  -1  -7    2.73    0.18
  -1  -1  -7    2.70    0.09
  -1  -1  -8    0.51    0.17
  -1  -1  -8    0.47    0.05
  -1  -1  -9    0.63    0.20
  -1  -1 -10    3.41    0.39
  -1  -1 -11    1.63    0.25
  -1  -1 -12    0.04    0.26
   1   2 -11    0.10    0.25
   1   2 -10    5.29    0.30
   1   2  -9    8.17    0.31
   1   2  -8    5.19    0.25
   1   2  -7    2.06    0.27
   1   2  -7    1.68    0.04
   1   2  -6    1.19    0.15
   1   2  -6    1.12    0.08
   1   2  -6    1.11    0.04
   1   2  -5    1.29    0.13
   1   2  -5    1.21    0.07
   1   2  -5    1.31    0.07
   1   2  -4   -0.11    0.10
   1   2  -4    0.18    0.06
   1   2  -4    0.08    0.04
   1   2  -3    4.69    0.14
   1   2  -3    4.62    0.12
  -1  -2   3    4.57    0.14
   1   2  -2   38.16    0.44
   1   2  -2   38.55    0.46
  -1  -2   2   37.94    0.44
   1   2  -1   38.29    0.41
   1   2  -1   37.47    0.47
  -1  -2   1   38.55    0.42
  -1  -2   1   38.68    0.54
   1   2   0    1.50    0.15
  -1  -2   0    1.52    0.07
  -1  -2   0    1.53    0.15
   1   2   1   40.82    0.51
  -1  -2  -1   42.08    0.62
   1   2   2   78.18    0.85
  -1  -2  -2   80.33    0.89
   1   2   3    0.87    0.08
  -1  -2  -3    0.83    0.10
   1   2   4   -0.03    0.05
  -1  -2  -4    0.00    0.07
   1   2   5   20.47    0.24
  -1  -2  -5   20.96    0.31
   1   2   6    0.03    0.05
  -1  -2  -6    0.08    0.11
  -1  -2  -6    0.23    0.09
   1   2   7   20.44    0.23
  -1  -2  -7   20.88    0.37
  -1  -2  -7   21.19    0.27
  -1  -2  -8    5.57    0.22
  -1  -2  -8    5.07    0.11
  -1  -2  -9   -0.12    0.17
  -1  -2 -10   -0.26    0.33
  -1  -2 -11    0.77    0.24
  -1  -2 -12    1.17    0.28
   1   3 -10    2.01    0.24
   1   3  -9    1.08    0.22
   1   3  -8    3.15    0.22
   1   3  -8    3.13    0.09
   1   3  -8    3.33    0.09
   1   3  -7   -0.06    0.16
   1   3  -7    0.18    0.07
   1   3  -7    0.12    0.05
   1   3  -6   52.66    0.80
   1   3  -6   53.49    0.70
   1   3  -6   54.46    0.64
   1   3  -5    3.87    0.16
   1   3  -5    4.00    0.14
   1   3  -5    4.16    0.13
   1   3  -4   10.97    0.26
   1   3  -4   10.73    0.25
   1   3  -4   10.92    0.21
   1   3  -3   12.07    0.20
   1   3  -3   11.40    0.22
   1   3  -2  209.47    2.17
   1   3  -2  206.32    2.27
  -1  -3   2  209.50    2.14
   1   3  -1    1.35    0.09
   1   3  -1    1.48    0.15
  -1  -3   1    1.37    0.08
   1   3   0   14.93    0.40
  -1  -3   0   15.83    0.18
  -1  -3   0   15.66    0.30
   1   3   1    2.28    0.19
  -1  -3  -1    2.69    0.30
   1   3   2    9.02    0.23
  -1  -3  -2    8.98    0.24
   1   3   3  161.32    1.75
  -1  -3  -3  165.49    1.88
   1   3   4   21.76    0.31
  -1  -3  -4   21.79    0.34
   1   3   5   10.55    0.18
  -1  -3  -5   11.06    0.20
  -1  -3  -5   10.52    0.26
   1   3   6    0.99    0.09
  -1  -3  -6    0.94    0.17
  -1  -3  -6    1.02    0.09
   1   3   7    2.81    0.08
  -1  -3  -7    2.81    0.16
  -1  -3  -7    2.90    0.10
   1   3   8   24.36    0.29
  -1  -3  -8   24.71    0.43
   1   3   9    0.26    0.04
  -1  -3  -9    0.10    0.17
  -1  -3 -10    3.11    0.25
  -1  -3 -11    0.31    0.21
  -1  -3 -12    0.26    0.25
   1   4 -10    0.53    0.22
   1   4  -9    0.56    0.20
   1   4  -8    2.47    0.30
   1   4  -8    2.14    0.17
   1   4  -8    2.18    0.09
   1   4  -7    1.20    0.16
   1   4  -7    1.07    0.12
   1   4  -7    1.16    0.08
   1   4  -6    8.07    0.22
   1   4  -6    7.99    0.21
   1   4  -6    7.85    0.16
   1   4  -5    6.45    0.18
   1   4  -5    6.90    0.19
   1   4  -5    6.89    0.15
   1   4  -4   24.75    0.35
   1   4  -4   24.76    0.40
   1   4  -4   25.31    0.39
   1   4  -3   40.33    0.49
   1   4  -3   40.78    0.58
   1   4  -2    6.31    0.12
   1   4  -2    6.55    0.21
   1   4  -1   49.01    0.52
   1   4  -1   49.56    0.69
   1   4   0   10.92    0.28
  -1  -4   0   11.32    0.12
   1   4   1    6.74    0.24
  -1  -4  -1    6.85    0.07
  -1  -4  -1    6.40    0.24
   1   4   2   37.92    0.56
  -1  -4  -2   38.39    0.56
   1   4   3    6.92    0.22
  -1  -4  -3    7.14    0.23
   1   4   4   25.74    0.40
  -1  -4  -4   25.64    0.33
  -1  -4  -4   26.07    0.42
   1   4   5    4.64    0.15
  -1  -4  -5    4.87    0.17
  -1  -4  -5    5.15    0.24
  -1  -4  -6    1.34    0.11
  -1  -4  -6    1.43    0.12
   1   4   7    9.33    0.21
  -1  -4  -7   10.04    0.29
   1   4   8   11.45    0.19
  -1  -4  -8   11.64    0.28
   1   4   9   14.26    0.21
  -1  -4  -9   13.61    0.42
   1   4  10    0.51    0.03
   1   4  10    0.46    0.05
  -1  -4 -10    0.70    0.18
  -1  -4 -11    0.71    0.32
  -1  -4 -12    0.73    0.23
   1   5  -9    0.00    0.18
   1   5  -8   -0.03    0.16
   1   5  -8    0.30    0.12
   1   5  -8   -0.01    0.08
   1   5  -7    0.38    0.14
   1   5  -7    0.97    0.21
   1   5  -7    0.68    0.09
   1   5  -6    0.04    0.11
   1   5  -6    0.37    0.20
   1   5  -6    0.23    0.14
   1   5  -5    9.11    0.25
   1   5  -5    8.73    0.25
   1   5  -5    8.32    0.19
   1   5  -4    5.38    0.14
   1   5  -4    5.27    0.22
   1   5  -4    5.43    0.16
   1   5  -3    0.94    0.08
   1   5  -3    1.05    0.17
   1   5  -2    2.41    0.08
   1   5  -2    2.46    0.20
   1   5  -1    3.74    0.07
   1   5  -1    3.97    0.21
   1   5   0    2.30    0.21
   1   5   1   45.02    0.66
   1   5   2    9.41    0.28
  -1  -5  -2    9.84    0.10
   1   5   3    4.53    0.22
  -1  -5  -3    4.54    0.08
   1   5   4    6.43    0.22
  -1  -5  -4    6.28    0.12
   1   5   5   37.91    0.63
  -1  -5  -5   38.04    0.48
   1   5   6    2.97    0.15
  -1  -5  -6    3.00    0.12
   1   5   7    1.18    0.17
  -1  -5  -7    1.00    0.12
   1   5   8    1.75    0.11
  -1  -5  -8    1.54    0.14
   1   5   9    1.22    0.14
  -1  -5  -9    0.95    0.17
   1   5  10    1.92    0.08
  -1  -5 -10    1.54    0.27
  -1  -5 -11    0.07    0.18
  -1  -5 -12    0.00    0.19
   1   6  -8    0.96    0.16
   1   6  -8    1.34    0.26
   1   6  -8    1.20    0.18
   1   6  -7    0.49    0.24
   1   6  -7    0.12    0.11
   1   6  -6    0.62    0.17
   1   6  -6    0.96    0.25
   1   6  -6    0.73    0.18
   1   6  -5    0.91    0.15
   1   6  -5    0.68    0.18
   1   6  -5    0.62    0.13
   1   6  -4    0.59    0.09
   1   6  -4    0.57    0.30
   1   6  -4    0.75    0.14
   1   6  -3    1.54    0.12
   1   6  -3    1.60    0.21
   1   6  -3    1.73    0.16
   1   6  -2    1.91    0.06
   1   6  -2    1.24    0.22
   1   6  -1    0.47    0.20
   1   6   0    9.15    0.31
   1   6   1   29.54    0.53
   1   6   2    5.25    0.37
   1   6   3    1.24    0.20
  -1  -6  -3    1.28    0.03
   1   6   4    7.45    0.26
  -1  -6  -4    7.30    0.12
   1   6   5    0.41    0.15
  -1  -6  -5   -0.01    0.09
   1   6   6    0.31    0.14
  -1  -6  -6    0.14    0.08
   1   6   7   24.75    0.44
  -1  -6  -7   24.32    0.38
   1   6   8    0.65    0.19
  -1  -6  -8    0.38    0.18
   1   6   9    3.38    0.15
  -1  -6  -9    3.30    0.18
   1   6  10    0.21    0.13
   1   6  10    0.09    0.07
  -1  -6 -10    0.18    0.15
  -1  -6 -11    0.20    0.26
  -1  -6 -12   -0.01    0.19
   1   7  -7    0.16    0.19
   1   7  -7    0.45    0.28
   1   7  -7    0.13    0.13
   1   7  -6    0.08    0.17
   1   7  -6    0.35    0.19
   1   7  -6    0.21    0.14
   1   7  -5    0.15    0.15
   1   7  -5   -0.11    0.20
   1   7  -5    0.29    0.23
   1   7  -4    0.13    0.08
   1   7  -4    0.35    0.22
   1   7  -4    0.31    0.24
   1   7  -3    2.38    0.09
   1   7  -3    2.49    0.26
   1   7  -3    2.72    0.19
   1   7  -2    0.40    0.04
   1   7  -2    0.38    0.23
   1   7  -2    0.47    0.17
   1   7  -1    0.31    0.23
   1   7   0    0.24    0.22
   1   7   1    1.05    0.24
   1   7   2   14.27    0.39
   1   7   3    1.00    0.22
   1   7   4    0.54    0.21
  -1  -7  -4    0.62    0.05
   1   7   5    3.83    0.36
  -1  -7  -5    3.59    0.12
   1   7   6    0.67    0.19
  -1  -7  -6    0.41    0.07
   1   7   7    3.03    0.20
  -1  -7  -7    2.34    0.17
   1   7   8   11.54    0.38
  -1  -7  -8   11.51    0.31
   1   7   9    1.81    0.16
  -1  -7  -9    2.06    0.15
   1   7  10    0.28    0.11
   1   7  10    0.03    0.09
  -1  -7 -10   -0.16    0.14
  -1  -7 -11    0.10    0.15
   1   8  -6    2.82    0.15
   1   8  -6    2.87    0.28
   1   8  -6    2.79    0.21
   1   8  -5    0.00    0.08
   1   8  -5   -0.10    0.37
   1   8  -5    0.20    0.17
   1   8  -4    0.32    0.07
   1   8  -4    0.68    0.25
   1   8  -4    0.12    0.18
   1   8  -3    0.66    0.27
   1   8  -3    0.41    0.19
   1   8  -2    0.66    0.42
   1   8  -2    0.59    0.31
   1   8  -1    5.48    0.50
   1   8  -1    5.30    0.26
   1   8   0    2.02    0.46
   1   8   1    1.21    0.29
   1   8   2    0.58    0.27
   1   8   3    6.22    0.35
   1   8   4    0.55    0.24
   1   8   5    2.58    0.27
  -1  -8  -5    2.06    0.06
   1   8   6    1.99    0.24
  -1  -8  -6    1.75    0.08
   1   8   7    5.34    0.28
  -1  -8  -7    5.04    0.14
   1   8   8    1.18    0.20
  -1  -8  -8    1.15    0.11
   1   8   9    0.39    0.17
   1   8   9    0.32    0.12
  -1  -8  -9    0.37    0.11
   1   8  10    0.53    0.22
   1   8  10    0.11    0.16
  -1  -8 -10    0.05    0.12
  -1  -8 -11   -0.01    0.13
   1   9  -5    0.58    0.28
   1   9  -5    0.52    0.21
   1   9  -4    0.67    0.47
   1   9  -4    0.43    0.32
   1   9  -3    0.74    0.31
   1   9  -3    1.63    0.21
   1   9  -2   -0.14    0.29
   1   9  -2    0.30    0.22
   1   9  -1    7.48    0.42
   1   9  -1    7.88    0.46
   1   9   0   -0.10    0.30
   1   9   0    0.45    0.22
   1   9   1    3.02    0.35
   1   9   1    3.09    0.25
   1   9   2    1.94    0.32
   1   9   3    3.05    0.34
   1   9   4    4.08    0.33
   1   9   5    2.56    0.31
   1   9   7   -0.02    0.22
  -1  -9  -7    0.06    0.09
   1   9   8    0.38    0.21
   1   9   8    0.24    0.15
  -1  -9  -8   -0.01    0.12
   1   9   9    0.00    0.19
   1   9   9   -0.03    0.13
  -1  -9  -9    0.20    0.09
   1   9  10    0.00    0.17
   1   9  10    0.13    0.12
  -1  -9 -10    0.14    0.11
   1  10  -3    0.94    0.33
   1  10  -3    0.39    0.24
   1  10  -2    0.56    0.34
   1  10  -2    0.42    0.24
   1  10  -1   -0.01    0.32
   1  10  -1   -0.01    0.23
   1  10   0    0.03    0.33
   1  10   0    0.15    0.24
   1  10   1    0.34    0.35
   1  10   1    0.67    0.26
   1  10   2    0.69    0.54
   1  10   2    0.90    0.26
   1  10   3    1.86    0.35
   1  10   3    1.90    0.25
   1  10   4   -0.04    0.31
   1  10   4    0.26    0.21
   1  10   5    0.80    0.47
   1  10   5    0.55    0.20
   1  10   6    0.91    0.29
   1  10   6    0.51    0.19
   1  10   7    0.09    0.28
   1  10   7    0.42    0.18
   1  10   8    0.74    0.38
   1  10   8   -0.02    0.17
   1  11   0    0.81    0.37
   1  11   0    0.31    0.28
   1  11   1   -0.03    0.37
   1  11   1    0.11    0.26
   1  11   2    0.82    0.37
   1  11   2   -0.11    0.27
   1  11   3    0.12    0.36
   1  11   3    0.65    0.42
   1  11   4    0.91    0.37
   1  11   4    1.02    0.26
   1  11   5   -0.33    0.34
   1  11   5    0.42    0.23
   1  11   6    0.73    0.34
   1  11   6    1.20    0.35
  -2  10   4    0.50    0.37
  -2  10   4    0.32    0.22
  -2  10   3    2.60    0.62
  -2  10   3    1.07    0.26
  -2  10   2    0.32    0.39
  -2  10   2    0.16    0.26
  -2  10   1    0.39    0.40
  -2  10   1    0.21    0.29
  -2  10   0    0.47    0.41
  -2  10   0    0.67    0.31
  -2   9   7    1.47    0.30
  -2   9   7    0.59    0.17
  -2   9   6    1.65    0.35
  -2   9   6    2.26    0.22
  -2   9   5    1.36    0.35
  -2   9   5    2.20    0.32
  -2   9   4    0.91    0.35
  -2   9   4    1.13    0.33
  -2   9   3   -0.41    0.33
  -2   9   3    0.18    0.20
  -2   9   2    1.70    0.58
  -2   9   2    1.46    0.38
  -2   9   1    1.18    0.41
  -2   9   1    1.22    0.41
  -2   9   0    1.61    0.40
  -2   9   0    1.06    0.26
  -2   9  -1   -0.29    0.36
  -2   9  -1    0.11    0.24
  -2   9  -2    0.52    0.39
  -2   9  -2    0.64    0.40
  -2   9  -3    1.07    0.60
  -2   9  -3    0.60    0.26
  -2   8   8    1.31    0.23
  -2   8   8   -0.11    0.12
  -2   8   7    0.51    0.24
  -2   8   7    0.16    0.15
  -2   8   6    0.23    0.25
  -2   8   6    0.07    0.15
  -2   8   5    0.78    0.29
  -2   8   5    1.22    0.18
  -2   8   4   15.50    0.51
  -2   8   4   15.61    0.40
  -2   8   3    3.58    0.36
  -2   8   3    3.50    0.24
  -2   8   2    1.01    0.31
  -2   8   2   -0.22    0.21
  -2   8   1   -0.64    0.50
  -2   8   1   -0.31    0.21
  -2   8   0    0.11    0.52
  -2   8   0    0.59    0.38
  -2   8  -1    3.33    0.57
  -2   8  -1    2.80    0.26
  -2   8  -2   -0.58    0.51
  -2   8  -2    0.38    0.22
  -2   8  -3   -0.22    0.34
  -2   8  -4    0.34    0.33
  -2   8  -4   -0.01    0.22
  -2   8  -5    0.95    0.34
  -2   8  -5    0.41    0.22
   2  -7  -9    0.03    0.11
  -2   7   9    0.03    0.09
   2  -7  -8    0.06    0.15
  -2   7   8    0.60    0.18
  -2   7   8    0.10    0.10
   2  -7  -7    0.01    0.09
  -2   7   7   -0.20    0.30
  -2   7   7   -0.11    0.12
  -2   7   6    0.67    0.33
  -2   7   6   -0.14    0.21
  -2   7   5    2.18    0.27
  -2   7   5    1.86    0.17
  -2   7   4    3.04    0.31
  -2   7   4    3.34    0.20
  -2   7   3    1.60    0.44
  -2   7   3    1.37    0.18
  -2   7   2    0.35    0.25
  -2   7   2   -0.09    0.17
  -2   7   1   -0.01    0.28
  -2   7   1    0.51    0.19
  -2   7   0    1.41    0.31
  -2   7   0    1.45    0.22
  -2   7  -1    8.93    0.41
  -2   7  -1    8.39    0.31
  -2   7  -2    0.10    0.04
  -2   7  -2   -0.10    0.28
  -2   7  -2    0.07    0.20
  -2   7  -3    0.58    0.10
  -2   7  -3    0.24    0.30
  -2   7  -3    0.45    0.32
  -2   7  -4    0.13    0.07
  -2   7  -4    0.07    0.28
  -2   7  -4   -0.03    0.19
  -2   7  -5    0.34    0.10
  -2   7  -5    0.30    0.45
  -2   7  -5    0.18    0.19
  -2   7  -6    0.19    0.18
  -2   7  -6   -0.07    0.29
  -2   7  -6    0.06    0.30
   2  -6 -10    0.23    0.16
   2  -6  -9    0.97    0.16
  -2   6   9    1.05    0.14
   2  -6  -8    0.90    0.13
  -2   6   8    0.93    0.15
  -2   6   8    0.88    0.10
   2  -6  -7    1.18    0.12
  -2   6   7    1.22    0.28
  -2   6   7    1.25    0.12
   2  -6  -6    0.28    0.09
  -2   6   6    0.05    0.19
  -2   6   6    0.45    0.11
  -2   6   5    1.73    0.23
  -2   6   5    1.20    0.14
  -2   6   4    0.21    0.07
  -2   6   4    0.06    0.32
  -2   6   4    0.56    0.13
  -2   6   3   -0.01    0.05
  -2   6   3    0.31    0.19
  -2   6   3   -0.05    0.13
  -2   6   2    0.13    0.04
  -2   6   2    0.25    0.15
  -2   6   1    0.99    0.06
  -2   6   1    0.91    0.17
  -2   6   0    1.85    0.06
  -2   6   0    1.80    0.20
  -2   6  -1    2.57    0.31
  -2   6  -2    6.65    0.26
  -2   6  -3    6.72    0.14
  -2   6  -3    7.33    0.37
  -2   6  -4    4.82    0.14
  -2   6  -4    5.32    0.24
  -2   6  -5    1.82    0.19
  -2   6  -5    2.09    0.19
  -2   6  -6    0.50    0.12
  -2   6  -6    0.19    0.25
  -2   6  -6    0.40    0.17
  -2   6  -7    0.18    0.13
  -2   6  -7    0.43    0.23
  -2   6  -7    0.51    0.25
  -2   6  -8   -0.27    0.21
  -2   6  -8    0.44    0.22
  -2   6  -8    0.13    0.25
   2  -5 -11    0.93    0.20
   2  -5 -10    0.27    0.17
   2  -5  -9    2.13    0.18
  -2   5   9    1.76    0.11
   2  -5  -8    0.55    0.14
  -2   5   8    0.52    0.16
  -2   5   8    0.39    0.08
   2  -5  -7    3.94    0.16
  -2   5   7    3.96    0.26
  -2   5   7    4.29    0.14
   2  -5  -6    2.23    0.13
  -2   5   6    2.13    0.18
  -2   5   6    1.84    0.12
   2  -5  -5    0.07    0.08
  -2   5   5    0.02    0.09
  -2   5   5    0.18    0.16
  -2   5   5    0.03    0.15
  -2   5   4    0.09    0.08
  -2   5   4    0.47    0.16
  -2   5   4    0.00    0.10
  -2   5   3    0.30    0.10
  -2   5   3    0.35    0.11
  -2   5   2   12.22    0.18
  -2   5   2   11.96    0.26
  -2   5   1    3.95    0.08
  -2   5   1    4.34    0.18
  -2   5   0    2.77    0.07
  -2   5   0    2.86    0.18
  -2   5  -1    5.23    0.29
  -2   5  -2    4.64    0.20
  -2   5  -3   56.31    0.86
  -2   5  -4   25.29    0.45
  -2   5  -5    0.16    0.10
  -2   5  -5    0.39    0.14
  -2   5  -6    0.60    0.12
  -2   5  -6    0.74    0.15
  -2   5  -7    2.88    0.17
  -2   5  -7    3.15    0.24
  -2   5  -7    2.69    0.19
  -2   5  -8   -0.12    0.21
  -2   5  -8   -0.08    0.30
  -2   5  -8    0.05    0.14
  -2   5  -9    0.34    0.17
  -2   5  -9    0.54    0.32
  -2   5  -9    0.17    0.13
   2  -4 -11    0.17    0.19
   2  -4 -10    1.56    0.31
   2  -4  -9    0.21    0.24
  -2   4   9    0.09    0.04
   2  -4  -8    1.29    0.23
  -2   4   8    0.69    0.08
  -2   4   8    0.73    0.06
   2  -4  -7   17.76    0.35
  -2   4   7   17.44    0.32
  -2   4   7   17.03    0.27
   2  -4  -6   12.11    0.26
  -2   4   6   12.27    0.27
  -2   4   6   12.29    0.27
  -2   4   6   12.45    0.22
   2  -4  -5    0.12    0.09
  -2   4   5    0.34    0.10
  -2   4   5    0.26    0.20
  -2   4   5    0.31    0.08
   2  -4  -4    3.31    0.11
  -2   4   4    3.35    0.13
  -2   4   4    3.41    0.17
  -2   4   3    1.71    0.13
  -2   4   3    1.73    0.12
  -2   4   2    6.90    0.16
  -2   4   2    7.26    0.19
  -2   4   1    0.81    0.08
  -2   4   1    0.85    0.12
  -2   4   0    9.11    0.23
  -2   4  -1    0.61    0.13
  -2   4  -2    4.34    0.17
  -2   4  -3    6.48    0.20
  -2   4  -4   12.71    0.35
  -2   4  -5    4.17    0.19
  -2   4  -6   11.14    0.25
  -2   4  -6   10.52    0.25
  -2   4  -7    0.03    0.13
  -2   4  -7    0.29    0.12
  -2   4  -8    2.32    0.19
  -2   4  -8    2.19    0.20
  -2   4  -8    2.23    0.22
  -2   4  -9   -0.02    0.17
  -2   4  -9    0.14    0.18
  -2   4  -9   -0.10    0.11
   2  -3 -11    0.22    0.21
   2  -3 -10    0.25    0.18
   2  -3  -9    0.37    0.16
   2  -3  -8    1.90    0.17
  -2   3   8    1.45    0.06
   2  -3  -7    0.08    0.13
  -2   3   7    0.10    0.09
  -2   3   7    0.07    0.06
   2  -3  -6    0.27    0.12
  -2   3   6    0.56    0.13
  -2   3   6    0.54    0.09
  -2   3   6    0.61    0.09
   2  -3  -5    3.59    0.14
  -2   3   5    4.02    0.15
  -2   3   5    3.82    0.14
  -2   3   5    3.67    0.10
   2  -3  -4  128.63    1.46
  -2   3   4  129.94    1.54
  -2   3   4  126.71    1.41
   2  -3  -3   61.82    0.75
  -2   3   3   65.33    0.76
  -2   3   3   64.96    0.76
  -2   3   2    0.20    0.07
  -2   3   2    0.09    0.09
  -2   3   1    1.98    0.11
  -2   3   1    1.90    0.12
   2  -3   0    9.66    0.21
  -2   3   0    9.93    0.21
   2  -3   1    1.55    0.13
  -2   3  -1    1.80    0.13
   2  -3   2    1.56    0.13
  -2   3  -2    1.00    0.12
   2  -3   3   -0.14    0.11
  -2   3  -3   -0.03    0.10
  -2   3  -4    7.57    0.19
  -2   3  -5    5.83    0.17
  -2   3  -6    0.24    0.11
  -2   3  -7    8.78    0.25
  -2   3  -7    8.53    0.21
  -2   3  -8   -0.06    0.17
  -2   3  -8    0.18    0.16
  -2   3  -9   -0.25    0.19
  -2   3  -9   -0.07    0.15
  -2   3  -9    0.00    0.10
  -2   3 -10    0.17    0.33
   2  -2 -11    0.59    0.24
   2  -2 -10    0.33    0.21
   2  -2  -9    2.18    0.32
   2  -2  -7    0.08    0.22
   2  -2  -6    2.26    0.15
  -2   2   6    2.08    0.15
  -2   2   6    2.08    0.09
  -2   2   6    2.08    0.05
   2  -2  -5   50.11    0.66
  -2   2   5   48.83    0.65
  -2   2   5   48.85    0.58
  -2   2   5   49.71    0.56
   2  -2  -4  193.47    2.16
  -2   2   4  190.08    2.11
  -2   2   4  196.89    2.05
   2  -2  -3   11.99    0.21
  -2   2   3   11.82    0.22
  -2   2   3   11.88    0.22
   2  -2  -2    3.63    0.11
   2  -2  -2    3.68    0.13
  -2   2   2    3.84    0.17
  -2   2   2    3.69    0.11
   2  -2  -1   22.22    0.32
  -2   2   1   22.63    0.28
  -2   2   1   23.21    0.31
   2  -2   0    2.11    0.13
  -2   2   0    2.34    0.12
   2  -2   1    2.38    0.13
  -2   2  -1    2.18    0.13
   2  -2   2    0.03    0.10
  -2   2  -2    0.07    0.10
   2  -2   3    1.16    0.17
  -2   2  -3    0.72    0.17
   2  -2   4    2.05    0.12
  -2   2  -4    2.29    0.12
   2  -2   5    2.49    0.16
  -2   2  -5    2.64    0.12
  -2   2  -6    0.65    0.09
  -2   2  -7    2.43    0.17
  -2   2  -7    2.98    0.17
  -2   2  -8   -0.43    0.26
  -2   2  -8    0.27    0.08
  -2   2  -9    0.05    0.18
  -2   2  -9   -0.08    0.12
  -2   2 -10    0.51    0.22
  -2   2 -10    0.56    0.20
  -2   2 -11    0.18    0.24
   2  -1 -11    2.01    0.30
   2  -1  -9    0.04    0.19
   2  -1  -8    3.59    0.22
   2  -1  -7    1.08    0.16
   2  -1  -6    1.83    0.15
  -2   1   6    1.83    0.15
   2  -1  -5    2.90    0.22
  -2   1   5    2.87    0.15
  -2   1   5    2.95    0.07
  -2   1   5    2.96    0.05
   2  -1  -4    0.06    0.10
  -2   1   4    0.17    0.11
  -2   1   4    0.13    0.05
   2  -1  -3    4.88    0.14
   2  -1  -3    4.65    0.13
  -2   1   3    4.64    0.15
  -2   1   3    4.93    0.12
   2  -1  -2  110.40    1.17
   2  -1  -2  112.42    1.16
  -2   1   2  109.17    1.16
  -2   1   2  110.30    1.16
   2  -1  -1  418.72    4.33
  -2   1   1  420.90    4.32
  -2   1   1  422.40    4.35
   2  -1   0   22.42    0.30
  -2   1   0   21.92    0.30
   2  -1   1    2.86    0.20
  -2   1  -1    2.77    0.13
   2  -1   2   11.25    0.20
  -2   1  -2   11.44    0.20
   2  -1   3   37.94    0.47
  -2   1  -3   39.03    0.48
   2  -1   4    0.30    0.08
  -2   1  -4    0.20    0.08
   2  -1   5    0.52    0.11
  -2   1  -5    0.55    0.08
   2  -1   6    0.80    0.11
  -2   1  -6    0.86    0.08
   2  -1   7    1.74    0.13
  -2   1  -7    1.70    0.13
  -2   1  -8    5.98    0.24
  -2   1  -8    5.44    0.14
  -2   1  -9    0.02    0.19
  -2   1  -9    0.25    0.12
  -2   1 -10    1.63    0.39
  -2   1 -10    1.98    0.12
  -2   1 -10    2.04    0.09
  -2   1 -11    0.10    0.23
   2   0 -11    4.51    0.34
   2   0 -10   11.04    0.53
   2   0  -9    1.64    0.24
   2   0  -8    0.73    0.21
   2   0  -7    0.35    0.17
   2   0  -6    1.75    0.16
  -2   0   6    2.11    0.16
   2   0  -5    2.91    0.15
  -2   0   5    2.45    0.15
   2   0  -4   57.83    0.71
   2   0  -4   59.96    0.57
  -2   0   4   57.70    0.71
  -2   0   4   58.12    0.56
   2   0  -3   53.20    0.69
   2   0  -3   53.80    0.53
  -2   0   3   53.87    0.65
  -2   0   3   55.02    0.56
   2   0  -2    1.01    0.10
   2   0  -2    0.73    0.06
  -2   0   2    0.78    0.11
  -2   0   2    0.77    0.05
   2   0  -1    6.62    0.17
  -2   0   1    6.67    0.15
  -2   0   1    6.96    0.16
   2   0   0  379.29    3.83
  -2   0   0  380.65    3.83
   2   0   1  331.05    3.34
  -2   0  -1  331.56    3.34
   2   0   2    5.56    0.14
  -2   0  -2    5.66    0.14
   2   0   3   28.30    0.39
  -2   0  -3   28.72    0.35
   2   0   4  104.75    1.13
  -2   0  -4  104.13    1.09
   2   0   5   37.62    0.47
  -2   0  -5   38.63    0.45
   2   0   6    0.21    0.06
  -2   0  -6    0.26    0.06
   2   0   7    3.12    0.09
  -2   0  -7    3.35    0.10
   2   0   8    0.07    0.06
  -2   0  -8    0.33    0.16
  -2   0  -8    0.17    0.06
  -2   0  -9    6.77    0.28
  -2   0  -9    7.10    0.18
  -2   0 -10   -0.08    0.21
  -2   0 -10    0.08    0.06
  -2   0 -11    0.50    0.25
  -2   0 -12    0.45    0.27
   2   1 -11    2.53    0.30
   2   1 -10    2.55    0.42
   2   1  -9    1.17    0.23
   2   1  -8    1.99    0.21
   2   1  -7    0.87    0.18
   2   1  -6    4.87    0.20
  -2  -1   6    4.82    0.19
   2   1  -5    3.15    0.16
  -2  -1   5    3.14    0.16
   2   1  -4    4.17    0.23
  -2  -1   4    4.41    0.16
  -2  -1   4    4.35    0.09
   2   1  -3    3.48    0.07
  -2  -1   3    3.43    0.22
  -2  -1   3    3.66    0.10
   2   1  -2    1.66    0.11
   2   1  -2    1.81    0.06
  -2  -1   2    1.64    0.12
  -2  -1   2    1.67    0.06
   2   1  -1   28.08    0.35
   2   1  -1   27.63    0.32
  -2  -1   1   27.99    0.35
  -2  -1   1   28.65    0.37
   2   1   0  178.70    1.78
  -2  -1   0  177.51    1.77
   2   1   1   20.46    0.28
  -2  -1  -1   20.41    0.28
   2   1   2   28.15    0.34
  -2  -1  -2   29.09    0.36
   2   1   3   10.23    0.17
  -2  -1  -3   10.39    0.18
   2   1   4   18.17    0.24
  -2  -1  -4   18.36    0.25
   2   1   5   24.32    0.32
  -2  -1  -5   25.05    0.32
   2   1   6   16.22    0.22
  -2  -1  -6   16.32    0.23
   2   1   7    2.77    0.08
  -2  -1  -7    2.74    0.09
   2   1   8    3.36    0.09
  -2  -1  -8    3.34    0.20
  -2  -1  -8    3.44    0.10
  -2  -1  -9   -0.36    0.30
  -2  -1  -9    0.23    0.06
  -2  -1 -10    1.80    0.24
  -2  -1 -10    1.33    0.06
  -2  -1 -11    1.11    0.26
  -2  -1 -12    0.69    0.42
   2   2 -10    1.20    0.39
   2   2  -9    0.39    0.21
   2   2  -8   14.33    0.37
   2   2  -7    1.93    0.19
   2   2  -6    5.08    0.20
   2   2  -6    5.17    0.08
   2   2  -6    5.03    0.07
   2   2  -5   17.70    0.32
   2   2  -5   18.03    0.22
   2   2  -5   17.74    0.21
  -2  -2   5   17.86    0.32
   2   2  -4   64.64    0.84
   2   2  -4   63.82    0.66
  -2  -2   4   63.68    0.77
   2   2  -3    9.10    0.19
   2   2  -3    8.70    0.16
  -2  -2   3    8.57    0.19
  -2  -2   3    8.54    0.16
   2   2  -2    7.73    0.17
   2   2  -2    7.95    0.15
  -2  -2   2    7.70    0.17
  -2  -2   2    7.74    0.15
   2   2  -1   27.02    0.33
   2   2  -1   26.59    0.34
  -2  -2   1   27.34    0.34
  -2  -2   1   26.64    0.35
   2   2   0    4.26    0.15
  -2  -2   0    4.34    0.14
   2   2   1  178.25    1.90
  -2  -2  -1  187.05    2.01
   2   2   2    4.26    0.14
  -2  -2  -2    4.31    0.15
   2   2   3    9.90    0.18
  -2  -2  -3   10.26    0.26
   2   2   4    0.35    0.12
  -2  -2  -4    0.59    0.15
   2   2   5   14.25    0.20
  -2  -2  -5   14.55    0.23
   2   2   6    4.15    0.09
  -2  -2  -6    4.08    0.16
   2   2   7   14.78    0.20
  -2  -2  -7   14.17    0.26
   2   2   8    0.82    0.06
  -2  -2  -8    1.00    0.17
  -2  -2  -8    0.96    0.08
  -2  -2  -9   -0.32    0.29
  -2  -2  -9    0.26    0.10
  -2  -2 -10    2.83    0.25
  -2  -2 -10    2.14    0.10
  -2  -2 -11   -0.33    0.24
  -2  -2 -12    0.25    0.41
   2   3 -10    0.14    0.23
   2   3  -9    0.32    0.32
   2   3  -8    1.43    0.21
   2   3  -7   -0.13    0.16
   2   3  -7    0.11    0.06
   2   3  -7    0.12    0.05
   2   3  -6    0.56    0.15
   2   3  -6    0.78    0.06
   2   3  -6    0.89    0.08
   2   3  -5    4.08    0.17
   2   3  -5    3.74    0.10
   2   3  -5    4.23    0.10
   2   3  -4    5.71    0.17
   2   3  -4    5.50    0.13
  -2  -3   4    5.94    0.23
   2   3  -3   10.27    0.20
   2   3  -3    9.87    0.22
  -2  -3   3   10.38    0.20
  -2  -3   3    9.98    0.20
   2   3  -2    0.17    0.12
   2   3  -2    0.12    0.10
  -2  -3   2    0.17    0.14
  -2  -3   2    0.05    0.10
   2   3  -1    0.30    0.07
   2   3  -1    0.24    0.12
  -2  -3   1    0.32    0.07
  -2  -3   1    0.27    0.11
   2   3   0    0.51    0.12
  -2  -3   0    0.46    0.05
  -2  -3   0    0.65    0.21
   2   3   1    6.19    0.20
  -2  -3  -1    6.20    0.30
   2   3   2    3.45    0.16
  -2  -3  -2    3.46    0.18
   2   3   3   38.40    0.50
  -2  -3  -3   38.22    0.51
   2   3   4    3.23    0.13
  -2  -3  -4    2.98    0.15
   2   3   5    2.78    0.10
  -2  -3  -5    2.71    0.18
   2   3   6    3.58    0.10
  -2  -3  -6    3.62    0.13
   2   3   7   17.18    0.24
  -2  -3  -7   17.55    0.33
   2   3   8    0.35    0.06
  -2  -3  -8    0.50    0.15
  -2  -3  -8    0.40    0.14
   2   3   9    1.81    0.10
  -2  -3  -9    2.10    0.20
  -2  -3  -9    1.66    0.10
  -2  -3 -10    0.34    0.19
  -2  -3 -10    0.05    0.09
  -2  -3 -11    2.03    0.25
  -2  -3 -12    0.12    0.25
   2   4 -10    0.38    0.22
   2   4  -9    0.16    0.20
   2   4  -8    0.97    0.19
   2   4  -8    0.85    0.09
   2   4  -8    0.96    0.06
   2   4  -7    1.37    0.27
   2   4  -7    1.23    0.13
   2   4  -7    1.39    0.11
   2   4  -6    6.83    0.30
   2   4  -6    7.15    0.17
   2   4  -6    6.89    0.15
   2   4  -5    1.34    0.13
   2   4  -5    1.27    0.10
   2   4  -5    1.50    0.09
   2   4  -4   14.23    0.25
   2   4  -4   14.51    0.31
   2   4  -3    0.92    0.08
   2   4  -3    0.76    0.11
  -2  -4   3    0.80    0.14
   2   4  -2    5.60    0.12
   2   4  -2    5.54    0.19
  -2  -4   2    5.58    0.13
  -2  -4   2    5.50    0.18
   2   4  -1  164.33    1.66
   2   4  -1  154.70    1.76
  -2  -4   1  159.52    1.64
  -2  -4   1  157.86    1.82
   2   4   0   19.76    0.35
  -2  -4   0   19.76    0.25
  -2  -4   0   19.38    0.36
   2   4   1    0.62    0.25
  -2  -4  -1    0.50    0.17
   2   4   2   37.36    0.53
  -2  -4  -2   36.83    0.64
   2   4   3   39.37    0.55
  -2  -4  -3   40.73    0.58
   2   4   4    0.27    0.11
  -2  -4  -4    0.02    0.14
   2   4   5   31.76    0.48
  -2  -4  -5   31.01    0.47
   2   4   6    1.35    0.10
  -2  -4  -6    1.37    0.13
   2   4   7    1.90    0.09
  -2  -4  -7    1.85    0.13
   2   4   8    4.73    0.16
  -2  -4  -8    4.80    0.19
  -2  -4  -8    5.12    0.23
   2   4   9    0.11    0.06
  -2  -4  -9    0.33    0.15
  -2  -4  -9    0.08    0.10
   2   4  10    0.21    0.08
  -2  -4 -10    0.02    0.27
  -2  -4 -11    0.19    0.20
  -2  -4 -12    0.82    0.25
   2   5  -9    0.46    0.20
   2   5  -8    0.05    0.17
   2   5  -8    0.15    0.08
   2   5  -7    1.98    0.18
   2   5  -7    2.38    0.13
   2   5  -7    2.15    0.11
   2   5  -6    1.13    0.14
   2   5  -6    1.17    0.13
   2   5  -6    1.05    0.10
   2   5  -5    0.02    0.10
   2   5  -5    0.01    0.18
   2   5  -5   -0.03    0.13
   2   5  -4    1.35    0.15
   2   5  -4    1.19    0.14
   2   5  -3    0.29    0.07
   2   5  -3    0.55    0.22
   2   5  -2   15.92    0.22
   2   5  -2   15.75    0.33
  -2  -5   2   16.47    0.23
   2   5  -1   21.24    0.39
  -2  -5   1   22.13    0.27
  -2  -5   1   23.30    0.41
   2   5   0    0.65    0.16
  -2  -5   0    0.24    0.05
  -2  -5   0    0.25    0.24
   2   5   1    0.09    0.16
  -2  -5  -1    0.18    0.17
   2   5   2   12.59    0.30
  -2  -5  -2   12.19    0.32
   2   5   3   19.26    0.36
  -2  -5  -3   18.61    0.38
   2   5   4   25.77    0.42
  -2  -5  -4   26.31    0.45
   2   5   5   55.67    0.74
  -2  -5  -5   57.98    0.80
   2   5   6    7.30    0.19
  -2  -5  -6    7.09    0.23
   2   5   7   12.45    0.30
  -2  -5  -7   12.09    0.25
  -2  -5  -7   12.59    0.37
   2   5   8    5.00    0.15
  -2  -5  -8    5.09    0.19
  -2  -5  -8    4.89    0.20
   2   5   9    0.16    0.08
  -2  -5  -9    0.29    0.13
  -2  -5  -9    0.04    0.12
   2   5  10    1.91    0.10
  -2  -5 -10    2.04    0.20
  -2  -5 -11    0.06    0.28
  -2  -5 -12    0.43    0.21
   2   6  -8    0.53    0.16
   2   6  -7    0.03    0.13
   2   6  -7    0.20    0.13
   2   6  -7    0.13    0.09
   2   6  -6    1.00    0.13
   2   6  -6    1.29    0.15
   2   6  -6    1.17    0.11
   2   6  -5    0.08    0.09
   2   6  -5   -0.02    0.14
   2   6  -5    0.03    0.11
   2   6  -4    0.12    0.13
   2   6  -4    0.14    0.25
   2   6  -3    0.18    0.07
   2   6  -3    0.17    0.17
   2   6  -2    0.72    0.06
   2   6  -2    0.58    0.18
   2   6  -1    0.03    0.17
   2   6   0    5.79    0.25
  -2  -6   0    5.91    0.09
   2   6   1    0.40    0.18
  -2  -6  -1    0.36    0.19
   2   6   2    2.98    0.32
  -2  -6  -2    2.75    0.23
   2   6   3   10.99    0.31
  -2  -6  -3   11.86    0.44
   2   6   4    5.49    0.23
  -2  -6  -4    6.00    0.26
   2   6   5   -0.03    0.14
  -2  -6  -5    0.03    0.05
  -2  -6  -5   -0.23    0.17
   2   6   6   27.63    0.46
  -2  -6  -6   27.91    0.39
  -2  -6  -6   29.17    0.62
   2   6   7    5.51    0.20
  -2  -6  -7    5.09    0.16
  -2  -6  -7    5.48    0.23
   2   6   8    0.13    0.11
  -2  -6  -8    0.04    0.17
  -2  -6  -8   -0.16    0.15
   2   6   9    0.51    0.11
  -2  -6  -9    0.31    0.13
   2   6  10    0.09    0.14
  -2  -6 -10    0.42    0.23
  -2  -6 -11    0.29    0.17
  -2  -6 -12    0.00    0.28
   2   7  -7    0.48    0.20
   2   7  -7    0.14    0.26
   2   7  -7    0.55    0.12
   2   7  -6    0.83    0.12
   2   7  -6    0.77    0.18
   2   7  -6    0.89    0.20
   2   7  -5    0.07    0.09
   2   7  -5   -0.07    0.17
   2   7  -5    0.18    0.12
   2   7  -4    1.28    0.14
   2   7  -4    1.51    0.34
   2   7  -4    1.71    0.17
   2   7  -3   10.50    0.21
   2   7  -3   10.04    0.33
   2   7  -2    0.87    0.22
   2   7  -1    0.56    0.22
   2   7   0    6.44    0.28
   2   7   1   -0.22    0.20
   2   7   2   19.96    0.44
   2   7   3    1.92    0.23
  -2  -7  -3    2.06    0.05
   2   7   4    0.43    0.20
  -2  -7  -4    0.51    0.06
   2   7   5    2.83    0.22
  -2  -7  -5    2.79    0.12
   2   7   6    6.23    0.26
  -2  -7  -6    6.30    0.15
   2   7   7    0.75    0.17
  -2  -7  -7    0.63    0.10
   2   7   8    2.37    0.18
  -2  -7  -8    2.40    0.13
   2   7   9    0.04    0.13
  -2  -7  -9    0.27    0.12
   2   7  10    0.35    0.11
  -2  -7 -10    0.49    0.14
   2   7  11    0.63    0.11
  -2  -7 -11    0.87    0.26
   2   8  -6    1.60    0.13
   2   8  -6    1.50    0.24
   2   8  -6    1.75    0.17
   2   8  -5    1.88    0.11
   2   8  -5    1.89    0.25
   2   8  -5    2.05    0.19
   2   8  -4    0.70    0.08
   2   8  -4    0.66    0.37
   2   8  -4    0.64    0.18
   2   8  -3    2.61    0.28
   2   8  -3    3.05    0.22
   2   8  -2    1.43    0.27
   2   8  -1    9.48    0.37
   2   8   0    1.25    0.27
   2   8   1    0.86    0.26
   2   8   2    0.43    0.25
   2   8   3   14.87    0.42
   2   8   4   16.67    0.44
  -2  -8  -4   15.79    0.18
   2   8   5    3.18    0.26
  -2  -8  -5    3.00    0.08
   2   8   6   -0.09    0.21
  -2  -8  -6    0.17    0.10
   2   8   7    0.88    0.20
  -2  -8  -7    0.58    0.13
   2   8   8    0.08    0.18
  -2  -8  -8    0.31    0.15
   2   8   9    0.90    0.18
  -2  -8  -9    0.73    0.12
   2   8  10    0.49    0.15
  -2  -8 -10    0.43    0.14
   2   8  11    0.19    0.13
  -2  -8 -11    0.32    0.14
   2   9  -5    1.45    0.28
   2   9  -5    1.18    0.20
   2   9  -4    0.09    0.26
   2   9  -4   -0.26    0.19
   2   9  -3    0.97    0.42
   2   9  -3   -0.20    0.31
   2   9  -2    0.72    0.28
   2   9  -2    0.58    0.21
   2   9  -1    0.57    0.29
   2   9   0    1.84    0.31
   2   9   1    4.22    0.33
   2   9   2   -0.35    0.28
   2   9   3    3.64    0.32
   2   9   4    9.55    0.39
   2   9   5    0.90    0.41
  -2  -9  -5    0.73    0.03
   2   9   6    0.09    0.24
  -2  -9  -6    0.21    0.08
   2   9   7    0.59    0.22
  -2  -9  -7    0.34    0.10
   2   9   8    1.15    0.22
  -2  -9  -8    0.02    0.08
   2   9   9    0.64    0.19
  -2  -9  -9    0.05    0.09
   2   9  10    0.27    0.18
  -2  -9 -10    0.12    0.11
   2  10  -3    0.53    0.30
   2  10  -3    0.35    0.22
   2  10  -2    0.12    0.46
   2  10  -2    0.21    0.35
   2  10  -1    0.02    0.30
   2  10  -1   -0.05    0.22
   2  10   0    0.36    0.32
   2  10   1    0.12    0.30
   2  10   2    1.54    0.52
   2  10   3    1.53    0.33
   2  10   4    1.86    0.34
   2  10   5    0.32    0.45
   2  10   6    2.05    0.31
   2  10   7    2.41    0.29
   2  10   8    0.72    0.40
   2  10   9    1.03    0.24
   2  11  -1   -0.06    0.33
   2  11  -1    0.05    0.25
   2  11   0    0.44    0.35
   2  11   0    0.50    0.27
   2  11   1    0.94    0.36
   2  11   1    0.87    0.29
   2  11   2   -0.01    0.34
   2  11   3    0.79    0.36
   2  11   4    0.19    0.33
   2  11   5    0.05    0.32
   2  11   6    7.04    0.45
   2  11   7    4.44    0.37
  -3   9   5   -0.22    0.32
  -3   9   5   -0.03    0.19
  -3   9   4    1.32    0.39
  -3   9   4    2.13    0.25
  -3   9   3    2.81    0.40
  -3   9   3    1.71    0.26
  -3   9   2   -0.44    0.36
  -3   9   2    0.18    0.22
  -3   9   1    0.85    0.40
  -3   9   1    0.32    0.27
  -3   9   0    0.66    0.41
  -3   9   0    0.28    0.28
  -3   9  -1    0.06    0.39
  -3   9  -1   -0.16    0.28
  -3   8   7   -0.06    0.24
  -3   8   7    0.03    0.12
  -3   8   6    0.99    0.29
  -3   8   6    0.70    0.18
  -3   8   5    0.77    0.46
  -3   8   5    0.66    0.18
  -3   8   4    0.35    0.33
  -3   8   4    0.68    0.19
  -3   8   3    0.75    0.54
  -3   8   3    1.73    0.33
  -3   8   2    2.63    0.38
  -3   8   2    3.05    0.37
  -3   8   1    8.37    0.47
  -3   8   1    7.36    0.33
  -3   8   0    0.12    0.35
  -3   8   0    0.41    0.25
  -3   8  -1    2.25    0.39
  -3   8  -1    2.38    0.28
  -3   8  -2    0.28    0.35
  -3   8  -2   -0.05    0.24
  -3   8  -3    0.06    0.35
  -3   8  -3   -0.18    0.23
  -3   8  -4   -0.26    0.36
  -3   8  -4    0.34    0.23
  -3   7   8    0.50    0.19
  -3   7   8    0.23    0.16
  -3   7   7    0.16    0.21
  -3   7   7    0.06    0.12
  -3   7   6    0.59    0.23
  -3   7   6    0.23    0.14
  -3   7   5    0.22    0.26
  -3   7   5    0.23    0.15
  -3   7   4    1.62    0.10
  -3   7   4    1.26    0.30
  -3   7   4    2.22    0.27
  -3   7   3    0.70    0.28
  -3   7   3    0.56    0.27
  -3   7   2    0.09    0.05
  -3   7   2    0.58    0.27
  -3   7   1    2.34    0.07
  -3   7   1    2.71    0.35
  -3   7   0    2.51    0.09
  -3   7   0    3.14    0.25
  -3   7  -1    7.63    0.15
  -3   7  -1    7.48    0.32
  -3   7  -2   10.09    0.36
  -3   7  -3    0.28    0.07
  -3   7  -3   -0.18    0.22
  -3   7  -4   -0.05    0.08
  -3   7  -4    0.31    0.20
  -3   7  -5    0.20    0.10
  -3   7  -5    0.44    0.31
  -3   7  -5    0.33    0.21
  -3   7  -6   -0.26    0.32
  -3   7  -6   -0.08    0.32
   3  -6  -9    1.70    0.23
   3  -6  -8    1.06    0.15
  -3   6   8    1.41    0.18
  -3   6   7    0.13    0.27
  -3   6   7    0.07    0.11
  -3   6   6    0.10    0.20
  -3   6   6   -0.02    0.17
  -3   6   5    0.87    0.17
  -3   6   5    0.83    0.23
  -3   6   5    0.98    0.14
  -3   6   4    0.88    0.15
  -3   6   4    1.08    0.14
  -3   6   3    2.04    0.10
  -3   6   3    2.72    0.26
  -3   6   2   -0.02    0.06
  -3   6   2    0.45    0.23
  -3   6   1    3.14    0.12
  -3   6   1    3.49    0.32
  -3   6   0    5.77    0.12
  -3   6   0    5.78    0.26
  -3   6  -1   17.65    0.41
  -3   6  -2   15.45    0.39
  -3   6  -3   -0.35    0.20
  -3   6  -4    0.57    0.20
  -3   6  -5    0.44    0.11
  -3   6  -5    0.71    0.19
  -3   6  -6    0.50    0.13
  -3   6  -6    0.83    0.29
  -3   6  -7    0.07    0.13
  -3   6  -7    0.27    0.27
  -3   6  -7    0.18    0.18
   3  -5 -10    1.41    0.30
   3  -5  -9   10.38    0.32
   3  -5  -8    1.10    0.15
  -3   5   8    1.12    0.14
   3  -5  -7    0.24    0.18
  -3   5   7    0.23    0.14
  -3   5   7    0.15    0.09
   3  -5  -6    6.50    0.19
  -3   5   6    6.33    0.21
  -3   5   6    6.23    0.26
  -3   5   6    6.35    0.18
  -3   5   5    3.15    0.15
  -3   5   5    3.34    0.22
  -3   5   5    3.04    0.21
  -3   5   4    1.53    0.17
  -3   5   4    1.33    0.14
  -3   5   3    0.11    0.08
  -3   5   3    0.17    0.12
  -3   5   2    8.67    0.16
  -3   5   2    8.24    0.23
  -3   5   1    0.88    0.07
  -3   5   1    1.01    0.15
  -3   5   0    8.42    0.15
  -3   5   0    8.52    0.25
  -3   5  -1    4.68    0.22
  -3   5  -2    0.31    0.17
  -3   5  -3    0.25    0.17
  -3   5  -4   25.10    0.47
  -3   5  -5    3.85    0.22
  -3   5  -6    0.06    0.11
  -3   5  -6    0.06    0.16
  -3   5  -7    0.47    0.21
  -3   5  -7    0.38    0.26
  -3   5  -8    0.59    0.24
  -3   5  -8    1.22    0.26
   3  -4 -10    0.02    0.18
   3  -4  -9    2.38    0.21
   3  -4  -8    2.70    0.19
  -3   4   8    2.68    0.17
  -3   4   8    2.64    0.09
   3  -4  -7    5.73    0.28
  -3   4   7    5.61    0.23
  -3   4   7    5.85    0.19
  -3   4   7    5.84    0.15
   3  -4  -6   19.68    0.37
  -3   4   6   19.53    0.38
  -3   4   6   18.91    0.44
  -3   4   6   18.94    0.31
   3  -4  -5   37.93    0.56
  -3   4   5   38.42    0.57
  -3   4   5   37.88    0.54
  -3   4   4    0.09    0.10
  -3   4   4    0.11    0.15
  -3   4   3    0.13    0.08
  -3   4   3    0.05    0.10
  -3   4   2    0.29    0.08
  -3   4   2    0.31    0.11
  -3   4   1    0.13    0.06
  -3   4   1    0.19    0.12
  -3   4   0    1.48    0.15
  -3   4  -1    7.50    0.22
  -3   4  -2    0.25    0.14
  -3   4  -3    4.67    0.19
  -3   4  -4    6.37    0.22
  -3   4  -5   28.18    0.48
  -3   4  -6    0.62    0.15
  -3   4  -7    0.06    0.11
  -3   4  -7   -0.05    0.14
  -3   4  -8    0.53    0.23
  -3   4  -8    0.21    0.14
  -3   4  -9    3.56    0.22
  -3   4  -9    3.57    0.19
   3  -3 -11   -0.06    0.33
   3  -3 -10    0.05    0.29
   3  -3  -9    0.81    0.29
   3  -3  -8    0.48    0.25
  -3   3   8    0.49    0.06
  -3   3   8    0.74    0.06
   3  -3  -7    5.04    0.21
  -3   3   7    4.83    0.22
  -3   3   7    4.46    0.18
  -3   3   7    4.64    0.14
   3  -3  -6   11.84    0.27
  -3   3   6   11.42    0.28
  -3   3   6   11.31    0.24
  -3   3   6   11.63    0.22
   3  -3  -5    6.94    0.19
  -3   3   5    7.10    0.20
  -3   3   5    6.91    0.19
   3  -3  -4    5.87    0.16
  -3   3   4    5.85    0.18
  -3   3   4    5.92    0.18
  -3   3   3    0.67    0.10
  -3   3   3    0.57    0.09
   3  -3  -2    0.00    0.10
  -3   3   2   -0.09    0.12
  -3   3   2   -0.18    0.09
   3  -3  -1   12.78    0.31
  -3   3   1   12.23    0.20
  -3   3   1   12.29    0.23
   3  -3   0    0.41    0.12
  -3   3   0    0.10    0.11
   3  -3   1    0.21    0.12
  -3   3  -1    0.22    0.13
   3  -3   2    1.02    0.14
  -3   3  -2    0.74    0.13
   3  -3   3    1.59    0.15
  -3   3  -3    1.76    0.14
   3  -3   4    0.22    0.13
  -3   3  -4    0.06    0.12
   3  -3   5    3.29    0.17
  -3   3  -5    3.52    0.17
  -3   3  -6    1.09    0.14
  -3   3  -7    0.23    0.12
  -3   3  -8    1.51    0.19
  -3   3  -8    1.44    0.15
  -3   3  -9   -0.30    0.18
  -3   3  -9    0.09    0.11
  -3   3 -10    0.22    0.31
  -3   3 -10    0.13    0.12
   3  -2 -11    0.18    0.23
   3  -2 -10    0.35    0.21
   3  -2  -9    0.39    0.19
   3  -2  -8    1.04    0.18
   3  -2  -7    4.95    0.22
  -3   2   7    4.63    0.32
  -3   2   7    4.67    0.09
  -3   2   7    4.70    0.08
   3  -2  -6    0.63    0.13
  -3   2   6    0.64    0.23
  -3   2   6    0.47    0.07
  -3   2   6    0.53    0.07
   3  -2  -5    2.22    0.14
  -3   2   5    2.33    0.15
  -3   2   5    2.15    0.08
   3  -2  -4    5.37    0.16
  -3   2   4    5.23    0.17
  -3   2   4    5.45    0.15
   3  -2  -3   47.53    0.59
  -3   2   3   47.56    0.61
  -3   2   3   48.11    0.62
   3  -2  -2    0.20    0.09
  -3   2   2    0.31    0.08
   3  -2  -1   19.72    0.31
  -3   2   1   19.66    0.32
  -3   2   1   19.99    0.30
   3  -2   0    2.34    0.14
  -3   2   0    2.36    0.12
   3  -2   1   15.29    0.28
  -3   2  -1   15.67    0.27
   3  -2   2   18.57    0.31
  -3   2  -2   19.49    0.32
   3  -2   3    3.85    0.22
  -3   2  -3    4.11    0.15
   3  -2   4    8.72    0.21
  -3   2  -4    9.49    0.21
   3  -2   5    2.74    0.20
  -3   2  -5    2.70    0.14
   3  -2   6    1.07    0.12
  -3   2  -6    1.06    0.12
   3  -2   7    1.83    0.14
  -3   2  -7    2.08    0.14
  -3   2  -8    2.15    0.13
  -3   2  -9    0.22    0.19
  -3   2  -9    0.40    0.11
  -3   2 -10    1.07    0.22
  -3   2 -10    1.04    0.18
  -3   2 -11    0.56    0.26
   3  -1 -11   -0.01    0.25
   3  -1 -10    0.08    0.22
   3  -1  -9    1.60    0.24
   3  -1  -8    0.12    0.18
   3  -1  -7   -0.01    0.16
  -3   1   7    0.16    0.17
   3  -1  -6    0.93    0.15
  -3   1   6    1.20    0.24
  -3   1   6    0.90    0.05
   3  -1  -5    4.00    0.23
  -3   1   5    3.79    0.17
  -3   1   5    3.89    0.08
   3  -1  -4   11.43    0.23
   3  -1  -4   11.49    0.21
  -3   1   4   11.64    0.25
  -3   1   4   11.85    0.19
   3  -1  -3   15.21    0.30
   3  -1  -3   15.34    0.23
  -3   1   3   15.64    0.27
  -3   1   3   15.49    0.22
   3  -1  -2    4.51    0.13
  -3   1   2    4.85    0.15
  -3   1   2    4.79    0.12
   3  -1  -1   37.31    0.47
  -3   1   1   36.86    0.50
  -3   1   1   37.95    0.46
   3  -1   0    3.03    0.13
  -3   1   0    2.72    0.12
   3  -1   1   71.43    0.82
  -3   1  -1   72.00    0.81
   3  -1   2   33.04    0.44
  -3   1  -2   33.20    0.44
   3  -1   3   49.44    0.61
  -3   1  -3   50.39    0.62
   3  -1   4    0.27    0.10
  -3   1  -4    0.45    0.09
   3  -1   5    0.19    0.14
  -3   1  -5   -0.04    0.14
   3  -1   6    0.06    0.09
  -3   1  -6   -0.14    0.14
   3  -1   7    3.64    0.13
  -3   1  -7    3.59    0.13
   3  -1   8    0.84    0.10
  -3   1  -8    0.97    0.16
  -3   1  -9    0.06    0.17
  -3   1  -9    0.03    0.10
  -3   1 -10   -0.09    0.34
  -3   1 -10    0.24    0.10
  -3   1 -11    0.82    0.25
   3   0 -11    0.71    0.28
   3   0 -10    1.83    0.28
   3   0  -9    0.09    0.34
   3   0  -8    0.84    0.32
   3   0  -7    0.01    0.27
  -3   0   7    0.19    0.17
   3   0  -6    2.20    0.18
  -3   0   6    2.36    0.18
   3   0  -5   -0.10    0.12
  -3   0   5   -0.21    0.20
  -3   0   5    0.01    0.04
   3   0  -4   12.97    0.25
   3   0  -4   12.46    0.19
  -3   0   4   12.78    0.26
  -3   0   4   12.71    0.19
   3   0  -3    0.15    0.10
   3   0  -3    0.16    0.05
  -3   0   3    0.02    0.18
  -3   0   3    0.10    0.07
   3   0  -2   59.63    0.65
  -3   0   2   59.87    0.70
  -3   0   2   60.53    0.65
   3   0  -1   77.66    0.84
  -3   0   1   79.47    0.92
  -3   0   1   78.92    0.84
   3   0   0   31.48    0.40
  -3   0   0   31.59    0.43
   3   0   1    1.64    0.12
  -3   0  -1    1.84    0.12
   3   0   2   42.95    0.52
  -3   0  -2   42.55    0.51
   3   0   3    1.22    0.17
  -3   0  -3    1.26    0.17
   3   0   4   27.29    0.37
  -3   0  -4   26.71    0.37
   3   0   5   39.46    0.50
  -3   0  -5   39.79    0.50
   3   0   6    1.86    0.10
  -3   0  -6    1.99    0.15
   3   0   7   -0.13    0.08
  -3   0  -7    0.09    0.13
   3   0   8    1.45    0.10
  -3   0  -8    1.43    0.15
   3   0   9    1.61    0.14
  -3   0  -9    1.80    0.11
  -3   0 -10    0.07    0.21
  -3   0 -10    0.13    0.14
  -3   0 -11   -0.60    0.25
  -3   0 -12    1.53    0.30
   3   1 -10    0.48    0.24
   3   1  -9    0.35    0.35
   3   1  -8    0.07    0.31
   3   1  -7    3.66    0.32
  -3  -1   7    3.08    0.22
   3   1  -6   23.66    0.42
  -3  -1   6   23.48    0.43
   3   1  -5    3.90    0.18
   3   1  -5    4.06    0.08
  -3  -1   5    4.15    0.19
  -3  -1   5    3.77    0.09
   3   1  -4   12.37    0.32
   3   1  -4   12.84    0.18
  -3  -1   4   13.10    0.33
  -3  -1   4   12.93    0.18
   3   1  -3    0.08    0.17
   3   1  -3    0.02    0.04
  -3  -1   3   -0.14    0.11
  -3  -1   3    0.01    0.05
   3   1  -2   18.98    0.29
   3   1  -2   18.62    0.24
  -3  -1   2   18.39    0.29
  -3  -1   2   18.42    0.25
   3   1  -1   24.38    0.31
  -3  -1   1   24.63    0.34
  -3  -1   1   24.57    0.31
   3   1   0    2.21    0.11
  -3  -1   0    2.23    0.10
   3   1   1    9.82    0.19
  -3  -1  -1    9.94    0.19
   3   1   2    7.62    0.23
  -3  -1  -2    7.61    0.24
   3   1   3    0.26    0.09
  -3  -1  -3    0.25    0.10
   3   1   4   11.41    0.20
  -3  -1  -4   11.30    0.20
   3   1   5   24.51    0.33
  -3  -1  -5   24.83    0.34
   3   1   6    3.57    0.11
  -3  -1  -6    3.53    0.12
   3   1   7    1.53    0.09
  -3  -1  -7    1.66    0.10
   3   1   8    0.06    0.07
  -3  -1  -8    0.15    0.08
   3   1   9    0.51    0.12
  -3  -1  -9    0.52    0.09
   3   1  10    0.04    0.07
  -3  -1 -10    0.29    0.20
  -3  -1 -10    0.27    0.09
  -3  -1 -11   -0.05    0.23
  -3  -1 -12    0.93    0.43
   3   2 -10    0.09    0.24
   3   2  -9    0.23    0.34
   3   2  -8    0.77    0.32
   3   2  -7   -0.11    0.28
  -3  -2   7   -0.11    0.16
   3   2  -6    0.49    0.15
   3   2  -6    0.36    0.03
   3   2  -6    0.31    0.03
  -3  -2   6    0.11    0.25
   3   2  -5    4.43    0.19
   3   2  -5    4.59    0.08
  -3  -2   5    4.48    0.19
  -3  -2   5    4.63    0.10
   3   2  -4    0.84    0.20
   3   2  -4    0.96    0.06
  -3  -2   4    0.91    0.13
  -3  -2   4    1.08    0.10
   3   2  -3    9.74    0.21
   3   2  -3    9.54    0.15
  -3  -2   3    9.63    0.28
  -3  -2   3    9.76    0.20
   3   2  -2    0.10    0.09
   3   2  -2   -0.05    0.07
  -3  -2   2   -0.01    0.10
  -3  -2   2    0.06    0.11
   3   2  -1    1.95    0.15
  -3  -2   1    1.94    0.11
  -3  -2   1    1.86    0.10
   3   2   0    0.87    0.10
  -3  -2   0    0.82    0.11
   3   2   1   11.59    0.21
  -3  -2  -1   11.60    0.22
   3   2   2    7.61    0.18
  -3  -2  -2    8.01    0.19
   3   2   3   31.98    0.46
  -3  -2  -3   31.56    0.42
   3   2   4    1.23    0.16
  -3  -2  -4    1.12    0.11
   3   2   5   12.46    0.21
  -3  -2  -5   12.01    0.27
   3   2   6    1.31    0.08
  -3  -2  -6    1.53    0.11
   3   2   7    0.49    0.07
  -3  -2  -7    0.58    0.10
   3   2   8    5.75    0.13
  -3  -2  -8    5.68    0.21
   3   2   9    0.52    0.11
  -3  -2  -9    0.76    0.10
   3   2  10    0.08    0.06
  -3  -2 -10    0.18    0.20
  -3  -2 -10    0.00    0.09
  -3  -2 -11    0.06    0.23
  -3  -2 -12    7.67    0.52
   3   3 -10    1.12    0.26
   3   3  -9    0.31    0.22
   3   3  -8    0.31    0.20
   3   3  -7    0.31    0.17
   3   3  -7    0.14    0.03
   3   3  -7    0.15    0.02
   3   3  -6   22.99    0.43
   3   3  -6   23.30    0.28
   3   3  -6   22.85    0.28
  -3  -3   6   22.77    0.42
   3   3  -5   22.45    0.39
   3   3  -5   22.78    0.32
  -3  -3   5   22.92    0.40
   3   3  -4    4.88    0.24
   3   3  -4    5.34    0.12
  -3  -3   4    5.17    0.18
  -3  -3   4    5.43    0.14
   3   3  -3   46.66    0.59
   3   3  -3   46.31    0.58
  -3  -3   3   47.19    0.61
  -3  -3   3   48.07    0.60
   3   3  -2   50.96    0.61
   3   3  -2   51.51    0.61
  -3  -3   2   51.30    0.63
  -3  -3   2   52.03    0.64
   3   3  -1   38.96    0.50
  -3  -3   1   38.90    0.48
  -3  -3   1   39.37    0.56
   3   3   0    7.37    0.19
  -3  -3   0    7.40    0.15
  -3  -3   0    7.48    0.19
   3   3   1    8.96    0.21
  -3  -3  -1    8.99    0.29
   3   3   2   81.96    0.99
  -3  -3  -2   80.12    0.94
   3   3   3   20.97    0.32
   3   3   4   32.83    0.44
  -3  -3  -4   32.07    0.51
   3   3   5    7.50    0.22
  -3  -3  -5    7.33    0.26
   3   3   6    4.13    0.12
  -3  -3  -6    4.18    0.15
   3   3   7   19.27    0.28
  -3  -3  -7   18.54    0.36
   3   3   8    5.26    0.13
  -3  -3  -8    5.29    0.17
   3   3   9    4.91    0.16
  -3  -3  -9    4.45    0.16
   3   3  10    0.59    0.07
  -3  -3 -10    0.67    0.20
  -3  -3 -10    0.59    0.17
  -3  -3 -11    3.48    0.26
  -3  -3 -11    2.69    0.17
  -3  -3 -12    1.22    0.42
   3   4  -9    0.12    0.21
   3   4  -8    0.39    0.19
   3   4  -7    3.20    0.21
   3   4  -7    3.15    0.09
   3   4  -7    3.22    0.09
   3   4  -6   16.30    0.35
   3   4  -6   16.16    0.25
   3   4  -6   16.42    0.25
   3   4  -5    9.04    0.24
   3   4  -5    8.81    0.17
  -3  -4   5    8.38    0.24
   3   4  -4    0.50    0.11
   3   4  -4    0.47    0.09
  -3  -4   4    0.41    0.19
   3   4  -3   17.70    0.33
   3   4  -3   18.54    0.34
  -3  -4   3   18.25    0.30
  -3  -4   3   18.07    0.32
   3   4  -2   11.09    0.19
   3   4  -2   11.01    0.23
  -3  -4   2   10.83    0.25
  -3  -4   2   11.52    0.31
   3   4  -1   23.00    0.37
  -3  -4   1   22.76    0.31
  -3  -4   1   23.04    0.38
   3   4   0    1.73    0.15
  -3  -4   0    1.58    0.08
  -3  -4   0    1.91    0.15
   3   4   1    5.44    0.27
  -3  -4  -1    5.74    0.20
   3   4   2   28.62    0.43
  -3  -4  -2   29.72    0.46
   3   4   3  140.58    1.57
  -3  -4  -3  139.55    1.60
   3   4   4  102.02    1.17
  -3  -4  -4  103.13    1.23
   3   4   5    0.19    0.10
  -3  -4  -5   -0.07    0.12
   3   4   6    0.71    0.10
  -3  -4  -6    0.69    0.20
   3   4   7    3.22    0.17
  -3  -4  -7    2.91    0.16
   3   4   8   12.48    0.22
  -3  -4  -8   11.81    0.32
   3   4   9    9.54    0.19
  -3  -4  -9    9.52    0.30
   3   4  10    0.29    0.07
  -3  -4 -10    0.62    0.18
  -3  -4 -10    0.37    0.18
   3   4  11    0.51    0.07
  -3  -4 -11    0.60    0.21
  -3  -4 -11    0.46    0.11
  -3  -4 -12    0.46    0.24
   3   5  -9   -0.03    0.31
   3   5  -8   -0.06    0.18
   3   5  -7    0.07    0.16
   3   5  -7    0.12    0.12
   3   5  -7    0.08    0.07
   3   5  -6    0.74    0.22
   3   5  -6    0.07    0.14
   3   5  -5    3.15    0.17
   3   5  -5    3.48    0.15
   3   5  -4    0.08    0.10
   3   5  -4   -0.01    0.16
  -3  -5   4    0.12    0.10
   3   5  -3    0.25    0.09
   3   5  -3    0.43    0.13
  -3  -5   3    0.51    0.15
   3   5  -2    1.03    0.14
  -3  -5   2    0.88    0.08
  -3  -5   2    0.53    0.14
   3   5  -1    6.18    0.22
  -3  -5   1    6.23    0.13
  -3  -5   1    6.56    0.22
   3   5   0   23.91    0.41
  -3  -5   0   25.01    0.31
  -3  -5   0   24.48    0.43
   3   5   1    2.98    0.19
  -3  -5  -1    3.08    0.30
   3   5   2    3.83    0.19
  -3  -5  -2    4.17    0.22
   3   5   3    6.35    0.22
  -3  -5  -3    6.03    0.24
   3   5   4   48.93    0.66
  -3  -5  -4   48.94    0.70
   3   5   5    2.03    0.15
  -3  -5  -5    2.20    0.18
   3   5   6    3.71    0.16
  -3  -5  -6    4.19    0.29
   3   5   7    0.12    0.10
  -3  -5  -7    0.19    0.14
   3   5   8    0.06    0.15
  -3  -5  -8   -0.02    0.22
   3   5   9    2.00    0.12
  -3  -5  -9    2.22    0.16
  -3  -5  -9    1.95    0.17
   3   5  10    0.27    0.08
  -3  -5 -10    0.18    0.25
  -3  -5 -10    0.01    0.14
   3   5  11   -0.03    0.08
  -3  -5 -11   -0.02    0.18
  -3  -5 -11   -0.08    0.18
  -3  -5 -12    0.35    0.21
   3   6  -8    0.04    0.17
   3   6  -7    0.53    0.16
   3   6  -7    0.71    0.11
   3   6  -7    0.51    0.11
   3   6  -6    1.23    0.15
   3   6  -6    1.07    0.14
   3   6  -6    1.22    0.11
   3   6  -5    7.43    0.20
   3   6  -5    7.82    0.31
   3   6  -4    1.73    0.11
   3   6  -4    1.52    0.17
   3   6  -3    1.31    0.09
   3   6  -3    1.42    0.17
  -3  -6   3    1.05    0.10
   3   6  -2    9.29    0.27
  -3  -6   2    9.18    0.21
   3   6  -1    1.35    0.18
  -3  -6   1    1.17    0.07
  -3  -6   1    1.40    0.17
   3   6   0    5.69    0.23
  -3  -6   0    5.76    0.13
  -3  -6   0    6.25    0.25
   3   6   1    0.14    0.17
  -3  -6  -1    0.22    0.18
   3   6   2    0.26    0.16
  -3  -6  -2   -0.23    0.19
   3   6   3   15.98    0.35
  -3  -6  -3   15.34    0.38
   3   6   4    0.19    0.15
  -3  -6  -4   -0.04    0.18
   3   6   5    0.64    0.24
  -3  -6  -5    0.53    0.20
   3   6   6    7.28    0.31
  -3  -6  -6    7.66    0.28
   3   6   7    0.00    0.20
  -3  -6  -7    0.47    0.27
   3   6   8    2.77    0.16
  -3  -6  -8    3.12    0.21
   3   6   9    0.22    0.11
  -3  -6  -9   -0.07    0.13
  -3  -6  -9    0.18    0.26
   3   6  10    0.93    0.11
  -3  -6 -10    1.19    0.17
  -3  -6 -10    1.62    0.27
   3   6  11    0.23    0.09
  -3  -6 -11    0.42    0.28
  -3  -6 -12    1.14    0.22
   3   7  -7    1.23    0.23
   3   7  -7    1.12    0.22
   3   7  -7    1.10    0.13
   3   7  -6    0.42    0.12
   3   7  -6   -0.02    0.16
   3   7  -6    0.45    0.19
   3   7  -5    0.80    0.12
   3   7  -5    1.00    0.17
   3   7  -5    0.85    0.13
   3   7  -4    0.24    0.09
   3   7  -4   -0.27    0.29
   3   7  -3    1.71    0.22
   3   7  -2    0.10    0.18
   3   7  -1   -0.21    0.19
  -3  -7   1    0.09    0.05
   3   7   0    3.60    0.23
  -3  -7   0    3.48    0.10
  -3  -7   0    4.01    0.26
   3   7   1    5.34    0.26
  -3  -7  -1    4.81    0.10
  -3  -7  -1    5.05    0.27
   3   7   2    7.81    0.29
  -3  -7  -2    7.87    0.11
  -3  -7  -2    7.67    0.32
   3   7   3    8.31    0.41
  -3  -7  -3    8.21    0.34
   3   7   4    1.02    0.20
  -3  -7  -4    0.83    0.23
   3   7   5    3.33    0.22
  -3  -7  -5    3.96    0.40
   3   7   6    0.47    0.29
  -3  -7  -6    0.47    0.22
   3   7   7    0.58    0.17
  -3  -7  -7    0.54    0.21
   3   7   8    2.82    0.28
  -3  -7  -8    2.75    0.14
  -3  -7  -8    2.90    0.24
   3   7   9    0.00    0.13
  -3  -7  -9   -0.01    0.12
  -3  -7  -9   -0.09    0.18
   3   7  10    0.24    0.12
  -3  -7 -10    0.09    0.22
   3   7  11    5.73    0.19
  -3  -7 -11    5.35    0.26
  -3  -7 -12    6.15    0.29
   3   8  -6    0.10    0.11
   3   8  -6    0.57    0.28
   3   8  -6   -0.07    0.13
   3   8  -5   -0.01    0.10
   3   8  -5    0.37    0.20
   3   8  -5    0.19    0.14
   3   8  -4   -0.19    0.21
   3   8  -3    0.40    0.21
   3   8  -2    2.21    0.37
   3   8  -1    5.53    0.44
   3   8   0    1.56    0.40
   3   8   1    6.19    0.45
   3   8   2   35.07    0.65
  -3  -8  -2   34.74    0.33
  -3  -8  -2   36.26    0.70
   3   8   3    0.57    0.24
  -3  -8  -3    0.46    0.04
  -3  -8  -3    0.53    0.26
   3   8   4    0.32    0.35
  -3  -8  -4    0.44    0.25
   3   8   5    1.33    0.23
  -3  -8  -5    1.12    0.06
  -3  -8  -5    1.43    0.26
   3   8   6    5.25    0.27
  -3  -8  -6    5.35    0.13
  -3  -8  -6    6.08    0.32
   3   8   7    0.88    0.30
  -3  -8  -7    0.76    0.09
  -3  -8  -7    0.92    0.24
   3   8   8    1.21    0.30
  -3  -8  -8    1.17    0.12
  -3  -8  -8    1.54    0.24
   3   8   9    0.49    0.25
  -3  -8  -9    0.51    0.12
   3   8  10    0.00    0.14
  -3  -8 -10    0.02    0.13
   3   8  11    0.04    0.13
  -3  -8 -11    0.13    0.15
   3   9  -5    0.08    0.23
   3   9  -5   -0.15    0.17
   3   9  -4    1.35    0.26
   3   9  -4    0.92    0.19
   3   9  -3   -0.03    0.24
   3   9  -2    0.21    0.25
   3   9  -1    0.37    0.41
   3   9   0    7.66    0.37
   3   9   1    0.96    0.44
   3   9   2    1.02    0.29
   3   9   3    1.09    0.27
   3   9   4   11.12    0.42
  -3  -9  -4    9.62    0.11
   3   9   5   10.44    0.38
  -3  -9  -5    9.49    0.15
   3   9   6    0.82    0.24
  -3  -9  -6    0.66    0.10
   3   9   7   -0.05    0.22
  -3  -9  -7    0.35    0.12
   3   9   8    0.15    0.21
  -3  -9  -8    0.27    0.09
   3   9   9    0.35    0.19
  -3  -9  -9    0.04    0.10
   3   9  10    1.02    0.19
  -3  -9 -10    0.07    0.11
   3  10  -3   -0.09    0.28
   3  10  -3    0.52    0.22
   3  10  -2    0.24    0.29
   3  10  -1    1.47    0.46
   3  10   0    0.52    0.48
   3  10   1    0.23    0.47
   3  10   2    0.13    0.30
   3  10   3    4.40    0.36
   3  10   4    8.69    0.42
   3  10   5    8.54    0.39
   3  10   6    7.23    0.38
   3  10   7    0.84    0.24
  -3 -10  -7    0.03    0.05
   3  10   8   -0.79    0.37
  -3 -10  -8    0.14    0.11
   3  10   9    0.54    0.22
  -3 -10  -9    0.13    0.14
   3  11  -1    0.41    0.32
   3  11   0    0.29    0.33
   3  11   1    0.06    0.33
   3  11   2    0.16    0.34
   3  11   3   -0.37    0.35
   3  11   4   -0.06    0.31
   3  11   5    2.27    0.37
   3  11   6    1.34    0.33
   3  11   7    4.51    0.37
   3  11   8    0.75    0.28
   3  12   3    1.23    0.40
   3  12   4    0.16    0.36
   3  12   5    0.78    0.36
  -4   8   5   -0.29    0.31
  -4   8   5   -0.01    0.17
  -4   8   4    1.12    0.53
  -4   8   4    1.06    0.21
  -4   8   3    2.96    0.39
  -4   8   3    3.09    0.27
  -4   8   2    1.12    0.40
  -4   8   2    1.47    0.25
  -4   8   1    3.49    0.30
  -4   8   0    7.84    0.38
  -4   8  -1   -0.05    0.25
  -4   8  -2    1.02    0.43
  -4   8  -3    0.04    0.26
  -4   7   7    0.20    0.23
  -4   7   7    0.10    0.12
  -4   7   6    0.04    0.25
  -4   7   6    0.06    0.15
  -4   7   5    0.68    0.11
  -4   7   5    0.82    0.28
  -4   7   5    0.81    0.17
  -4   7   4    1.13    0.11
  -4   7   4    0.96    0.30
  -4   7   4    1.08    0.18
  -4   7   3    0.04    0.08
  -4   7   3    0.13    0.17
  -4   7   2    1.66    0.14
  -4   7   2    2.28    0.22
  -4   7   1    2.21    0.09
  -4   7   1    2.38    0.24
  -4   7   0    4.90    0.12
  -4   7   0    5.18    0.30
  -4   7  -1    0.37    0.10
  -4   7  -1    0.13    0.24
  -4   7  -2    0.20    0.23
  -4   7  -3    0.22    0.23
  -4   7  -4    0.55    0.24
  -4   7  -5    0.55    0.24
  -4   6   8    0.46    0.19
  -4   6   8    0.09    0.10
  -4   6   7    0.22    0.29
  -4   6   7   -0.02    0.10
  -4   6   6    0.55    0.21
  -4   6   6    0.63    0.35
  -4   6   6    0.55    0.13
  -4   6   5    0.30    0.18
  -4   6   5    0.40    0.23
  -4   6   5    0.14    0.21
  -4   6   4    3.66    0.21
  -4   6   4    3.90    0.20
  -4   6   3    1.21    0.11
  -4   6   3    1.29    0.17
  -4   6   2    1.82    0.11
  -4   6   2    1.89    0.19
  -4   6   1   -0.05    0.07
  -4   6   1    0.12    0.17
  -4   6   0    1.26    0.09
  -4   6   0    1.48    0.22
  -4   6  -1    0.84    0.22
  -4   6  -2    4.48    0.40
  -4   6  -3    0.36    0.21
  -4   6  -4    0.68    0.22
  -4   6  -5    0.27    0.21
  -4   6  -6    0.09    0.20
   4  -5  -9    0.32    0.16
  -4   5   7    9.13    0.29
  -4   5   7    8.18    0.30
  -4   5   6    0.29    0.14
  -4   5   6    0.41    0.18
  -4   5   6    0.25    0.11
  -4   5   5    1.15    0.14
  -4   5   5    1.04    0.13
  -4   5   4    0.53    0.18
  -4   5   4    0.93    0.20
  -4   5   3    3.23    0.14
  -4   5   3    3.30    0.18
  -4   5   2    0.54    0.14
  -4   5   2    0.38    0.15
  -4   5   1    0.19    0.13
  -4   5   1    0.34    0.16
  -4   5   0    0.96    0.13
  -4   5   0    1.38    0.18
  -4   5  -1    1.60    0.20
  -4   5  -2    0.44    0.19
  -4   5  -3   10.24    0.32
  -4   5  -4    0.43    0.30
  -4   5  -5    0.80    0.20
  -4   5  -6    2.40    0.22
  -4   5  -7    3.13    0.23
  -4   5  -8    0.81    0.20
   4  -4  -9    0.11    0.26
   4  -4  -8    0.21    0.15
  -4   4   8    0.28    0.18
  -4   4   8    0.38    0.11
  -4   4   8    0.20    0.10
   4  -4  -7    3.79    0.19
  -4   4   7    3.66    0.22
  -4   4   7    3.19    0.19
  -4   4   7    3.66    0.13
  -4   4   6    1.91    0.18
  -4   4   6    1.82    0.12
  -4   4   5    4.78    0.19
  -4   4   5    4.34    0.16
  -4   4   4    0.46    0.12
  -4   4   4    0.39    0.11
  -4   4   3    5.52    0.23
  -4   4   3    5.22    0.18
  -4   4   2    0.25    0.10
  -4   4   2    0.38    0.13
   4  -4  -1    0.08    0.14
  -4   4   1    0.02    0.08
   4  -4   0    0.58    0.17
  -4   4   0    0.58    0.24
   4  -4   1   -0.10    0.16
  -4   4  -1   -0.14    0.16
   4  -4   2    0.10    0.16
  -4   4  -2    0.06    0.16
   4  -4   3    1.46    0.19
  -4   4  -3    1.26    0.18
   4  -4   4    0.65    0.18
  -4   4  -4    0.98    0.18
  -4   4  -5    1.64    0.19
  -4   4  -6   -0.22    0.17
  -4   4  -7    0.42    0.16
  -4   4  -8   -0.07    0.24
  -4   4  -9    1.26    0.27
   4  -3 -10    0.13    0.20
   4  -3  -9   -0.02    0.17
   4  -3  -8    0.11    0.16
  -4   3   8    0.36    0.18
  -4   3   8    0.23    0.12
   4  -3  -7    1.95    0.17
  -4   3   7    1.86    0.20
  -4   3   7    2.12    0.18
  -4   3   7    1.99    0.09
   4  -3  -6    0.18    0.12
  -4   3   6   -0.14    0.15
  -4   3   6    0.12    0.07
  -4   3   5    4.11    0.19
  -4   3   5    4.58    0.14
  -4   3   4    0.02    0.19
  -4   3   4    0.20    0.09
   4  -3  -3    0.14    0.12
  -4   3   3    0.33    0.11
  -4   3   3    0.45    0.10
   4  -3  -2   -0.02    0.12
  -4   3   2    0.06    0.09
  -4   3   2   -0.03    0.16
   4  -3  -1   10.81    0.25
  -4   3   1   10.66    0.21
  -4   3   1   10.60    0.24
   4  -3   0    7.03    0.22
  -4   3   0    7.77    0.21
   4  -3   1    0.42    0.22
  -4   3  -1    0.35    0.13
   4  -3   2    4.47    0.28
  -4   3  -2    3.85    0.27
   4  -3   3    2.33    0.17
  -4   3  -3    2.19    0.17
   4  -3   4    0.11    0.15
  -4   3  -4    0.11    0.14
   4  -3   5    4.50    0.21
  -4   3  -5    4.18    0.20
   4  -3   6    5.31    0.23
  -4   3  -6    5.77    0.21
  -4   3  -7    0.04    0.22
  -4   3  -8    0.18    0.14
  -4   3  -9    0.44    0.18
  -4   3  -9    0.62    0.14
   4  -2 -10    0.01    0.21
   4  -2  -9    0.31    0.19
   4  -2  -8    0.57    0.28
  -4   2   8    0.39    0.20
   4  -2  -7    0.02    0.15
  -4   2   7    0.01    0.17
  -4   2   7    0.15    0.11
  -4   2   7    0.12    0.05
   4  -2  -6    1.07    0.14
  -4   2   6    0.95    0.17
  -4   2   6    0.76    0.10
   4  -2  -5    1.27    0.13
  -4   2   5    1.28    0.24
  -4   2   5    1.34    0.08
   4  -2  -4    0.97    0.15
  -4   2   4    0.79    0.14
  -4   2   4    0.93    0.08
   4  -2  -3   -0.08    0.15
  -4   2   3    0.15    0.17
  -4   2   3    0.06    0.08
   4  -2  -2    2.69    0.13
  -4   2   2    3.00    0.13
  -4   2   2    2.66    0.12
   4  -2  -1   36.66    0.51
  -4   2   1   34.56    0.51
  -4   2   1   36.58    0.49
   4  -2   0    0.64    0.12
  -4   2   0    0.66    0.11
   4  -2   1    9.84    0.24
  -4   2  -1    9.99    0.23
   4  -2   2    0.60    0.14
  -4   2  -2    0.65    0.21
   4  -2   3    2.91    0.16
  -4   2  -3    2.99    0.16
   4  -2   4    1.55    0.15
  -4   2  -4    1.32    0.14
   4  -2   5    6.53    0.21
  -4   2  -5    6.51    0.21
   4  -2   6    0.08    0.13
  -4   2  -6    0.02    0.20
   4  -2   7    0.29    0.14
  -4   2  -7    0.31    0.13
   4  -2   8    2.37    0.17
  -4   2  -8    2.12    0.16
  -4   2  -9    0.26    0.13
  -4   2 -10    0.12    0.20
  -4   2 -10    0.04    0.12
   4  -1 -10    2.44    0.27
   4  -1  -9    0.18    0.21
   4  -1  -8    0.95    0.20
  -4   1   8    0.70    0.21
   4  -1  -7    1.91    0.20
  -4   1   7    1.90    0.21
   4  -1  -6    7.80    0.24
  -4   1   6    7.57    0.26
  -4   1   6    7.49    0.15
   4  -1  -5    8.05    0.23
   4  -1  -5    7.87    0.15
  -4   1   5    8.28    0.33
  -4   1   5    7.83    0.15
   4  -1  -4    0.26    0.11
   4  -1  -4    0.25    0.11
  -4   1   4    0.35    0.13
  -4   1   4    0.28    0.10
   4  -1  -3    6.00    0.19
  -4   1   3    5.88    0.25
  -4   1   3    5.83    0.13
   4  -1  -2   51.48    0.64
  -4   1   2   52.74    0.72
  -4   1   2   50.73    0.66
   4  -1  -1   77.40    0.91
  -4   1   1   77.53    0.90
  -4   1   1   80.24    0.92
   4  -1   0    8.13    0.20
  -4   1   0    8.10    0.18
   4  -1   1    6.84    0.18
  -4   1  -1    6.58    0.17
   4  -1   2    2.43    0.15
  -4   1  -2    2.64    0.14
   4  -1   3  117.10    1.35
  -4   1  -3  116.21    1.33
   4  -1   4    4.54    0.24
  -4   1  -4    4.54    0.22
   4  -1   5   -0.12    0.11
  -4   1  -5    0.16    0.11
   4  -1   6    0.23    0.18
  -4   1  -6    0.05    0.11
   4  -1   7    8.03    0.22
  -4   1  -7    8.11    0.28
   4  -1   8   -0.06    0.11
  -4   1  -8    0.13    0.11
   4  -1   9    3.57    0.16
  -4   1  -9    3.53    0.23
  -4   1 -10    0.27    0.20
  -4   1 -11    0.54    0.24
   4   0 -10    0.71    0.26
   4   0  -9    0.00    0.21
   4   0  -8    6.13    0.28
  -4   0   8    5.95    0.29
   4   0  -7    6.04    0.26
  -4   0   7    6.10    0.27
   4   0  -6    0.00    0.16
   4   0  -6    0.11    0.04
  -4   0   6    0.30    0.17
  -4   0   6    0.01    0.04
   4   0  -5    3.35    0.18
   4   0  -5    3.46    0.09
  -4   0   5    3.27    0.28
  -4   0   5    3.32    0.09
   4   0  -4    0.07    0.12
   4   0  -4    0.12    0.06
  -4   0   4    0.18    0.13
  -4   0   4    0.17    0.05
   4   0  -3   19.72    0.28
  -4   0   3   20.76    0.41
  -4   0   3   20.13    0.28
   4   0  -2   10.05    0.18
  -4   0   2    9.98    0.21
  -4   0   2    9.88    0.17
   4   0  -1   39.77    0.55
  -4   0   1   38.99    0.50
  -4   0   1   39.75    0.53
   4   0   0   39.05    0.50
  -4   0   0   39.47    0.49
   4   0   1   32.88    0.44
  -4   0  -1   33.05    0.43
   4   0   2   23.48    0.35
  -4   0  -2   24.00    0.35
   4   0   3   12.68    0.24
  -4   0  -3   12.56    0.24
   4   0   4    0.75    0.11
  -4   0  -4    0.70    0.11
   4   0   5    0.29    0.11
  -4   0  -5    0.52    0.11
   4   0   6    0.56    0.17
  -4   0  -6    0.30    0.10
   4   0   7    0.20    0.16
  -4   0  -7    0.19    0.10
   4   0   8    1.48    0.19
  -4   0  -8    1.74    0.13
   4   0   9    2.11    0.19
  -4   0  -9    2.09    0.14
   4   0  10    0.30    0.11
  -4   0 -10    0.42    0.12
  -4   0 -11   -0.01    0.23
  -4   0 -11    0.13    0.18
   4   1 -10    0.02    0.24
   4   1  -9    0.10    0.22
   4   1  -8    0.53    0.21
  -4  -1   8    0.17    0.22
   4   1  -7    0.93    0.20
  -4  -1   7    0.51    0.20
   4   1  -6    0.98    0.18
   4   1  -6    0.70    0.05
  -4  -1   6    0.89    0.19
  -4  -1   6    0.66    0.06
   4   1  -5    8.67    0.25
   4   1  -5    8.99    0.14
  -4  -1   5    9.13    0.26
  -4  -1   5    9.30    0.15
   4   1  -4    0.39    0.13
   4   1  -4    0.32    0.06
  -4  -1   4   -0.12    0.22
  -4  -1   4    0.27    0.06
   4   1  -3    1.00    0.13
   4   1  -3    0.87    0.07
  -4  -1   3    0.97    0.12
  -4  -1   3    0.88    0.07
   4   1  -2    1.08    0.08
  -4  -1   2    1.07    0.12
  -4  -1   2    1.01    0.12
   4   1  -1    5.93    0.19
  -4  -1   1    5.84    0.16
  -4  -1   1    5.86    0.19
   4   1   0   51.54    0.61
  -4  -1   0   52.77    0.62
   4   1   1   24.86    0.35
  -4  -1  -1   24.71    0.35
   4   1   2   16.69    0.27
  -4  -1  -2   16.99    0.28
   4   1   3    0.28    0.11
  -4  -1  -3    0.29    0.11
   4   1   4    7.31    0.18
  -4  -1  -4    7.73    0.24
   4   1   5   19.79    0.31
  -4  -1  -5   20.36    0.33
   4   1   6    1.93    0.12
  -4  -1  -6    1.97    0.13
   4   1   7    2.21    0.12
  -4  -1  -7    2.40    0.13
   4   1   8    0.27    0.10
  -4  -1  -8    0.34    0.11
   4   1   9    2.83    0.19
  -4  -1  -9    2.74    0.15
   4   1  10    8.44    0.21
  -4  -1 -10    8.49    0.22
   4   1  11    1.82    0.16
  -4  -1 -11    1.70    0.27
  -4  -1 -11    1.66    0.20
  -4  -1 -12    0.44    0.27
   4   2 -10   -0.34    0.25
   4   2  -9    0.01    0.22
   4   2  -8    2.58    0.24
  -4  -2   8    2.54    0.25
   4   2  -7    4.35    0.24
  -4  -2   7    4.33    0.36
   4   2  -6    0.37    0.18
   4   2  -6    0.57    0.05
  -4  -2   6    0.82    0.18
  -4  -2   6    0.68    0.05
   4   2  -5   25.16    0.52
   4   2  -5   25.03    0.30
  -4  -2   5   25.15    0.44
  -4  -2   5   25.34    0.34
   4   2  -4    1.23    0.14
   4   2  -4    1.47    0.07
  -4  -2   4    1.19    0.16
  -4  -2   4    1.31    0.08
   4   2  -3    3.84    0.15
   4   2  -3    3.39    0.10
  -4  -2   3    3.42    0.16
  -4  -2   3    3.56    0.11
   4   2  -2    1.86    0.13
  -4  -2   2    1.91    0.13
  -4  -2   2    1.90    0.10
   4   2  -1    2.25    0.11
  -4  -2   1    2.17    0.13
  -4  -2   1    2.20    0.11
   4   2   0   79.46    0.89
  -4  -2   0   78.82    0.90
   4   2   1   52.53    0.63
  -4  -2  -1   50.61    0.61
   4   2   2    7.17    0.18
  -4  -2  -2    7.11    0.19
   4   2   3    2.24    0.13
  -4  -2  -3    2.29    0.14
   4   2   4    1.31    0.11
  -4  -2  -4    1.31    0.12
   4   2   5    5.88    0.16
  -4  -2  -5    5.98    0.17
   4   2   6    0.35    0.10
  -4  -2  -6    0.51    0.11
   4   2   7    0.13    0.09
  -4  -2  -7    0.15    0.11
   4   2   8    0.13    0.09
  -4  -2  -8    0.00    0.11
   4   2   9    1.05    0.10
  -4  -2  -9    0.85    0.13
   4   2  10    3.09    0.13
  -4  -2 -10    3.10    0.16
   4   2  11    0.34    0.14
  -4  -2 -11    0.84    0.24
  -4  -2 -11    0.21    0.12
  -4  -2 -12    0.13    0.41
   4   3  -9    0.12    0.23
   4   3  -8    2.55    0.24
   4   3  -7    1.84    0.22
   4   3  -7    1.77    0.04
  -4  -3   7    1.92    0.22
   4   3  -6    1.89    0.18
  -4  -3   6    1.96    0.20
   4   3  -5    0.27    0.23
   4   3  -5    0.22    0.06
  -4  -3   5    0.17    0.16
  -4  -3   5    0.17    0.13
   4   3  -4    1.44    0.14
   4   3  -4    1.33    0.08
  -4  -3   4    1.37    0.24
  -4  -3   4    1.39    0.10
   4   3  -3   19.09    0.32
   4   3  -3   18.87    0.28
  -4  -3   3   18.72    0.33
  -4  -3   3   20.01    0.31
   4   3  -2    0.06    0.14
  -4  -3   2    0.00    0.11
  -4  -3   2    0.49    0.14
   4   3  -1    1.64    0.11
  -4  -3   1    1.66    0.12
  -4  -3   1    1.75    0.12
   4   3   0   35.30    0.47
  -4  -3   0   36.14    0.49
  -4  -3  -1    9.05    0.28
   4   3   2   42.43    0.55
  -4  -3  -2   44.00    0.58
   4   3   3    0.95    0.20
  -4  -3  -3    1.06    0.15
   4   3   4    0.17    0.10
  -4  -3  -4    0.01    0.12
   4   3   5    0.72    0.11
  -4  -3  -5    0.87    0.13
   4   3   6    3.12    0.13
  -4  -3  -6    3.25    0.15
   4   3   7   10.32    0.21
  -4  -3  -7    9.98    0.31
   4   3   8    0.18    0.14
  -4  -3  -8    0.14    0.12
   4   3   9    1.21    0.10
  -4  -3  -9    1.40    0.14
   4   3  10    0.19    0.13
  -4  -3 -10    0.56    0.12
   4   3  11    1.24    0.10
  -4  -3 -11    1.25    0.24
  -4  -3 -11    1.33    0.14
  -4  -3 -12    1.22    0.42
   4   4  -9   -0.10    0.22
   4   4  -8    0.09    0.20
   4   4  -7    4.93    0.24
   4   4  -7    4.30    0.12
   4   4  -7    4.29    0.13
   4   4  -6    0.18    0.15
   4   4  -6   -0.08    0.10
  -4  -4   6   -0.04    0.25
   4   4  -5    2.19    0.17
   4   4  -5    2.07    0.10
  -4  -4   5    2.22    0.27
   4   4  -4    0.85    0.14
   4   4  -4    0.92    0.10
  -4  -4   4    1.06    0.15
  -4  -4   4    0.93    0.12
   4   4  -3    8.23    0.20
   4   4  -3    8.51    0.24
  -4  -4   3    8.05    0.21
  -4  -4   3    7.89    0.27
   4   4  -2   27.53    0.40
  -4  -4   2   27.20    0.40
  -4  -4   2   27.07    0.42
   4   4  -1    2.09    0.13
  -4  -4   1    2.16    0.11
  -4  -4   1    2.27    0.15
   4   4   0    0.04    0.11
  -4  -4   0    0.15    0.08
  -4  -4   0   -0.11    0.12
   4   4   1   22.55    0.36
  -4  -4  -1   22.52    0.37
   4   4   2   10.74    0.24
  -4  -4  -2   10.59    0.26
   4   4   3   12.43    0.26
  -4  -4  -3   12.10    0.28
   4   4   4   13.04    0.26
  -4  -4  -4   13.41    0.28
   4   4   5    0.13    0.10
  -4  -4  -5    0.10    0.13
   4   4   6    4.79    0.16
  -4  -4  -6    4.44    0.18
   4   4   7   11.87    0.24
  -4  -4  -7   11.95    0.28
   4   4   8    0.15    0.10
  -4  -4  -8    0.30    0.13
   4   4   9    0.06    0.14
  -4  -4  -9    0.11    0.14
   4   4  10    0.22    0.09
  -4  -4 -10    0.41    0.14
   4   4  11    2.09    0.11
  -4  -4 -11    1.98    0.24
  -4  -4 -11    2.36    0.16
  -4  -4 -12   -0.54    0.38
   4   5  -8    1.93    0.34
   4   5  -7    0.66    0.27
   4   5  -7    0.63    0.07
   4   5  -7    0.57    0.12
   4   5  -6    8.28    0.26
   4   5  -6    8.81    0.19
  -4  -5   6    8.77    0.28
   4   5  -5   -0.06    0.13
   4   5  -5   -0.04    0.09
  -4  -5   5    0.10    0.14
   4   5  -4    5.22    0.19
   4   5  -4    6.01    0.18
  -4  -5   4    5.73    0.20
  -4  -5   4    6.02    0.20
   4   5  -3    0.71    0.12
  -4  -5   3    0.82    0.12
  -4  -5   3    0.90    0.22
   4   5  -2    0.13    0.19
  -4  -5   2    0.26    0.10
  -4  -5   2    0.32    0.14
   4   5  -1    1.36    0.14
  -4  -5   1    1.32    0.10
  -4  -5   1    1.17    0.16
   4   5   0   10.12    0.25
  -4  -5   0   10.07    0.18
  -4  -5   0   10.70    0.27
   4   5   1    0.11    0.22
  -4  -5  -1    0.23    0.23
   4   5   2    1.45    0.16
  -4  -5  -2    1.46    0.18
   4   5   3    1.45    0.16
  -4  -5  -3    1.76    0.29
   4   5   4   29.87    0.46
  -4  -5  -4   29.56    0.49
   4   5   5    1.73    0.15
  -4  -5  -5    2.11    0.18
   4   5   6   11.05    0.25
  -4  -5  -6   11.70    0.38
   4   5   7    0.13    0.12
  -4  -5  -7    0.12    0.15
   4   5   8    5.67    0.18
  -4  -5  -8    5.27    0.23
   4   5   9    2.49    0.14
  -4  -5  -9    2.06    0.19
   4   5  10   18.00    0.32
  -4  -5 -10   18.76    0.48
   4   5  11    0.24    0.14
  -4  -5 -11    0.11    0.18
  -4  -5 -11    0.10    0.15
  -4  -5 -12    0.03    0.20
   4   6  -8    0.23    0.18
   4   6  -7    0.28    0.16
   4   6  -7    0.20    0.09
   4   6  -7    0.09    0.14
   4   6  -6    0.02    0.14
   4   6  -6    0.06    0.10
   4   6  -5    0.81    0.20
   4   6  -5    0.27    0.13
  -4  -6   5    0.09    0.14
   4   6  -4    0.84    0.12
   4   6  -4    0.80    0.15
  -4  -6   4    0.98    0.13
   4   6  -3    0.33    0.14
  -4  -6   3    0.37    0.11
  -4  -6   3    0.10    0.16
   4   6  -2    2.31    0.18
  -4  -6   2    2.15    0.17
  -4  -6   2    1.96    0.19
   4   6  -1    0.55    0.16
  -4  -6   1    0.66    0.13
  -4  -6   1    0.77    0.17
   4   6   0    0.67    0.17
  -4  -6   0    0.51    0.07
  -4  -6   0    0.81    0.18
   4   6   1    3.33    0.21
  -4  -6  -1    3.95    0.13
  -4  -6  -1    3.40    0.22
   4   6   2    1.11    0.17
  -4  -6  -2    1.01    0.20
   4   6   3    3.95    0.21
  -4  -6  -3    4.30    0.37
   4   6   4    9.46    0.26
  -4  -6  -4    9.87    0.31
   4   6   5    6.16    0.23
  -4  -6  -5    6.11    0.26
   4   6   6   -0.17    0.14
  -4  -6  -6    0.23    0.17
   4   6   7    0.15    0.14
  -4  -6  -7    0.59    0.28
   4   6   8    0.28    0.13
  -4  -6  -8    0.42    0.19
   4   6   9   15.32    0.38
  -4  -6  -9   15.01    0.48
   4   6  10   15.17    0.31
  -4  -6 -10   15.99    0.40
   4   6  11    2.39    0.20
  -4  -6 -11    2.73    0.22
  -4  -6 -11    2.86    0.21
  -4  -6 -12    1.24    0.22
   4   7  -7    0.27    0.26
   4   7  -6    0.27    0.14
   4   7  -6    0.03    0.13
   4   7  -6    0.10    0.12
   4   7  -5    0.54    0.13
   4   7  -5    0.24    0.15
   4   7  -4    1.48    0.29
   4   7  -3    3.97    0.23
  -4  -7   3    4.12    0.15
   4   7  -2    9.44    0.29
  -4  -7   2    9.27    0.20
  -4  -7   2   10.21    0.31
   4   7  -1   -0.05    0.27
  -4  -7   1    0.17    0.12
  -4  -7   1    0.17    0.19
   4   7   0   10.50    0.42
  -4  -7   0   10.67    0.18
  -4  -7   0   11.36    0.47
   4   7   1   18.29    0.40
  -4  -7  -1   18.22    0.25
  -4  -7  -1   18.65    0.44
   4   7   2   19.88    0.42
  -4  -7  -2   19.79    0.59
   4   7   3   24.14    0.47
  -4  -7  -3   24.00    0.52
   4   7   4    0.17    0.18
  -4  -7  -4    0.53    0.22
   4   7   5    0.92    0.18
  -4  -7  -5    0.92    0.23
   4   7   6    1.83    0.19
  -4  -7  -6    1.72    0.25
   4   7   7    3.33    0.20
  -4  -7  -7    3.28    0.25
   4   7   8    0.26    0.15
  -4  -7  -8    0.14    0.20
   4   7   9    1.54    0.16
  -4  -7  -9    1.45    0.23
   4   7  10    0.57    0.14
  -4  -7 -10    0.71    0.16
  -4  -7 -10    0.82    0.33
   4   7  11    1.53    0.14
  -4  -7 -11    1.35    0.20
  -4  -7 -11    1.62    0.23
  -4  -7 -12    2.90    0.35
   4   8  -6    1.18    0.18
   4   8  -6    1.38    0.15
   4   8  -5    0.62    0.28
   4   8  -4    0.28    0.19
   4   8  -3    0.86    0.32
   4   8  -2    2.26    0.24
  -4  -8   2    1.83    0.10
   4   8  -1    5.04    0.28
  -4  -8   1    5.12    0.16
   4   8   0    5.59    0.29
  -4  -8   0    5.30    0.12
  -4  -8   0    5.35    0.30
   4   8   1    3.31    0.26
  -4  -8  -1    3.09    0.30
   4   8   2    7.32    0.33
  -4  -8  -2    7.07    0.15
  -4  -8  -2    7.59    0.36
   4   8   3   51.21    0.81
  -4  -8  -3   52.74    1.04
   4   8   4    0.81    0.23
  -4  -8  -4    0.99    0.27
   4   8   5    1.16    0.33
  -4  -8  -5    1.00    0.27
   4   8   6   -0.13    0.20
  -4  -8  -6   -0.10    0.25
   4   8   7    0.74    0.20
  -4  -8  -7    0.49    0.25
   4   8   8    1.16    0.19
  -4  -8  -8    1.42    0.40
   4   8   9    0.03    0.16
  -4  -8  -9    0.18    0.12
  -4  -8  -9    0.48    0.23
   4   8  10   -0.11    0.15
  -4  -8 -10   -0.04    0.14
  -4  -8 -10   -0.10    0.33
   4   8  11    0.34    0.14
  -4  -8 -11    0.33    0.16
  -4  -8 -11    0.16    0.21
   4   9  -5   -0.07    0.21
   4   9  -5    0.38    0.16
   4   9  -4    0.43    0.22
   4   9  -3   -0.16    0.22
   4   9  -2   -0.02    0.23
   4   9  -1    0.55    0.25
   4   9   0    0.85    0.25
  -4  -9   0    0.48    0.05
   4   9   1    7.76    0.35
  -4  -9  -1    7.37    0.13
   4   9   2    2.16    0.29
  -4  -9  -2    2.37    0.07
  -4  -9  -2    2.54    0.32
   4   9   3   12.69    0.43
  -4  -9  -3   12.36    0.18
  -4  -9  -3   12.96    0.47
   4   9   4   30.81    0.62
  -4  -9  -4   32.14    0.88
   4   9   5    0.75    0.24
  -4  -9  -5   -0.48    0.49
   4   9   6    1.54    0.25
  -4  -9  -6    1.76    0.48
   4   9   7    0.30    0.22
  -4  -9  -7    0.14    0.08
  -4  -9  -7   -0.33    0.42
   4   9   8    2.49    0.24
  -4  -9  -8    2.06    0.18
  -4  -9  -8    2.36    0.30
   4   9   9    0.02    0.18
  -4  -9  -9    0.05    0.10
  -4  -9  -9    0.07    0.25
   4   9  10    0.04    0.17
  -4  -9 -10    0.10    0.18
   4   9  11   -0.06    0.16
  -4  -9 -11   -0.03    0.12
   4  10  -3    0.55    0.27
   4  10  -2    0.23    0.26
   4  10  -1    0.62    0.27
   4  10   0    0.06    0.26
   4  10   1    0.73    0.28
   4  10   2    0.39    0.28
   4  10   3    4.49    0.33
   4  10   4    0.64    0.30
   4  10   7    0.79    0.25
  -4 -10  -7    0.08    0.06
   4  10   8    0.31    0.36
  -4 -10  -8   -0.06    0.08
   4  10   9    0.62    0.23
  -4 -10  -9    0.17    0.15
   4  10  10    1.10    0.22
  -4 -10 -10    0.04    0.11
   4  11  -1    0.00    0.29
   4  11   0    1.40    0.33
   4  11   1    2.16    0.35
   4  11   2    0.45    0.32
   4  11   3   -0.10    0.32
   4  11   4    0.39    0.31
   4  11   5    0.51    0.30
   4  11   6    3.49    0.36
   4  11   7   -0.08    0.42
   4  11   8    1.22    0.29
   4  12   2    1.88    0.41
   4  12   3   -0.03    0.35
   4  12   4    0.53    0.34
   4  12   5    0.32    0.34
  -5   8   2    2.53    0.28
  -5   8   1    0.72    0.27
  -5   7   5    0.31    0.13
  -5   7   5   -0.24    0.30
  -5   7   5    0.22    0.17
  -5   7   4    0.15    0.12
  -5   7   4    0.30    0.18
  -5   7   3    0.10    0.10
  -5   7   3    0.16    0.19
  -5   7   2    0.60    0.10
  -5   7   2    1.02    0.21
  -5   7   1    0.12    0.22
  -5   7   0    0.65    0.26
  -5   7  -1    0.16    0.25
  -5   7  -2   -0.10    0.40
  -5   7  -3   -0.17    0.25
  -5   6   7    0.78    0.17
  -5   6   7    0.85    0.24
  -5   6   6    1.33    0.17
  -5   6   6    1.86    0.27
  -5   6   5    0.79    0.15
  -5   6   5    0.98    0.17
  -5   6   4    0.59    0.12
  -5   6   4    0.57    0.25
  -5   6   3    0.03    0.11
  -5   6   3   -0.19    0.16
  -5   6   2    0.11    0.16
  -5   6   2    0.13    0.17
  -5   6   1    1.20    0.11
  -5   6   1    0.55    0.22
  -5   6   0    0.01    0.09
  -5   6   0    0.48    0.21
  -5   6  -1    1.34    0.16
  -5   6  -1    1.25    0.25
  -5   6  -2    0.43    0.37
  -5   6  -3    1.71    0.26
  -5   6  -4    4.75    0.30
  -5   6  -5    0.54    0.23
  -5   5   8    0.03    0.18
  -5   5   8    0.05    0.09
  -5   5   7    0.20    0.18
  -5   5   7    0.73    0.29
  -5   5   6    0.45    0.16
  -5   5   6    0.34    0.12
  -5   5   5    3.25    0.19
  -5   5   5    3.08    0.25
  -5   5   4    0.91    0.14
  -5   5   4    0.80    0.15
  -5   5   3    0.00    0.11
  -5   5   3    0.03    0.14
  -5   5   2    0.25    0.11
  -5   5   2    0.50    0.24
  -5   5   1    1.68    0.12
  -5   5   1    1.95    0.20
  -5   5   0    1.83    0.12
  -5   5   0    1.55    0.21
  -5   5  -1    3.49    0.36
  -5   5  -2    0.32    0.21
  -5   5  -3    9.08    0.33
  -5   5  -4    2.49    0.38
  -5   5  -5    2.67    0.25
  -5   5  -6    0.91    0.32
  -5   5  -7    0.77    0.20
  -5   4   8    0.57    0.20
  -5   4   7    0.13    0.18
  -5   4   7    0.46    0.15
  -5   4   7   -0.01    0.08
  -5   4   6    0.09    0.16
  -5   4   6    0.32    0.10
  -5   4   5    1.54    0.17
  -5   4   5    1.42    0.13
  -5   4   4    0.67    0.22
  -5   4   4    0.63    0.13
  -5   4   3    1.88    0.14
  -5   4   3    1.95    0.15
   5  -4  -2    8.90    0.28
  -5   4   2    8.94    0.29
  -5   4   2    8.67    0.25
   5  -4  -1    0.86    0.18
  -5   4   1    0.86    0.12
  -5   4   1    0.92    0.16
   5  -4   0    4.49    0.23
  -5   4   0    4.36    0.15
  -5   4   0    4.69    0.22
   5  -4   1    0.58    0.19
  -5   4  -1    0.95    0.19
   5  -4   2    0.25    0.18
  -5   4  -2    0.42    0.18
   5  -4   3    1.35    0.21
  -5   4  -3    1.36    0.20
   5  -4   4    6.73    0.29
  -5   4  -4    6.85    0.27
   5  -4   5    3.22    0.24
  -5   4  -5    3.40    0.23
  -5   4  -6    0.67    0.19
  -5   4  -7    0.16    0.29
  -5   4  -8    0.01    0.17
   5  -3  -9    0.15    0.18
  -5   3   9   -0.03    0.22
  -5   3   8   -0.07    0.20
  -5   3   7    0.10    0.29
  -5   3   7    0.07    0.07
  -5   3   6    0.09    0.17
  -5   3   5    0.26    0.16
  -5   3   5    0.72    0.15
   5  -3  -4   -0.11    0.12
  -5   3   4    0.02    0.13
  -5   3   4    0.06    0.09
   5  -3  -3    3.70    0.26
  -5   3   3    3.48    0.15
   5  -3  -2    0.06    0.14
  -5   3   2    0.25    0.11
  -5   3   2    0.09    0.12
   5  -3  -1    2.39    0.18
  -5   3   1    1.87    0.13
  -5   3   1    2.04    0.23
   5  -3   0    0.42    0.16
  -5   3   0    0.70    0.23
   5  -3   1    8.38    0.27
  -5   3  -1    8.45    0.34
   5  -3   2    0.42    0.17
  -5   3  -2    0.29    0.16
   5  -3   3    0.71    0.18
  -5   3  -3    0.99    0.17
   5  -3   4    0.02    0.26
  -5   3  -4   -0.06    0.17
   5  -3   5    2.15    0.21
  -5   3  -5    2.41    0.19
   5  -3   6    2.19    0.21
  -5   3  -6    2.18    0.21
   5  -3   7    0.18    0.17
  -5   3  -7    0.03    0.16
  -5   3  -8    0.10    0.16
  -5   3  -9    0.80    0.27
   5  -2  -9    1.13    0.22
  -5   2   9    1.06    0.25
   5  -2  -8    1.00    0.19
  -5   2   8    0.83    0.23
   5  -2  -7    1.68    0.19
  -5   2   7    1.86    0.23
  -5   2   6    0.92    0.19
  -5   2   6    0.90    0.13
   5  -2  -5    4.87    0.16
  -5   2   5    4.83    0.23
  -5   2   5    4.52    0.14
   5  -2  -4    0.79    0.11
  -5   2   4    0.48    0.15
  -5   2   4    0.48    0.09
   5  -2  -3    4.64    0.17
  -5   2   3    5.14    0.19
  -5   2   3    4.66    0.21
   5  -2  -2    0.08    0.20
  -5   2   2    0.30    0.18
  -5   2   2    0.24    0.10
   5  -2  -1    1.97    0.16
  -5   2   1    1.91    0.13
  -5   2   1    1.97    0.13
   5  -2   0   11.69    0.27
  -5   2   0   11.80    0.33
   5  -2   1   30.81    0.49
  -5   2  -1   30.74    0.55
   5  -2   2    2.58    0.19
  -5   2  -2    2.95    0.26
   5  -2   3   -0.11    0.15
  -5   2  -3    0.08    0.13
   5  -2   4    1.49    0.17
  -5   2  -4    2.11    0.17
   5  -2   5    8.84    0.36
  -5   2  -5    8.68    0.34
   5  -2   6    1.24    0.18
  -5   2  -6    1.61    0.17
   5  -2   7    0.28    0.25
  -5   2  -7    0.31    0.15
   5  -2   8   -0.07    0.16
  -5   2  -8   -0.05    0.23
   5  -2   9   -0.05    0.15
  -5   2  -9    0.04    0.14
  -5   2 -10    0.15    0.15
   5  -1  -9    1.75    0.25
  -5   1   9    1.94    0.27
   5  -1  -8    0.02    0.30
  -5   1   8   -0.13    0.22
   5  -1  -7   -0.05    0.17
  -5   1   7    0.16    0.18
  -5   1   7    0.05    0.05
   5  -1  -6    0.65    0.17
  -5   1   6    0.54    0.19
  -5   1   6    0.57    0.07
   5  -1  -5    0.10    0.13
  -5   1   5    0.21    0.17
  -5   1   5    0.32    0.11
   5  -1  -4   -0.08    0.09
  -5   1   4   -0.19    0.23
   5  -1  -3    2.91    0.13
  -5   1   3    2.84    0.17
  -5   1   3    2.83    0.12
   5  -1  -2    2.01    0.13
  -5   1   2    2.16    0.14
   5  -1  -1    5.98    0.18
  -5   1   1    5.37    0.23
  -5   1   1    5.74    0.16
   5  -1   0    2.75    0.16
  -5   1   0    2.52    0.14
   5  -1   1    4.47    0.18
  -5   1  -1    4.70    0.17
   5  -1   2    0.44    0.13
  -5   1  -2    0.17    0.12
   5  -1   3    0.69    0.14
  -5   1  -3    0.72    0.14
   5  -1   4    1.30    0.15
  -5   1  -4    1.77    0.15
   5  -1   5    1.02    0.15
  -5   1  -5    0.78    0.23
   5  -1   6   -0.11    0.14
  -5   1  -6   -0.08    0.14
   5  -1   7    1.60    0.17
  -5   1  -7    1.31    0.16
   5  -1   8    1.61    0.17
  -5   1  -8    1.97    0.24
   5  -1   9    0.17    0.22
  -5   1  -9    0.26    0.14
   5  -1  10    0.36    0.23
  -5   1 -10    0.66    0.15
   5   0  -9    0.45    0.24
  -5   0   9    0.28    0.24
   5   0  -8   -0.26    0.22
  -5   0   8   -0.34    0.22
   5   0  -7    2.69    0.35
  -5   0   7    2.29    0.24
   5   0  -6    0.42    0.18
   5   0  -6    0.52    0.06
  -5   0   6    0.62    0.19
  -5   0   6    0.45    0.07
   5   0  -5    0.04    0.15
   5   0  -5    0.06    0.07
  -5   0   5    0.17    0.16
  -5   0   5    0.07    0.10
   5   0  -4    0.23    0.08
  -5   0   4    0.30    0.24
  -5   0   4    0.31    0.07
   5   0  -3    1.41    0.10
  -5   0   3    1.09    0.15
  -5   0   3    1.27    0.14
   5   0  -2   48.01    0.67
  -5   0   2   48.12    0.65
  -5   0   2   49.17    0.67
   5   0  -1    0.82    0.11
  -5   0   1    0.83    0.12
  -5   0   1    1.10    0.10
   5   0   0    5.89    0.17
  -5   0   0    5.68    0.21
   5   0   1    7.49    0.20
  -5   0  -1    7.65    0.19
   5   0   2    2.08    0.14
  -5   0  -2    2.53    0.14
   5   0   3   51.63    0.68
  -5   0  -3   52.21    0.67
   5   0   4   -0.26    0.20
  -5   0  -4    0.11    0.19
   5   0   5   -0.07    0.12
  -5   0  -5   -0.15    0.12
   5   0   6    1.53    0.22
  -5   0  -6    1.50    0.22
   5   0   7    1.53    0.15
  -5   0  -7    1.29    0.15
   5   0   8   10.99    0.27
  -5   0  -8   11.01    0.28
   5   0   9    1.64    0.15
  -5   0  -9    1.43    0.24
   5   0  10    0.07    0.13
  -5   0 -10    0.36    0.22
   5   0  11    0.26    0.13
  -5   0 -11   -0.03    0.14
   5   1  -9    0.30    0.25
  -5  -1   9    0.88    0.26
   5   1  -8    0.74    0.23
  -5  -1   8    0.93    0.25
   5   1  -7    2.03    0.23
  -5  -1   7    2.31    0.24
   5   1  -6    0.95    0.30
   5   1  -6    1.04    0.09
  -5  -1   6    1.02    0.22
  -5  -1   6    0.90    0.08
   5   1  -5    1.46    0.18
   5   1  -5    1.32    0.08
  -5  -1   5    1.38    0.20
  -5  -1   5    1.61    0.09
   5   1  -4    0.36    0.07
  -5  -1   4    0.34    0.16
  -5  -1   4    0.52    0.08
   5   1  -3    3.77    0.12
  -5  -1   3    3.93    0.18
  -5  -1   3    3.78    0.12
   5   1  -2   18.00    0.28
  -5  -1   2   18.08    0.38
  -5  -1   2   18.13    0.28
   5   1  -1   28.63    0.41
  -5  -1   1   29.31    0.49
  -5  -1   1   28.73    0.40
   5   1   0    2.82    0.19
  -5  -1   0    2.73    0.13
   5   1   1    0.97    0.12
  -5  -1  -1    0.99    0.12
   5   1   2    4.73    0.24
  -5  -1  -2    4.51    0.16
   5   1   3    1.53    0.14
  -5  -1  -3    1.47    0.14
   5   1   4    7.30    0.20
  -5  -1  -4    7.30    0.20
   5   1   5    2.67    0.15
  -5  -1  -5    2.90    0.16
   5   1   6    1.62    0.21
  -5  -1  -6    1.67    0.15
   5   1   7    1.12    0.13
  -5  -1  -7    1.04    0.22
   5   1   8    1.89    0.14
  -5  -1  -8    1.55    0.16
   5   1   9    0.48    0.13
  -5  -1  -9    0.42    0.14
   5   1  10    0.48    0.12
  -5  -1 -10    0.79    0.15
   5   1  11    0.05    0.12
  -5  -1 -11    0.17    0.14
   5   2  -9   -0.07    0.23
   5   2  -8    0.42    0.22
  -5  -2   8    0.94    0.23
   5   2  -7    3.24    0.24
  -5  -2   7    2.97    0.26
   5   2  -6    0.35    0.30
   5   2  -6    0.32    0.08
  -5  -2   6    0.19    0.19
  -5  -2   6    0.38    0.10
   5   2  -5    6.00    0.23
   5   2  -5    5.84    0.16
  -5  -2   5    6.02    0.35
  -5  -2   5    5.79    0.15
   5   2  -4    3.96    0.11
  -5  -2   4    3.88    0.20
  -5  -2   4    4.01    0.13
   5   2  -3    2.99    0.11
  -5  -2   3    2.66    0.25
  -5  -2   3    2.78    0.16
   5   2  -2   -0.07    0.13
  -5  -2   2    0.18    0.12
  -5  -2   2    0.03    0.08
   5   2  -1    0.16    0.09
  -5  -2   1    0.25    0.11
  -5  -2   1    0.14    0.10
   5   2   0    5.49    0.16
  -5  -2   0    5.61    0.16
   5   2   1    4.69    0.16
  -5  -2  -1    4.43    0.16
   5   2   2    5.23    0.17
  -5  -2  -2    5.13    0.25
   5   2   3   -0.03    0.18
  -5  -2  -3    0.41    0.12
   5   2   4    2.55    0.14
  -5  -2  -4    2.82    0.15
   5   2   5    0.24    0.12
  -5  -2  -5    0.59    0.20
   5   2   6    2.40    0.14
  -5  -2  -6    2.60    0.15
   5   2   7    7.60    0.21
  -5  -2  -7    8.32    0.22
   5   2   8    3.48    0.15
  -5  -2  -8    3.31    0.17
   5   2   9    1.15    0.13
  -5  -2  -9    0.77    0.15
   5   2  10    0.56    0.18
  -5  -2 -10    0.51    0.23
   5   2  11    0.08    0.11
  -5  -2 -11    0.09    0.14
   5   3  -9    0.13    0.24
   5   3  -8    3.00    0.27
  -5  -3   8    3.78    0.28
   5   3  -7    1.21    0.21
  -5  -3   7    1.03    0.22
   5   3  -6    3.61    0.32
   5   3  -6    3.13    0.12
  -5  -3   6    3.24    0.24
  -5  -3   6    2.97    0.12
   5   3  -5   22.88    0.44
   5   3  -5   22.29    0.34
  -5  -3   5   23.24    0.45
  -5  -3   5   23.08    0.36
   5   3  -4    0.15    0.08
  -5  -3   4    0.32    0.25
  -5  -3   4    0.23    0.10
   5   3  -3    1.56    0.15
  -5  -3   3    1.45    0.16
  -5  -3   3    1.73    0.12
   5   3  -2    0.24    0.09
  -5  -3   2    0.39    0.12
  -5  -3   2    0.27    0.10
   5   3  -1   21.02    0.37
  -5  -3   1   20.74    0.39
  -5  -3   1   20.77    0.34
   5   3   0   -0.07    0.17
  -5  -3   0    0.24    0.11
   5   3   1    4.57    0.23
  -5  -3  -1    4.49    0.17
   5   3   2   66.02    0.80
  -5  -3  -2   66.63    0.83
   5   3   3   39.78    0.53
  -5  -3  -3   40.63    0.57
   5   3   4    5.39    0.17
  -5  -3  -4    4.86    0.27
   5   3   5    0.49    0.19
  -5  -3  -5    0.57    0.14
   5   3   6   13.48    0.27
  -5  -3  -6   13.36    0.29
   5   3   7   10.30    0.24
  -5  -3  -7   10.37    0.26
   5   3   8    1.70    0.13
  -5  -3  -8    1.80    0.17
   5   3   9    0.05    0.11
  -5  -3  -9   -0.04    0.21
   5   3  10    0.78    0.19
  -5  -3 -10    1.04    0.15
   5   3  11    0.89    0.12
  -5  -3 -11    0.82    0.16
   5   4  -8    1.06    0.23
   5   4  -7    1.00    0.21
  -5  -4   7    1.29    0.22
   5   4  -6   14.95    0.36
   5   4  -6   15.55    0.24
  -5  -4   6   16.28    0.50
   5   4  -5    4.88    0.22
   5   4  -5    4.93    0.13
  -5  -4   5    5.33    0.34
  -5  -4   5    4.95    0.17
   5   4  -4    0.00    0.09
  -5  -4   4    0.08    0.15
  -5  -4   4    0.16    0.11
   5   4  -3    1.37    0.11
  -5  -4   3    1.31    0.16
  -5  -4   3    1.69    0.14
   5   4  -2   13.56    0.25
  -5  -4   2   13.88    0.28
  -5  -4   2   13.57    0.28
   5   4  -1   11.42    0.30
  -5  -4   1   11.73    0.24
  -5  -4   1   11.52    0.25
   5   4   0    1.76    0.13
  -5  -4   0    1.41    0.12
  -5  -4   0    1.23    0.15
   5   4   1    7.78    0.27
  -5  -4  -1    7.61    0.22
   5   4   2    5.84    0.19
  -5  -4  -2    6.05    0.21
   5   4   3    0.31    0.14
  -5  -4  -3    0.96    0.15
   5   4   4   28.52    0.43
  -5  -4  -4   29.16    0.47
   5   4   5    1.42    0.14
  -5  -4  -5    1.65    0.16
   5   4   6    3.11    0.16
  -5  -4  -6    3.04    0.19
   5   4   7    5.76    0.20
  -5  -4  -7    5.80    0.22
   5   4   8   61.92    0.82
  -5  -4  -8   64.76    0.92
   5   4   9   -0.10    0.11
  -5  -4  -9    0.09    0.15
   5   4  10    1.42    0.19
  -5  -4 -10    1.39    0.18
   5   4  11    0.68    0.11
  -5  -4 -11    0.50    0.16
   5   5  -8    0.31    0.32
   5   5  -7    0.25    0.18
  -5  -5   7   -0.06    0.19
   5   5  -6    1.00    0.18
   5   5  -6    1.22    0.10
  -5  -5   6    0.77    0.21
   5   5  -5    0.86    0.16
   5   5  -5    0.79    0.10
  -5  -5   5    0.84    0.18
  -5  -5   5    0.66    0.14
   5   5  -4    0.91    0.11
  -5  -5   4    0.79    0.16
  -5  -5   4    0.99    0.15
   5   5  -3    0.28    0.11
  -5  -5   3    0.07    0.21
  -5  -5   3    0.22    0.14
   5   5  -2    4.01    0.17
  -5  -5   2    4.06    0.17
  -5  -5   2    3.94    0.27
   5   5  -1    5.77    0.19
  -5  -5   1    6.02    0.18
  -5  -5   1    5.77    0.29
   5   5   0    1.94    0.15
  -5  -5   0    1.74    0.11
  -5  -5   0    1.84    0.26
   5   5   1   12.22    0.27
  -5  -5  -1   12.73    0.30
   5   5   2    1.51    0.15
  -5  -5  -2    1.50    0.17
   5   5   3    0.02    0.14
  -5  -5  -3    0.09    0.16
   5   5   4    0.73    0.15
  -5  -5  -4    0.84    0.18
   5   5   5    3.69    0.25
  -5  -5  -5    3.58    0.21
   5   5   6    0.84    0.14
  -5  -5  -6    0.56    0.18
   5   5   7   16.15    0.32
  -5  -5  -7   17.02    0.38
   5   5   8   16.02    0.32
  -5  -5  -8   15.73    0.46
   5   5   9   12.15    0.27
  -5  -5  -9   11.93    0.33
  -5  -5 -10    1.82    0.20
   5   5  11    0.14    0.11
  -5  -5 -11    0.55    0.27
   5   5  12    0.18    0.18
  -5  -5 -12    0.00    0.21
  -5  -5 -12    0.24    0.16
   5   6  -7    0.23    0.18
   5   6  -6   -0.03    0.16
   5   6  -6    0.22    0.10
  -5  -6   6   -0.18    0.17
   5   6  -5    0.64    0.13
  -5  -6   5    0.62    0.17
   5   6  -4    4.98    0.26
  -5  -6   4    4.57    0.21
  -5  -6   4    5.06    0.22
   5   6  -3    0.13    0.13
  -5  -6   3    0.28    0.20
  -5  -6   3    0.20    0.25
   5   6  -2    6.69    0.31
  -5  -6   2    6.86    0.20
  -5  -6   2    6.97    0.26
   5   6  -1    8.69    0.26
  -5  -6   1    8.10    0.20
  -5  -6   1    8.30    0.28
   5   6   0    2.71    0.19
  -5  -6   0    2.47    0.12
  -5  -6   0    2.32    0.32
   5   6   1    1.80    0.18
  -5  -6  -1    1.72    0.10
  -5  -6  -1    2.18    0.20
   5   6   2    0.90    0.16
  -5  -6  -2    0.52    0.20
   5   6   3    0.60    0.16
  -5  -6  -3    0.99    0.20
   5   6   4    8.78    0.35
  -5  -6  -4    8.22    0.29
   5   6   5    3.67    0.20
  -5  -6  -5    3.42    0.24
   5   6   6   -0.10    0.15
  -5  -6  -6   -0.14    0.19
   5   6   7    0.53    0.23
  -5  -6  -7    0.17    0.19
   5   6   8    0.14    0.22
  -5  -6  -8    0.16    0.19
   5   6   9    0.80    0.22
  -5  -6  -9    0.81    0.32
   5   6  10    0.54    0.13
  -5  -6 -10    0.42    0.20
   5   6  11    5.54    0.20
  -5  -6 -11    5.83    0.28
   5   6  12    0.14    0.18
  -5  -6 -12    0.41    0.20
  -5  -6 -12    0.02    0.19
   5   7  -6    0.35    0.13
   5   7  -5    0.33    0.15
  -5  -7   5    0.40    0.16
   5   7  -4    1.47    0.26
  -5  -7   4    1.45    0.15
   5   7  -3    1.19    0.18
  -5  -7   3    1.33    0.14
  -5  -7   3    1.18    0.20
   5   7  -2    0.06    0.17
  -5  -7   2   -0.01    0.11
  -5  -7   2    0.52    0.19
   5   7  -1    1.54    0.30
  -5  -7   1    1.70    0.11
  -5  -7   1    1.39    0.23
   5   7   0   13.23    0.34
  -5  -7   0   12.50    0.23
  -5  -7   0   13.23    0.37
   5   7   1   74.06    1.13
  -5  -7  -1   74.22    0.92
  -5  -7  -1   74.22    1.20
   5   7   2    4.77    0.25
  -5  -7  -2    5.46    0.30
   5   7   3    4.31    0.25
  -5  -7  -3    3.45    0.29
   5   7   4    0.90    0.20
  -5  -7  -4    0.64    0.24
   5   7   5    3.70    0.23
  -5  -7  -5    3.69    0.27
   5   7   6    1.40    0.29
  -5  -7  -6    1.95    0.24
   5   7   7   -0.10    0.16
  -5  -7  -7    0.17    0.33
   5   7   8    1.45    0.17
  -5  -7  -8    1.37    0.24
   5   7   9    0.65    0.16
  -5  -7  -9    0.81    0.23
   5   7  10    0.15    0.14
  -5  -7 -10    0.34    0.21
   5   7  11    6.53    0.29
  -5  -7 -11    6.86    0.31
   5   7  12    0.45    0.13
  -5  -7 -12   -0.01    0.20
  -5  -7 -12    0.64    0.21
   5   8  -5    0.29    0.27
   5   8  -4    0.13    0.18
  -5  -8   4    0.32    0.12
   5   8  -3    0.93    0.20
  -5  -8   3    1.01    0.13
   5   8  -2    2.20    0.22
  -5  -8   2    2.09    0.12
  -5  -8   2    2.41    0.24
   5   8  -1    1.09    0.22
  -5  -8   1    1.43    0.16
  -5  -8   1    1.48    0.25
   5   8   0    1.04    0.22
  -5  -8   0    1.02    0.14
  -5  -8   0    0.39    0.40
   5   8   1    9.58    0.33
  -5  -8  -1    9.24    0.22
  -5  -8  -1    9.54    0.37
   5   8   2   68.94    1.03
  -5  -8  -2   72.53    0.85
  -5  -8  -2   69.67    1.24
   5   8   3    4.72    0.27
  -5  -8  -3    4.62    0.36
   5   8   4    7.36    0.43
  -5  -8  -4    7.01    0.36
   5   8   5    0.23    0.20
  -5  -8  -5    0.34    0.27
   5   8   6    5.17    0.26
  -5  -8  -6    5.20    0.34
   5   8   7    1.48    0.22
  -5  -8  -7    1.77    0.29
   5   8   8    0.25    0.19
  -5  -8  -8    0.47    0.25
   5   8   9    1.47    0.20
  -5  -8  -9    1.60    0.42
   5   8  10    0.33    0.17
  -5  -8 -10    0.44    0.25
   5   8  11   -0.06    0.15
  -5  -8 -11    0.00    0.15
  -5  -8 -11    0.27    0.35
   5   9  -4    0.31    0.33
   5   9  -3    0.54    0.21
   5   9  -2    0.15    0.22
  -5  -9   2    0.40    0.09
   5   9  -1    1.02    0.38
  -5  -9   1    0.43    0.13
   5   9   0    0.53    0.24
  -5  -9   0    0.62    0.08
  -5  -9   0    1.07    0.27
   5   9   1    5.66    0.32
  -5  -9  -1    5.66    0.13
  -5  -9  -1    6.23    0.36
   5   9   2    0.86    0.39
  -5  -9  -2    0.34    0.29
   5   9   3    5.75    0.32
  -5  -9  -3    6.12    0.16
  -5  -9  -3    5.74    0.57
   5   9   4    5.51    0.31
  -5  -9  -4    4.72    0.38
   5   9   5    1.50    0.26
  -5  -9  -5    2.56    0.33
   5   9   6    0.87    0.24
  -5  -9  -6    0.92    0.30
   5   9   7    0.59    0.33
  -5  -9  -7    0.38    0.29
   5   9   8    1.48    0.23
  -5  -9  -8    1.07    0.31
   5   9   9    0.54    0.20
  -5  -9  -9    0.77    0.44
   5   9  10   -0.08    0.17
  -5  -9 -10   -0.05    0.12
  -5  -9 -10    0.48    0.26
   5   9  11    0.66    0.18
  -5  -9 -11    0.07    0.14
  -5  -9 -11    0.34    0.40
   5  10  -3    0.17    0.23
   5  10  -2   -0.04    0.39
   5  10  -1    0.53    0.27
   5  10   0   -0.20    0.27
   5  10   1    1.65    0.29
  -5 -10  -1    1.73    0.32
   5  10   2    0.23    0.27
  -5 -10  -2    0.31    0.31
   5  10   3   -0.26    0.27
  -5 -10  -3   -0.02    0.04
  -5 -10  -3    0.19    0.32
   5  10   4   -0.17    0.27
  -5 -10  -4   -0.29    0.53
   5  10   5    0.06    0.27
  -5 -10  -5    0.28    0.33
   5  10   6    0.90    0.44
  -5 -10  -6    1.09    0.36
   5  10   7    0.40    0.26
  -5 -10  -7    0.75    0.33
   5  10   8    0.47    0.23
  -5 -10  -8    0.56    0.50
   5  10   9    0.26    0.23
  -5 -10  -9    0.49    0.29
   5  10  10   -0.09    0.21
  -5 -10 -10   -0.09    0.11
  -5 -10 -10    0.35    0.28
   5  11  -1    0.16    0.29
   5  11   0    0.08    0.31
   5  11   1    1.83    0.34
   5  11   2    0.62    0.31
   5  11   3    0.69    0.32
   5  11   4    0.02    0.48
   5  11   5    0.58    0.30
  -5 -11  -5    0.96    0.36
   5  11   6    0.60    0.31
  -5 -11  -6    0.47    0.37
   5  11   7    2.37    0.32
  -5 -11  -7    2.42    0.40
   5  11   8   -0.64    0.28
   5  12   2    3.04    0.39
   5  12   3    0.62    0.36
   5  12   4    0.83    0.36
   5  12   5   -0.64    0.53
   5  12   6    0.64    0.34
  -6   7   2   -0.02    0.21
  -6   7   1    0.70    0.24
  -6   7   0   -0.18    0.26
  -6   6   5    0.21    0.15
  -6   6   5    0.01    0.14
  -6   6   4    0.66    0.15
  -6   6   4    0.66    0.18
  -6   6   3    0.71    0.21
  -6   6   3    0.51    0.29
  -6   6   2    0.32    0.12
  -6   6   2    0.30    0.19
  -6   6   1    0.14    0.12
  -6   6   1   -0.04    0.20
  -6   6   0    0.64    0.18
  -6   6   0    0.59    0.24
  -6   6  -1    1.13    0.12
  -6   6  -1    1.22    0.26
  -6   6  -2    0.43    0.41
  -6   6  -3    0.49    0.26
  -6   6  -4   -0.22    0.25
  -6   5   6    0.76    0.18
  -6   5   6    0.24    0.18
  -6   5   5    0.60    0.17
  -6   5   5    0.62    0.15
  -6   5   4    4.13    0.21
  -6   5   4    4.21    0.21
  -6   5   3   -0.20    0.21
  -6   5   3    0.18    0.15
  -6   5   2    0.07    0.12
  -6   5   2    0.40    0.16
  -6   5   1   -0.11    0.12
  -6   5   1    0.33    0.27
  -6   5   0    0.32    0.12
  -6   5   0    0.46    0.32
  -6   5  -1    1.58    0.14
  -6   5  -1    1.89    0.24
  -6   5  -2    1.21    0.24
  -6   5  -3    1.11    0.25
  -6   5  -4    0.23    0.23
  -6   5  -5    0.52    0.23
  -6   5  -6    0.31    0.23
  -6   4   7    0.02    0.31
  -6   4   7    0.13    0.14
  -6   4   6    0.13    0.28
  -6   4   6    0.16    0.15
  -6   4   5    0.41    0.17
  -6   4   5    0.29    0.19
  -6   4   4    0.18    0.15
  -6   4   4    0.01    0.13
  -6   4   3    0.09    0.14
  -6   4   3   -0.03    0.21
   6  -4  -2    0.90    0.20
  -6   4   2    0.32    0.22
  -6   4   2    0.89    0.16
   6  -4  -1    3.08    0.23
  -6   4   1    2.97    0.16
  -6   4   1    2.94    0.20
   6  -4   0    0.32    0.31
  -6   4   0    0.02    0.18
  -6   4   0    0.18    0.18
   6  -4   1   -0.11    0.31
  -6   4  -1   -0.02    0.19
   6  -4   2    0.39    0.35
  -6   4  -2    0.46    0.21
   6  -4   3    5.36    0.42
  -6   4  -3    5.12    0.28
   6  -4   4    1.24    0.23
  -6   4  -4    0.76    0.23
   6  -4   5    0.36    0.21
  -6   4  -5   -0.25    0.20
   6  -4   6    0.02    0.22
  -6   4  -6   -0.21    0.32
  -6   4  -7   -0.07    0.21
  -6   3   8   -0.03    0.22
  -6   3   7    0.42    0.21
  -6   3   7    0.07    0.08
  -6   3   6    0.30    0.20
  -6   3   6    0.32    0.14
  -6   3   5    0.15    0.17
  -6   3   5   -0.07    0.16
   6  -3  -4    0.31    0.14
  -6   3   4    0.05    0.16
  -6   3   4    0.09    0.11
   6  -3  -3    0.37    0.24
  -6   3   3    0.39    0.15
  -6   3   3    0.05    0.12
   6  -3  -2    2.01    0.20
  -6   3   2    1.95    0.16
  -6   3   2    1.97    0.16
   6  -3  -1    6.50    0.36
  -6   3   1    6.96    0.28
  -6   3   1    6.89    0.23
   6  -3   0    2.44    0.21
  -6   3   0    2.48    0.15
  -6   3   0    2.25    0.19
   6  -3   1    0.58    0.19
  -6   3  -1    0.56    0.18
   6  -3   2    0.42    0.20
  -6   3  -2    0.43    0.19
   6  -3   3    6.14    0.27
  -6   3  -3    6.09    0.26
   6  -3   4    1.37    0.34
  -6   3  -4    1.25    0.21
   6  -3   5    0.46    0.20
  -6   3  -5    0.15    0.30
   6  -3   6    0.10    0.21
  -6   3  -6    0.84    0.20
   6  -3   7    0.87    0.32
  -6   3  -7    0.01    0.30
   6  -3   8    0.14    0.20
  -6   3  -8    0.14    0.18
  -6   2   8    0.42    0.24
  -6   2   7    1.07    0.22
  -6   2   7    0.07    0.08
  -6   2   6    0.37    0.19
  -6   2   6    0.17    0.09
   6  -2  -5    0.18    0.11
  -6   2   5   -0.35    0.17
  -6   2   5   -0.01    0.09
   6  -2  -4    0.38    0.13
  -6   2   4    0.26    0.16
  -6   2   4    0.24    0.10
   6  -2  -3    0.19    0.13
  -6   2   3    0.04    0.15
  -6   2   3    0.24    0.17
   6  -2  -2    2.13    0.25
  -6   2   2    1.48    0.24
  -6   2   2    1.49    0.14
   6  -2  -1    5.23    0.22
  -6   2   1    5.11    0.19
  -6   2   1    4.96    0.19
   6  -2   0    1.01    0.18
  -6   2   0    1.66    0.24
   6  -2   1    9.99    0.29
  -6   2  -1    9.05    0.26
   6  -2   2    0.53    0.19
  -6   2  -2    1.33    0.27
   6  -2   3    0.21    0.18
  -6   2  -3    0.11    0.17
   6  -2   4    0.07    0.18
  -6   2  -4    0.22    0.17
   6  -2   5    0.60    0.20
  -6   2  -5    1.07    0.19
   6  -2   6    2.62    0.22
  -6   2  -6    2.89    0.21
   6  -2   7    0.24    0.18
  -6   2  -7    0.03    0.17
   6  -2   8    0.68    0.19
  -6   2  -8    0.46    0.18
   6  -2   9    0.69    0.30
  -6   2  -9    0.57    0.29
  -6   1   8    0.80    0.24
  -6   1   7    0.18    0.21
  -6   1   7    0.08    0.07
   6  -1  -6    0.99    0.10
  -6   1   6    0.94    0.21
   6  -1  -5    5.09    0.23
  -6   1   5    5.79    0.37
  -6   1   5    5.66    0.16
   6  -1  -4    2.68    0.15
  -6   1   4    2.81    0.21
  -6   1   4    2.65    0.13
   6  -1  -3    8.06    0.29
  -6   1   3    8.12    0.26
  -6   1   3    8.64    0.21
   6  -1  -2   12.15    0.28
  -6   1   2   12.33    0.29
  -6   1   2   12.09    0.25
   6  -1  -1   40.68    0.69
  -6   1   1   41.77    0.61
  -6   1   1   41.08    0.60
   6  -1   0   14.45    0.31
  -6   1   0   14.73    0.37
   6  -1   1    8.01    0.25
  -6   1  -1    7.64    0.31
   6  -1   2    0.47    0.16
  -6   1  -2    0.45    0.23
   6  -1   3    0.69    0.18
  -6   1  -3    1.27    0.25
   6  -1   4    5.26    0.32
  -6   1  -4    5.18    0.22
   6  -1   5    0.24    0.17
  -6   1  -5    0.31    0.16
   6  -1   6    3.17    0.21
  -6   1  -6    2.73    0.29
   6  -1   7    6.42    0.26
  -6   1  -7    6.68    0.25
   6  -1   8    1.02    0.29
  -6   1  -8    1.08    0.19
   6  -1   9    1.01    0.18
  -6   1  -9    0.84    0.28
   6  -1  10    0.32    0.17
  -6   1 -10    0.21    0.17
   6   0  -9    0.14    0.24
  -6   0   9    0.09    0.26
  -6   0   8    0.14    0.25
  -6   0   7    0.08    0.22
   6   0  -6    0.45    0.13
  -6   0   6    0.47    0.21
  -6   0   6    0.33    0.08
   6   0  -5    0.11    0.09
  -6   0   5    0.27    0.29
  -6   0   5    0.10    0.08
   6   0  -4    9.38    0.27
  -6   0   4    9.56    0.29
  -6   0   4    8.86    0.20
   6   0  -3    2.42    0.14
  -6   0   3    2.36    0.19
  -6   0   3    2.47    0.13
   6   0  -2    6.46    0.19
  -6   0   2    7.34    0.22
  -6   0   2    7.29    0.19
   6   0  -1    6.81    0.21
  -6   0   1    6.83    0.21
  -6   0   1    7.26    0.25
   6   0   0    0.19    0.12
  -6   0   0    0.04    0.11
   6   0   1    0.11    0.13
  -6   0  -1    0.13    0.13
   6   0   2    8.20    0.24
  -6   0  -2    7.76    0.23
   6   0   3    8.04    0.31
  -6   0  -3    8.05    0.23
   6   0   4    5.47    0.21
  -6   0  -4    5.15    0.21
   6   0   5    0.31    0.15
  -6   0  -5    0.27    0.15
   6   0   6    1.18    0.17
  -6   0  -6    1.43    0.17
   6   0   7    0.44    0.16
  -6   0  -7    0.85    0.16
   6   0   8    1.28    0.17
  -6   0  -8    1.08    0.18
   6   0   9    1.03    0.17
  -6   0  -9    0.56    0.27
   6   0  10    0.04    0.24
  -6   0 -10    0.17    0.16
   6   1  -9    0.83    0.27
   6   1  -8    0.58    0.23
  -6  -1   8    0.33    0.26
  -6  -1   7    2.48    0.27
   6   1  -6    1.11    0.12
  -6  -1   6    0.89    0.23
  -6  -1   6    0.79    0.09
   6   1  -5    0.18    0.08
  -6  -1   5    0.46    0.20
  -6  -1   5    0.36    0.09
   6   1  -4    0.21    0.14
  -6  -1   4    0.11    0.18
  -6  -1   4    0.32    0.09
   6   1  -3    1.36    0.11
  -6  -1   3    1.26    0.17
  -6  -1   3    1.32    0.11
   6   1  -2    0.42    0.11
  -6  -1   2    0.58    0.15
  -6  -1   2    0.40    0.10
   6   1  -1    8.47    0.21
  -6  -1   1    9.04    0.23
  -6  -1   1    8.32    0.20
   6   1   0   13.94    0.27
  -6  -1   0   14.60    0.28
   6   1   1    4.33    0.18
  -6  -1  -1    4.20    0.25
   6   1   2    1.77    0.15
  -6  -1  -2    1.97    0.15
   6   1   3    5.60    0.20
  -6  -1  -3    5.59    0.20
   6   1   4    0.16    0.14
  -6  -1  -4    0.29    0.14
   6   1   5    0.47    0.14
  -6  -1  -5    0.28    0.15
   6   1   6    0.01    0.15
  -6  -1  -6   -0.19    0.14
   6   1   7    0.51    0.24
  -6  -1  -7    0.73    0.24
   6   1   8    3.95    0.20
  -6  -1  -8    3.66    0.20
   6   1   9    0.41    0.16
  -6  -1  -9    0.62    0.16
   6   1  10    0.05    0.14
  -6  -1 -10    0.27    0.25
   6   1  11   -0.04    0.14
  -6  -1 -11    0.16    0.24
   6   2  -8    0.24    0.24
  -6  -2   8    0.01    0.25
   6   2  -7    1.79    0.25
  -6  -2   7    2.00    0.27
   6   2  -6   -0.13    0.10
  -6  -2   6    0.15    0.19
  -6  -2   6    0.10    0.08
   6   2  -5    0.02    0.12
  -6  -2   5    0.09    0.19
  -6  -2   5    0.17    0.09
   6   2  -4    1.75    0.16
  -6  -2   4    1.63    0.19
  -6  -2   4    1.58    0.12
   6   2  -3    0.28    0.15
  -6  -2   3    0.31    0.16
  -6  -2   3    0.43    0.16
   6   2  -2    0.86    0.11
  -6  -2   2    1.01    0.16
  -6  -2   2    0.99    0.17
   6   2  -1    7.52    0.25
  -6  -2   1    7.58    0.21
  -6  -2   1    8.14    0.26
   6   2   0   12.32    0.25
  -6  -2   0   12.02    0.25
   6   2   1   17.85    0.31
  -6  -2  -1   17.71    0.38
   6   2   2    2.41    0.15
  -6  -2  -2    1.95    0.16
   6   2   3    5.59    0.20
  -6  -2  -3    5.33    0.20
   6   2   4    2.20    0.16
  -6  -2  -4    2.54    0.17
   6   2   5    1.22    0.23
  -6  -2  -5    1.54    0.16
   6   2   6    1.27    0.16
  -6  -2  -6    1.16    0.26
   6   2   7    0.14    0.14
  -6  -2  -7    0.41    0.15
   6   2   8   -0.06    0.22
  -6  -2  -8    0.22    0.23
   6   2   9    0.14    0.21
  -6  -2  -9    0.18    0.16
   6   2  10    2.43    0.25
  -6  -2 -10    2.48    0.20
   6   2  11    0.26    0.21
  -6  -2 -11    0.17    0.17
   6   3  -8    3.55    0.30
  -6  -3   8    4.61    0.47
   6   3  -7    2.08    0.25
  -6  -3   7    2.48    0.41
   6   3  -6    0.13    0.07
  -6  -3   6    0.31    0.33
  -6  -3   6    0.13    0.10
   6   3  -5    3.37    0.12
  -6  -3   5    2.90    0.24
  -6  -3   5    3.34    0.20
   6   3  -4    3.16    0.13
  -6  -3   4    3.01    0.21
  -6  -3   4    3.14    0.21
   6   3  -3   14.38    0.26
  -6  -3   3   13.85    0.42
  -6  -3   3   14.48    0.29
   6   3  -2    2.90    0.13
  -6  -3   2    3.01    0.18
  -6  -3   2    2.89    0.14
   6   3  -1    4.97    0.17
  -6  -3   1    4.97    0.19
  -6  -3   1    5.37    0.19
   6   3   0    0.27    0.11
  -6  -3   0    0.47    0.12
   6   3   1    1.88    0.15
  -6  -3  -1    2.43    0.23
   6   3   2    4.33    0.17
  -6  -3  -2    4.54    0.18
   6   3   3   -0.01    0.12
  -6  -3  -3    0.04    0.14
   6   3   4    1.97    0.15
  -6  -3  -4    1.93    0.17
   6   3   5   10.11    0.32
  -6  -3  -5   10.34    0.27
   6   3   6   89.75    1.14
  -6  -3  -6   89.89    1.17
   6   3   7    0.11    0.14
  -6  -3  -7    0.70    0.26
   6   3   8    9.11    0.25
  -6  -3  -8    9.28    0.28
   6   3   9    0.40    0.13
  -6  -3  -9    0.45    0.26
   6   3  10    0.41    0.14
  -6  -3 -10    0.08    0.17
   6   3  11    0.35    0.13
  -6  -3 -11    0.38    0.17
   6   3  12    0.32    0.14
  -6  -3 -12    0.26    0.17
   6   4  -8    0.00    0.22
  -6  -4   8   -0.06    0.23
  -6  -4   7    3.42    0.27
   6   4  -6    0.22    0.11
  -6  -4   6    0.44    0.21
  -6  -4   6   -0.03    0.10
   6   4  -5    1.01    0.10
  -6  -4   5    1.04    0.20
  -6  -4   5    0.62    0.20
   6   4  -4    2.09    0.12
  -6  -4   4    1.77    0.31
  -6  -4   4    2.10    0.15
   6   4  -3   14.64    0.27
  -6  -4   3   14.07    0.33
  -6  -4   3   14.12    0.31
   6   4  -2    2.17    0.14
  -6  -4   2    2.06    0.17
  -6  -4   2    2.01    0.15
   6   4  -1    4.37    0.24
  -6  -4   1    4.34    0.18
  -6  -4   1    4.47    0.19
   6   4   0    0.83    0.13
  -6  -4   0    0.78    0.13
  -6  -4   0    0.97    0.14
   6   4   1    1.57    0.14
  -6  -4  -1    1.11    0.16
   6   4   2   12.00    0.34
  -6  -4  -2   11.53    0.28
   6   4   3    0.16    0.13
  -6  -4  -3    0.02    0.16
   6   4   4    0.27    0.14
  -6  -4  -4    0.45    0.16
   6   4   5   14.73    0.30
  -6  -4  -5   14.98    0.34
   6   4   6    4.68    0.19
  -6  -4  -6    4.98    0.23
   6   4   7   33.74    0.53
  -6  -4  -7   33.08    0.57
   6   4   8    1.78    0.16
  -6  -4  -8    2.11    0.20
   6   4   9    4.84    0.20
  -6  -4  -9    5.27    0.24
   6   4  10    0.33    0.13
  -6  -4 -10    0.00    0.18
   6   4  11    4.38    0.19
  -6  -4 -11    4.98    0.35
   6   4  12    0.09    0.20
  -6  -4 -12    0.29    0.29
  -6  -5   7    0.70    0.36
   6   5  -6   -0.04    0.08
  -6  -5   6    0.38    0.31
   6   5  -5    0.18    0.10
  -6  -5   5    0.28    0.18
  -6  -5   5    0.29    0.21
   6   5  -4    1.68    0.13
  -6  -5   4    1.69    0.20
  -6  -5   4    1.82    0.17
   6   5  -3    6.31    0.26
  -6  -5   3    6.21    0.23
  -6  -5   3    6.09    0.22
   6   5  -2    0.19    0.13
  -6  -5   2    0.42    0.14
  -6  -5   2    0.29    0.15
   6   5  -1    5.24    0.19
  -6  -5   1    5.33    0.19
  -6  -5   1    5.42    0.22
   6   5   0    6.57    0.21
  -6  -5   0    6.60    0.20
  -6  -5   0    6.32    0.23
   6   5   1    4.14    0.19
  -6  -5  -1    4.50    0.22
   6   5   2    3.44    0.18
  -6  -5  -2    3.20    0.21
   6   5   3    2.39    0.17
  -6  -5  -3    2.55    0.21
   6   5   4    0.15    0.22
  -6  -5  -4   -0.09    0.17
   6   5   5    0.02    0.15
  -6  -5  -5   -0.24    0.18
   6   5   6    2.38    0.18
  -6  -5  -6    2.57    0.22
   6   5   7    2.74    0.18
  -6  -5  -7    2.83    0.22
   6   5   8    0.76    0.15
  -6  -5  -8    0.90    0.20
   6   5   9   10.75    0.28
  -6  -5  -9   11.06    0.34
   6   5  10    1.82    0.16
  -6  -5 -10    1.70    0.21
   6   5  11    0.49    0.21
  -6  -5 -11    0.19    0.20
   6   5  12    0.07    0.13
  -6  -5 -12    0.15    0.19
  -6  -6   7    0.26    0.22
   6   6  -6    0.30    0.16
  -6  -6   6    0.33    0.19
   6   6  -5    0.70    0.19
  -6  -6   5    0.59    0.20
  -6  -6   5    0.52    0.15
   6   6  -4    0.17    0.19
  -6  -6   4    0.17    0.17
  -6  -6   4    0.39    0.25
   6   6  -3    0.25    0.13
  -6  -6   3    0.50    0.16
  -6  -6   3   -0.04    0.17
   6   6  -2   16.27    0.34
  -6  -6   2   16.12    0.34
  -6  -6   2   16.46    0.39
   6   6  -1   40.68    0.62
  -6  -6   1   40.75    0.67
  -6  -6   1   41.07    0.67
   6   6   0   28.15    0.48
  -6  -6   0   27.53    0.44
  -6  -6   0   29.09    0.53
   6   6   1    0.19    0.15
  -6  -6  -1    0.00    0.11
  -6  -6  -1    0.04    0.28
   6   6   2    2.40    0.29
  -6  -6  -2    1.99    0.22
   6   6   3    0.15    0.17
  -6  -6  -3    0.33    0.20
   6   6   4    0.77    0.18
  -6  -6  -4    0.63    0.33
   6   6   5    4.20    0.31
  -6  -6  -5    4.58    0.26
   6   6   6    0.09    0.16
  -6  -6  -6    0.12    0.31
   6   6   7    2.65    0.19
  -6  -6  -7    2.44    0.37
   6   6   8    0.71    0.17
  -6  -6  -8    0.69    0.22
   6   6   9    4.41    0.21
  -6  -6  -9    4.84    0.28
   6   6  10    0.17    0.14
  -6  -6 -10    0.06    0.21
   6   6  11    0.83    0.15
  -6  -6 -11    1.05    0.34
   6   6  12    0.06    0.13
  -6  -6 -12    0.01    0.20
   6   7  -6   -0.06    0.12
  -6  -7   6   -0.25    0.19
   6   7  -5    0.13    0.13
  -6  -7   5    0.21    0.17
   6   7  -4    0.18    0.23
  -6  -7   4    0.01    0.16
  -6  -7   4    0.28    0.18
   6   7  -3    1.20    0.16
  -6  -7   3    1.32    0.16
  -6  -7   3    1.53    0.32
   6   7  -2    2.25    0.28
  -6  -7   2    2.43    0.16
  -6  -7   2    2.98    0.35
   6   7  -1   26.05    0.48
  -6  -7   1   25.84    0.43
  -6  -7   1   26.48    0.53
   6   7   0   16.48    0.38
  -6  -7   0   16.49    0.30
  -6  -7   0   17.01    0.42
   6   7   1    0.09    0.18
  -6  -7  -1    0.10    0.10
  -6  -7  -1    0.41    0.22
   6   7   2   44.59    0.71
  -6  -7  -2   43.76    0.75
   6   7   3   12.06    0.34
  -6  -7  -3   12.10    0.39
   6   7   4    0.06    0.18
  -6  -7  -4   -0.10    0.22
   6   7   5    1.90    0.21
  -6  -7  -5    1.47    0.26
   6   7   6   -0.19    0.17
  -6  -7  -6    0.15    0.23
   6   7   7    1.82    0.20
  -6  -7  -7    2.18    0.25
   6   7   8    1.28    0.19
  -6  -7  -8    1.36    0.25
   6   7   9    0.07    0.17
  -6  -7  -9    0.26    0.23
   6   7  10    0.16    0.16
  -6  -7 -10    0.54    0.23
   6   7  11    1.73    0.17
  -6  -7 -11    2.16    0.27
   6   8  -5    0.09    0.16
  -6  -8   5    0.18    0.16
   6   8  -4    0.06    0.16
  -6  -8   4   -0.10    0.14
   6   8  -3    1.72    0.20
  -6  -8   3    1.28    0.16
  -6  -8   3    1.38    0.24
   6   8  -2    0.21    0.18
  -6  -8   2    0.39    0.20
  -6  -8   2    0.19    0.22
   6   8  -1    0.16    0.31
  -6  -8   1    0.69    0.12
  -6  -8   1    0.33    0.24
   6   8   0    0.94    0.32
  -6  -8   0    0.24    0.11
  -6  -8   0    0.11    0.24
   6   8   1    5.18    0.28
  -6  -8  -1    5.40    0.22
  -6  -8  -1    5.54    0.32
   6   8   2    0.73    0.33
  -6  -8  -2    0.23    0.15
  -6  -8  -2    0.37    0.26
   6   8   3    6.49    0.29
  -6  -8  -3    5.84    0.36
   6   8   4    1.78    0.23
  -6  -8  -4    1.49    0.30
   6   8   5    0.41    0.34
  -6  -8  -5    0.33    0.43
   6   8   6    0.52    0.21
  -6  -8  -6    0.96    0.44
   6   8   7    3.89    0.36
  -6  -8  -7    3.73    0.49
   6   8   8    0.10    0.19
  -6  -8  -8    0.43    0.26
   6   8   9    0.09    0.18
  -6  -8  -9    0.33    0.26
   6   8  10    0.80    0.19
  -6  -8 -10    1.16    0.42
   6   8  11    0.99    0.19
  -6  -8 -11    0.82    0.28
   6   9  -4   -0.03    0.19
  -6  -9   4   -0.03    0.13
   6   9  -3    0.40    0.31
  -6  -9   3    0.10    0.12
   6   9  -2    0.27    0.22
  -6  -9   2    0.42    0.12
  -6  -9   2    0.69    0.24
   6   9  -1    0.44    0.22
  -6  -9   1    0.40    0.16
  -6  -9   1    0.44    0.25
   6   9   0    0.13    0.22
  -6  -9   0    0.20    0.10
  -6  -9   0    0.70    0.26
   6   9   1    0.21    0.23
  -6  -9  -1    0.08    0.09
  -6  -9  -1   -0.06    0.27
   6   9   2    3.45    0.29
  -6  -9  -2    3.68    0.13
  -6  -9  -2    3.31    0.35
   6   9   3    0.06    0.24
  -6  -9  -3    0.28    0.08
  -6  -9  -3    0.25    0.30
   6   9   4    0.21    0.24
  -6  -9  -4    0.25    0.31
   6   9   5    0.94    0.24
  -6  -9  -5    0.11    0.32
   6   9   6   -0.06    0.23
  -6  -9  -6    0.45    0.30
   6   9   7    0.48    0.22
  -6  -9  -7    0.21    0.30
   6   9   8    0.51    0.35
  -6  -9  -8    0.58    0.31
   6   9   9    1.97    0.24
  -6  -9  -9    1.86    0.33
   6   9  10    0.33    0.20
  -6  -9 -10    0.36    0.29
   6  10  -2    0.63    0.25
  -6 -10   2    0.53    0.10
   6  10  -1    3.23    0.29
  -6 -10   1    2.72    0.18
   6  10   0    0.19    0.39
  -6 -10   0    0.09    0.08
  -6 -10   0    0.11    0.28
   6  10   1   -0.33    0.42
  -6 -10  -1   -0.24    0.31
   6  10   2   -0.57    0.43
  -6 -10  -2   -0.35    0.32
   6  10   3    1.32    0.29
  -6 -10  -3    1.45    0.09
  -6 -10  -3    2.09    0.60
   6  10   4   -0.26    0.27
  -6 -10  -4    0.15    0.08
  -6 -10  -4    0.25    0.35
   6  10   5    1.01    0.29
  -6 -10  -5    1.45    0.37
   6  10   6    0.28    0.25
  -6 -10  -6    0.44    0.35
   6  10   7    0.31    0.26
  -6 -10  -7    0.67    0.34
   6  10   8    0.46    0.25
  -6 -10  -8    1.23    0.34
   6  10   9    6.21    0.47
  -6 -10  -9    6.68    0.62
   6  11  -1    2.16    0.50
   6  11   0    7.84    0.41
   6  11   1    1.02    0.31
   6  11   2    2.31    0.33
  -6 -11  -2    1.40    0.38
   6  11   3    0.14    0.31
  -6 -11  -3    0.54    0.37
   6  11   4    1.00    0.49
  -6 -11  -4    1.62    0.64
   6  11   5    2.20    0.33
  -6 -11  -5    1.90    0.42
   6  11   6    0.54    0.30
  -6 -11  -6    0.68    0.37
   6  11   7    0.68    0.28
  -6 -11  -7    0.87    0.38
   6  11   8    0.67    0.28
  -6 -11  -8    0.85    0.37
   6  12   3    0.04    0.32
   6  12   4    0.35    0.34
   6  12   5    0.40    0.33
  -6 -12  -5    0.12    0.41
  -7   6   1    0.70    0.14
  -7   6   1    0.77    0.24
  -7   6   0   -0.04    0.13
  -7   6   0    0.49    0.24
  -7   5   4    0.27    0.17
  -7   5   4    0.19    0.26
  -7   5   3    1.17    0.18
  -7   5   3    1.25    0.19
  -7   5   2    0.17    0.23
  -7   5   2    0.21    0.19
  -7   5   1    1.15    0.16
  -7   5   1    0.94    0.22
  -7   5   0    0.45    0.15
  -7   5   0    0.49    0.23
  -7   5  -1    1.02    0.22
  -7   5  -1    1.22    0.25
  -7   5  -2    2.34    0.29
  -7   5  -3    1.66    0.28
  -7   5  -4    2.41    0.29
  -7   4   6    0.02    0.20
  -7   4   6    0.34    0.17
  -7   4   5    0.13    0.19
  -7   4   5    0.20    0.11
  -7   4   4    0.15    0.17
  -7   4   4    0.00    0.14
  -7   4   3    0.60    0.17
  -7   4   3    0.82    0.17
   7  -4  -2    0.20    0.20
  -7   4   2    0.21    0.15
  -7   4   2   -0.06    0.16
   7  -4  -1    0.17    0.21
  -7   4   1    0.47    0.22
  -7   4   1   -0.19    0.17
   7  -4   0    0.32    0.36
  -7   4   0    0.51    0.14
  -7   4   0    0.09    0.19
   7  -4   1    2.32    0.43
  -7   4  -1    2.64    0.18
  -7   4  -1    3.07    0.26
   7  -4   2    0.51    0.40
  -7   4  -2    0.25    0.23
   7  -4   3    0.52    0.39
  -7   4  -3    0.49    0.24
   7  -4   4    1.72    0.28
  -7   4  -4    1.95    0.40
   7  -4   5    1.08    0.27
  -7   4  -5    1.23    0.24
   7  -4   6    0.19    0.26
  -7   4  -6    0.12    0.23
  -7   3   6    0.33    0.21
  -7   3   6    0.02    0.17
  -7   3   5   -0.02    0.20
  -7   3   5   -0.11    0.11
   7  -3  -4    0.23    0.17
  -7   3   4    0.27    0.19
  -7   3   4    0.20    0.13
   7  -3  -3    0.36    0.27
  -7   3   3   -0.20    0.26
  -7   3   3    0.07    0.22
   7  -3  -2   -0.24    0.18
  -7   3   2    0.30    0.16
  -7   3   2    0.45    0.15
   7  -3  -1    2.52    0.33
  -7   3   1    1.79    0.18
  -7   3   1    2.00    0.18
   7  -3   0   -0.17    0.19
  -7   3   0    0.20    0.21
  -7   3   0   -0.17    0.17
   7  -3   1   -0.35    0.21
  -7   3  -1    0.05    0.29
   7  -3   2    0.62    0.23
  -7   3  -2    0.70    0.21
   7  -3   3    0.00    0.21
  -7   3  -3    0.10    0.20
   7  -3   4    2.24    0.39
  -7   3  -4    2.45    0.25
   7  -3   5    0.85    0.25
  -7   3  -5    1.24    0.22
   7  -3   6    0.00    0.23
  -7   3  -6    0.45    0.21
   7  -3   7    0.47    0.36
  -7   3  -7   -0.02    0.22
  -7   2   7    0.08    0.24
   7  -2  -5    0.75    0.15
  -7   2   5    0.95    0.34
  -7   2   5    1.09    0.12
   7  -2  -4    0.05    0.14
  -7   2   4    0.07    0.18
  -7   2   4    0.27    0.12
   7  -2  -3    4.62    0.22
  -7   2   3    3.99    0.23
  -7   2   3    4.18    0.18
   7  -2  -2    3.04    0.21
  -7   2   2    2.92    0.20
  -7   2   2    2.57    0.18
   7  -2  -1    3.97    0.23
  -7   2   1    4.09    0.20
  -7   2   1    4.24    0.28
   7  -2   0    2.18    0.21
  -7   2   0    2.07    0.17
  -7   2   0    2.02    0.19
   7  -2   1   -0.16    0.19
  -7   2  -1    0.02    0.17
   7  -2   2    1.07    0.21
  -7   2  -2    0.98    0.19
   7  -2   3   -0.19    0.20
  -7   2  -3   -0.12    0.19
   7  -2   4    1.61    0.24
  -7   2  -4    1.59    0.34
   7  -2   5    3.94    0.26
  -7   2  -5    3.19    0.24
   7  -2   6    0.02    0.20
  -7   2  -6   -0.09    0.20
   7  -2   7    0.19    0.21
  -7   2  -7   -0.03    0.20
   7  -2   8    0.89    0.23
  -7   2  -8    1.25    0.22
  -7   1   7    0.56    0.39
   7  -1  -6    0.92    0.13
  -7   1   6    0.70    0.37
   7  -1  -5    1.88    0.22
  -7   1   5    1.93    0.23
  -7   1   5    1.79    0.20
   7  -1  -4    0.31    0.21
  -7   1   4    0.35    0.19
  -7   1   4    0.49    0.18
   7  -1  -3    4.69    0.21
  -7   1   3    4.84    0.24
  -7   1   3    4.61    0.18
   7  -1  -2    0.06    0.15
  -7   1   2    0.12    0.25
  -7   1   2    0.05    0.12
   7  -1  -1    1.87    0.19
  -7   1   1    2.61    0.18
  -7   1   1    2.44    0.16
   7  -1   0    1.22    0.27
  -7   1   0    1.04    0.16
  -7   1   0    0.64    0.16
   7  -1   1    6.15    0.25
  -7   1  -1    6.51    0.24
   7  -1   2    7.75    0.28
  -7   1  -2    7.89    0.27
   7  -1   3    0.51    0.30
  -7   1  -3    0.49    0.18
   7  -1   4    0.87    0.20
  -7   1  -4    0.46    0.18
   7  -1   5    0.73    0.19
  -7   1  -5    0.30    0.19
   7  -1   6    0.21    0.20
  -7   1  -6    0.28    0.19
   7  -1   7    0.86    0.21
  -7   1  -7    0.30    0.30
   7  -1   8    0.32    0.20
  -7   1  -8    0.46    0.19
   7  -1   9    0.29    0.20
  -7   1  -9    0.81    0.20
  -7   0   8    0.71    0.45
  -7   0   7    0.48    0.40
   7   0  -6    0.72    0.17
  -7   0   6    1.18    0.37
   7   0  -5   -0.09    0.11
  -7   0   5    0.19    0.20
  -7   0   5    0.34    0.15
   7   0  -4   -0.13    0.11
  -7   0   4    0.04    0.18
  -7   0   4   -0.08    0.10
   7   0  -3    2.41    0.16
  -7   0   3    2.15    0.21
  -7   0   3    2.37    0.14
   7   0  -2   13.62    0.39
  -7   0   2   13.41    0.33
  -7   0   2   13.20    0.36
   7   0  -1    8.30    0.25
  -7   0   1    7.94    0.25
  -7   0   1    7.98    0.23
   7   0   0   -0.24    0.15
  -7   0   0   -0.03    0.14
   7   0   1    7.79    0.26
  -7   0  -1    7.56    0.23
   7   0   2    1.21    0.19
  -7   0  -2    1.18    0.18
   7   0   3    0.12    0.17
  -7   0  -3    0.05    0.17
   7   0   4    0.03    0.16
  -7   0  -4    0.17    0.16
   7   0   5    2.92    0.31
  -7   0  -5    2.68    0.21
   7   0   6    0.38    0.19
  -7   0  -6    0.33    0.18
   7   0   7   -0.12    0.17
  -7   0  -7    0.10    0.17
   7   0   8    0.08    0.18
  -7   0  -8    0.30    0.18
   7   0   9    0.41    0.19
  -7   0  -9    0.57    0.30
   7   0  10    0.07    0.28
  -7   0 -10   -0.04    0.18
  -7  -1   8    0.17    0.43
  -7  -1   7   -0.16    0.41
   7   1  -6    0.09    0.09
  -7  -1   6   -0.27    0.37
   7   1  -5    0.33    0.16
  -7  -1   5   -0.27    0.22
  -7  -1   5    0.23    0.16
   7   1  -4    0.60    0.11
  -7  -1   4    0.28    0.20
  -7  -1   4    0.32    0.11
   7   1  -3    4.07    0.24
  -7  -1   3    4.07    0.24
  -7  -1   3    4.21    0.17
   7   1  -2    0.26    0.12
  -7  -1   2    0.51    0.26
  -7  -1   2    0.23    0.12
   7   1  -1    2.37    0.24
  -7  -1   1    1.91    0.18
  -7  -1   1    2.26    0.23
   7   1   0    1.95    0.17
  -7  -1   0    2.20    0.16
   7   1   1    0.43    0.15
  -7  -1  -1    0.48    0.15
   7   1   2    1.52    0.18
  -7  -1  -2    1.64    0.18
   7   1   3   -0.21    0.16
  -7  -1  -3    0.11    0.27
   7   1   4    5.84    0.34
  -7  -1  -4    5.52    0.24
   7   1   5    0.90    0.18
  -7  -1  -5    1.24    0.18
   7   1   6    0.43    0.18
  -7  -1  -6    0.55    0.18
   7   1   7    0.18    0.17
  -7  -1  -7    0.49    0.28
   7   1   8    1.22    0.29
  -7  -1  -8    0.77    0.19
   7   1   9    0.59    0.18
  -7  -1  -9    0.04    0.30
   7   1  10    0.23    0.17
  -7  -1 -10    0.04    0.19
  -7  -2   7    5.21    0.35
   7   2  -6    0.27    0.09
  -7  -2   6    0.69    0.24
  -7  -2   6    0.09    0.10
   7   2  -5    0.33    0.15
  -7  -2   5    0.30    0.34
  -7  -2   5    0.21    0.12
   7   2  -4    0.73    0.17
  -7  -2   4    0.58    0.21
  -7  -2   4    0.76    0.18
   7   2  -3    6.71    0.20
  -7  -2   3    6.81    0.27
  -7  -2   3    7.03    0.21
   7   2  -2    3.58    0.16
  -7  -2   2    3.46    0.21
  -7  -2   2    3.26    0.16
  -7  -2   1    0.53    0.16
  -7  -2   1    0.48    0.13
   7   2   0    0.19    0.21
  -7  -2   0    0.09    0.12
   7   2   1    3.18    0.18
  -7  -2  -1    2.87    0.26
   7   2   2    5.06    0.21
  -7  -2  -2    5.01    0.21
   7   2   3   19.28    0.46
  -7  -2  -3   19.66    0.39
   7   2   4   39.89    0.61
  -7  -2  -4   40.34    0.63
   7   2   5   20.27    0.41
  -7  -2  -5   20.34    0.41
   7   2   6    2.17    0.19
  -7  -2  -6    1.89    0.30
   7   2   7    4.86    0.23
  -7  -2  -7    4.74    0.24
   7   2   8    1.13    0.18
  -7  -2  -8    1.13    0.19
   7   2   9    2.07    0.19
  -7  -2  -9    2.10    0.21
   7   2  10    0.30    0.25
  -7  -2 -10   -0.15    0.17
   7   2  11    0.35    0.25
  -7  -2 -11    0.18    0.19
  -7  -3   7    2.20    0.30
   7   3  -6   11.06    0.22
  -7  -3   6   11.15    0.41
   7   3  -5    2.02    0.12
  -7  -3   5    2.17    0.26
  -7  -3   5    2.31    0.15
   7   3  -4    8.23    0.26
  -7  -3   4    8.17    0.31
  -7  -3   4    8.72    0.30
   7   3  -3    1.51    0.13
  -7  -3   3    2.08    0.20
  -7  -3   3    1.66    0.14
   7   3  -2    3.02    0.16
  -7  -3   2    2.72    0.20
  -7  -3   2    3.16    0.16
   7   3  -1    2.29    0.15
  -7  -3   1    2.14    0.18
  -7  -3   1    1.99    0.16
   7   3   0    1.91    0.16
  -7  -3   0    1.88    0.17
  -7  -3   0    2.21    0.16
   7   3   1    0.34    0.22
  -7  -3  -1    0.47    0.15
   7   3   2    1.56    0.16
  -7  -3  -2    1.67    0.18
   7   3   3    1.53    0.17
  -7  -3  -3    1.74    0.19
   7   3   4   18.75    0.37
  -7  -3  -4   18.36    0.39
   7   3   5   11.60    0.39
  -7  -3  -5   11.51    0.32
   7   3   6    9.71    0.28
  -7  -3  -6    9.10    0.29
   7   3   7   33.26    0.56
  -7  -3  -7   32.99    0.59
   7   3   8    6.12    0.24
  -7  -3  -8    5.95    0.38
   7   3   9    2.10    0.19
  -7  -3  -9    2.18    0.22
   7   3  10    0.09    0.15
  -7  -3 -10    0.13    0.19
   7   3  11    0.20    0.16
  -7  -3 -11    0.06    0.19
  -7  -4   7    0.18    0.39
   7   4  -6    0.35    0.09
  -7  -4   6    0.26    0.23
  -7  -4   6    0.09    0.17
   7   4  -5    6.97    0.18
  -7  -4   5    7.70    0.32
   7   4  -4    0.92    0.12
  -7  -4   4    0.79    0.22
  -7  -4   4    0.95    0.15
   7   4  -3   14.53    0.30
  -7  -4   3   15.41    0.38
  -7  -4   3   15.20    0.33
   7   4  -2    7.14    0.28
  -7  -4   2    7.27    0.26
  -7  -4   2    7.21    0.24
   7   4  -1    3.75    0.17
  -7  -4   1    3.39    0.20
  -7  -4   1    3.60    0.19
   7   4   0    0.02    0.13
  -7  -4   0    0.23    0.13
  -7  -4   0   -0.13    0.14
   7   4   1   -0.29    0.13
  -7  -4  -1    0.25    0.15
   7   4   2    1.08    0.16
  -7  -4  -2    1.20    0.19
   7   4   3    0.11    0.14
  -7  -4  -3   -0.02    0.17
   7   4   4    4.24    0.30
  -7  -4  -4    4.32    0.23
   7   4   5    4.27    0.21
  -7  -4  -5    4.47    0.24
   7   4   6    1.25    0.26
  -7  -4  -6    0.96    0.20
   7   4   7   10.29    0.29
  -7  -4  -7   10.58    0.33
   7   4   8    2.74    0.20
  -7  -4  -8    3.12    0.24
   7   4   9    1.12    0.26
  -7  -4  -9    1.14    0.33
   7   4  10    0.28    0.25
  -7  -4 -10    0.19    0.20
   7   4  11   -0.12    0.24
  -7  -4 -11    0.59    0.32
  -7  -5   6    0.22    0.23
   7   5  -5    0.13    0.10
  -7  -5   5    0.09    0.20
  -7  -5   5    0.13    0.14
   7   5  -4   10.18    0.24
  -7  -5   4    9.71    0.33
  -7  -5   4   10.66    0.38
   7   5  -3   17.08    0.33
  -7  -5   3   16.46    0.39
  -7  -5   3   17.49    0.39
   7   5  -2   18.67    0.36
  -7  -5   2   18.92    0.41
  -7  -5   2   19.04    0.40
   7   5  -1    1.96    0.24
  -7  -5   1    1.97    0.26
  -7  -5   1    2.02    0.19
   7   5   0   -0.03    0.14
  -7  -5   0   -0.20    0.14
  -7  -5   0   -0.28    0.25
   7   5   1    0.28    0.15
  -7  -5  -1    0.28    0.17
   7   5   2   -0.02    0.15
  -7  -5  -2    0.17    0.27
   7   5   3    0.63    0.17
  -7  -5  -3    0.60    0.21
   7   5   4   -0.36    0.16
  -7  -5  -4    0.18    0.20
   7   5   5    6.19    0.24
  -7  -5  -5    6.47    0.29
   7   5   6    5.29    0.22
  -7  -5  -6    4.97    0.27
   7   5   7    0.70    0.25
  -7  -5  -7   -0.07    0.20
   7   5   8    1.15    0.17
  -7  -5  -8    1.03    0.33
   7   5   9    0.35    0.16
  -7  -5  -9    0.37    0.22
   7   5  10    0.04    0.15
  -7  -5 -10   -0.10    0.20
   7   5  11    0.50    0.16
  -7  -5 -11   -0.01    0.22
  -7  -6   6   -0.28    0.34
   7   6  -5    0.21    0.18
  -7  -6   5    0.19    0.32
  -7  -6   5    0.31    0.15
   7   6  -4    0.87    0.21
  -7  -6   4    0.58    0.20
  -7  -6   4    0.86    0.19
   7   6  -3    7.37    0.24
  -7  -6   3    6.72    0.27
  -7  -6   3    7.67    0.29
   7   6  -2    7.47    0.32
  -7  -6   2    7.42    0.26
  -7  -6   2    7.39    0.28
   7   6  -1    0.79    0.17
  -7  -6   1    0.64    0.16
  -7  -6   1    0.98    0.20
   7   6   0   20.26    0.41
  -7  -6   0   19.98    0.38
  -7  -6   0   20.12    0.44
   7   6   1    4.06    0.22
  -7  -6  -1    3.97    0.18
  -7  -6  -1    3.60    0.25
   7   6   2    0.12    0.16
  -7  -6  -2   -0.17    0.20
   7   6   3    1.65    0.20
  -7  -6  -3    2.05    0.24
   7   6   4    0.75    0.28
  -7  -6  -4    0.31    0.23
   7   6   5    0.30    0.18
  -7  -6  -5    0.19    0.35
   7   6   6    4.39    0.34
  -7  -6  -6    4.10    0.40
   7   6   7    1.00    0.19
  -7  -6  -7    1.36    0.24
   7   6   8    0.48    0.18
  -7  -6  -8    0.61    0.24
   7   6   9    2.58    0.30
  -7  -6  -9    2.43    0.27
   7   6  10    0.38    0.26
  -7  -6 -10    0.54    0.23
   7   6  11    0.41    0.25
  -7  -6 -11    0.23    0.24
   7   7  -5   -0.05    0.13
  -7  -7   5   -0.12    0.19
  -7  -7   5    0.17    0.17
   7   7  -4    0.09    0.14
  -7  -7   4    0.22    0.18
  -7  -7   4    0.21    0.18
   7   7  -3    0.13    0.15
  -7  -7   3    0.25    0.17
  -7  -7   3    0.18    0.31
   7   7  -2   -0.13    0.16
  -7  -7   2    0.50    0.24
  -7  -7   2    0.22    0.32
   7   7  -1    0.58    0.18
  -7  -7   1    0.37    0.15
  -7  -7   1    0.53    0.21
   7   7   0    0.76    0.19
  -7  -7   0    0.93    0.23
  -7  -7   0    0.77    0.22
   7   7   1   10.42    0.31
  -7  -7  -1   10.96    0.27
  -7  -7  -1   11.41    0.36
   7   7   2    5.28    0.26
  -7  -7  -2    5.48    0.31
   7   7   3    0.06    0.20
  -7  -7  -3    0.42    0.37
   7   7   4    0.27    0.30
  -7  -7  -4   -0.22    0.24
   7   7   5   17.66    0.40
  -7  -7  -5   17.25    0.47
   7   7   6    1.08    0.21
  -7  -7  -6    0.53    0.26
   7   7   7    0.05    0.18
  -7  -7  -7    0.12    0.24
   7   7   8    3.13    0.33
  -7  -7  -8    3.82    0.30
   7   7   9    2.43    0.21
  -7  -7  -9    2.12    0.43
   7   7  10    1.92    0.20
  -7  -7 -10    2.12    0.28
   7   7  11    0.12    0.16
  -7  -7 -11    0.48    0.39
   7   8  -4   -0.12    0.26
  -7  -8   4   -0.07    0.18
  -7  -8   4   -0.15    0.19
   7   8  -3    0.22    0.17
  -7  -8   3    0.38    0.16
  -7  -8   3    0.13    0.23
   7   8  -2    0.50    0.29
  -7  -8   2    0.16    0.15
  -7  -8   2    0.23    0.23
   7   8  -1    3.00    0.23
  -7  -8   1    2.92    0.18
  -7  -8   1    2.91    0.28
   7   8   0    1.75    0.22
  -7  -8   0    1.69    0.15
  -7  -8   0    2.17    0.26
   7   8   1    2.03    0.22
  -7  -8  -1    1.49    0.14
  -7  -8  -1    1.00    0.27
   7   8   2    3.52    0.26
  -7  -8  -2    3.83    0.17
  -7  -8  -2    3.73    0.31
   7   8   3    6.92    0.31
  -7  -8  -3    6.52    0.36
   7   8   4   -0.01    0.34
  -7  -8  -4   -0.19    0.27
   7   8   5    2.42    0.25
  -7  -8  -5    2.11    0.48
   7   8   6    0.33    0.21
  -7  -8  -6    0.45    0.43
   7   8   7    5.24    0.28
  -7  -8  -7    5.03    0.51
   7   8   8    0.04    0.31
  -7  -8  -8   -0.18    0.27
   7   8   9    0.23    0.20
  -7  -8  -9    0.59    0.28
   7   8  10   -0.27    0.18
  -7  -8 -10    0.28    0.27
   7   8  11    0.69    0.19
  -7  -8 -11    1.25    0.28
   7   9  -3    4.28    0.26
  -7  -9   3    4.08    0.22
   7   9  -2    0.23    0.20
  -7  -9   2    0.18    0.14
  -7  -9   2    0.53    0.26
   7   9  -1   -0.07    0.32
  -7  -9   1    0.20    0.20
  -7  -9   1   -0.02    0.38
   7   9   0    0.63    0.22
  -7  -9   0    0.17    0.13
  -7  -9   0    0.39    0.27
   7   9   1    3.63    0.27
  -7  -9  -1    3.34    0.22
  -7  -9  -1    3.48    0.32
   7   9   2    0.69    0.23
  -7  -9  -2    0.04    0.17
  -7  -9  -2   -0.41    0.29
   7   9   3    0.41    0.39
  -7  -9  -3    0.32    0.11
  -7  -9  -3    0.28    0.31
   7   9   4    2.03    0.28
  -7  -9  -4    2.43    0.35
   7   9   5   -0.24    0.24
  -7  -9  -5   -0.24    0.32
   7   9   6    4.04    0.43
  -7  -9  -6    2.97    0.37
   7   9   7    3.06    0.27
  -7  -9  -7    3.44    0.38
   7   9   8    0.70    0.35
  -7  -9  -8    0.91    0.32
   7   9   9    0.08    0.20
  -7  -9  -9    0.47    0.29
   7   9  10    0.02    0.20
  -7  -9 -10    0.19    0.47
   7  10  -2    2.35    0.27
  -7 -10   2    2.12    0.16
  -7 -10   2    2.38    0.31
   7  10  -1   -0.10    0.24
  -7 -10   1   -0.02    0.11
  -7 -10   1    0.09    0.27
   7  10   0   -0.12    0.25
  -7 -10   0    0.21    0.11
  -7 -10   0    0.70    0.29
   7  10   1    1.79    0.27
  -7 -10  -1    1.66    0.13
  -7 -10  -1    1.63    0.50
   7  10   2   -0.14    0.26
  -7 -10  -2    0.32    0.10
  -7 -10  -2    0.73    0.32
   7  10   3    0.73    0.28
  -7 -10  -3    1.14    0.17
  -7 -10  -3    1.51    0.37
   7  10   4   -0.12    0.28
  -7 -10  -4   -0.09    0.34
   7  10   5    0.26    0.42
  -7 -10  -5    0.04    0.34
   7  10   6   -0.07    0.26
  -7 -10  -6    0.29    0.35
   7  10   7    1.51    0.28
  -7 -10  -7    0.91    0.37
   7  10   8    0.13    0.23
  -7 -10  -8    0.17    0.34
   7  10   9   -0.05    0.35
  -7 -10  -9    0.08    0.32
   7  11   0    1.28    0.47
  -7 -11   0    1.70    0.34
   7  11   1    1.10    0.48
  -7 -11  -1    1.03    0.53
   7  11   2    0.88    0.49
  -7 -11  -2    1.14    0.38
   7  11   3   -0.19    0.46
  -7 -11  -3   -0.18    0.38
   7  11   4    0.07    0.30
  -7 -11  -4    0.34    0.62
   7  11   5    1.11    0.33
  -7 -11  -5    1.60    0.41
   7  11   6    0.15    0.29
  -7 -11  -6    0.44    0.39
   7  11   7    2.03    0.32
  -7 -11  -7    1.66    0.42
   7  11   8   -0.03    0.26
  -7 -11  -8    0.07    0.35
  -8   4   3    0.53    0.20
  -8   4   3    0.57    0.19
   8  -4  -2    0.07    0.23
  -8   4   2    0.15    0.17
  -8   4   2    0.07    0.18
   8  -4  -1    0.39    0.25
  -8   4   1   -0.08    0.17
  -8   4   1    0.63    0.20
   8  -4   0    0.26    0.24
  -8   4   0    0.08    0.15
  -8   4   0   -0.10    0.20
   8  -4   1    0.09    0.39
  -8   4  -1    0.04    0.23
  -8   4  -1   -0.08    0.22
   8  -4   2    0.78    0.45
  -8   4  -2    0.85    0.25
   8  -4   3    1.48    0.49
  -8   4  -3    1.91    0.29
   8  -4   4    0.37    0.28
  -8   4  -4    0.45    0.26
  -8   3   5    0.50    0.22
  -8   3   5    0.10    0.20
   8  -3  -4    0.00    0.19
  -8   3   4    0.50    0.21
  -8   3   4   -0.01    0.13
   8  -3  -3    0.53    0.32
  -8   3   3    0.49    0.19
  -8   3   3    0.15    0.16
   8  -3  -2    1.18    0.23
  -8   3   2    1.47    0.29
  -8   3   2    1.10    0.18
   8  -3  -1   -0.12    0.22
  -8   3   1    0.41    0.17
  -8   3   1    0.37    0.18
   8  -3   0    0.11    0.34
  -8   3   0    0.12    0.16
   8  -3   1   -0.13    0.22
  -8   3  -1    0.05    0.15
  -8   3  -1    0.08    0.31
   8  -3   2    0.36    0.24
  -8   3  -2    0.61    0.36
   8  -3   3    1.31    0.28
  -8   3  -3    2.51    0.41
   8  -3   4    0.95    0.40
  -8   3  -4    0.20    0.25
   8  -3   5    0.17    0.25
  -8   3  -5   -0.17    0.23
   8  -2  -5    0.31    0.16
  -8   2   5    0.42    0.36
  -8   2   5    0.07    0.12
   8  -2  -4    0.92    0.18
  -8   2   4    0.85    0.22
  -8   2   4    0.73    0.14
   8  -2  -3    4.79    0.25
  -8   2   3    5.19    0.27
  -8   2   3    4.76    0.22
   8  -2  -2    2.30    0.23
  -8   2   2    2.90    0.22
  -8   2   2    2.51    0.19
   8  -2  -1   -0.39    0.31
  -8   2   1    0.19    0.17
  -8   2   1    0.21    0.24
   8  -2   0   -0.01    0.20
  -8   2   0   -0.06    0.25
  -8   2   0    0.07    0.16
   8  -2   1    0.64    0.21
  -8   2  -1   -0.12    0.19
   8  -2   2    2.98    0.27
  -8   2  -2    2.64    0.24
   8  -2   3   -0.03    0.22
  -8   2  -3    0.44    0.22
   8  -2   4    0.31    0.23
  -8   2  -4    0.41    0.22
   8  -2   5    0.23    0.36
  -8   2  -5    0.21    0.36
   8  -2   6   -0.09    0.23
  -8   2  -6   -0.18    0.23
   8  -2   7    1.33    0.26
  -8   2  -7    1.41    0.25
   8  -1  -6    0.45    0.14
  -8   1   6    1.23    0.27
   8  -1  -5    3.53    0.20
  -8   1   5    4.09    0.30
   8  -1  -4    0.65    0.16
  -8   1   4    0.34    0.22
  -8   1   4    0.53    0.14
   8  -1  -3    0.23    0.16
  -8   1   3   -0.08    0.19
  -8   1   3   -0.22    0.13
   8  -1  -2    2.53    0.31
  -8   1   2    2.61    0.23
  -8   1   2    2.60    0.18
   8  -1  -1   15.57    0.40
  -8   1   1   16.18    0.49
  -8   1   1   15.10    0.35
   8  -1   0    0.01    0.17
  -8   1   0    0.11    0.16
  -8   1   0   -0.10    0.15
   8  -1   1    2.53    0.24
  -8   1  -1    2.59    0.22
   8  -1   2    0.67    0.21
  -8   1  -2    0.62    0.20
   8  -1   3    2.30    0.25
  -8   1  -3    2.33    0.24
   8  -1   4    0.32    0.21
  -8   1  -4    0.24    0.20
   8  -1   5    0.30    0.21
  -8   1  -5    0.20    0.21
   8  -1   6    0.90    0.38
  -8   1  -6    1.06    0.37
   8  -1   7    0.74    0.23
  -8   1  -7    0.25    0.22
   8  -1   8    0.72    0.38
  -8   1  -8    0.92    0.23
   8   0  -6    0.15    0.12
  -8   0   6   -0.16    0.25
  -8   0   6    0.14    0.11
   8   0  -5    0.10    0.20
  -8   0   5   -0.02    0.23
  -8   0   5   -0.13    0.11
   8   0  -4   -0.11    0.21
  -8   0   4   -0.13    0.21
  -8   0   4    0.20    0.19
   8   0  -3    0.12    0.15
  -8   0   3    0.23    0.20
  -8   0   3    0.09    0.13
   8   0  -2    1.69    0.18
  -8   0   2    1.29    0.21
  -8   0   2    1.06    0.16
   8   0  -1    1.08    0.18
  -8   0   1    1.47    0.19
  -8   0   1    1.04    0.26
   8   0   0    3.89    0.33
  -8   0   0    3.43    0.22
  -8   0   0    3.28    0.21
   8   0   1    0.49    0.19
  -8   0  -1    0.33    0.18
   8   0   2    9.70    0.32
  -8   0  -2    9.52    0.31
   8   0   3    6.45    0.29
  -8   0  -3    6.39    0.29
   8   0   4   -0.26    0.32
  -8   0  -4   -0.24    0.20
   8   0   5   -0.07    0.20
  -8   0  -5   -0.16    0.20
   8   0   6    0.45    0.21
  -8   0  -6    0.33    0.21
   8   0   7   -0.02    0.20
  -8   0  -7    0.02    0.20
   8   0   8    0.13    0.21
  -8   0  -8    0.61    0.22
   8   0   9    0.26    0.22
  -8   0  -9    0.25    0.22
   8   1  -6    1.56    0.20
  -8  -1   6    1.72    0.29
   8   1  -5    0.26    0.12
  -8  -1   5    0.60    0.24
  -8  -1   5    0.12    0.17
   8   1  -4    0.30    0.13
  -8  -1   4    0.23    0.22
  -8  -1   4    0.15    0.13
   8   1  -3    0.42    0.14
  -8  -1   3    0.10    0.20
  -8  -1   3    0.20    0.13
   8   1  -2    0.45    0.15
  -8  -1   2    0.26    0.19
   8   1  -1    2.37    0.18
  -8  -1   1    2.07    0.21
  -8  -1   1    2.40    0.18
   8   1   0    1.94    0.19
  -8  -1   0    2.11    0.20
  -8  -1   0    2.26    0.26
   8   1   1    5.61    0.25
  -8  -1  -1    5.53    0.24
   8   1   2   23.26    0.48
  -8  -1  -2   23.64    0.49
   8   1   3   15.05    0.37
  -8  -1  -3   15.39    0.39
   8   1   4    4.87    0.26
  -8  -1  -4    4.67    0.27
   8   1   5    0.19    0.19
  -8  -1  -5   -0.29    0.19
   8   1   6    0.22    0.20
  -8  -1  -6    0.45    0.20
   8   1   7    0.45    0.21
  -8  -1  -7    0.73    0.21
   8   1   8    0.27    0.20
  -8  -1  -8    0.06    0.21
   8   1   9   -0.19    0.20
  -8  -1  -9    0.50    0.32
  -8  -2   6    0.84    0.44
   8   2  -5    1.08    0.19
  -8  -2   5    1.36    0.26
   8   2  -4    0.68    0.21
  -8  -2   4    0.83    0.23
  -8  -2   4    0.80    0.14
   8   2  -3    1.09    0.15
  -8  -2   3    1.37    0.23
  -8  -2   3    1.47    0.15
   8   2  -2    0.01    0.13
  -8  -2   2   -0.04    0.20
  -8  -2   2    0.03    0.13
   8   2  -1    0.03    0.14
  -8  -2   1   -0.11    0.17
  -8  -2   1    0.09    0.21
   8   2   0    0.52    0.26
  -8  -2   0    0.63    0.18
  -8  -2   0    0.57    0.15
   8   2   1    0.63    0.17
  -8  -2  -1    0.34    0.26
   8   2   2    4.94    0.23
  -8  -2  -2    4.51    0.23
   8   2   3   10.06    0.31
  -8  -2  -3   10.28    0.32
   8   2   4    0.62    0.19
  -8  -2  -4    0.87    0.22
   8   2   5   20.74    0.45
  -8  -2  -5   20.72    0.46
   8   2   6    3.90    0.24
  -8  -2  -6    3.98    0.37
   8   2   7    1.44    0.21
  -8  -2  -7    1.02    0.21
   8   2   8   -0.01    0.19
  -8  -2  -8    0.36    0.20
   8   2   9    0.28    0.20
  -8  -2  -9    0.69    0.33
   8   2  10    1.02    0.22
  -8  -2 -10    1.31    0.22
  -8  -3   6    1.42    0.30
   8   3  -5    8.57    0.23
  -8  -3   5    9.94    0.38
   8   3  -4    6.50    0.21
  -8  -3   4    6.07    0.47
  -8  -3   4    6.61    0.24
   8   3  -3    2.17    0.16
  -8  -3   3    1.52    0.24
  -8  -3   3    2.03    0.17
   8   3  -2    2.28    0.24
  -8  -3   2    2.13    0.22
  -8  -3   2    2.01    0.18
   8   3  -1    0.43    0.14
  -8  -3   1    0.01    0.18
  -8  -3   1    0.36    0.15
   8   3   0    0.53    0.16
  -8  -3   0    0.83    0.18
  -8  -3   0    0.70    0.26
   8   3   1    0.23    0.16
  -8  -3  -1    0.11    0.16
   8   3   2    2.28    0.19
  -8  -3  -2    2.19    0.21
   8   3   3    3.14    0.21
  -8  -3  -3    3.67    0.35
   8   3   4    1.16    0.20
  -8  -3  -4    1.54    0.32
   8   3   5    1.03    0.20
  -8  -3  -5    1.25    0.34
   8   3   6    5.47    0.25
  -8  -3  -6    5.58    0.28
   8   3   7    2.66    0.23
  -8  -3  -7    2.80    0.25
   8   3   8    0.35    0.18
  -8  -3  -8   -0.23    0.21
   8   3   9    0.22    0.29
  -8  -3  -9    0.08    0.21
   8   3  10    1.94    0.21
  -8  -3 -10    1.80    0.24
  -8  -4   6    0.70    0.28
   8   4  -5    6.22    0.20
  -8  -4   5    6.71    0.36
   8   4  -4    6.26    0.20
  -8  -4   4    6.36    0.33
  -8  -4   4    6.36    0.25
   8   4  -3    4.38    0.26
  -8  -4   3    4.24    0.26
  -8  -4   3    4.11    0.22
   8   4  -2    1.66    0.16
  -8  -4   2    1.55    0.21
  -8  -4   2    1.54    0.18
   8   4  -1    0.31    0.23
  -8  -4   1    0.01    0.18
  -8  -4   1    0.49    0.16
   8   4   0    1.80    0.17
  -8  -4   0    2.41    0.29
  -8  -4   0    1.68    0.19
   8   4   1    0.66    0.17
  -8  -4  -1    0.97    0.18
   8   4   2    0.67    0.18
  -8  -4  -2    1.19    0.20
   8   4   3   -0.10    0.17
  -8  -4  -3    0.02    0.18
   8   4   4    0.93    0.29
  -8  -4  -4    0.92    0.22
   8   4   5    0.32    0.17
  -8  -4  -5    0.29    0.20
   8   4   6    2.65    0.21
  -8  -4  -6    2.62    0.25
   8   4   7    5.14    0.24
  -8  -4  -7    5.09    0.28
   8   4   8    0.24    0.29
  -8  -4  -8    0.53    0.36
   8   4   9    0.48    0.18
  -8  -4  -9    0.28    0.23
   8   4  10    0.78    0.19
  -8  -4 -10    0.43    0.37
  -8  -5   6    0.82    0.41
   8   5  -5    0.88    0.19
  -8  -5   5    0.78    0.39
   8   5  -4    1.57    0.15
  -8  -5   4    1.88    0.25
   8   5  -3    0.41    0.14
  -8  -5   3    0.50    0.21
  -8  -5   3    0.35    0.26
   8   5  -2    6.40    0.30
  -8  -5   2    6.41    0.27
  -8  -5   2    6.24    0.34
   8   5  -1    0.28    0.15
  -8  -5   1    0.25    0.27
  -8  -5   1    0.04    0.27
   8   5   0   -0.06    0.15
  -8  -5   0   -0.03    0.16
  -8  -5   0    0.03    0.17
   8   5   1    0.10    0.16
  -8  -5  -1    0.20    0.18
   8   5   2    0.18    0.17
  -8  -5  -2    0.14    0.19
   8   5   3    1.41    0.20
  -8  -5  -3    1.81    0.23
   8   5   4    1.35    0.20
  -8  -5  -4    1.59    0.37
   8   5   5    0.46    0.28
  -8  -5  -5    0.41    0.23
   8   5   6    1.90    0.20
  -8  -5  -6    1.64    0.38
   8   5   7    5.20    0.36
  -8  -5  -7    5.54    0.31
   8   5   8    0.25    0.18
  -8  -5  -8    0.36    0.23
   8   5   9    0.75    0.19
  -8  -5  -9    1.02    0.24
   8   5  10    0.16    0.29
  -8  -5 -10    0.74    0.37
   8   5  11    0.80    0.30
  -8  -5 -11    0.83    0.25
   8   6  -5    0.05    0.12
  -8  -6   5   -0.27    0.23
  -8  -6   5    0.32    0.17
   8   6  -4    0.06    0.14
  -8  -6   4    0.02    0.21
  -8  -6   4    0.27    0.25
   8   6  -3    1.58    0.17
  -8  -6   3    1.58    0.23
  -8  -6   3    2.02    0.21
   8   6  -2    0.45    0.15
  -8  -6   2   -0.02    0.29
  -8  -6   2    0.56    0.19
   8   6  -1    0.46    0.16
  -8  -6   1    0.42    0.17
  -8  -6   1    0.27    0.20
   8   6   0   -0.10    0.26
  -8  -6   0    0.25    0.16
  -8  -6   0    0.40    0.31
   8   6   1    8.01    0.38
  -8  -6  -1    8.35    0.27
  -8  -6  -1    8.27    0.32
   8   6   2    9.01    0.40
  -8  -6  -2    9.06    0.47
   8   6   3    5.04    0.24
  -8  -6  -3    5.01    0.30
   8   6   4   -0.26    0.20
  -8  -6  -4   -0.16    0.25
   8   6   5    2.41    0.23
  -8  -6  -5    2.95    0.28
   8   6   6    9.20    0.31
  -8  -6  -6    9.71    0.38
   8   6   7    0.70    0.20
  -8  -6  -7    1.14    0.26
   8   6   8    0.24    0.18
  -8  -6  -8    0.09    0.25
   8   6   9    1.45    0.31
  -8  -6  -9    1.23    0.40
   8   6  10    0.22    0.18
  -8  -6 -10   -0.01    0.24
   8   6  11    1.02    0.20
  -8  -6 -11    1.35    0.27
   8   7  -4    0.49    0.15
  -8  -7   4    0.09    0.32
  -8  -7   4    0.00    0.19
   8   7  -3    0.02    0.24
  -8  -7   3    0.00    0.30
  -8  -7   3    0.02    0.21
   8   7  -2    5.30    0.24
  -8  -7   2    5.75    0.26
  -8  -7   2    5.91    0.30
   8   7  -1    2.25    0.20
  -8  -7   1    1.98    0.20
  -8  -7   1    2.08    0.24
   8   7   0    0.16    0.29
  -8  -7   0   -0.23    0.16
  -8  -7   0   -0.25    0.22
   8   7   1    0.17    0.19
  -8  -7  -1   -0.05    0.15
  -8  -7  -1   -0.20    0.34
   8   7   2    3.59    0.37
  -8  -7  -2    4.87    0.31
   8   7   3   12.15    0.47
  -8  -7  -3   12.65    0.42
   8   7   4    5.28    0.28
  -8  -7  -4    5.30    0.50
   8   7   5    3.97    0.27
  -8  -7  -5    4.08    0.33
   8   7   6    0.46    0.32
  -8  -7  -6    0.09    0.26
   8   7   7   -0.17    0.20
  -8  -7  -7   -0.29    0.26
   8   7   8   -0.02    0.29
  -8  -7  -8    0.25    0.40
   8   7   9    0.57    0.20
  -8  -7  -9    0.73    0.28
   8   7  10    1.08    0.21
  -8  -7 -10    1.47    0.29
   8   8  -3   -0.12    0.26
  -8  -8   3   -0.16    0.19
  -8  -8   3    0.43    0.21
   8   8  -2    1.18    0.20
  -8  -8   2    1.43    0.20
  -8  -8   2    1.28    0.26
   8   8  -1    1.17    0.21
  -8  -8   1    1.54    0.19
  -8  -8   1    1.35    0.27
   8   8   0   -0.42    0.30
  -8  -8   0   -0.08    0.15
  -8  -8   0    0.48    0.37
   8   8   1    0.27    0.33
  -8  -8  -1    0.20    0.15
  -8  -8  -1    0.51    0.25
  -8  -8  -2    4.79    0.20
  -8  -8  -2    4.29    0.48
   8   8   3    3.86    0.27
  -8  -8  -3    3.78    0.34
   8   8   4    2.88    0.27
  -8  -8  -4    3.12    0.35
   8   8   5    0.73    0.23
  -8  -8  -5    0.19    0.31
   8   8   6    1.51    0.37
  -8  -8  -6    1.23    0.32
   8   8   7    2.18    0.25
  -8  -8  -7    1.86    0.32
   8   8   8    2.03    0.37
  -8  -8  -8    2.08    0.33
   8   8   9   -0.13    0.20
  -8  -8  -9    0.28    0.28
   8   8  10    2.28    0.25
  -8  -8 -10    2.67    0.33
   8   9  -2    0.18    0.20
  -8  -9   2   -0.15    0.17
  -8  -9   2    0.36    0.40
   8   9  -1    0.17    0.20
  -8  -9   1   -0.05    0.15
  -8  -9   1   -0.21    0.26
   8   9   0    0.58    0.22
  -8  -9   0    0.61    0.24
  -8  -9   0    0.55    0.27
   8   9   1   -0.26    0.23
  -8  -9  -1    0.01    0.27
   8   9   2    0.77    0.24
  -8  -9  -2    0.47    0.22
  -8  -9  -2    0.63    0.31
   8   9   3    0.51    0.23
  -8  -9  -3    0.43    0.14
  -8  -9  -3    1.21    0.50
   8   9   4    0.64    0.24
  -8  -9  -4   -0.10    0.33
   8   9   5    0.28    0.24
  -8  -9  -5    0.47    0.33
   8   9   6    0.97    0.25
  -8  -9  -6    1.63    0.35
   8   9   7    0.33    0.23
  -8  -9  -7   -0.03    0.32
   8   9   8    0.00    0.22
  -8  -9  -8   -0.35    0.32
   8   9   9    0.14    0.22
  -8  -9  -9   -0.12    0.31
   8  10  -1    1.88    0.41
  -8 -10   1    2.57    0.18
  -8 -10   1    2.84    0.34
   8  10   0    1.22    0.27
  -8 -10   0    1.08    0.16
  -8 -10   0    1.19    0.32
   8  10   1   -0.33    0.25
  -8 -10  -1    0.37    0.13
  -8 -10  -1    0.49    0.31
   8  10   2    1.14    0.26
  -8 -10  -2    0.28    0.13
  -8 -10  -2    0.45    0.34
   8  10   3    1.05    0.28
  -8 -10  -3    1.09    0.14
  -8 -10  -3    1.24    0.37
   8  10   4    1.91    0.46
  -8 -10  -4    2.03    0.62
   8  10   5    1.96    0.30
  -8 -10  -5    2.55    0.40
   8  10   6    0.17    0.27
  -8 -10  -6    0.40    0.36
   8  10   7    1.55    0.43
  -8 -10  -7    0.25    0.39
   8  10   8    1.35    0.27
  -8 -10  -8    1.20    0.37
   8  11   2    0.30    0.29
  -8 -11  -2    0.22    0.18
  -8 -11  -2    0.45    0.35
   8  11   3    3.30    0.34
  -8 -11  -3    2.86    0.16
  -8 -11  -3    3.47    0.44
   8  11   4    3.05    0.34
  -8 -11  -4    2.35    0.15
  -8 -11  -4    2.95    0.45
   8  11   5    0.44    0.31
  -8 -11  -5    0.31    0.65
   8  11   6   -0.25    0.46
  -8 -11  -6    0.34    0.39
  -8 -11  -7    0.97    0.43
   9  -3  -1    0.73    0.25
  -9   3   1   -0.04    0.20
  -9   3   1    0.63    0.32
   9  -3   0    0.05    0.26
  -9   3   0    0.35    0.19
  -9   3   0    0.59    0.21
   9  -3   1    0.26    0.26
  -9   3  -1   -0.25    0.28
  -9   3  -1    0.01    0.21
   9  -3   2   -0.09    0.41
  -9   3  -2   -0.09    0.24
   9  -3   3    0.17    0.26
  -9   3  -3   -0.29    0.26
   9  -2  -3    3.12    0.26
  -9   2   3    3.44    0.41
  -9   2   3    3.27    0.23
   9  -2  -2    1.01    0.23
  -9   2   2    0.61    0.35
  -9   2   2    0.92    0.19
   9  -2  -1    0.62    0.23
  -9   2   1    0.48    0.20
  -9   2   1    0.34    0.19
   9  -2   0    0.34    0.23
  -9   2   0    0.56    0.19
  -9   2   0   -0.01    0.19
   9  -2   1    1.47    0.39
  -9   2  -1    0.57    0.22
   9  -2   2    0.14    0.26
  -9   2  -2    0.12    0.22
   9  -2   3   -0.31    0.41
  -9   2  -3    0.36    0.24
   9  -2   4    0.26    0.39
  -9   2  -4    0.01    0.26
   9  -2   5   -0.19    0.28
  -9   2  -5   -0.24    0.25
   9  -1  -4    0.35    0.17
  -9   1   4    0.17    0.23
  -9   1   4    0.03    0.14
   9  -1  -3    1.32    0.33
  -9   1   3    1.35    0.25
  -9   1   3    1.74    0.19
   9  -1  -2    3.64    0.26
  -9   1   2    3.66    0.28
  -9   1   2    3.81    0.33
   9  -1  -1    0.20    0.21
  -9   1   1    0.15    0.20
  -9   1   1   -0.05    0.17
   9  -1   0    7.23    0.32
  -9   1   0    7.13    0.30
  -9   1   0    7.25    0.30
   9  -1   1    7.77    0.35
  -9   1  -1    8.12    0.30
  -9   1  -1    8.26    0.32
   9  -1   2    0.29    0.23
  -9   1  -2    0.32    0.34
   9  -1   3   -0.12    0.23
  -9   1  -3    0.13    0.36
   9  -1   4    0.40    0.26
  -9   1  -4    0.49    0.25
   9  -1   5    0.16    0.39
  -9   1  -5   -0.29    0.24
   9  -1   6   -0.05    0.25
  -9   1  -6    0.42    0.25
   9   0  -5    0.68    0.16
  -9   0   5    0.61    0.27
   9   0  -4    0.42    0.16
  -9   0   4    0.32    0.24
  -9   0   4    0.11    0.13
   9   0  -3    0.15    0.17
  -9   0   3   -0.05    0.21
  -9   0   3    0.11    0.15
   9   0  -2    0.13    0.17
  -9   0   2   -0.28    0.20
  -9   0   2    0.18    0.16
   9   0  -1    0.17    0.19
  -9   0   1    0.36    0.20
  -9   0   1    0.05    0.17
   9   0   0    8.70    0.33
  -9   0   0    8.18    0.44
  -9   0   0    8.71    0.30
   9   0   1    9.07    0.35
  -9   0  -1    9.43    0.44
   9   0   2    2.10    0.25
  -9   0  -2    2.25    0.24
   9   0   3    0.08    0.24
  -9   0  -3    0.88    0.22
   9   0   4    0.14    0.23
  -9   0  -4    0.14    0.22
   9   0   5    1.35    0.26
  -9   0  -5    1.63    0.40
   9   0   6   -0.07    0.38
  -9   0  -6    0.47    0.24
   9   0   7    0.24    0.24
  -9   0  -7    0.07    0.24
   9   1  -5    0.07    0.23
  -9  -1   5    0.70    0.27
  -9  -1   5    0.06    0.13
   9   1  -4    0.33    0.15
  -9  -1   4    0.01    0.24
  -9  -1   4    0.20    0.20
   9   1  -3    0.02    0.16
  -9  -1   3    0.14    0.22
  -9  -1   3    0.23    0.23
   9   1  -2    0.77    0.18
  -9  -1   2    0.97    0.23
  -9  -1   2    0.78    0.17
   9   1  -1   -0.07    0.17
  -9  -1   1   -0.10    0.20
  -9  -1   1   -0.04    0.16
   9   1   0    1.50    0.21
  -9  -1   0    1.28    0.33
  -9  -1   0    1.43    0.19
   9   1   1    2.70    0.35
  -9  -1  -1    2.62    0.34
  -9  -1  -2    0.45    0.21
   9   1   3    4.45    0.41
  -9  -1  -3    4.51    0.28
   9   1   4    0.38    0.22
  -9  -1  -4    0.22    0.23
   9   1   5    1.04    0.24
  -9  -1  -5    0.79    0.37
   9   1   6    0.22    0.23
  -9  -1  -6    0.11    0.23
   9   1   7    0.10    0.23
  -9  -1  -7    0.24    0.23
   9   1   8    0.44    0.23
  -9  -1  -8    0.54    0.23
   9   2  -5    0.55    0.15
  -9  -2   5    1.21    0.29
  -9  -2   5    0.18    0.21
   9   2  -4    0.09    0.13
  -9  -2   4   -0.21    0.23
  -9  -2   4    0.00    0.13
   9   2  -3    0.42    0.25
  -9  -2   3    0.31    0.24
  -9  -2   3    0.53    0.16
   9   2  -2    0.83    0.17
  -9  -2   2    0.60    0.24
  -9  -2   2    0.69    0.17
   9   2  -1    0.25    0.17
  -9  -2   1    0.37    0.20
  -9  -2   1    0.40    0.17
   9   2   0    0.34    0.18
  -9  -2   0   -0.08    0.30
  -9  -2   0    0.36    0.17
   9   2   1   -0.14    0.18
  -9  -2  -1   -0.02    0.17
   9   2   2    1.59    0.21
  -9  -2  -2    1.97    0.35
   9   2   3    3.14    0.25
  -9  -2  -3    3.42    0.26
   9   2   4    0.30    0.21
  -9  -2  -4   -0.07    0.21
   9   2   5    0.80    0.36
  -9  -2  -5    1.25    0.36
   9   2   6    5.87    0.30
  -9  -2  -6    5.90    0.46
   9   2   7    4.29    0.28
  -9  -2  -7    4.16    0.30
   9   2   8   -0.01    0.22
  -9  -2  -8    0.57    0.23
   9   2   9   -0.05    0.21
  -9  -2  -9   -0.02    0.37
   9   3  -5    0.42    0.13
  -9  -3   5    0.52    0.43
  -9  -3   5    0.15    0.15
   9   3  -4    0.44    0.15
  -9  -3   4    1.16    0.40
   9   3  -3    1.76    0.17
  -9  -3   3    1.66    0.26
  -9  -3   3    1.67    0.19
   9   3  -2    4.13    0.31
  -9  -3   2    4.59    0.29
  -9  -3   2    4.19    0.23
   9   3  -1   -0.10    0.16
  -9  -3   1    0.17    0.20
  -9  -3   1   -0.18    0.17
   9   3   0    0.44    0.18
  -9  -3   0    0.24    0.20
  -9  -3   0    0.57    0.28
   9   3   1    0.26    0.18
  -9  -3  -1    0.51    0.18
   9   3   2    1.64    0.21
  -9  -3  -2    1.63    0.23
   9   3   3    5.72    0.27
  -9  -3  -3    5.55    0.30
   9   3   4    1.07    0.22
  -9  -3  -4    0.57    0.38
   9   3   5    1.73    0.23
  -9  -3  -5    1.52    0.39
   9   3   6    0.15    0.32
  -9  -3  -6    0.38    0.23
   9   3   7    2.97    0.26
  -9  -3  -7    3.14    0.28
   9   3   8    3.80    0.39
  -9  -3  -8    3.57    0.29
   9   3   9    0.46    0.22
  -9  -3  -9    0.22    0.39
   9   4  -5    0.17    0.20
  -9  -4   5    0.16    0.27
  -9  -4   5    0.06    0.16
   9   4  -4    1.34    0.23
  -9  -4   4    1.00    0.27
   9   4  -3    0.43    0.16
  -9  -4   3    0.28    0.37
  -9  -4   3    0.69    0.18
   9   4  -2    0.13    0.15
  -9  -4   2    0.10    0.22
  -9  -4   2    0.59    0.26
   9   4  -1    0.15    0.16
  -9  -4   1    0.37    0.20
  -9  -4   1    0.05    0.18
   9   4   0    1.43    0.28
  -9  -4   0    1.45    0.21
  -9  -4   0    1.05    0.20
   9   4   1    2.16    0.21
  -9  -4  -1    2.65    0.22
  -9  -4  -1    3.12    0.35
   9   4   2    0.02    0.19
  -9  -4  -2    0.46    0.21
   9   4   3   -0.54    0.30
  -9  -4  -3    0.71    0.23
   9   4   4    3.81    0.25
  -9  -4  -4    3.96    0.30
   9   4   5    1.41    0.22
  -9  -4  -5    1.51    0.26
   9   4   6   -0.10    0.19
  -9  -4  -6    0.33    0.23
   9   4   7    1.70    0.24
  -9  -4  -7    2.20    0.27
   9   4   8    0.14    0.20
  -9  -4  -8    0.11    0.24
   9   4   9    0.36    0.21
  -9  -4  -9    0.12    0.25
   9   4  10    1.58    0.36
  -9  -4 -10    1.46    0.27
   9   5  -4    0.16    0.14
  -9  -5   4    0.26    0.24
  -9  -5   4    0.27    0.17
   9   5  -3   -0.05    0.22
  -9  -5   3    0.38    0.23
  -9  -5   3    0.33    0.18
   9   5  -2   -0.04    0.15
  -9  -5   2   -0.01    0.21
  -9  -5   2    0.16    0.18
   9   5  -1    1.52    0.28
  -9  -5   1    1.25    0.36
  -9  -5   1    1.14    0.22
   9   5   0    2.63    0.20
  -9  -5   0    2.67    0.23
   9   5   1    5.06    0.25
  -9  -5  -1    4.91    0.25
  -9  -5  -1    5.00    0.28
   9   5   2    1.00    0.20
  -9  -5  -2    1.23    0.23
   9   5   3    0.02    0.19
  -9  -5  -3    0.19    0.23
   9   5   4    3.14    0.24
  -9  -5  -4    3.06    0.28
   9   5   5    0.47    0.32
  -9  -5  -5    0.20    0.25
   9   5   6   -0.45    0.21
  -9  -5  -6   -0.28    0.25
   9   5   7    2.16    0.23
  -9  -5  -7    1.24    0.28
   9   5   8    0.38    0.20
  -9  -5  -8   -0.04    0.40
   9   5   9   -0.42    0.31
  -9  -5  -9    0.44    0.25
   9   5  10    0.15    0.20
  -9  -5 -10    0.22    0.26
   9   6  -4    0.77    0.16
  -9  -6   4    0.88    0.26
  -9  -6   4    0.11    0.19
   9   6  -3    0.41    0.16
  -9  -6   3    0.49    0.37
  -9  -6   3    0.19    0.27
   9   6  -2    0.31    0.16
  -9  -6   2    0.34    0.21
  -9  -6   2    0.26    0.32
   9   6  -1    0.03    0.16
  -9  -6   1   -0.05    0.19
  -9  -6   1    0.05    0.20
   9   6   0    1.03    0.20
  -9  -6   0    1.31    0.22
  -9  -6   0    2.07    0.23
   9   6   1    5.11    0.26
  -9  -6  -1    5.71    0.36
  -9  -6  -1    5.89    0.43
   9   6   2    5.10    0.26
  -9  -6  -2    5.35    0.32
   9   6   3    1.67    0.22
  -9  -6  -3    2.24    0.28
   9   6   4    2.12    0.23
  -9  -6  -4    1.65    0.47
   9   6   5    0.29    0.31
  -9  -6  -5   -0.20    0.41
   9   6   6    0.08    0.20
  -9  -6  -6   -0.09    0.39
   9   6   7    2.29    0.23
   9   6   8    0.81    0.22
  -9  -6  -8    0.73    0.28
   9   6   9    0.60    0.21
  -9  -6  -9    0.38    0.28
   9   6  10    0.82    0.22
  -9  -6 -10    1.42    0.29
   9   7  -3   -0.02    0.16
  -9  -7   3    0.17    0.22
  -9  -7   3    0.19    0.20
   9   7  -2    0.41    0.26
  -9  -7   2    0.63    0.21
  -9  -7   2    0.23    0.22
   9   7  -1    0.26    0.18
  -9  -7   1    0.06    0.20
  -9  -7   1    0.21    0.22
   9   7   0    4.66    0.26
  -9  -7   0    5.29    0.38
  -9  -7   0    4.75    0.43
   9   7   1   12.67    0.36
  -9  -7  -1   12.36    0.35
  -9  -7  -1   12.92    0.42
   9   7   2    0.61    0.21
  -9  -7  -2    0.21    0.18
  -9  -7  -2    0.42    0.40
   9   7   3    0.27    0.22
  -9  -7  -3    0.93    0.28
   9   7   4    1.47    0.23
  -9  -7  -4    1.66    0.29
   9   7   5    4.70    0.28
  -9  -7  -5    5.13    0.37
   9   7   6    6.21    0.30
  -9  -7  -6    5.68    0.38
   9   7   7    0.28    0.21
  -9  -7  -7    0.19    0.29
   9   7   8    0.70    0.22
  -9  -7  -8    0.99    0.31
   9   7   9    1.99    0.24
  -9  -7  -9    2.26    0.33
   9   8  -2    0.09    0.18
  -9  -8   2    0.26    0.20
  -9  -8   2    0.10    0.38
   9   8  -1    0.96    0.21
  -9  -8   1    0.80    0.32
  -9  -8   1    0.88    0.27
   9   8   0    0.20    0.21
  -9  -8   0    0.21    0.18
  -9  -8   0    0.07    0.25
   9   8   1    0.52    0.22
  -9  -8  -1    0.50    0.19
  -9  -8  -1    0.52    0.27
   9   8   2    0.24    0.21
  -9  -8  -2    0.01    0.25
  -9  -8  -2   -0.42    0.26
   9   8   3    0.25    0.23
  -9  -8  -3    0.62    0.45
   9   8   4    0.25    0.25
  -9  -8  -4    0.67    0.32
   9   8   5   -0.05    0.24
  -9  -8  -5   -0.60    0.31
   9   8   6   -0.34    0.23
  -9  -8  -6    0.19    0.31
   9   8   7    0.16    0.23
  -9  -8  -7    0.56    0.31
   9   8   8    0.07    0.35
  -9  -8  -8   -0.29    0.31
   9   8   9    0.38    0.22
  -9  -8  -9   -0.23    0.31
   9   9  -1    0.94    0.35
  -9  -9   1    0.88    0.30
  -9  -9   1    0.13    0.29
   9   9   0   -0.33    0.22
  -9  -9   0    0.29    0.18
  -9  -9   0    0.11    0.27
   9   9   1    2.48    0.27
  -9  -9  -1    3.09    0.21
  -9  -9  -1    2.67    0.33
   9   9   2    5.21    0.32
  -9  -9  -2    5.39    0.34
  -9  -9  -2    5.04    0.38
   9   9   3    0.68    0.26
  -9  -9  -3    0.78    0.16
  -9  -9  -3    1.33    0.34
   9   9   4    1.49    0.27
  -9  -9  -4    1.05    0.58
   9   9   5   -0.04    0.40
  -9  -9  -5    0.35    0.35
   9   9   6    0.50    0.26
  -9  -9  -6    0.55    0.35
   9   9   7   -0.10    0.25
  -9  -9  -7    0.04    0.34
   9   9   8   -0.11    0.23
  -9  -9  -8    0.20    0.31
   9  10   1    1.33    0.41
  -9 -10  -1    1.07    0.18
  -9 -10  -1    0.55    0.33
   9  10   2    2.22    0.46
  -9 -10  -2    2.42    0.29
  -9 -10  -2    1.99    0.55
   9  10   3   -0.36    0.41
  -9 -10  -3    0.36    0.16
  -9 -10  -3    0.31    0.35
   9  10   4    1.32    0.28
  -9 -10  -4    1.20    0.40
   9  10   5   -0.22    0.29
  -9 -10  -5   -0.40    0.39
   9  10   6    2.01    0.31
  -9 -10  -6    3.12    0.63
   9  10   7    0.62    0.44
  -9 -10  -7    0.45    0.60
  10  -1  -1    6.79    0.36
 -10   1   1    7.23    0.47
 -10   1   1    7.38    0.33
  10  -1   0    0.26    0.24
 -10   1   0   -0.26    0.35
 -10   1   0    0.28    0.32
  10  -1   1    0.29    0.25
 -10   1  -1    0.56    0.21
 -10   1  -1    0.44    0.23
  10  -1   2    0.30    0.26
 -10   1  -2   -0.08    0.23
  10  -1   3    1.34    0.30
 -10   1  -3    1.37    0.28
  10   0  -2    0.04    0.20
 -10   0   2    0.30    0.24
 -10   0   2   -0.04    0.18
  10   0  -1    0.30    0.22
 -10   0   1    0.34    0.22
 -10   0   1   -0.03    0.19
  10   0   0    0.05    0.23
 -10   0   0    0.16    0.22
 -10   0   0    0.20    0.19
  10   0   1    0.70    0.38
 -10   0  -1    0.44    0.22
 -10   0  -1    0.63    0.21
  10   0   2    0.81    0.38
 -10   0  -2    0.30    0.24
  10   0   3   -0.27    0.41
 -10   0  -3   -0.20    0.26
  10   0   4    0.98    0.43
 -10   0  -4    1.02    0.28
  10   0   5    0.16    0.27
 -10   0  -5    0.23    0.26
  10   1  -3    0.15    0.18
 -10  -1   3   -0.14    0.25
 -10  -1   3    0.17    0.15
  10   1  -2   -0.02    0.19
 -10  -1   2   -0.12    0.24
 -10  -1   2    0.20    0.18
  10   1  -1    0.05    0.20
 -10  -1   1    0.27    0.22
 -10  -1   1    0.02    0.18
  10   1   0    1.35    0.36
 -10  -1   0    1.33    0.24
 -10  -1   0    1.47    0.22
  10   1   1    0.09    0.22
 -10  -1  -1    0.20    0.21
 -10  -1  -1    0.00    0.20
  10   1   2    0.59    0.24
 -10  -1  -2    0.48    0.22
  10   1   3    0.10    0.24
 -10  -1  -3    0.36    0.24
  10   1   4    1.23    0.29
 -10  -1  -4    1.67    0.28
  10   1   5    1.32    0.42
 -10  -1  -5    1.39    0.29
  10   1   6    0.74    0.27
 -10  -1  -6    0.93    0.28
  10   2  -3    0.11    0.27
 -10  -2   3    0.13    0.25
 -10  -2   3    0.02    0.15
  10   2  -2    0.02    0.18
 -10  -2   2    0.66    0.24
 -10  -2   2    0.58    0.29
  10   2  -1   -0.02    0.29
 -10  -2   1   -0.01    0.23
 -10  -2   1   -0.13    0.18
  10   2   0    0.36    0.20
 -10  -2   0    0.16    0.22
 -10  -2   0    0.22    0.29
  10   2   1    0.88    0.22
 -10  -2  -1    1.10    0.23
 -10  -2  -1    0.76    0.21
  10   2   2    0.83    0.23
 -10  -2  -2    0.61    0.23
  10   2   3    0.62    0.24
 -10  -2  -3    0.85    0.26
  10   2   4    0.25    0.24
 -10  -2  -4    0.23    0.26
  10   2   5    1.46    0.27
 -10  -2  -5    1.27    0.28
  10   2   6    3.19    0.45
 -10  -2  -6    3.04    0.31
  10   2   7    0.51    0.25
 -10  -2  -7    0.43    0.27
  10   3  -3    0.83    0.18
 -10  -3   3    1.22    0.43
  10   3  -2    2.13    0.32
 -10  -3   2    1.73    0.28
 -10  -3   2    1.75    0.22
  10   3  -1    1.63    0.21
 -10  -3   1    1.87    0.26
 -10  -3   1    1.79    0.22
  10   3   0   -0.03    0.18
 -10  -3   0   -0.16    0.22
 -10  -3   0    0.14    0.18
  10   3   1    0.72    0.21
 -10  -3  -1    0.11    0.21
 -10  -3  -1    0.28    0.21
  10   3   2    0.27    0.22
 -10  -3  -2    0.35    0.22
  10   3   3    1.46    0.24
 -10  -3  -3    1.58    0.26
  10   3   4    0.39    0.22
 -10  -3  -4    0.20    0.25
  10   3   5    4.13    0.30
 -10  -3  -5    4.23    0.31
  10   3   6    3.05    0.27
 -10  -3  -6    2.61    0.31
  10   3   7    0.58    0.25
 -10  -3  -7    0.48    0.27
  10   3   8    1.29    0.26
 -10  -3  -8    0.66    0.29
  10   4  -3    0.20    0.16
 -10  -4   3    0.33    0.26
 -10  -4   3    0.13    0.17
  10   4  -2    0.29    0.18
 -10  -4   2    0.85    0.40
 -10  -4   2    0.61    0.19
  10   4  -1    0.75    0.20
 -10  -4   1    1.10    0.39
 -10  -4   1    1.26    0.32
  10   4   0    0.15    0.19
 -10  -4   0    0.45    0.22
 -10  -4   0    0.07    0.21
  10   4   1    1.15    0.35
 -10  -4  -1    1.41    0.23
 -10  -4  -1    0.62    0.34
  10   4   2    0.78    0.34
 -10  -4  -2    1.31    0.24
  10   4   3    0.46    0.32
 -10  -4  -3   -0.18    0.24
  10   4   4    0.42    0.35
 -10  -4  -4   -0.06    0.26
  10   4   5    0.91    0.25
 -10  -4  -5    1.36    0.28
  10   4   6    0.96    0.24
 -10  -4  -6    0.66    0.28
  10   4   7    0.26    0.36
 -10  -4  -7   -0.07    0.27
  10   4   8    0.07    0.23
 -10  -4  -8    0.17    0.27
  10   5  -3    0.15    0.17
 -10  -5   3    0.57    0.25
 -10  -5   3    0.09    0.18
  10   5  -2    0.21    0.17
 -10  -5   2    0.00    0.25
 -10  -5   2    0.21    0.20
  10   5  -1    0.31    0.19
 -10  -5   1   -0.07    0.24
 -10  -5   1    0.41    0.21
  10   5   0    0.77    0.30
 -10  -5   0    0.72    0.36
 -10  -5   0    0.51    0.22
  10   5   1    2.50    0.24
 -10  -5  -1    2.85    0.24
 -10  -5  -1    2.47    0.26
  10   5   2    0.66    0.22
 -10  -5  -2    1.20    0.37
  10   5   3    0.19    0.22
 -10  -5  -3    1.22    0.26
  10   5   4    1.77    0.24
 -10  -5  -4    1.84    0.30
  10   5   5    0.05    0.36
 -10  -5  -5    0.46    0.27
  10   5   6    1.79    0.25
 -10  -5  -6    1.36    0.31
  10   5   7    1.35    0.26
 -10  -5  -7    1.63    0.31
  10   5   8    1.31    0.25
 -10  -5  -8    1.20    0.30
  10   6  -2    0.08    0.18
 -10  -6   2    0.16    0.24
 -10  -6   2    0.37    0.20
  10   6  -1    0.62    0.30
 -10  -6   1    0.49    0.24
 -10  -6   1    0.78    0.23
  10   6   0    0.73    0.20
 -10  -6   0    0.47    0.23
 -10  -6   0    1.08    0.24
  10   6   1    3.28    0.25
 -10  -6  -1    3.87    0.26
 -10  -6  -1    3.84    0.29
  10   6   2    9.68    0.35
 -10  -6  -2    9.70    0.33
 -10  -6  -2   10.11    0.40
  10   6   3   -0.02    0.21
  10   6   4    1.51    0.25
 -10  -6  -4    1.55    0.29
  10   6   5    1.02    0.37
 -10  -6  -5    0.82    0.29
  10   6   6    0.04    0.23
 -10  -6  -6    0.36    0.28
  10   6   7    2.04    0.27
 -10  -6  -7    2.15    0.33
  10   6   8   -0.16    0.37
 -10  -6  -8    0.69    0.30
  10   7  -1    0.20    0.29
 -10  -7   1    0.34    0.23
 -10  -7   1    0.36    0.24
  10   7   0    1.85    0.24
 -10  -7   0    1.74    0.38
 -10  -7   0    1.83    0.29
  10   7   1    0.15    0.22
 -10  -7  -1    0.51    0.21
 -10  -7  -1    0.53    0.40
  10   7   2    0.40    0.22
 -10  -7  -2    0.27    0.20
 -10  -7  -2    0.46    0.27
  10   7   3    1.42    0.24
 -10  -7  -3    1.30    0.30
  10   7   4    0.27    0.24
 -10  -7  -4    1.11    0.49
  10   7   5    0.74    0.38
 -10  -7  -5    0.05    0.32
  10   7   6   -0.02    0.23
 -10  -7  -6   -0.01    0.31
  10   7   7    0.46    0.24
 -10  -7  -7   -0.10    0.32
  10   7   8    0.68    0.38
 -10  -7  -8    0.82    0.49
  10   8   0    7.05    0.45
 -10  -8   0    6.93    0.33
 -10  -8   0    7.65    0.52
  10   8   1    0.14    0.22
 -10  -8  -1   -0.13    0.20
 -10  -8  -1   -0.04    0.26
  10   8   2    0.71    0.24
 -10  -8  -2    0.63    0.20
 -10  -8  -2    0.62    0.30
  10   8   3    0.01    0.24
 -10  -8  -3    0.43    0.30
  10   8   4    0.63    0.26
 -10  -8  -4    0.60    0.34
  10   8   5    0.53    0.42
 -10  -8  -5    1.11    0.37
  10   8   6    0.40    0.24
 -10  -8  -6   -0.04    0.55
  10   8   7    0.77    0.25
 -10  -8  -7   -0.26    0.54
  10   8   8    0.89    0.40
 -10  -8  -8    0.35    0.36
  10   9   1    0.33    0.38
 -10  -9  -1    0.16    0.20
 -10  -9  -1    0.09    0.30
  10   9   2    1.02    0.26
 -10  -9  -2    0.85    0.32
 -10  -9  -2    1.42    0.33
  10   9   3    1.09    0.42
 -10  -9  -3    0.66    0.18
 -10  -9  -3    0.34    0.33
  10   9   4    0.56    0.42
 -10  -9  -4    0.95    0.37
  10   9   5    0.28    0.25
 -10  -9  -5   -0.49    0.37
  10   9   6   -0.27    0.28
 -10  -9  -6   -0.32    0.37
  10   9   7    0.18    0.26
 -10  -9  -7   -0.36    0.35
  11   1   2    0.26    0.26
 -11  -1  -2   -0.02    0.24
 -11  -1  -2    0.15    0.24
  11   2   0    0.40    0.23
 -11  -2   0    0.09    0.40
 -11  -2   0    0.25    0.22
  11   2   1    0.07    0.23
 -11  -2  -1   -0.33    0.38
 -11  -2  -1    0.42    0.34
  11   2   2    2.48    0.29
 -11  -2  -2    2.20    0.29
  11   2   3    0.10    0.25
 -11  -2  -3    0.12    0.25
  11   2   4   -0.13    0.25
 -11  -2  -4    0.13    0.27
  11   3  -1    0.08    0.22
 -11  -3   1    0.98    0.27
 -11  -3   1    0.51    0.32
  11   3   0    0.48    0.22
 -11  -3   0    0.21    0.42
 -11  -3   0    0.36    0.22
  11   3   1    0.09    0.21
 -11  -3  -1    0.07    0.36
 -11  -3  -1   -0.27    0.34
  11   3   2    0.23    0.37
 -11  -3  -2   -0.03    0.23
  11   3   3    0.41    0.41
 -11  -3  -3    0.89    0.28
  11   3   4    0.32    0.26
 -11  -3  -4    0.80    0.30
  11   3   5    0.56    0.27
 -11  -3  -5   -0.04    0.30
  11   4  -1    0.39    0.21
 -11  -4   1    0.58    0.28
 -11  -4   1    0.62    0.23
  11   4   0    1.02    0.24
 -11  -4   0    1.30    0.27
 -11  -4   0    0.64    0.24
  11   4   1    0.21    0.35
 -11  -4  -1   -0.14    0.24
 -11  -4  -1   -0.13    0.22
  11   4   2    0.77    0.24
 -11  -4  -2   -0.39    0.26
 -11  -4  -2    0.50    0.24
  11   4   3    0.21    0.25
 -11  -4  -3    0.54    0.27
  11   4   4    0.46    0.41
 -11  -4  -4    0.79    0.30
  11   4   5    3.58    0.33
 -11  -4  -5    3.07    0.37
  11   4   6    0.52    0.27
 -11  -4  -6    0.52    0.31
  11   5   0    1.83    0.39
 -11  -5   0    2.37    0.30
 -11  -5   0    2.24    0.27
  11   5   1   -0.11    0.22
 -11  -5  -1    0.32    0.23
 -11  -5  -1    0.34    0.25
  11   5   2    0.40    0.25
 -11  -5  -2    0.65    0.24
 -11  -5  -2    0.82    0.39
  11   5   3    0.05    0.23
 -11  -5  -3   -0.17    0.27
  11   5   4   -0.26    0.25
 -11  -5  -4    0.07    0.29
  11   5   5    1.27    0.43
 -11  -5  -5    1.36    0.34
  11   5   6   -0.46    0.25
 -11  -5  -6    0.52    0.30
  11   6   0    1.79    0.37
 -11  -6   0    1.60    0.28
 -11  -6   0    2.16    0.42
  11   6   1    2.06    0.27
 -11  -6  -1    2.17    0.27
 -11  -6  -1    2.69    0.30
  11   6   2    0.32    0.22
 -11  -6  -2    0.07    0.23
 -11  -6  -2   -0.46    0.27
  11   6   3    1.67    0.26
 -11  -6  -3    1.45    0.31
  11   6   4    0.90    0.27
 -11  -6  -4    1.17    0.32
  11   6   5    1.14    0.42
 -11  -6  -5    0.68    0.34
  11   6   6   -0.17    0.26
 -11  -6  -6    0.09    0.31
  11   7   1    1.98    0.26
 -11  -7  -1    2.12    0.27
 -11  -7  -1    2.25    0.31
  11   7   2    2.93    0.28
 -11  -7  -2    2.70    0.39
 -11  -7  -2    2.40    0.33
  11   7   3   -0.01    0.24
 -11  -7  -3    1.06    0.48
  11   7   4   -0.01    0.25
 -11  -7  -4    0.09    0.32
 -11  -7  -5    1.27    0.35
  11   7   6    0.59    0.28
 -11  -7  -6    0.87    0.36
  11   8   3    0.09    0.26
 -11  -8  -3    0.32    0.21
 -11  -8  -3    0.85    0.33
  11   8   4   -0.45    0.42
 -11  -8  -4   -0.46    0.54
  11   8   5    0.41    0.26
 -11  -8  -5   -0.13    0.37
   0   0   0    0.00    0.00
;
_shelx_hkl_checksum              26814
loop_
_space_group_symop_operation_xyz
'x, y, z'
'-x, -y, -z'
loop_
_atom_site_label
_atom_site_type_symbol
_atom_site_fract_x
_atom_site_fract_y
_atom_site_fract_z
_atom_site_U_iso_or_equiv
_atom_site_adp_type
_atom_site_occupancy
_atom_site_site_symmetry_order
_atom_site_calc_flag
_atom_site_refinement_flags_posn
_atom_site_refinement_flags_adp
C1 C 0.1585(3) 1.0869(3) 0.5350(2) 0.0324(5) Uani 1 1 d . .
C2 C 0.2746(3) 1.1471(3) 0.5568(2) 0.0306(5) Uani 1 1 d . .
C3 C 0.2886(3) 1.2908(3) 0.4700(2) 0.0361(5) Uani 1 1 d . .
H3 H 0.2171 1.3531 0.3997 0.043 Uiso 1 1 calc R U
C4 C 0.4056(3) 1.3409(3) 0.4871(3) 0.0409(6) Uani 1 1 d . .
H4 H 0.4158 1.4379 0.4284 0.049 Uiso 1 1 calc R U
C5 C 0.5098(3) 1.2493(3) 0.5909(3) 0.0402(6) Uani 1 1 d . .
H5 H 0.5917 1.2840 0.6012 0.048 Uiso 1 1 calc R U
C6 C 0.4958(3) 1.1094(3) 0.6785(3) 0.0355(5) Uani 1 1 d . .
H6 H 0.5667 1.0493 0.7496 0.043 Uiso 1 1 calc R U
C7 C 0.3771(3) 1.0555(3) 0.6629(2) 0.0308(5) Uani 1 1 d . .
C8 C 0.2612(3) 0.8623(3) 0.7315(2) 0.0293(5) Uani 1 1 d . .
C9 C 0.2486(3) 0.7062(3) 0.8176(2) 0.0291(5) Uani 1 1 d . .
C10 C 0.2747(3) 0.6445(3) 0.9632(2) 0.0317(5) Uani 1 1 d . .
C11 C 0.2677(3) 0.4946(3) 1.0314(3) 0.0359(5) Uani 1 1 d . .
H11 H 0.2880 0.4524 1.1286 0.043 Uiso 1 1 calc R U
C12 C 0.2322(3) 0.4039(3) 0.9639(3) 0.0345(5) Uani 1 1 d . .
C13 C 0.2045(3) 0.4671(3) 0.8217(3) 0.0344(5) Uani 1 1 d . .
H13 H 0.1782 0.4086 0.7729 0.041 Uiso 1 1 calc R U
C14 C 0.2145(3) 0.6144(3) 0.7498(2) 0.0324(5) Uani 1 1 d . .
H14 H 0.1976 0.6539 0.6516 0.039 Uiso 1 1 calc R U
C15 C 0.2253(4) 0.2419(3) 1.0431(3) 0.0476(7) Uani 1 1 d . .
H15A H 0.3227 0.1598 1.0081 0.071 Uiso 1 1 calc R U
H15B H 0.1266 0.2324 1.0261 0.071 Uiso 1 1 calc R U
H15C H 0.2220 0.2283 1.1465 0.071 Uiso 1 1 calc R U
C16 C 0.3020(3) 0.7366(3) 1.0516(3) 0.0408(6) Uani 1 1 d . .
H16A H 0.4015 0.6697 1.0984 0.049 Uiso 1 1 calc R U
H16B H 0.3226 0.8317 0.9862 0.049 Uiso 1 1 calc R U
C17 C 0.1634(3) 0.7875(3) 1.1631(3) 0.0431(6) Uani 1 1 d . .
F1 F 0.1810(2) 0.8883(2) 1.22455(17) 0.0534(4) Uani 1 1 d . .
F2 F 0.1434(4) 0.6699(3) 1.2711(2) 0.1072(10) Uani 1 1 d . .
F3 F 0.0216(2) 0.8601(3) 1.1149(3) 0.1149(11) Uani 1 1 d . .
N1 N 0.1582(2) 0.9447(2) 0.62815(19) 0.0307(4) Uani 1 1 d . .
H1 H 0.0880 0.9042 0.6210 0.037 Uiso 1 1 calc R U
N2 N 0.3687(2) 0.9113(2) 0.7514(2) 0.0312(4) Uani 1 1 d . .
O1 O 0.0661(2) 1.1542(2) 0.44189(18) 0.0426(5) Uani 1 1 d . .
loop_
_atom_site_aniso_label
_atom_site_aniso_U_11
_atom_site_aniso_U_22
_atom_site_aniso_U_33
_atom_site_aniso_U_23
_atom_site_aniso_U_13
_atom_site_aniso_U_12
C1 0.0372(13) 0.0324(12) 0.0310(12) -0.0053(9) -0.0039(10) -0.0174(10)
C2 0.0353(12) 0.0306(12) 0.0287(11) -0.0075(9) -0.0002(9) -0.0162(10)
C3 0.0472(14) 0.0352(13) 0.0306(12) -0.0037(10) -0.0058(10) -0.0219(11)
C4 0.0555(16) 0.0374(14) 0.0367(13) -0.0051(10) -0.0017(11) -0.0286(12)
C5 0.0426(14) 0.0420(15) 0.0476(15) -0.0111(11) -0.0035(11) -0.0277(12)
C6 0.0347(12) 0.0362(14) 0.0407(13) -0.0097(10) -0.0066(10) -0.0162(10)
C7 0.0331(12) 0.0305(12) 0.0312(12) -0.0074(9) -0.0011(9) -0.0151(10)
C8 0.0286(11) 0.0290(12) 0.0299(11) -0.0060(9) -0.0024(9) -0.0112(9)
C9 0.0251(11) 0.0287(12) 0.0333(12) -0.0054(9) -0.0031(9) -0.0111(9)
C10 0.0276(11) 0.0375(13) 0.0320(12) -0.0065(9) -0.0029(9) -0.0150(10)
C11 0.0353(12) 0.0387(14) 0.0300(12) -0.0018(10) -0.0044(9) -0.0138(11)
C12 0.0285(11) 0.0289(12) 0.0417(13) -0.0017(10) -0.0039(10) -0.0107(10)
C13 0.0344(12) 0.0298(13) 0.0404(13) -0.0070(10) -0.0070(10) -0.0124(10)
C14 0.0350(12) 0.0315(13) 0.0317(12) -0.0061(9) -0.0054(9) -0.0132(10)
C15 0.0550(17) 0.0357(15) 0.0498(16) 0.0027(11) -0.0099(13) -0.0210(13)
C16 0.0430(14) 0.0537(16) 0.0355(13) -0.0111(11) -0.0025(10) -0.0279(13)
C17 0.0397(14) 0.0431(15) 0.0527(16) -0.0165(12) -0.0065(12) -0.0168(12)
F1 0.0569(10) 0.0621(11) 0.0559(10) -0.0284(8) -0.0045(8) -0.0270(8)
F2 0.174(3) 0.0825(15) 0.0701(14) -0.0340(12) 0.0596(15) -0.0810(17)
F3 0.0496(12) 0.143(2) 0.176(3) -0.120(2) -0.0448(14) 0.0187(13)
N1 0.0339(10) 0.0302(10) 0.0326(10) -0.0027(8) -0.0080(8) -0.0173(8)
N2 0.0308(10) 0.0293(10) 0.0349(10) -0.0051(8) -0.0054(8) -0.0131(8)
O1 0.0523(11) 0.0426(10) 0.0406(10) 0.0051(8) -0.0207(8) -0.0272(9)
loop_
_atom_type_symbol
_atom_type_description
_atom_type_scat_dispersion_real
_atom_type_scat_dispersion_imag
_atom_type_scat_source
C C 0.0033 0.0016 'International Tables Vol C Tables 4.2.6.8 and 6.1.1.4'
H H 0.0000 0.0000 'International Tables Vol C Tables 4.2.6.8 and 6.1.1.4'
N N 0.0061 0.0033 'International Tables Vol C Tables 4.2.6.8 and 6.1.1.4'
O O 0.0106 0.0060 'International Tables Vol C Tables 4.2.6.8 and 6.1.1.4'
F F 0.0171 0.0103 'International Tables Vol C Tables 4.2.6.8 and 6.1.1.4'
loop_
_geom_angle_atom_site_label_1
_geom_angle_atom_site_label_2
_geom_angle_atom_site_label_3
_geom_angle
O1 C1 N1 121.4(2)
O1 C1 C2 124.3(2)
N1 C1 C2 114.4(2)
C7 C2 C3 120.8(2)
C7 C2 C1 118.4(2)
C3 C2 C1 120.7(2)
C4 C3 C2 119.7(2)
C3 C4 C5 119.9(2)
C6 C5 C4 121.1(2)
C5 C6 C7 120.1(2)
N2 C7 C2 123.0(2)
N2 C7 C6 118.6(2)
C2 C7 C6 118.4(2)
N2 C8 N1 123.1(2)
N2 C8 C9 120.6(2)
N1 C8 C9 116.18(19)
C14 C9 C10 118.2(2)
C14 C9 C8 118.5(2)
C10 C9 C8 123.3(2)
C11 C10 C9 118.7(2)
C11 C10 C16 118.0(2)
C9 C10 C16 123.3(2)
C12 C11 C10 123.0(2)
C13 C12 C11 117.6(2)
C13 C12 C15 121.5(2)
C11 C12 C15 120.9(2)
C14 C13 C12 120.7(2)
C13 C14 C9 121.8(2)
C17 C16 C10 113.8(2)
F3 C17 F2 105.0(3)
F3 C17 F1 106.0(2)
F2 C17 F1 105.1(2)
F3 C17 C16 113.7(2)
F2 C17 C16 114.1(2)
F1 C17 C16 112.2(2)
C8 N1 C1 123.90(19)
C8 N2 C7 117.2(2)
loop_
_geom_bond_atom_site_label_1
_geom_bond_atom_site_label_2
_geom_bond_distance
C1 O1 1.233(3)
C1 N1 1.379(3)
C1 C2 1.449(3)
C2 C7 1.401(3)
C2 C3 1.403(3)
C3 C4 1.369(3)
C4 C5 1.394(4)
C5 C6 1.377(3)
C6 C7 1.402(3)
C7 N2 1.397(3)
C8 N2 1.294(3)
C8 N1 1.376(3)
C8 C9 1.495(3)
C9 C14 1.391(3)
C9 C10 1.413(3)
C10 C11 1.390(3)
C10 C16 1.513(3)
C11 C12 1.388(3)
C12 C13 1.386(3)
C12 C15 1.511(3)
C13 C14 1.385(3)
C16 C17 1.473(4)
C17 F3 1.309(3)
C17 F2 1.323(3)
C17 F1 1.341(3)
